REMARK  4 active torsions:
REMARK  status: ('A' for Active; 'I' for Inactive)
REMARK    1  A    between atoms: C_7  and  C_1 
REMARK    2  A    between atoms: C_8  and  C_6 
REMARK    3  A    between atoms: C_16  and  C_10 
REMARK    4  A    between atoms: S_22  and  C_13 
ROOT
ATOM      1  C   UNL d   1       2.506   1.656  -0.049  0.00  0.00     0.034 A 
ATOM      2  S   UNL d   1       2.797   2.914   1.062  0.00  0.00    -0.086 SA
ATOM      3  C   UNL d   1       4.236   3.414   0.265  0.00  0.00     0.032 A 
ATOM      4  C   UNL d   1       3.467   1.622  -1.038  0.00  0.00     0.023 A 
ATOM      5  C   UNL d   1       4.451   2.643  -0.865  0.00  0.00     0.023 A 
ENDROOT
BRANCH   1   6
ATOM      6  C   UNL d   1       1.349   0.707   0.050  0.00  0.00     0.067 A 
ATOM      7  C   UNL d   1       0.307   0.752   0.998  0.00  0.00     0.068 A 
ATOM      8  C   UNL d   1      -0.520  -0.319   0.706  0.00  0.00     0.136 A 
ATOM      9  N   UNL d   1       0.077  -0.957  -0.347  0.00  0.00    -0.292 N 
ATOM     10  N   UNL d   1       1.191  -0.327  -0.783  0.00  0.00    -0.297 N 
ATOM     11  C   UNL d   1      -0.262  -2.194  -1.012  0.00  0.00     0.178 C 
ATOM     12  HN  UNL d   1       1.781  -0.583  -1.574  1.00  0.00     0.187 HD
BRANCH   8  13
ATOM     13  C   UNL d   1      -1.770  -0.720   1.381  0.00  0.00     0.434 C 
ATOM     14  F   UNL d   1      -2.412  -1.763   0.806  0.00  0.00    -0.165 F 
ATOM     15  F   UNL d   1      -1.538  -1.070   2.671  0.00  0.00    -0.165 F 
ATOM     16  F   UNL d   1      -2.659   0.306   1.412  0.00  0.00    -0.165 F 
ENDBRANCH   8  13
ENDBRANCH   1   6
BRANCH   3  17
ATOM     17  C   UNL d   1       5.028   4.541   0.780  0.00  0.00     0.052 A 
ATOM     18  N   UNL d   1       5.759   5.185  -0.154  0.00  0.00    -0.336 N 
ATOM     19  C   UNL d   1       6.479   6.240   0.259  0.00  0.00     0.144 A 
ATOM     20  HN  UNL d   1       5.765   4.884  -1.129  1.00  0.00     0.168 HD
ATOM     21  N   UNL d   1       6.533   6.682   1.526  0.00  0.00    -0.347 N 
ATOM     22  C   UNL d   1       5.809   6.002   2.428  0.00  0.00     0.092 A 
ATOM     23  HN  UNL d   1       7.096   7.491   1.789  1.00  0.00     0.167 HD
ATOM     24  C   UNL d   1       5.035   4.914   2.110  0.00  0.00     0.048 A 
BRANCH  19  25
ATOM     25  S   UNL d   1       7.415   7.098  -0.985  0.00  0.00    -0.098 SA
ATOM     26  C   UNL d   1       8.117   8.441   0.006  0.00  0.00     0.099 C 
ENDBRANCH  19  25
ENDBRANCH   3  17
TORSDOF 4
