REMARK  5 active torsions:
REMARK  status: ('A' for Active; 'I' for Inactive)
REMARK    1  A    between atoms: C_2  and  C_1 
REMARK    2  A    between atoms: S_4  and  C_1 
REMARK    3  A    between atoms: C_5  and  C_2 
REMARK    4  A    between atoms: N_7  and  C_3 
REMARK    5  A    between atoms: C_8  and  S_4 
ROOT
ATOM      1  C   UNL d   1       0.927   0.111  -0.011  0.00  0.00     0.071 C 
ATOM      2  C   UNL d   1       0.125  -0.141   1.042  0.00  0.00     0.107 C 
ENDROOT
BRANCH   1   3
ATOM      3  C   UNL d   1       2.438   0.115   0.108  0.00  0.00     0.200 C 
ATOM      4  O   UNL d   1       3.162  -0.060  -0.878  0.00  0.00    -0.286 OA
BRANCH   3   5
ATOM      5  C   UNL d   1       3.138   0.296   1.418  0.00  0.00     0.015 A 
ATOM      6  C   UNL d   1       4.373  -0.354   1.595  0.00  0.00     0.017 A 
ATOM      7  C   UNL d   1       5.092  -0.216   2.787  0.00  0.00     0.025 A 
ATOM      8  C   UNL d   1       4.578   0.572   3.812  0.00  0.00     0.034 A 
ATOM      9  C   UNL d   1       3.367   1.241   3.645  0.00  0.00     0.025 A 
ATOM     10 CL   UNL d   1       5.449   0.735   5.287  0.00  0.00    -0.084 Cl
ATOM     11  C   UNL d   1       2.659   1.124   2.441  0.00  0.00     0.017 A 
ENDBRANCH   3   5
ENDBRANCH   1   3
BRANCH   1  12
ATOM     12  S   UNL d   1       0.336   0.305  -1.641  0.00  0.00    -0.085 SA
BRANCH  12  13
ATOM     13  C   UNL d   1       0.047   2.057  -1.747  0.00  0.00     0.005 A 
ATOM     14  C   UNL d   1       0.683   2.783  -2.762  0.00  0.00     0.020 A 
ATOM     15  C   UNL d   1       0.365   4.126  -2.986  0.00  0.00     0.025 A 
ATOM     16  C   UNL d   1      -0.597   4.749  -2.195  0.00  0.00     0.034 A 
ATOM     17  C   UNL d   1      -1.232   4.043  -1.175  0.00  0.00     0.025 A 
ATOM     18 CL   UNL d   1      -1.023   6.389  -2.493  0.00  0.00    -0.084 Cl
ATOM     19  C   UNL d   1      -0.911   2.700  -0.954  0.00  0.00     0.020 A 
ENDBRANCH  12  13
ENDBRANCH   1  12
BRANCH   2  20
ATOM     20  N   UNL d   1      -1.257  -0.237   1.231  0.00  0.00    -0.397 N 
ATOM     21  C   UNL d   1      -2.212  -0.722   0.235  0.00  0.00     0.148 C 
ATOM     22  C   UNL d   1      -1.861   0.059   2.533  0.00  0.00     0.148 C 
ENDBRANCH   2  20
TORSDOF 5
