REMARK  5 active torsions:
REMARK  status: ('A' for Active; 'I' for Inactive)
REMARK    1  A    between atoms: C_6  and  C_1 
REMARK    2  A    between atoms: C_7  and  C_2 
REMARK    3  A    between atoms: C_10  and  N_3 
REMARK    4  A    between atoms: S_9  and  C_7 
REMARK    5  A    between atoms: C_15  and  S_9 
ROOT
ATOM      1  C   UNL d   1       0.852  -0.565   0.401  0.00  0.00     0.156 C 
ATOM      2  C   UNL d   1      -0.273  -1.186  -0.136  0.00  0.00     0.072 C 
ATOM      3  N   UNL d   1       0.752   0.772   0.074  0.00  0.00    -0.251 N 
ATOM      4  N   UNL d   1      -0.499   1.082  -0.352  0.00  0.00    -0.303 N 
ATOM      5  HN  UNL d   1      -0.909   2.008  -0.473  1.00  0.00     0.186 HD
ATOM      6  C   UNL d   1      -1.067  -0.101  -0.575  0.00  0.00     0.126 C 
ENDROOT
BRANCH   2   7
ATOM      7  C   UNL d   1      -0.573  -2.605  -0.142  0.00  0.00     0.227 C 
ATOM      8  O   UNL d   1      -0.306  -3.336   0.798  0.00  0.00    -0.279 OA
BRANCH   7   9
ATOM      9  S   UNL d   1      -1.279  -3.155  -1.653  0.00  0.00    -0.048 SA
BRANCH   9  10
ATOM     10  C   UNL d   1      -1.730  -4.872  -1.476  0.00  0.00     0.008 A 
ATOM     11  C   UNL d   1      -1.203  -5.769  -0.541  0.00  0.00     0.021 A 
ATOM     12  C   UNL d   1      -1.626  -7.105  -0.501  0.00  0.00     0.025 A 
ATOM     13  C   UNL d   1      -2.562  -7.566  -1.419  0.00  0.00     0.034 A 
ATOM     14  C   UNL d   1      -3.077  -6.703  -2.380  0.00  0.00     0.025 A 
ATOM     15 CL   UNL d   1      -3.075  -9.207  -1.373  0.00  0.00    -0.084 Cl
ATOM     16  C   UNL d   1      -2.663  -5.366  -2.405  0.00  0.00     0.021 A 
ENDBRANCH   9  10
ENDBRANCH   7   9
ENDBRANCH   2   7
BRANCH   1  17
ATOM     17  C   UNL d   1       1.977  -1.065   1.211  0.00  0.00     0.435 C 
ATOM     18  F   UNL d   1       1.697  -2.215   1.864  0.00  0.00    -0.165 F 
ATOM     19  F   UNL d   1       3.071  -1.317   0.451  0.00  0.00    -0.165 F 
ATOM     20  F   UNL d   1       2.348  -0.179   2.170  0.00  0.00    -0.165 F 
ENDBRANCH   1  17
BRANCH   3  21
ATOM     21  C   UNL d   1       1.760   1.768   0.068  0.00  0.00     0.057 A 
ATOM     22  C   UNL d   1       3.041   1.470  -0.415  0.00  0.00     0.031 A 
ATOM     23  C   UNL d   1       4.034   2.449  -0.400  0.00  0.00     0.002 A 
ATOM     24  C   UNL d   1       3.754   3.717   0.105  0.00  0.00     0.000 A 
ATOM     25  C   UNL d   1       2.469   4.023   0.558  0.00  0.00     0.002 A 
ATOM     26  C   UNL d   1       1.460   3.058   0.517  0.00  0.00     0.031 A 
ENDBRANCH   3  21
TORSDOF 5
