REMARK  2 active torsions:
REMARK  status: ('A' for Active; 'I' for Inactive)
REMARK    1  A    between atoms: N_2  and  C_1 
REMARK       I    between atoms: C_3  and  N_2 
REMARK       I    between atoms: N_7  and  C_3 
REMARK    2  A    between atoms: C_10  and  N_7 
ROOT
ATOM      1  N   UNL d   1      -1.512   2.245  -0.123  0.00  0.00    -0.303 N 
ATOM      2  C   UNL d   1      -2.875   2.204  -0.147  0.00  0.00     0.325 C 
ATOM      3  N   UNL d   1      -3.494   0.995  -0.059  0.00  0.00    -0.309 N 
ATOM      4  O   UNL d   1      -3.447   3.290  -0.273  0.00  0.00    -0.247 OA
ATOM      5  H   UNL d   1      -1.189   3.197  -0.246  0.00  0.00     0.171 HD
ATOM      6  H   UNL d   1      -2.894   0.223   0.196  0.00  0.00     0.170 HD
ENDROOT
BRANCH   1   7
ATOM      7  C   UNL d   1      -0.528   1.292   0.025  0.00  0.00     0.078 A 
ATOM      8  S   UNL d   1      -0.842  -0.344   0.327  0.00  0.00    -0.084 SA
ATOM      9  C   UNL d   1       0.823  -0.713   0.451  0.00  0.00     0.058 A 
ATOM     10  C   UNL d   1       1.626   0.391   0.243  0.00  0.00    -0.053 A 
ATOM     11  C   UNL d   1       0.825   1.549  -0.027  0.00  0.00     0.044 A 
ATOM     12  C   UNL d   1       3.115   0.395   0.314  0.00  0.00     0.049 C 
ENDBRANCH   1   7
BRANCH   3  13
ATOM     13  C   UNL d   1      -4.859   0.703  -0.264  0.00  0.00     0.036 A 
ATOM     14  C   UNL d   1      -5.793   1.643  -0.713  0.00  0.00     0.032 A 
ATOM     15  C   UNL d   1      -7.115   1.267  -0.967  0.00  0.00     0.044 A 
ATOM     16  C   UNL d   1      -7.505  -0.049  -0.765  0.00  0.00     0.116 A 
ATOM     17  C   UNL d   1      -6.600  -0.995  -0.301  0.00  0.00     0.044 A 
ATOM     18  F   UNL d   1      -8.766  -0.413  -1.029  0.00  0.00    -0.206 F 
ATOM     19  C   UNL d   1      -5.277  -0.619  -0.051  0.00  0.00     0.032 A 
ENDBRANCH   3  13
TORSDOF 2
