REMARK  6 active torsions:
REMARK  status: ('A' for Active; 'I' for Inactive)
REMARK    1  A    between atoms: C_2  and  C_1 
REMARK       I    between atoms: N_3  and  C_1 
REMARK       I    between atoms: C_4  and  N_3 
REMARK       I    between atoms: N_7  and  C_4 
REMARK    2  A    between atoms: C_5  and  N_7 
REMARK    3  A    between atoms: O_16  and  C_6 
REMARK    4  A    between atoms: O_18  and  C_8 
REMARK    5  A    between atoms: O_19  and  C_11 
REMARK    6  A    between atoms: O_20  and  C_12 
ROOT
ATOM      1  C   UNL d   1       1.253  -0.144   0.431  0.00  0.00     0.265 C 
ATOM      2  N   UNL d   1       0.563   0.298  -0.715  0.00  0.00    -0.275 N 
ATOM      3  C   UNL d   1      -0.650   0.661  -1.305  0.00  0.00     0.327 C 
ATOM      4  N   UNL d   1      -1.817   0.319  -0.688  0.00  0.00    -0.304 N 
ATOM      5  O   UNL d   1       2.354  -0.681   0.274  0.00  0.00    -0.267 OA
ATOM      6  O   UNL d   1      -0.559   1.209  -2.398  0.00  0.00    -0.247 OA
ATOM      7  H   UNL d   1       1.246   0.366  -1.462  0.00  0.00     0.173 HD
ATOM      8  H   UNL d   1      -1.826   0.383   0.320  0.00  0.00     0.171 HD
ENDROOT
BRANCH   1   9
ATOM      9  C   UNL d   1       0.748   0.028   1.806  0.00  0.00     0.100 C 
ATOM     10  C   UNL d   1       1.575   0.684   2.760  0.00  0.00     0.104 C 
ATOM     11  C   UNL d   1       1.046   1.011   4.021  0.00  0.00     0.045 C 
ATOM     12 BR   UNL d   1       1.969   2.080   5.294  0.00  0.00    -0.048 Br
ATOM     13  C   UNL d   1      -0.251   0.623   4.359  0.00  0.00     0.025 C 
ATOM     14  C   UNL d   1      -1.012  -0.119   3.460  0.00  0.00     0.039 C 
ATOM     15  C   UNL d   1      -0.496  -0.458   2.208  0.00  0.00     0.086 C 
BRANCH  10  16
ATOM     16  O   UNL d   1       2.829   1.122   2.400  0.00  0.00    -0.353 OA
ATOM     17  C   UNL d   1       3.879   0.342   2.990  0.00  0.00     0.210 C 
ENDBRANCH  10  16
BRANCH  15  18
ATOM     18  O   UNL d   1      -1.341  -1.193   1.422  0.00  0.00    -0.355 OA
ATOM     19  C   UNL d   1      -0.818  -2.457   1.008  0.00  0.00     0.210 C 
ENDBRANCH  15  18
ENDBRANCH   1   9
BRANCH   4  20
ATOM     20  C   UNL d   1      -3.095   0.484  -1.302  0.00  0.00     0.103 C 
ATOM     21  C   UNL d   1      -3.370   0.254  -2.663  0.00  0.00     0.097 C 
ATOM     22  C   UNL d   1      -4.574   0.711  -3.222  0.00  0.00     0.039 C 
ATOM     23  C   UNL d   1      -5.536   1.338  -2.430  0.00  0.00     0.006 C 
ATOM     24  C   UNL d   1      -5.329   1.447  -1.058  0.00  0.00     0.039 C 
ATOM     25  C   UNL d   1      -4.138   0.972  -0.496  0.00  0.00     0.097 C 
BRANCH  21  26
ATOM     26  O   UNL d   1      -2.527  -0.355  -3.558  0.00  0.00    -0.354 OA
ATOM     27  C   UNL d   1      -2.143  -1.679  -3.195  0.00  0.00     0.210 C 
ENDBRANCH  21  26
BRANCH  25  28
ATOM     28  O   UNL d   1      -3.958   1.109   0.860  0.00  0.00    -0.354 OA
ATOM     29  C   UNL d   1      -4.568   0.008   1.539  0.00  0.00     0.210 C 
ENDBRANCH  25  28
ENDBRANCH   4  20
TORSDOF 6
