REMARK  5 active torsions:
REMARK  status: ('A' for Active; 'I' for Inactive)
REMARK    1  A    between atoms: C_4  and  C_1 
REMARK    2  A    between atoms: C_11  and  C_5 
REMARK    3  A    between atoms: O_17  and  N_12 
REMARK    4  A    between atoms: C_15  and  O_17 
REMARK    5  A    between atoms: C_19  and  C_15 
ROOT
ATOM      1  N   UNL d   1      -2.734  -3.809   3.264  0.00  0.00    -0.347 N 
ATOM      2  HN  UNL d   1      -2.280  -3.079   2.714  1.00  0.00     0.167 HD
ATOM      3  C   UNL d   1      -2.228  -4.358   4.354  0.00  0.00     0.103 A 
ATOM      4  C   UNL d   1      -3.979  -4.370   2.971  0.00  0.00     0.064 A 
ATOM      5  S   UNL d   1      -3.220  -5.545   5.104  0.00  0.00    -0.080 SA
ATOM      6  C   UNL d   1      -4.403  -5.311   3.895  0.00  0.00     0.083 A 
ENDROOT
BRANCH   4   7
ATOM      7  C   UNL d   1      -4.742  -3.992   1.777  0.00  0.00     0.056 C 
ATOM      8  N   UNL d   1      -5.894  -4.574   1.620  0.00  0.00    -0.260 N 
ATOM      9  HN  UNL d   1      -6.285  -5.240   2.286  1.00  0.00     0.194 HD
ATOM     10  C   UNL d   1      -4.169  -2.998   0.797  0.00  0.00     0.072 C 
BRANCH   8  11
ATOM     11  O   UNL d   1      -6.545  -4.186   0.431  0.00  0.00    -0.195 OA
BRANCH  11  12
ATOM     12  C   UNL d   1      -7.671  -4.947   0.264  0.00  0.00     0.315 C 
ATOM     13  O   UNL d   1      -8.087  -5.836   0.993  0.00  0.00    -0.257 OA
BRANCH  12  14
ATOM     14  C   UNL d   1      -8.337  -4.594  -1.017  0.00  0.00     0.041 A 
ATOM     15  C   UNL d   1      -8.197  -3.337  -1.617  0.00  0.00     0.017 A 
ATOM     16  C   UNL d   1      -8.861  -3.058  -2.816  0.00  0.00     0.001 A 
ATOM     17  C   UNL d   1      -9.662  -4.032  -3.417  0.00  0.00     0.000 A 
ATOM     18  C   UNL d   1      -9.809  -5.282  -2.821  0.00  0.00     0.001 A 
ATOM     19  C   UNL d   1      -9.153  -5.562  -1.621  0.00  0.00     0.017 A 
ENDBRANCH  12  14
ENDBRANCH  11  12
ENDBRANCH   8  11
ENDBRANCH   4   7
BRANCH   3  20
ATOM     20  C   UNL d   1      -0.881  -3.969   4.899  0.00  0.00     0.091 A 
ATOM     21  N   UNL d   1      -0.305  -4.579   5.945  0.00  0.00    -0.258 N 
ATOM     22  O   UNL d   1       0.906  -3.941   6.136  0.00  0.00    -0.242 OA
ATOM     23  HN  UNL d   1      -0.684  -5.355   6.489  1.00  0.00     0.195 HD
ATOM     24  C   UNL d   1       1.045  -2.947   5.219  0.00  0.00     0.074 A 
ATOM     25  C   UNL d   1      -0.058  -2.930   4.401  0.00  0.00     0.068 A 
ATOM     26  C   UNL d   1       2.281  -2.150   5.309  0.00  0.00     0.079 C 
ENDBRANCH   3  20
TORSDOF 5
