REMARK  4 active torsions:
REMARK  status: ('A' for Active; 'I' for Inactive)
REMARK    1  A    between atoms: C_2  and  C_1 
REMARK       I    between atoms: N_7  and  C_2 
REMARK    2  A    between atoms: O_9  and  C_3 
REMARK    3  A    between atoms: C_5  and  C_10 
REMARK    4  A    between atoms: C_10  and  O_9 
ROOT
ATOM      1  C   UNL d   1       1.345  -0.164   0.224  0.00  0.00     0.065 A 
ATOM      2  C   UNL d   1       0.392  -1.201   0.159  0.00  0.00     0.084 A 
ATOM      3  C   UNL d   1       0.918   1.174   0.106  0.00  0.00     0.020 A 
ATOM      4  C   UNL d   1      -0.954  -0.863  -0.084  0.00  0.00     0.038 A 
ATOM      5  C   UNL d   1      -0.424   1.490  -0.100  0.00  0.00     0.001 A 
ATOM      6  C   UNL d   1      -1.357   0.469  -0.206  0.00  0.00     0.003 A 
ENDROOT
BRANCH   1   7
ATOM      7  C   UNL d   1       2.817  -0.354   0.410  0.00  0.00     0.252 C 
ATOM      8  O   UNL d   1       3.573   0.590   0.607  0.00  0.00    -0.268 OA
ATOM      9  N   UNL d   1       3.317  -1.621   0.337  0.00  0.00    -0.366 N 
ATOM     10  H   UNL d   1       2.704  -2.419   0.221  0.00  0.00     0.159 HD
ATOM     11  H   UNL d   1       4.308  -1.753   0.468  0.00  0.00     0.159 HD
ENDBRANCH   1   7
BRANCH   2  12
ATOM     12  O   UNL d   1       0.806  -2.509   0.332  0.00  0.00    -0.346 OA
BRANCH  12  13
ATOM     13  C   UNL d   1      -0.230  -3.446   0.647  0.00  0.00     0.203 C 
BRANCH  13  14
ATOM     14  C   UNL d   1       0.288  -4.777   1.116  0.00  0.00    -0.005 C 
ATOM     15  C   UNL d   1       1.548  -5.239   1.122  0.00  0.00    -0.033 C 
ATOM     16  C   UNL d   1       1.911  -6.599   1.632  0.00  0.00     0.036 C 
ENDBRANCH  13  14
ENDBRANCH  12  13
ENDBRANCH   2  12
TORSDOF 4
