REMARK  8 active torsions:
REMARK  status: ('A' for Active; 'I' for Inactive)
REMARK    1  A    between atoms: C_3  and  C_1 
REMARK    2  A    between atoms: C_8  and  C_2 
REMARK    3  A    between atoms: C_4  and  C_3 
REMARK    4  A    between atoms: C_9  and  C_17 
REMARK    5  A    between atoms: O_18  and  C_9 
REMARK    6  A    between atoms: O_12  and  C_10 
REMARK    7  A    between atoms: C_17  and  O_12 
REMARK    8  A    between atoms: C_21  and  O_18 
ROOT
ATOM      1  C   UNL d   1      -0.773   1.404   0.129  0.00  0.00     0.096 C 
ATOM      2  C   UNL d   1       0.295   0.946   0.817  0.00  0.00     0.041 C 
ATOM      3  C   UNL d   1      -1.389   0.539  -0.825  0.00  0.00     0.103 C 
ATOM      4  N   UNL d   1      -1.902  -0.190  -1.564  0.00  0.00    -0.191 NA
ENDROOT
BRANCH   1   5
ATOM      5  C   UNL d   1      -1.326   2.796   0.295  0.00  0.00     0.209 C 
ATOM      6  O   UNL d   1      -0.566   3.709   0.621  0.00  0.00    -0.285 OA
BRANCH   5   7
ATOM      7  C   UNL d   1      -2.739   3.052   0.010  0.00  0.00     0.056 A 
ATOM      8  S   UNL d   1      -3.156   4.567  -0.694  0.00  0.00    -0.098 SA
ATOM      9  C   UNL d   1      -4.820   4.193  -0.698  0.00  0.00     0.050 A 
ATOM     10  C   UNL d   1      -5.069   2.949  -0.168  0.00  0.00     0.009 A 
ATOM     11  C   UNL d   1      -3.868   2.285   0.236  0.00  0.00     0.023 A 
ENDBRANCH   5   7
ENDBRANCH   1   5
BRANCH   2  12
ATOM     12  C   UNL d   1       0.986   1.608   1.939  0.00  0.00    -0.001 A 
ATOM     13  C   UNL d   1       2.081   2.482   1.781  0.00  0.00     0.079 A 
ATOM     14  C   UNL d   1       2.645   3.071   2.921  0.00  0.00     0.037 A 
ATOM     15  C   UNL d   1       2.160   2.767   4.197  0.00  0.00     0.003 A 
ATOM     16  C   UNL d   1       1.109   1.871   4.351  0.00  0.00     0.001 A 
ATOM     17  C   UNL d   1       0.520   1.299   3.227  0.00  0.00     0.014 A 
BRANCH  13  18
ATOM     18  O   UNL d   1       2.521   2.691   0.499  0.00  0.00    -0.341 OA
BRANCH  18  19
ATOM     19  C   UNL d   1       3.730   3.416   0.301  0.00  0.00     0.286 C 
BRANCH  19  20
ATOM     20  C   UNL d   1       5.016   2.627   0.553  0.00  0.00     0.283 C 
ATOM     21  O   UNL d   1       5.085   1.478   0.968  0.00  0.00    -0.263 OA
BRANCH  20  22
ATOM     22  O   UNL d   1       6.094   3.396   0.208  0.00  0.00    -0.320 OA
BRANCH  22  23
ATOM     23  C   UNL d   1       7.373   2.742   0.260  0.00  0.00     0.174 C 
ATOM     24  C   UNL d   1       7.606   1.960  -1.021  0.00  0.00     0.034 C 
ENDBRANCH  22  23
ENDBRANCH  20  22
ENDBRANCH  19  20
ENDBRANCH  18  19
ENDBRANCH  13  18
ENDBRANCH   2  12
TORSDOF 8
