REMARK  3 active torsions:
REMARK  status: ('A' for Active; 'I' for Inactive)
REMARK    1  A    between atoms: C_7  and  C_1 
REMARK    2  A    between atoms: O_12  and  C_7 
REMARK    3  A    between atoms: C_13  and  O_12 
ROOT
ATOM      1  C   UNL d   1      -0.174  -1.210  -0.053  0.00  0.00     0.143 A 
ATOM      2  N   UNL d   1       1.089  -0.728  -0.064  0.00  0.00    -0.292 N 
ATOM      3  HN  UNL d   1       1.958  -1.262  -0.081  1.00  0.00     0.187 HD
ATOM      4  C   UNL d   1      -1.095  -0.132  -0.048  0.00  0.00     0.069 A 
ATOM      5  N   UNL d   1       0.950   0.607  -0.048  0.00  0.00    -0.299 N 
ATOM      6  C   UNL d   1      -0.353   1.028  -0.038  0.00  0.00     0.044 A 
ATOM      7 BR   UNL d   1      -2.967  -0.260  -0.014  0.00  0.00    -0.046 Br
ATOM      8  C   UNL d   1      -0.740   2.459  -0.010  0.00  0.00     0.071 C 
ATOM      9  C   UNL d   1       2.134   1.437  -0.028  0.00  0.00     0.177 C 
ENDROOT
BRANCH   1  10
ATOM     10  C   UNL d   1      -0.455  -2.648   0.016  0.00  0.00     0.312 C 
ATOM     11  O   UNL d   1      -1.584  -3.130   0.084  0.00  0.00    -0.258 OA
BRANCH  10  12
ATOM     12  O   UNL d   1       0.688  -3.405   0.088  0.00  0.00    -0.317 OA
BRANCH  12  13
ATOM     13  C   UNL d   1       0.527  -4.711   0.651  0.00  0.00     0.175 C 
ATOM     14  C   UNL d   1       0.645  -4.588   2.160  0.00  0.00     0.034 C 
ENDBRANCH  12  13
ENDBRANCH  10  12
ENDBRANCH   1  10
TORSDOF 3
