REMARK  4 active torsions:
REMARK  status: ('A' for Active; 'I' for Inactive)
REMARK    1  A    between atoms: C_4  and  C_1 
REMARK    2  A    between atoms: N_2  and  C_3 
REMARK    3  A    between atoms: O_8  and  C_4 
REMARK    4  A    between atoms: C_10  and  O_8 
ROOT
ATOM      1  C   UNL d   1      -0.985   6.334  -0.811  0.00  0.00     0.033 A 
ATOM      2  C   UNL d   1      -0.791   4.944  -0.798  0.00  0.00     0.066 A 
ATOM      3  C   UNL d   1      -1.514   4.109   0.069  0.00  0.00     0.071 A 
ATOM      4  C   UNL d   1      -1.967   6.850   0.051  0.00  0.00     0.029 A 
ATOM      5  C   UNL d   1      -2.730   6.026   0.877  0.00  0.00     0.005 A 
ATOM      6  C   UNL d   1      -2.506   4.654   0.883  0.00  0.00     0.037 A 
ENDROOT
BRANCH   3   7
ATOM      7  O   UNL d   1      -1.171   2.778   0.043  0.00  0.00    -0.346 OA
BRANCH   7   8
ATOM      8  C   UNL d   1      -1.511   2.047   1.225  0.00  0.00     0.217 C 
BRANCH   8   9
ATOM      9  C   UNL d   1      -0.767   0.734   1.250  0.00  0.00     0.009 A 
ATOM     10  C   UNL d   1       0.543   0.654   1.759  0.00  0.00     0.044 A 
ATOM     11 CL   UNL d   1       1.390   2.046   2.342  0.00  0.00    -0.084 Cl
ATOM     12  C   UNL d   1       1.220  -0.570   1.827  0.00  0.00     0.024 A 
ATOM     13  C   UNL d   1       0.611  -1.735   1.375  0.00  0.00     0.003 A 
ATOM     14  C   UNL d   1      -0.673  -1.675   0.842  0.00  0.00     0.024 A 
ATOM     15  C   UNL d   1      -1.354  -0.453   0.772  0.00  0.00     0.044 A 
ATOM     16 CL   UNL d   1      -2.942  -0.488   0.087  0.00  0.00    -0.084 Cl
ENDBRANCH   8   9
ENDBRANCH   7   8
ENDBRANCH   3   7
BRANCH   1  17
ATOM     17  N   UNL d   1      -0.275   7.195  -1.625  0.00  0.00    -0.377 N 
ATOM     18  C   UNL d   1       0.233   6.820  -2.951  0.00  0.00     0.149 C 
ATOM     19  C   UNL d   1       1.767   6.782  -2.966  0.00  0.00     0.187 C 
ATOM     20  O   UNL d   1       2.336   8.008  -2.472  0.00  0.00    -0.388 OA
ATOM     21  C   UNL d   1       1.903   8.242  -1.122  0.00  0.00     0.187 C 
ATOM     22  C   UNL d   1       0.374   8.378  -1.033  0.00  0.00     0.149 C 
ENDBRANCH   1  17
TORSDOF 4
