REMARK  4 active torsions:
REMARK  status: ('A' for Active; 'I' for Inactive)
REMARK    1  A    between atoms: C_8  and  C_1 
REMARK    2  A    between atoms: C_10  and  C_13 
REMARK    3  A    between atoms: C_17  and  C_12 
REMARK    4  A    between atoms: C_25  and  N_15 
ROOT
ATOM      1  C   UNL d   1       1.331   0.631   0.204  0.00  0.00     0.134 A 
ATOM      2  C   UNL d   1       0.144  -1.255  -0.061  0.00  0.00     0.069 A 
ATOM      3  N   UNL d   1       0.201   0.996  -0.429  0.00  0.00    -0.294 N 
ATOM      4  HN  UNL d   1      -0.062   1.929  -0.744  1.00  0.00     0.187 HD
ATOM      5  C   UNL d   1       1.322  -0.764   0.469  0.00  0.00     0.068 A 
ATOM      6  N   UNL d   1      -0.505  -0.145  -0.554  0.00  0.00    -0.295 N 
ATOM      7  C   UNL d   1      -0.338  -2.615  -0.109  0.00  0.00     0.034 A 
ATOM      8  S   UNL d   1       0.114  -3.766   1.088  0.00  0.00    -0.087 SA
ATOM      9  C   UNL d   1      -1.148  -3.204  -1.062  0.00  0.00     0.023 A 
ATOM     10  C   UNL d   1      -0.788  -5.013   0.351  0.00  0.00     0.021 A 
ATOM     11  C   UNL d   1      -1.431  -4.571  -0.784  0.00  0.00     0.021 A 
ATOM     12  C   UNL d   1      -1.822  -0.060  -1.144  0.00  0.00     0.178 C 
ENDROOT
BRANCH  10  13
ATOM     13  C   UNL d   1      -0.793  -6.335   0.925  0.00  0.00     0.107 C 
ATOM     14  N   UNL d   1      -1.589  -7.242   0.456  0.00  0.00    -0.365 N 
ATOM     15  HN  UNL d   1      -2.228  -7.018  -0.307  1.00  0.00     0.165 HD
BRANCH  14  16
ATOM     16  C   UNL d   1      -1.569  -8.534   1.003  0.00  0.00     0.032 A 
ATOM     17  C   UNL d   1      -1.429  -8.795   2.371  0.00  0.00     0.045 A 
ATOM     18  C   UNL d   1      -1.416 -10.111   2.862  0.00  0.00     0.050 A 
ATOM     19  C   UNL d   1      -1.593 -11.175   1.966  0.00  0.00     0.016 A 
ATOM     20  C   UNL d   1      -1.770 -10.926   0.606  0.00  0.00     0.003 A 
ATOM     21  C   UNL d   1      -1.754  -9.612   0.134  0.00  0.00     0.029 A 
BRANCH  18  22
ATOM     22  C   UNL d   1      -1.210 -10.383   4.331  0.00  0.00     0.417 C 
ATOM     23  F   UNL d   1      -0.992  -9.257   5.066  0.00  0.00    -0.166 F 
ATOM     24  F   UNL d   1      -2.278 -11.003   4.904  0.00  0.00    -0.166 F 
ATOM     25  F   UNL d   1      -0.138 -11.190   4.564  0.00  0.00    -0.166 F 
ENDBRANCH  18  22
ENDBRANCH  14  16
ENDBRANCH  10  13
BRANCH   1  26
ATOM     26  C   UNL d   1       2.433   1.597   0.549  0.00  0.00     0.434 C 
ATOM     27  F   UNL d   1       2.181   2.877   0.167  0.00  0.00    -0.165 F 
ATOM     28  F   UNL d   1       2.670   1.630   1.889  0.00  0.00    -0.165 F 
ATOM     29  F   UNL d   1       3.609   1.240  -0.037  0.00  0.00    -0.165 F 
ENDBRANCH   1  26
TORSDOF 4
