REMARK  3 active torsions:
REMARK  status: ('A' for Active; 'I' for Inactive)
REMARK    1  A    between atoms: C_3  and  N_1 
REMARK    2  A    between atoms: C_10  and  C_2 
REMARK    3  A    between atoms: N_22  and  C_13 
ROOT
ATOM      1  N   UNL d   1       1.019  -0.567   0.156  0.00  0.00    -0.257 N 
ATOM      2  C   UNL d   1      -0.307   1.219   0.113  0.00  0.00     0.032 A 
ATOM      3  C   UNL d   1       1.011   0.811  -0.044  0.00  0.00     0.044 A 
ATOM      4  N   UNL d   1      -0.234  -1.045   0.367  0.00  0.00    -0.304 N 
ATOM      5  HN  UNL d   1      -0.513  -2.016   0.511  1.00  0.00     0.186 HD
ATOM      6  C   UNL d   1      -1.018   0.029   0.346  0.00  0.00     0.123 A 
ATOM      7  C   UNL d   1       2.201   1.616  -0.446  0.00  0.00     0.071 C 
ENDROOT
BRANCH   2   8
ATOM      8  C   UNL d   1      -0.787   2.584  -0.028  0.00  0.00     0.049 A 
ATOM      9  N   UNL d   1       0.016   3.550   0.462  0.00  0.00    -0.332 N 
ATOM     10  C   UNL d   1      -0.399   4.806   0.319  0.00  0.00     0.155 A 
ATOM     11  HN  UNL d   1       0.900   3.328   0.920  1.00  0.00     0.168 HD
ATOM     12  N   UNL d   1      -1.554   5.172  -0.241  0.00  0.00    -0.343 N 
ATOM     13  C   UNL d   1      -2.328   4.181  -0.718  0.00  0.00     0.093 A 
ATOM     14  HN  UNL d   1      -1.835   6.150  -0.304  1.00  0.00     0.167 HD
ATOM     15  C   UNL d   1      -1.995   2.851  -0.635  0.00  0.00     0.047 A 
BRANCH  10  16
ATOM     16  N   UNL d   1       0.405   5.804   0.832  0.00  0.00    -0.274 NA
ATOM     17  H   UNL d   1       0.977   5.428   1.576  0.00  0.00     0.127 HD
ATOM     18  H   UNL d   1      -0.161   6.614   1.050  0.00  0.00     0.127 HD
ENDBRANCH  10  16
ENDBRANCH   2   8
BRANCH   1  19
ATOM     19  C   UNL d   1       2.111  -1.469   0.107  0.00  0.00     0.100 A 
ATOM     20  C   UNL d   1       3.275  -1.242   0.864  0.00  0.00     0.066 A 
ATOM     21  C   UNL d   1       4.379  -2.093   0.738  0.00  0.00     0.050 A 
ATOM     22 CL   UNL d   1       3.396  -0.036   2.101  0.00  0.00    -0.082 Cl
ATOM     23  C   UNL d   1       4.311  -3.200  -0.099  0.00  0.00     0.037 A 
ATOM     24  C   UNL d   1       3.146  -3.478  -0.803  0.00  0.00     0.050 A 
ATOM     25 CL   UNL d   1       5.674  -4.238  -0.256  0.00  0.00    -0.084 Cl
ATOM     26  C   UNL d   1       2.046  -2.617  -0.708  0.00  0.00     0.066 A 
ATOM     27 CL   UNL d   1       0.707  -3.008  -1.736  0.00  0.00    -0.082 Cl
ENDBRANCH   1  19
TORSDOF 3
