REMARK  9 active torsions:
REMARK  status: ('A' for Active; 'I' for Inactive)
REMARK    1  A    between atoms: S_6  and  C_1 
REMARK    2  A    between atoms: C_4  and  C_2 
REMARK       I    between atoms: N_7  and  C_4 
REMARK    3  A    between atoms: C_5  and  N_8 
REMARK    4  A    between atoms: N_10  and  C_5 
REMARK    5  A    between atoms: C_17  and  S_6 
REMARK    6  A    between atoms: N_8  and  N_7 
REMARK    7  A    between atoms: C_19  and  N_10 
REMARK    8  A    between atoms: C_18  and  C_17 
REMARK    9  A    between atoms: O_25  and  C_20 
ROOT
ATOM      1  C   UNL d   1       0.971   1.139  -0.297  0.00  0.00     0.297 C 
ATOM      2  C   UNL d   1      -0.576   0.878  -0.330  0.00  0.00     0.121 C 
ATOM      3  N   UNL d   1       1.708  -0.029   0.270  0.00  0.00     0.103 N 
ATOM      4  C   UNL d   1      -0.812  -0.583   0.125  0.00  0.00     0.004 C 
ATOM      5  C   UNL d   1       1.519  -1.173  -0.634  0.00  0.00     0.274 C 
ATOM      6  C   UNL d   1       1.195  -0.393   1.609  0.00  0.00     0.274 C 
ATOM      7  C   UNL d   1      -0.309  -0.676   1.579  0.00  0.00     0.036 C 
ATOM      8  C   UNL d   1       0.042  -1.563  -0.705  0.00  0.00     0.036 C 
ENDROOT
BRANCH   2   9
ATOM      9  C   UNL d   1      -1.181   1.316  -1.682  0.00  0.00     0.222 C 
ATOM     10  N   UNL d   1      -2.423   0.861  -2.081  0.00  0.00    -0.172 NA
ATOM     11  H   UNL d   1      -2.750   1.356  -2.911  0.00  0.00     0.156 HD
ATOM     12  O   UNL d   1      -0.663   2.206  -2.361  0.00  0.00    -0.278 OA
BRANCH  10  13
ATOM     13  N   UNL d   1      -2.687  -0.531  -2.154  0.00  0.00    -0.291 N 
ATOM     14  H   UNL d   1      -1.902  -1.083  -2.484  0.00  0.00     0.183 HD
BRANCH  13  15
ATOM     15  C   UNL d   1      -3.843  -1.012  -2.683  0.00  0.00     0.187 C 
ATOM     16  S   UNL d   1      -3.773  -2.455  -3.527  0.00  0.00    -0.040 SA
BRANCH  15  17
ATOM     17  N   UNL d   1      -5.011  -0.338  -2.636  0.00  0.00    -0.332 N 
ATOM     18  H   UNL d   1      -5.692  -0.678  -3.308  0.00  0.00     0.168 HD
BRANCH  17  19
ATOM     19  C   UNL d   1      -5.506   0.601  -1.716  0.00  0.00     0.034 A 
ATOM     20  C   UNL d   1      -6.654   1.310  -2.084  0.00  0.00     0.029 A 
ATOM     21  C   UNL d   1      -7.211   2.254  -1.223  0.00  0.00     0.002 A 
ATOM     22  C   UNL d   1      -6.637   2.477   0.029  0.00  0.00     0.000 A 
ATOM     23  C   UNL d   1      -5.518   1.747   0.417  0.00  0.00     0.002 A 
ATOM     24  C   UNL d   1      -4.958   0.805  -0.448  0.00  0.00     0.029 A 
ENDBRANCH  17  19
ENDBRANCH  15  17
ENDBRANCH  13  15
ENDBRANCH  10  13
ENDBRANCH   2   9
BRANCH   1  25
ATOM     25  S   UNL d   1       1.478   2.671   0.612  0.00  0.00    -0.128 SA
BRANCH  25  26
ATOM     26  C   UNL d   1       3.277   2.540   0.336  0.00  0.00     0.114 C 
BRANCH  26  27
ATOM     27  C   UNL d   1       4.108   3.432   1.224  0.00  0.00    -0.049 A 
ATOM     28  C   UNL d   1       4.530   2.989   2.489  0.00  0.00     0.011 A 
ATOM     29  C   UNL d   1       5.395   3.766   3.271  0.00  0.00     0.037 A 
ATOM     30  C   UNL d   1       5.840   5.001   2.802  0.00  0.00     0.068 A 
ATOM     31  C   UNL d   1       5.414   5.450   1.550  0.00  0.00     0.037 A 
ATOM     32  C   UNL d   1       4.546   4.680   0.773  0.00  0.00     0.011 A 
BRANCH  30  33
ATOM     33  O   UNL d   1       6.709   5.837   3.448  0.00  0.00    -0.356 OA
ATOM     34  C   UNL d   1       6.862   5.630   4.846  0.00  0.00     0.210 C 
ENDBRANCH  30  33
ENDBRANCH  26  27
ENDBRANCH  25  26
ENDBRANCH   1  25
TORSDOF 9
