REMARK  12 active torsions:
REMARK  status: ('A' for Active; 'I' for Inactive)
REMARK    1  A    between atoms: N_2  and  C_1 
REMARK    2  A    between atoms: C_4  and  C_1 
REMARK    3  A    between atoms: C_5  and  C_1 
REMARK    4  A    between atoms: N_6  and  C_1 
REMARK       I    between atoms: C_9  and  N_2 
REMARK    5  A    between atoms: C_3  and  C_8 
REMARK    6  A    between atoms: C_7  and  C_3 
REMARK    7  A    between atoms: C_10  and  C_3 
REMARK    8  A    between atoms: O_28  and  C_3 
REMARK    9  A    between atoms: C_11  and  N_6 
REMARK   10  A    between atoms: C_14  and  C_9 
REMARK   11  A    between atoms: O_31  and  C_10 
REMARK   12  A    between atoms: O_32  and  C_13 
ROOT
ATOM      1  N   UNL d   1       2.190  -0.293   0.088  0.00  0.00    -0.347 N 
ATOM      2  H   UNL d   1       2.739   0.341   0.680  0.00  0.00     0.163 HD
ENDROOT
BRANCH   1   3
ATOM      3  C   UNL d   1       0.716   0.078   0.085  0.00  0.00     0.306 C 
BRANCH   3   4
ATOM      4  N   UNL d   1       0.160  -1.278  -0.053  0.00  0.00    -0.315 N 
ATOM      5  C   UNL d   1      -1.185  -1.524  -0.066  0.00  0.00     0.254 C 
ATOM      6  O   UNL d   1      -2.000  -0.620   0.036  0.00  0.00    -0.268 OA
ATOM      7  H   UNL d   1       0.830  -2.025   0.032  0.00  0.00     0.165 HD
BRANCH   5   8
ATOM      8  C   UNL d   1      -1.583  -2.953  -0.157  0.00  0.00     0.032 A 
ATOM      9  C   UNL d   1      -2.781  -3.356   0.440  0.00  0.00     0.017 A 
ATOM     10  C   UNL d   1      -3.155  -4.704   0.420  0.00  0.00     0.007 A 
ATOM     11  C   UNL d   1      -2.346  -5.657  -0.213  0.00  0.00    -0.062 A 
ATOM     12  C   UNL d   1      -1.162  -5.243  -0.833  0.00  0.00     0.007 A 
ATOM     13  C   UNL d   1      -2.728  -7.109  -0.184  0.00  0.00     0.048 C 
ATOM     14  C   UNL d   1      -0.783  -3.899  -0.814  0.00  0.00     0.017 A 
ENDBRANCH   5   8
ENDBRANCH   3   4
BRANCH   3  15
ATOM     15  C   UNL d   1       0.402   0.778   1.464  0.00  0.00     0.441 C 
ATOM     16  F   UNL d   1      -0.247  -0.047   2.325  0.00  0.00    -0.166 F 
ATOM     17  F   UNL d   1       1.585   1.081   2.090  0.00  0.00    -0.166 F 
ATOM     18  F   UNL d   1      -0.278   1.936   1.417  0.00  0.00    -0.166 F 
ENDBRANCH   3  15
BRANCH   3  19
ATOM     19  C   UNL d   1       0.276   1.102  -1.008  0.00  0.00     0.441 C 
ATOM     20  F   UNL d   1      -0.011   0.492  -2.191  0.00  0.00    -0.166 F 
ATOM     21  F   UNL d   1      -0.820   1.830  -0.718  0.00  0.00    -0.166 F 
ATOM     22  F   UNL d   1       1.276   1.986  -1.268  0.00  0.00    -0.166 F 
ENDBRANCH   3  19
ENDBRANCH   1   3
BRANCH   1  23
ATOM     23  C   UNL d   1       2.989  -0.857  -0.889  0.00  0.00     0.064 A 
ATOM     24  C   UNL d   1       4.214  -1.470  -0.546  0.00  0.00     0.095 A 
ATOM     25  C   UNL d   1       5.077  -1.977  -1.535  0.00  0.00     0.050 A 
ATOM     26  C   UNL d   1       4.746  -1.921  -2.898  0.00  0.00    -0.002 A 
ATOM     27  C   UNL d   1       3.505  -1.367  -3.223  0.00  0.00     0.013 A 
ATOM     28  C   UNL d   1       2.649  -0.864  -2.239  0.00  0.00     0.033 A 
BRANCH  24  29
ATOM     29  O   UNL d   1       4.716  -1.585   0.730  0.00  0.00    -0.354 OA
ATOM     30  C   UNL d   1       3.792  -1.963   1.747  0.00  0.00     0.210 C 
ENDBRANCH  24  29
BRANCH  26  31
ATOM     31  C   UNL d   1       5.681  -2.450  -3.992  0.00  0.00     0.271 C 
BRANCH  31  32
ATOM     32  C   UNL d   1       7.122  -1.884  -3.935  0.00  0.00     0.432 C 
ATOM     33  F   UNL d   1       7.294  -0.908  -3.016  0.00  0.00    -0.167 F 
ATOM     34  F   UNL d   1       8.074  -2.817  -3.708  0.00  0.00    -0.167 F 
ATOM     35  F   UNL d   1       7.425  -1.323  -5.144  0.00  0.00    -0.167 F 
ENDBRANCH  31  32
BRANCH  31  36
ATOM     36  C   UNL d   1       5.854  -3.975  -3.899  0.00  0.00     0.307 C 
ATOM     37  O   UNL d   1       5.768  -4.637  -2.866  0.00  0.00    -0.261 OA
BRANCH  36  38
ATOM     38  O   UNL d   1       6.146  -4.515  -5.117  0.00  0.00    -0.324 OA
ATOM     39  C   UNL d   1       6.301  -5.937  -5.099  0.00  0.00     0.213 C 
ENDBRANCH  36  38
ENDBRANCH  31  36
BRANCH  31  40
ATOM     40  O   UNL d   1       5.064  -2.116  -5.273  0.00  0.00    -0.368 OA
ATOM     41  H   UNL d   1       5.785  -1.887  -5.892  0.00  0.00     0.212 HD
ENDBRANCH  31  40
ENDBRANCH  26  31
ENDBRANCH   1  23
TORSDOF 12
