REMARK  4 active torsions:
REMARK  status: ('A' for Active; 'I' for Inactive)
REMARK    1  A    between atoms: C_2  and  N_1 
REMARK    2  A    between atoms: O_11  and  C_3 
REMARK    3  A    between atoms: S_9  and  C_8 
REMARK    4  A    between atoms: C_12  and  S_9 
ROOT
ATOM      1  C   UNL d   1       0.297   0.104  -1.159  0.00  0.00     0.136 A 
ATOM      2  C   UNL d   1       0.684  -0.545  -2.338  0.00  0.00     0.100 A 
ATOM      3  C   UNL d   1      -0.055  -0.354  -3.510  0.00  0.00     0.057 A 
ATOM      4  C   UNL d   1      -0.824   0.949  -1.158  0.00  0.00     0.040 A 
ATOM      5  C   UNL d   1      -1.174   0.486  -3.517  0.00  0.00     0.008 A 
ATOM      6  C   UNL d   1      -1.548   1.143  -2.340  0.00  0.00     0.021 A 
ENDROOT
BRANCH   5   7
ATOM      7  S   UNL d   1      -2.045   0.815  -5.037  0.00  0.00    -0.091 SA
BRANCH   7   8
ATOM      8  C   UNL d   1      -3.242  -0.507  -5.091  0.00  0.00     0.005 A 
ATOM      9  C   UNL d   1      -4.253  -0.617  -4.132  0.00  0.00     0.019 A 
ATOM     10  C   UNL d   1      -5.229  -1.611  -4.242  0.00  0.00     0.001 A 
ATOM     11  C   UNL d   1      -5.204  -2.499  -5.316  0.00  0.00     0.000 A 
ATOM     12  C   UNL d   1      -4.202  -2.396  -6.279  0.00  0.00     0.001 A 
ATOM     13  C   UNL d   1      -3.225  -1.402  -6.168  0.00  0.00     0.019 A 
ENDBRANCH   7   8
ENDBRANCH   5   7
BRANCH   2  14
ATOM     14  O   UNL d   1       1.770  -1.370  -2.465  0.00  0.00    -0.358 OA
ATOM     15  H   UNL d   1       2.249  -1.429  -1.611  0.00  0.00     0.217 HD
ENDBRANCH   2  14
BRANCH   1  16
ATOM     16  N   UNL d   1       1.050  -0.070   0.086  0.00  0.00    -0.113 N 
ATOM     17  O   UNL d   1       2.051  -0.805   0.051  0.00  0.00    -0.532 OA
ATOM     18  O   UNL d   1       0.650   0.522   1.098  0.00  0.00    -0.532 OA
ENDBRANCH   1  16
TORSDOF 4
