REMARK  5 active torsions:
REMARK  status: ('A' for Active; 'I' for Inactive)
REMARK    1  A    between atoms: S_10  and  C_1 
REMARK    2  A    between atoms: C_9  and  C_4 
REMARK    3  A    between atoms: C_5  and  C_8 
REMARK    4  A    between atoms: C_18  and  S_10 
REMARK    5  A    between atoms: C_20  and  C_18 
ROOT
ATOM      1  C   UNL d   1      -0.069   1.091   0.234  0.00  0.00     0.187 A 
ATOM      2  N   UNL d   1      -1.021   0.493  -0.454  0.00  0.00    -0.338 N 
ATOM      3  HN  UNL d   1      -1.776   0.924  -0.988  1.00  0.00     0.168 HD
ATOM      4  C   UNL d   1       0.340  -1.027   0.524  0.00  0.00     0.104 A 
ATOM      5  O   UNL d   1       0.789   0.225   0.857  0.00  0.00    -0.286 OA
ATOM      6  C   UNL d   1      -0.759  -0.849  -0.287  0.00  0.00     0.129 A 
ENDROOT
BRANCH   1   7
ATOM      7  S   UNL d   1       0.149   2.813   0.342  0.00  0.00    -0.082 SA
BRANCH   7   8
ATOM      8  C   UNL d   1      -1.547   3.395   0.080  0.00  0.00     0.121 C 
BRANCH   8   9
ATOM      9  C   UNL d   1      -1.627   4.905   0.143  0.00  0.00    -0.048 A 
ATOM     10  C   UNL d   1      -1.472   5.676  -1.018  0.00  0.00     0.009 A 
ATOM     11  C   UNL d   1      -1.542   7.072  -0.964  0.00  0.00     0.017 A 
ATOM     12  C   UNL d   1      -1.764   7.729   0.255  0.00  0.00     0.047 A 
ATOM     13  C   UNL d   1      -1.901   6.959   1.419  0.00  0.00     0.017 A 
ATOM     14  C   UNL d   1      -1.829   5.563   1.365  0.00  0.00     0.009 A 
BRANCH  12  15
ATOM     15  C   UNL d   1      -1.859   9.234   0.328  0.00  0.00     0.417 C 
ATOM     16  F   UNL d   1      -1.705   9.851  -0.877  0.00  0.00    -0.166 F 
ATOM     17  F   UNL d   1      -3.063   9.656   0.808  0.00  0.00    -0.166 F 
ATOM     18  F   UNL d   1      -0.919   9.780   1.149  0.00  0.00    -0.166 F 
ENDBRANCH  12  15
ENDBRANCH   8   9
ENDBRANCH   7   8
ENDBRANCH   1   7
BRANCH   4  19
ATOM     19  C   UNL d   1       1.091  -2.156   1.063  0.00  0.00    -0.001 A 
ATOM     20  C   UNL d   1       2.187  -1.952   1.919  0.00  0.00     0.016 A 
ATOM     21  C   UNL d   1       2.917  -3.030   2.432  0.00  0.00     0.024 A 
ATOM     22  C   UNL d   1       2.556  -4.330   2.095  0.00  0.00     0.034 A 
ATOM     23  C   UNL d   1       1.470  -4.558   1.253  0.00  0.00     0.024 A 
ATOM     24 CL   UNL d   1       3.456  -5.657   2.718  0.00  0.00    -0.084 Cl
ATOM     25  C   UNL d   1       0.741  -3.477   0.741  0.00  0.00     0.016 A 
ENDBRANCH   4  19
TORSDOF 5
