REMARK  7 active torsions:
REMARK  status: ('A' for Active; 'I' for Inactive)
REMARK    1  A    between atoms: C_8  and  C_1 
REMARK    2  A    between atoms: C_7  and  C_2 
REMARK    3  A    between atoms: O_18  and  C_8 
REMARK    4  A    between atoms: O_12  and  N_9 
REMARK    5  A    between atoms: C_11  and  O_12 
REMARK    6  A    between atoms: C_13  and  C_11 
REMARK    7  A    between atoms: C_23  and  O_18 
ROOT
ATOM      1  C   UNL d   1      -1.428   2.266  -0.088  0.00  0.00     0.064 C 
ATOM      2  N   UNL d   1      -0.913   3.461  -0.101  0.00  0.00    -0.259 N 
ATOM      3  HN  UNL d   1      -1.458   4.322  -0.127  1.00  0.00     0.194 HD
ATOM      4  C   UNL d   1      -0.581   1.011  -0.026  0.00  0.00     0.073 C 
ENDROOT
BRANCH   1   5
ATOM      5  C   UNL d   1      -2.864   2.126  -0.132  0.00  0.00     0.125 A 
ATOM      6  C   UNL d   1      -3.902   3.032  -0.148  0.00  0.00     0.079 A 
ATOM      7  C   UNL d   1      -5.083   2.241  -0.148  0.00  0.00     0.132 A 
ATOM      8  N   UNL d   1      -4.767   0.935  -0.171  0.00  0.00    -0.255 N 
ATOM      9  O   UNL d   1      -3.394   0.872  -0.159  0.00  0.00    -0.235 OA
ATOM     10  HN  UNL d   1      -5.416   0.148  -0.193  1.00  0.00     0.195 HD
BRANCH   7  11
ATOM     11  C   UNL d   1      -6.468   2.701  -0.064  0.00  0.00     0.311 C 
ATOM     12  O   UNL d   1      -6.774   3.886   0.023  0.00  0.00    -0.258 OA
BRANCH  11  13
ATOM     13  O   UNL d   1      -7.361   1.668   0.001  0.00  0.00    -0.317 OA
BRANCH  13  14
ATOM     14  C   UNL d   1      -8.659   1.986   0.519  0.00  0.00     0.175 C 
ATOM     15  C   UNL d   1      -8.608   1.866   2.032  0.00  0.00     0.034 C 
ENDBRANCH  13  14
ENDBRANCH  11  13
ENDBRANCH   7  11
ENDBRANCH   1   5
BRANCH   2  16
ATOM     16  O   UNL d   1       0.499   3.410  -0.074  0.00  0.00    -0.195 OA
BRANCH  16  17
ATOM     17  C   UNL d   1       1.028   4.671  -0.129  0.00  0.00     0.315 C 
ATOM     18  O   UNL d   1       0.419   5.729  -0.153  0.00  0.00    -0.257 OA
BRANCH  17  19
ATOM     19  C   UNL d   1       2.517   4.592  -0.196  0.00  0.00     0.041 A 
ATOM     20  C   UNL d   1       3.228   5.778  -0.432  0.00  0.00     0.018 A 
ATOM     21  C   UNL d   1       4.623   5.763  -0.529  0.00  0.00     0.007 A 
ATOM     22  C   UNL d   1       5.333   4.565  -0.387  0.00  0.00    -0.062 A 
ATOM     23  C   UNL d   1       4.626   3.383  -0.139  0.00  0.00     0.007 A 
ATOM     24  C   UNL d   1       6.829   4.563  -0.514  0.00  0.00     0.048 C 
ATOM     25  C   UNL d   1       3.229   3.393  -0.042  0.00  0.00     0.018 A 
ENDBRANCH  17  19
ENDBRANCH  16  17
ENDBRANCH   2  16
TORSDOF 7
