REMARK  8 active torsions:
REMARK  status: ('A' for Active; 'I' for Inactive)
REMARK    1  A    between atoms: S_2  and  C_1 
REMARK    2  A    between atoms: N_10  and  S_2 
REMARK    3  A    between atoms: C_7  and  C_4 
REMARK    4  A    between atoms: O_15  and  C_7 
REMARK    5  A    between atoms: C_16  and  N_10 
REMARK    6  A    between atoms: O_17  and  C_12 
REMARK    7  A    between atoms: C_13  and  C_18 
REMARK    8  A    between atoms: C_18  and  C_16 
ROOT
ATOM      1  S   UNL d   1       2.347   1.882   1.128  0.00  0.00     0.274 S 
ATOM      2  O   UNL d   1       3.774   1.673   1.045  0.00  0.00    -0.199 OA
ATOM      3  O   UNL d   1       1.403   0.792   1.062  0.00  0.00    -0.199 OA
ENDROOT
BRANCH   1   4
ATOM      4  C   UNL d   1       2.086   2.629   2.733  0.00  0.00     0.151 A 
ATOM      5  N   UNL d   1       0.850   2.971   3.257  0.00  0.00    -0.335 N 
ATOM      6  C   UNL d   1       0.997   3.510   4.534  0.00  0.00     0.109 A 
ATOM      7  C   UNL d   1      -0.441   2.804   2.616  0.00  0.00     0.157 C 
ATOM      8  C   UNL d   1       2.359   3.561   4.786  0.00  0.00     0.039 A 
ATOM      9  C   UNL d   1       3.028   3.008   3.679  0.00  0.00     0.046 A 
BRANCH   6  10
ATOM     10  C   UNL d   1      -0.105   3.956   5.366  0.00  0.00     0.193 C 
ATOM     11  O   UNL d   1      -1.203   4.312   4.961  0.00  0.00    -0.645 OA
BRANCH  10  12
ATOM     12  O   UNL d   1       0.195   3.913   6.685  0.00  0.00    -0.772 OA
ATOM     13  H   UNL d   1       1.046   3.477   6.870  0.00  0.00     0.167 HD
ENDBRANCH  10  12
ENDBRANCH   6  10
ENDBRANCH   1   4
BRANCH   1  14
ATOM     14  N   UNL d   1       1.883   3.015  -0.021  0.00  0.00    -0.314 N 
ATOM     15  H   UNL d   1       0.918   2.876  -0.321  0.00  0.00     0.172 HD
BRANCH  14  16
ATOM     16  C   UNL d   1       2.331   4.418   0.071  0.00  0.00     0.137 C 
BRANCH  16  17
ATOM     17  C   UNL d   1       3.854   4.575   0.102  0.00  0.00     0.062 C 
BRANCH  17  18
ATOM     18  C   UNL d   1       4.432   5.965   0.264  0.00  0.00    -0.023 A 
ATOM     19  C   UNL d   1       5.824   6.193   0.310  0.00  0.00     0.074 A 
ATOM     20  C   UNL d   1       6.312   7.502   0.443  0.00  0.00     0.037 A 
ATOM     21  C   UNL d   1       5.450   8.591   0.547  0.00  0.00     0.003 A 
ATOM     22  C   UNL d   1       4.081   8.381   0.505  0.00  0.00     0.001 A 
ATOM     23  C   UNL d   1       3.579   7.085   0.365  0.00  0.00     0.010 A 
BRANCH  19  24
ATOM     24  O   UNL d   1       6.830   5.280   0.128  0.00  0.00    -0.355 OA
ATOM     25  C   UNL d   1       6.721   4.003   0.740  0.00  0.00     0.210 C 
ENDBRANCH  19  24
ENDBRANCH  17  18
ENDBRANCH  16  17
ENDBRANCH  14  16
ENDBRANCH   1  14
TORSDOF 8
