REMARK  4 active torsions:
REMARK  status: ('A' for Active; 'I' for Inactive)
REMARK       I    between atoms: C_3  and  N_1 
REMARK    1  A    between atoms: C_6  and  C_2 
REMARK       I    between atoms: N_7  and  C_3 
REMARK    2  A    between atoms: C_11  and  C_6 
REMARK    3  A    between atoms: C_12  and  C_6 
REMARK    4  A    between atoms: C_13  and  N_7 
ROOT
ATOM      1  N   UNL d   1       0.362  -0.597  -1.034  0.00  0.00    -0.209 N 
ATOM      2  C   UNL d   1      -0.381  -1.114   0.018  0.00  0.00     0.053 C 
ATOM      3  C   UNL d   1       0.858  -1.270  -2.169  0.00  0.00     0.346 C 
ATOM      4  N   UNL d   1       0.740   0.694  -0.806  0.00  0.00    -0.301 N 
ATOM      5  HN  UNL d   1       1.368   1.271  -1.366  1.00  0.00     0.186 HD
ATOM      6  N   UNL d   1       2.210  -1.506  -2.002  0.00  0.00    -0.307 N 
ATOM      7  C   UNL d   1      -0.520  -0.073   0.920  0.00  0.00     0.047 C 
ATOM      8  C   UNL d   1       0.102   1.028   0.314  0.00  0.00     0.110 C 
ATOM      9  O   UNL d   1       0.076  -1.657  -3.022  0.00  0.00    -0.245 OA
ATOM     10  H   UNL d   1       2.620  -1.212  -1.122  0.00  0.00     0.170 HD
ENDROOT
BRANCH   2  11
ATOM     11  C   UNL d   1      -0.851  -2.550   0.049  0.00  0.00     0.103 C 
BRANCH  11  12
ATOM     12  C   UNL d   1      -0.307  -3.314   1.266  0.00  0.00    -0.044 A 
ATOM     13  C   UNL d   1      -0.989  -3.341   2.494  0.00  0.00     0.008 A 
ATOM     14  C   UNL d   1      -0.509  -4.101   3.567  0.00  0.00     0.001 A 
ATOM     15  C   UNL d   1       0.668  -4.829   3.432  0.00  0.00     0.000 A 
ATOM     16  C   UNL d   1       1.376  -4.792   2.233  0.00  0.00     0.001 A 
ATOM     17  C   UNL d   1       0.894  -4.035   1.157  0.00  0.00     0.008 A 
ENDBRANCH  11  12
BRANCH  11  18
ATOM     18  C   UNL d   1      -2.363  -2.724  -0.143  0.00  0.00    -0.044 A 
ATOM     19  C   UNL d   1      -2.840  -3.920  -0.714  0.00  0.00     0.008 A 
ATOM     20  C   UNL d   1      -4.205  -4.144  -0.877  0.00  0.00     0.001 A 
ATOM     21  C   UNL d   1      -5.128  -3.186  -0.472  0.00  0.00     0.000 A 
ATOM     22  C   UNL d   1      -4.678  -1.999   0.106  0.00  0.00     0.001 A 
ATOM     23  C   UNL d   1      -3.311  -1.773   0.266  0.00  0.00     0.008 A 
ENDBRANCH  11  18
ENDBRANCH   2  11
BRANCH   6  24
ATOM     24  C   UNL d   1       3.047  -2.202  -2.897  0.00  0.00     0.036 A 
ATOM     25  C   UNL d   1       2.684  -2.498  -4.213  0.00  0.00     0.029 A 
ATOM     26  C   UNL d   1       3.572  -3.171  -5.058  0.00  0.00     0.002 A 
ATOM     27  C   UNL d   1       4.823  -3.568  -4.590  0.00  0.00     0.000 A 
ATOM     28  C   UNL d   1       5.191  -3.282  -3.278  0.00  0.00     0.002 A 
ATOM     29  C   UNL d   1       4.311  -2.594  -2.438  0.00  0.00     0.029 A 
ENDBRANCH   6  24
TORSDOF 4
