REMARK  4 active torsions:
REMARK  status: ('A' for Active; 'I' for Inactive)
REMARK    1  A    between atoms: N_8  and  C_1 
REMARK    2  A    between atoms: S_13  and  C_3 
REMARK    3  A    between atoms: N_14  and  C_10 
REMARK    4  A    between atoms: C_15  and  S_13 
ROOT
ATOM      1  N   UNL d   1      -1.035  -6.262   1.113  0.00  0.00    -0.197 NA
ATOM      2  C   UNL d   1      -0.674  -5.162   1.016  0.00  0.00     0.069 C 
ATOM      3  C   UNL d   1      -0.200  -3.773   0.906  0.00  0.00     0.205 C 
ENDROOT
BRANCH   3   4
ATOM      4  S   UNL d   1      -1.452  -2.691   0.153  0.00  0.00    -0.089 SA
BRANCH   4   5
ATOM      5  C   UNL d   1      -0.598  -1.166   0.128  0.00  0.00     0.131 A 
ATOM      6  S   UNL d   1      -1.403   0.335  -0.011  0.00  0.00    -0.026 SA
ATOM      7  C   UNL d   1       0.147   1.106   0.043  0.00  0.00     0.166 A 
ATOM      8  N   UNL d   1       1.139   0.236   0.147  0.00  0.00    -0.278 N 
ATOM      9  N   UNL d   1       0.710  -1.079   0.202  0.00  0.00    -0.286 N 
ATOM     10  HN  UNL d   1       2.122   0.507   0.185  1.00  0.00     0.189 HD
ATOM     11  HN  UNL d   1       1.334  -1.881   0.288  1.00  0.00     0.188 HD
BRANCH   7  12
ATOM     12  N   UNL d   1       0.179   2.464  -0.012  0.00  0.00    -0.332 N 
ATOM     13  C   UNL d   1       1.351   3.004  -0.036  0.00  0.00     0.179 C 
ATOM     14  HN  UNL d   1      -0.674   3.024  -0.034  1.00  0.00     0.168 HD
BRANCH  13  15
ATOM     15  N   UNL d   1       1.624   4.355  -0.082  0.00  0.00    -0.386 N 
ATOM     16  C   UNL d   1       0.571   5.359  -0.074  0.00  0.00     0.149 C 
ATOM     17  C   UNL d   1       2.985   4.868  -0.095  0.00  0.00     0.149 C 
ENDBRANCH  13  15
ENDBRANCH   7  12
ENDBRANCH   4   5
ENDBRANCH   3   4
TORSDOF 4
