REMARK  4 active torsions:
REMARK  status: ('A' for Active; 'I' for Inactive)
REMARK    1  A    between atoms: C_9  and  C_6 
REMARK    2  A    between atoms: C_11  and  C_7 
REMARK    3  A    between atoms: C_8  and  O_10 
REMARK    4  A    between atoms: O_10  and  C_19 
ROOT
ATOM      1  O   UNL d   1       0.484  -0.607   1.085  0.00  0.00    -0.273 OA
ATOM      2  N   UNL d   1      -0.469  -0.053  -0.861  0.00  0.00    -0.277 N 
ATOM      3  HN  UNL d   1      -0.995  -0.121  -1.732  1.00  0.00     0.189 HD
ATOM      4  N   UNL d   1       0.163   1.067  -0.364  0.00  0.00    -0.277 N 
ATOM      5  HN  UNL d   1       0.201   1.989  -0.799  1.00  0.00     0.189 HD
ATOM      6  C   UNL d   1      -0.261  -1.021   0.011  0.00  0.00     0.174 A 
ATOM      7  C   UNL d   1       0.709   0.711   0.783  0.00  0.00     0.174 A 
ENDROOT
BRANCH   6   8
ATOM      8  C   UNL d   1      -0.683  -2.413  -0.025  0.00  0.00     0.017 A 
ATOM      9  C   UNL d   1      -1.511  -2.859  -1.067  0.00  0.00     0.018 A 
ATOM     10  C   UNL d   1      -1.896  -4.203  -1.164  0.00  0.00     0.038 A 
ATOM     11  C   UNL d   1      -1.424  -5.131  -0.240  0.00  0.00     0.078 A 
ATOM     12  C   UNL d   1      -0.648  -4.687   0.834  0.00  0.00     0.038 A 
ATOM     13  C   UNL d   1      -0.276  -3.343   0.941  0.00  0.00     0.018 A 
BRANCH  11  14
ATOM     14  O   UNL d   1      -1.692  -6.465  -0.237  0.00  0.00    -0.255 OA
BRANCH  14  15
ATOM     15  C   UNL d   1      -1.875  -7.149  -1.471  0.00  0.00     0.530 C 
ATOM     16  F   UNL d   1      -1.621  -6.404  -2.566  0.00  0.00    -0.144 F 
ATOM     17  F   UNL d   1      -1.043  -8.215  -1.497  0.00  0.00    -0.144 F 
ATOM     18  F   UNL d   1      -3.144  -7.605  -1.540  0.00  0.00    -0.144 F 
ENDBRANCH  14  15
ENDBRANCH  11  14
ENDBRANCH   6   8
BRANCH   7  19
ATOM     19  C   UNL d   1       1.460   1.507   1.740  0.00  0.00     0.019 A 
ATOM     20  C   UNL d   1       1.721   2.853   1.467  0.00  0.00     0.033 A 
ATOM     21  C   UNL d   1       2.402   3.603   2.408  0.00  0.00     0.088 A 
ATOM     22  N   UNL d   1       2.841   3.108   3.584  0.00  0.00    -0.375 N 
ATOM     23  C   UNL d   1       2.592   1.805   3.827  0.00  0.00     0.088 A 
ATOM     24  HN  UNL d   1       3.338   3.691   4.257  1.00  0.00     0.164 HD
ATOM     25  C   UNL d   1       1.918   0.973   2.949  0.00  0.00     0.033 A 
ENDBRANCH   7  19
TORSDOF 4
