REMARK  6 active torsions:
REMARK  status: ('A' for Active; 'I' for Inactive)
REMARK    1  A    between atoms: C_8  and  N_1 
REMARK    2  A    between atoms: C_9  and  C_2 
REMARK    3  A    between atoms: S_15  and  C_5 
REMARK    4  A    between atoms: C_12  and  C_13 
REMARK    5  A    between atoms: C_24  and  C_14 
REMARK    6  A    between atoms: C_25  and  S_15 
ROOT
ATOM      1  C   UNL d   1      -5.084   1.243  -1.057  0.00  0.00    -0.107 C 
ATOM      2  C   UNL d   1      -6.284   1.330  -1.139  0.00  0.00     0.013 C 
ATOM      3  C   UNL d   1      -3.615   1.163  -0.960  0.00  0.00     0.175 C 
ENDROOT
BRANCH   3   4
ATOM      4  S   UNL d   1      -3.087  -0.384  -0.153  0.00  0.00    -0.080 SA
BRANCH   4   5
ATOM      5  C   UNL d   1      -1.355  -0.229  -0.222  0.00  0.00     0.168 A 
ATOM      6  N   UNL d   1      -0.435  -1.267  -0.091  0.00  0.00    -0.275 N 
ATOM      7  C   UNL d   1       0.813  -0.619  -0.099  0.00  0.00     0.139 A 
ATOM      8  N   UNL d   1       0.608   0.688  -0.134  0.00  0.00    -0.282 N 
ATOM      9  N   UNL d   1      -0.733   0.927  -0.235  0.00  0.00    -0.278 N 
ATOM     10  HN  UNL d   1       1.335   1.402  -0.093  1.00  0.00     0.188 HD
ATOM     11  HN  UNL d   1      -1.174   1.844  -0.307  1.00  0.00     0.189 HD
BRANCH   6  12
ATOM     12  C   UNL d   1      -0.676  -2.672   0.011  0.00  0.00     0.043 A 
ATOM     13  C   UNL d   1       0.143  -3.468   0.823  0.00  0.00     0.031 A 
ATOM     14  C   UNL d   1       0.005  -4.861   0.826  0.00  0.00     0.010 A 
ATOM     15  C   UNL d   1      -0.980  -5.486   0.054  0.00  0.00    -0.055 A 
ATOM     16  C   UNL d   1      -1.826  -4.678  -0.720  0.00  0.00     0.010 A 
ATOM     17  C   UNL d   1      -1.676  -3.287  -0.748  0.00  0.00     0.031 A 
BRANCH  15  18
ATOM     18  C   UNL d   1      -1.138  -6.997  -0.013  0.00  0.00     0.010 C 
ATOM     19  C   UNL d   1      -0.353  -7.561  -1.202  0.00  0.00     0.015 C 
ATOM     20  C   UNL d   1      -0.746  -7.731   1.273  0.00  0.00     0.015 C 
ENDBRANCH  15  18
ENDBRANCH   6  12
BRANCH   7  21
ATOM     21  C   UNL d   1       2.155  -1.229  -0.149  0.00  0.00     0.010 A 
ATOM     22  C   UNL d   1       2.448  -2.340  -0.945  0.00  0.00     0.016 A 
ATOM     23  C   UNL d   1       3.718  -2.933  -0.923  0.00  0.00     0.009 A 
ATOM     24  C   UNL d   1       4.767  -2.410  -0.144  0.00  0.00    -0.051 A 
ATOM     25  C   UNL d   1       4.482  -1.257   0.603  0.00  0.00     0.009 A 
ATOM     26  C   UNL d   1       3.201  -0.676   0.601  0.00  0.00     0.016 A 
BRANCH  24  27
ATOM     27  C   UNL d   1       6.143  -3.103  -0.133  0.00  0.00    -0.024 C 
ATOM     28  C   UNL d   1       7.216  -2.354   0.689  0.00  0.00     0.019 C 
ATOM     29  C   UNL d   1       6.004  -4.515   0.477  0.00  0.00     0.019 C 
ATOM     30  C   UNL d   1       6.690  -3.233  -1.573  0.00  0.00     0.019 C 
ENDBRANCH  24  27
ENDBRANCH   7  21
ENDBRANCH   4   5
ENDBRANCH   3   4
TORSDOF 6
