REMARK  1 active torsions:
REMARK  status: ('A' for Active; 'I' for Inactive)
REMARK    1  A    between atoms: C_11  and  N_2 
ROOT
ATOM      1  C   UNL d   1      -0.195  -1.368  -0.036  0.00  0.00     0.175 C 
ATOM      2  N   UNL d   1       1.052  -0.788   0.136  0.00  0.00    -0.222 N 
ATOM      3  N   UNL d   1       0.854   0.532   0.387  0.00  0.00     0.001 NA
ATOM      4  N   UNL d   1      -0.437   0.754   0.196  0.00  0.00    -0.007 NA
ATOM      5  C   UNL d   1      -0.514  -2.756  -0.034  0.00  0.00     0.146 A 
ATOM      6  N   UNL d   1      -1.101  -0.410  -0.076  0.00  0.00    -0.268 N 
ATOM      7  HN  UNL d   1      -2.096  -0.516  -0.271  1.00  0.00     0.185 HD
ATOM      8  N   UNL d   1      -0.311  -4.954   0.437  0.00  0.00    -0.272 N 
ATOM      9  HN  UNL d   1       0.053  -5.843   0.780  1.00  0.00     0.194 HD
ATOM     10  O   UNL d   1       0.242  -3.700   0.608  0.00  0.00    -0.234 OA
ATOM     11  C   UNL d   1      -1.604  -3.398  -0.589  0.00  0.00     0.062 A 
ATOM     12  C   UNL d   1      -1.423  -4.755  -0.269  0.00  0.00     0.117 A 
ENDROOT
BRANCH   2  13
ATOM     13  C   UNL d   1       2.364  -1.317   0.028  0.00  0.00     0.056 A 
ATOM     14  C   UNL d   1       2.626  -2.478  -0.713  0.00  0.00     0.033 A 
ATOM     15  C   UNL d   1       3.930  -2.975  -0.803  0.00  0.00     0.026 A 
ATOM     16  C   UNL d   1       4.974  -2.314  -0.160  0.00  0.00     0.034 A 
ATOM     17  C   UNL d   1       4.729  -1.146   0.558  0.00  0.00     0.026 A 
ATOM     18 CL   UNL d   1       6.572  -2.938  -0.265  0.00  0.00    -0.084 Cl
ATOM     19  C   UNL d   1       3.429  -0.638   0.642  0.00  0.00     0.033 A 
ENDBRANCH   2  13
TORSDOF 1
