REMARK  5 active torsions:
REMARK  status: ('A' for Active; 'I' for Inactive)
REMARK    1  A    between atoms: C_2  and  C_1 
REMARK    2  A    between atoms: C_4  and  C_1 
REMARK    3  A    between atoms: C_3  and  C_2 
REMARK    4  A    between atoms: O_10  and  C_4 
REMARK    5  A    between atoms: N_9  and  C_5 
ROOT
ATOM      1  C   UNL d   1       0.929   0.053   0.005  0.00  0.00     0.112 C 
ATOM      2  C   UNL d   1       2.290   0.043  -0.074  0.00  0.00     0.021 C 
ATOM      3  C   UNL d   1       3.153  -0.927   0.714  0.00  0.00     0.069 C 
ENDROOT
BRANCH   1   4
ATOM      4  C   UNL d   1       0.135   1.061  -0.788  0.00  0.00     0.203 C 
ATOM      5  O   UNL d   1       0.665   1.987  -1.409  0.00  0.00    -0.286 OA
BRANCH   4   6
ATOM      6  C   UNL d   1      -1.331   0.931  -0.901  0.00  0.00     0.054 A 
ATOM      7  C   UNL d   1      -2.119   2.074  -0.745  0.00  0.00     0.130 A 
ATOM      8  F   UNL d   1      -1.571   3.253  -0.416  0.00  0.00    -0.205 F 
ATOM      9  C   UNL d   1      -3.501   2.015  -0.911  0.00  0.00     0.043 A 
ATOM     10  C   UNL d   1      -4.108   0.801  -1.231  0.00  0.00     0.003 A 
ATOM     11  C   UNL d   1      -3.330  -0.346  -1.394  0.00  0.00     0.001 A 
ATOM     12  C   UNL d   1      -1.941  -0.283  -1.245  0.00  0.00     0.018 A 
ENDBRANCH   4   6
ENDBRANCH   1   4
BRANCH   1  13
ATOM     13  C   UNL d   1       0.230  -0.935   0.861  0.00  0.00     0.298 C 
ATOM     14  O   UNL d   1       0.343  -2.147   0.750  0.00  0.00    -0.259 OA
BRANCH  13  15
ATOM     15  O   UNL d   1      -0.603  -0.294   1.720  0.00  0.00    -0.322 OA
ATOM     16  C   UNL d   1      -1.434  -1.173   2.482  0.00  0.00     0.213 C 
ENDBRANCH  13  15
ENDBRANCH   1  13
BRANCH   2  17
ATOM     17  N   UNL d   1       3.008   0.950  -0.857  0.00  0.00    -0.397 N 
ATOM     18  C   UNL d   1       4.398   0.914  -1.241  0.00  0.00     0.146 C 
ATOM     19  H   UNL d   1       2.420   1.597  -1.400  0.00  0.00     0.158 HD
ENDBRANCH   2  17
TORSDOF 5
