REMARK  4 active torsions:
REMARK  status: ('A' for Active; 'I' for Inactive)
REMARK    1  A    between atoms: N_2  and  C_1 
REMARK    2  A    between atoms: C_4  and  C_3 
REMARK    3  A    between atoms: O_10  and  C_4 
REMARK    4  A    between atoms: O_11  and  C_7 
ROOT
ATOM      1  C   UNL d   1       1.449  -0.313   0.217  0.00  0.00     0.152 A 
ATOM      2  C   UNL d   1       0.537  -1.368   0.048  0.00  0.00     0.075 A 
ATOM      3  C   UNL d   1       1.033   1.025   0.146  0.00  0.00     0.102 A 
ATOM      4  C   UNL d   1      -0.822  -1.073  -0.156  0.00  0.00     0.020 A 
ATOM      5  C   UNL d   1      -1.253   0.250  -0.196  0.00  0.00     0.004 A 
ATOM      6  C   UNL d   1      -0.332   1.285  -0.043  0.00  0.00     0.039 A 
ENDROOT
BRANCH   2   7
ATOM      7  C   UNL d   1       0.946  -2.788   0.154  0.00  0.00     0.295 C 
ATOM      8  O   UNL d   1       1.790  -3.199   0.926  0.00  0.00    -0.259 OA
BRANCH   7   9
ATOM      9  O   UNL d   1       0.217  -3.525  -0.721  0.00  0.00    -0.322 OA
ATOM     10  C   UNL d   1       0.472  -4.931  -0.671  0.00  0.00     0.213 C 
ENDBRANCH   7   9
ENDBRANCH   2   7
BRANCH   1  11
ATOM     11  N   UNL d   1       2.827  -0.634   0.490  0.00  0.00    -0.112 N 
ATOM     12  O   UNL d   1       3.496  -1.055  -0.465  0.00  0.00    -0.532 OA
ATOM     13  O   UNL d   1       3.248  -0.403   1.630  0.00  0.00    -0.532 OA
ENDBRANCH   1  11
BRANCH   3  14
ATOM     14  O   UNL d   1       1.768   2.166   0.308  0.00  0.00    -0.353 OA
ATOM     15  C   UNL d   1       3.071   2.222  -0.263  0.00  0.00     0.210 C 
ENDBRANCH   3  14
TORSDOF 4
