REMARK  2 active torsions:
REMARK  status: ('A' for Active; 'I' for Inactive)
REMARK    1  A    between atoms: C_9  and  C_1 
REMARK    2  A    between atoms: O_13  and  C_11 
ROOT
ATOM      1  C   UNL d   1      -0.462  -1.778  -0.018  0.00  0.00    -0.007 A 
ATOM      2  C   UNL d   1       0.324   0.566  -0.014  0.00  0.00     0.093 A 
ATOM      3  C   UNL d   1       0.628  -0.793   0.001  0.00  0.00     0.009 A 
ATOM      4  O   UNL d   1      -1.012   1.010  -0.023  0.00  0.00    -0.275 OA
ATOM      5  C   UNL d   1      -2.065   0.108  -0.003  0.00  0.00     0.289 A 
ATOM      6  C   UNL d   1      -1.724  -1.323  -0.016  0.00  0.00     0.095 A 
ATOM      7  C   UNL d   1       1.315   1.552  -0.015  0.00  0.00     0.075 A 
ATOM      8  C   UNL d   1       1.976  -1.163   0.028  0.00  0.00     0.018 A 
ATOM      9  O   UNL d   1      -3.234   0.473   0.016  0.00  0.00    -0.260 OA
ATOM     10  C   UNL d   1       2.655   1.172   0.008  0.00  0.00     0.070 A 
ATOM     11  C   UNL d   1       2.978  -0.188   0.035  0.00  0.00     0.038 A 
ENDROOT
BRANCH   1  12
ATOM     12  C   UNL d   1      -0.269  -3.240  -0.060  0.00  0.00    -0.025 A 
ATOM     13  C   UNL d   1      -0.184  -3.900  -1.293  0.00  0.00     0.012 A 
ATOM     14  C   UNL d   1       0.105  -5.264  -1.340  0.00  0.00     0.001 A 
ATOM     15  C   UNL d   1       0.305  -5.975  -0.157  0.00  0.00     0.000 A 
ATOM     16  C   UNL d   1       0.204  -5.328   1.074  0.00  0.00     0.001 A 
ATOM     17  C   UNL d   1      -0.086  -3.963   1.124  0.00  0.00     0.012 A 
ENDBRANCH   1  12
BRANCH  10  18
ATOM     18  O   UNL d   1       3.733   2.012   0.011  0.00  0.00    -0.356 OA
ATOM     19  C   UNL d   1       3.459   3.406  -0.038  0.00  0.00     0.210 C 
ENDBRANCH  10  18
TORSDOF 2
