REMARK  8 active torsions:
REMARK  status: ('A' for Active; 'I' for Inactive)
REMARK    1  A    between atoms: C_9  and  C_1 
REMARK    2  A    between atoms: S_16  and  C_6 
REMARK    3  A    between atoms: C_26  and  C_7 
REMARK    4  A    between atoms: C_11  and  N_13 
REMARK    5  A    between atoms: C_12  and  C_27 
REMARK       I    between atoms: N_13  and  C_12 
REMARK    6  A    between atoms: C_27  and  S_16 
REMARK    7  A    between atoms: O_21  and  C_26 
REMARK    8  A    between atoms: C_23  and  O_21 
ROOT
ATOM      1  N   UNL d   1       2.560   2.777   0.543  0.00  0.00    -0.335 N 
ATOM      2  HN  UNL d   1       1.811   3.019   1.191  1.00  0.00     0.168 HD
ATOM      3  C   UNL d   1       3.624   3.565   0.379  0.00  0.00     0.145 A 
ATOM      4  C   UNL d   1       2.525   1.643  -0.190  0.00  0.00     0.062 A 
ATOM      5  N   UNL d   1       4.643   3.329  -0.462  0.00  0.00    -0.347 N 
ATOM      6  HN  UNL d   1       5.432   3.969  -0.548  1.00  0.00     0.167 HD
ATOM      7  C   UNL d   1       3.518   1.315  -1.092  0.00  0.00     0.049 A 
ATOM      8  C   UNL d   1       4.561   2.201  -1.184  0.00  0.00     0.092 A 
ENDROOT
BRANCH   4   9
ATOM      9  C   UNL d   1       1.359   0.794   0.016  0.00  0.00     0.066 A 
ATOM     10  N   UNL d   1       0.132   1.327   0.386  0.00  0.00    -0.350 N 
ATOM     11  C   UNL d   1      -0.757   0.369   0.558  0.00  0.00     0.075 A 
ATOM     12  HN  UNL d   1      -0.056   2.322   0.508  1.00  0.00     0.166 HD
ATOM     13  S   UNL d   1      -0.186  -1.222   0.245  0.00  0.00    -0.084 SA
ATOM     14  C   UNL d   1       1.372  -0.584  -0.095  0.00  0.00     0.083 A 
BRANCH  11  15
ATOM     15  C   UNL d   1      -2.146   0.599   1.075  0.00  0.00     0.240 C 
BRANCH  15  16
ATOM     16  O   UNL d   1      -3.005   0.774  -0.048  0.00  0.00    -0.343 OA
BRANCH  16  17
ATOM     17  C   UNL d   1      -4.348   0.960   0.158  0.00  0.00     0.090 A 
ATOM     18  C   UNL d   1      -5.031   1.461   1.278  0.00  0.00     0.067 A 
ATOM     19 CL   UNL d   1      -4.303   1.981   2.756  0.00  0.00    -0.081 Cl
ATOM     20  C   UNL d   1      -6.428   1.606   1.239  0.00  0.00     0.026 A 
ATOM     21  C   UNL d   1      -7.156   1.260   0.102  0.00  0.00     0.002 A 
ATOM     22  C   UNL d   1      -6.489   0.768  -1.011  0.00  0.00     0.003 A 
ATOM     23  C   UNL d   1      -5.100   0.627  -0.982  0.00  0.00     0.038 A 
ENDBRANCH  16  17
ENDBRANCH  15  16
ENDBRANCH  11  15
ENDBRANCH   4   9
BRANCH   3  24
ATOM     24  S   UNL d   1       3.543   5.141   1.181  0.00  0.00    -0.085 SA
BRANCH  24  25
ATOM     25  C   UNL d   1       3.896   6.185  -0.255  0.00  0.00     0.185 C 
BRANCH  25  26
ATOM     26  C   UNL d   1       2.913   6.095  -1.418  0.00  0.00     0.231 C 
ATOM     27  N   UNL d   1       1.738   5.396  -1.208  0.00  0.00    -0.326 N 
ATOM     28  H   UNL d   1       1.579   5.039  -0.268  0.00  0.00     0.169 HD
ATOM     29  O   UNL d   1       3.188   6.697  -2.458  0.00  0.00    -0.272 OA
BRANCH  27  30
ATOM     30  C   UNL d   1       0.686   5.204  -2.132  0.00  0.00     0.037 A 
ATOM     31  C   UNL d   1       0.779   5.533  -3.487  0.00  0.00     0.053 A 
ATOM     32  C   UNL d   1      -0.332   5.408  -4.322  0.00  0.00     0.037 A 
ATOM     33 CL   UNL d   1      -0.204   5.842  -5.983  0.00  0.00    -0.084 Cl
ATOM     34  C   UNL d   1      -1.546   4.950  -3.824  0.00  0.00     0.048 A 
ATOM     35  C   UNL d   1      -1.627   4.574  -2.486  0.00  0.00     0.037 A 
ATOM     36  C   UNL d   1      -0.517   4.679  -1.645  0.00  0.00     0.053 A 
ATOM     37 CL   UNL d   1      -3.127   4.011  -1.857  0.00  0.00    -0.084 Cl
ENDBRANCH  27  30
ENDBRANCH  25  26
ENDBRANCH  24  25
ENDBRANCH   3  24
TORSDOF 8
