REMARK  4 active torsions:
REMARK  status: ('A' for Active; 'I' for Inactive)
REMARK    1  A    between atoms: C_2  and  S_1 
REMARK    2  A    between atoms: N_6  and  S_1 
REMARK    3  A    between atoms: C_3  and  C_10 
REMARK    4  A    between atoms: C_10  and  C_16 
ROOT
ATOM      1  N   UNL d   1      -0.153   1.923  -0.083  0.00  0.00    -0.307 N 
ATOM      2  C   UNL d   1       0.725   4.400  -1.464  0.00  0.00     0.064 C 
ATOM      3  C   UNL d   1      -0.129   1.984  -1.558  0.00  0.00     0.136 C 
ATOM      4  C   UNL d   1       0.794   2.840   0.592  0.00  0.00     0.136 C 
ATOM      5  C   UNL d   1       0.666   4.266   0.065  0.00  0.00     0.033 C 
ATOM      6  C   UNL d   1      -0.284   3.412  -2.071  0.00  0.00     0.033 C 
ENDROOT
BRANCH   2   7
ATOM      7  C   UNL d   1       2.105   4.175  -2.094  0.00  0.00     0.164 C 
ATOM      8  O   UNL d   1       2.777   3.235  -1.662  0.00  0.00    -0.292 OA
BRANCH   7   9
ATOM      9  C   UNL d   1       2.643   4.981  -3.302  0.00  0.00     0.023 A 
ATOM     10  C   UNL d   1       1.817   5.560  -4.322  0.00  0.00    -0.041 A 
ATOM     11  C   UNL d   1       2.412   6.050  -5.536  0.00  0.00    -0.049 A 
ATOM     12  C   UNL d   1       0.310   5.675  -4.297  0.00  0.00     0.050 C 
ATOM     13  C   UNL d   1       1.552   6.543  -6.697  0.00  0.00     0.049 C 
ATOM     14  C   UNL d   1       3.808   5.988  -5.744  0.00  0.00    -0.049 A 
ATOM     15  C   UNL d   1       4.645   5.542  -4.699  0.00  0.00    -0.049 A 
ATOM     16  C   UNL d   1       4.376   6.409  -7.085  0.00  0.00     0.049 C 
ATOM     17  C   UNL d   1       4.073   5.037  -3.487  0.00  0.00    -0.041 A 
ATOM     18  C   UNL d   1       6.146   5.566  -4.932  0.00  0.00     0.049 C 
ATOM     19  C   UNL d   1       5.065   4.575  -2.432  0.00  0.00     0.050 C 
ENDBRANCH   7   9
ENDBRANCH   2   7
BRANCH   1  20
ATOM     20  S   UNL d   1      -0.258   0.350   0.577  0.00  0.00     0.263 S 
ATOM     21  O   UNL d   1      -0.330   0.488   2.019  0.00  0.00    -0.200 OA
ATOM     22  O   UNL d   1      -1.282  -0.389  -0.127  0.00  0.00    -0.200 OA
BRANCH  20  23
ATOM     23  C   UNL d   1       1.305  -0.441   0.234  0.00  0.00     0.118 A 
ATOM     24  C   UNL d   1       1.529  -1.015  -1.021  0.00  0.00     0.142 A 
ATOM     25  C   UNL d   1       2.672  -1.767  -1.261  0.00  0.00     0.086 A 
ATOM     26  F   UNL d   1       0.668  -0.857  -2.032  0.00  0.00    -0.204 F 
ATOM     27  C   UNL d   1       3.583  -1.976  -0.227  0.00  0.00     0.119 A 
ATOM     28  C   UNL d   1       3.371  -1.421   1.037  0.00  0.00     0.044 A 
ATOM     29  F   UNL d   1       4.664  -2.735  -0.434  0.00  0.00    -0.206 F 
ATOM     30  C   UNL d   1       2.221  -0.654   1.266  0.00  0.00     0.031 A 
ENDBRANCH  20  23
ENDBRANCH   1  20
TORSDOF 4
