REMARK  7 active torsions:
REMARK  status: ('A' for Active; 'I' for Inactive)
REMARK    1  A    between atoms: C_9  and  C_1 
REMARK    2  A    between atoms: C_10  and  C_3 
REMARK    3  A    between atoms: C_6  and  C_12 
REMARK       I    between atoms: N_23  and  C_9 
REMARK    4  A    between atoms: C_11  and  N_24 
REMARK    5  A    between atoms: C_29  and  N_23 
REMARK    6  A    between atoms: N_24  and  C_28 
REMARK    7  A    between atoms: C_28  and  C_29 
ROOT
ATOM      1  C   UNL d   1       1.828  -4.570  -0.024  0.00  0.00     0.137 C 
ENDROOT
BRANCH   1   2
ATOM      2  C   UNL d   1       3.172  -4.849  -0.724  0.00  0.00     0.115 C 
BRANCH   2   3
ATOM      3  N   UNL d   1       3.505  -6.263  -0.655  0.00  0.00    -0.263 NA
ATOM      4  H   UNL d   1       2.804  -6.900  -1.022  0.00  0.00     0.130 HD
BRANCH   3   5
ATOM      5  C   UNL d   1       4.702  -6.621  -1.258  0.00  0.00     0.157 A 
ATOM      6  N   UNL d   1       4.733  -7.845  -1.796  0.00  0.00    -0.329 N 
ATOM      7  C   UNL d   1       5.894  -8.262  -2.371  0.00  0.00     0.120 A 
ATOM      8  HN  UNL d   1       3.910  -8.448  -1.777  1.00  0.00     0.168 HD
ATOM      9  C   UNL d   1       7.016  -7.455  -2.411  0.00  0.00     0.051 A 
ATOM     10  C   UNL d   1       6.879  -6.213  -1.845  0.00  0.00     0.093 A 
ATOM     11  N   UNL d   1       5.742  -5.778  -1.274  0.00  0.00    -0.343 N 
ATOM     12  HN  UNL d   1       5.674  -4.844  -0.868  1.00  0.00     0.167 HD
BRANCH   7  13
ATOM     13  C   UNL d   1       5.970  -9.648  -2.989  0.00  0.00     0.432 C 
ATOM     14  F   UNL d   1       4.812 -10.363  -2.918  0.00  0.00    -0.165 F 
ATOM     15  F   UNL d   1       6.298  -9.604  -4.314  0.00  0.00    -0.165 F 
ATOM     16  F   UNL d   1       6.927 -10.427  -2.405  0.00  0.00    -0.165 F 
ENDBRANCH   7  13
ENDBRANCH   3   5
ENDBRANCH   2   3
ENDBRANCH   1   2
BRANCH   1  17
ATOM     17  N   UNL d   1       1.456  -3.164  -0.093  0.00  0.00    -0.356 N 
ATOM     18  C   UNL d   1       0.141  -2.731  -0.041  0.00  0.00     0.254 C 
ATOM     19  O   UNL d   1      -0.807  -3.504  -0.004  0.00  0.00    -0.268 OA
ATOM     20  H   UNL d   1       2.189  -2.492   0.067  0.00  0.00     0.162 HD
BRANCH  18  21
ATOM     21  C   UNL d   1      -0.012  -1.277  -0.046  0.00  0.00     0.064 A 
ATOM     22  C   UNL d   1       1.008  -0.276  -0.076  0.00  0.00     0.058 A 
ATOM     23  C   UNL d   1       0.409   0.967  -0.111  0.00  0.00     0.093 A 
ATOM     24  O   UNL d   1      -0.945   0.782  -0.082  0.00  0.00    -0.313 OA
ATOM     25  C   UNL d   1      -1.200  -0.558  -0.052  0.00  0.00     0.065 A 
ATOM     26  C   UNL d   1      -2.640  -0.899  -0.054  0.00  0.00     0.077 C 
BRANCH  23  27
ATOM     27  C   UNL d   1       1.022   2.267  -0.184  0.00  0.00     0.038 A 
ATOM     28  S   UNL d   1       2.724   2.468  -0.289  0.00  0.00    -0.099 SA
ATOM     29  C   UNL d   1       2.591   4.168  -0.371  0.00  0.00     0.050 A 
ATOM     30  C   UNL d   1       1.281   4.585  -0.308  0.00  0.00     0.008 A 
ATOM     31  C   UNL d   1       0.376   3.488  -0.198  0.00  0.00     0.022 A 
ENDBRANCH  23  27
ENDBRANCH  18  21
ENDBRANCH   1  17
TORSDOF 7
