REMARK  6 active torsions:
REMARK  status: ('A' for Active; 'I' for Inactive)
REMARK    1  A    between atoms: S_8  and  C_1 
REMARK    2  A    between atoms: C_21  and  N_4 
REMARK    3  A    between atoms: C_7  and  C_9 
REMARK    4  A    between atoms: C_26  and  S_8 
REMARK    5  A    between atoms: C_11  and  N_14 
REMARK    6  A    between atoms: C_13  and  C_26 
REMARK       I    between atoms: N_14  and  C_13 
ROOT
ATOM      1  C   UNL d   1       2.174   0.326   0.652  0.00  0.00     0.148 C 
ATOM      2  N   UNL d   1       1.540  -0.821   0.566  0.00  0.00    -0.335 N 
ATOM      3  HN  UNL d   1       1.920  -1.754   0.729  1.00  0.00     0.168 HD
ATOM      4  N   UNL d   1       1.402   1.372   0.196  0.00  0.00    -0.321 N 
ATOM      5  C   UNL d   1       0.259  -0.494   0.210  0.00  0.00     0.062 A 
ATOM      6  C   UNL d   1       0.116   0.883   0.059  0.00  0.00     0.063 A 
ATOM      7  C   UNL d   1      -2.126  -0.769  -0.084  0.00  0.00     0.050 A 
ATOM      8  C   UNL d   1      -0.854  -1.338   0.085  0.00  0.00     0.048 A 
ATOM      9  C   UNL d   1      -1.133   1.472  -0.168  0.00  0.00     0.033 A 
ATOM     10  C   UNL d   1      -2.247   0.626  -0.207  0.00  0.00     0.018 A 
ENDROOT
BRANCH   1  11
ATOM     11  S   UNL d   1       3.699   0.528   1.450  0.00  0.00    -0.084 SA
BRANCH  11  12
ATOM     12  C   UNL d   1       4.233  -1.181   1.747  0.00  0.00     0.185 C 
BRANCH  12  13
ATOM     13  C   UNL d   1       3.605  -1.845   2.969  0.00  0.00     0.231 C 
ATOM     14  N   UNL d   1       2.228  -1.920   2.951  0.00  0.00    -0.326 N 
ATOM     15  H   UNL d   1       1.787  -1.517   2.124  0.00  0.00     0.169 HD
ATOM     16  O   UNL d   1       4.327  -2.354   3.831  0.00  0.00    -0.272 OA
BRANCH  14  17
ATOM     17  C   UNL d   1       1.370  -2.608   3.832  0.00  0.00     0.037 A 
ATOM     18  C   UNL d   1       1.793  -3.281   4.976  0.00  0.00     0.053 A 
ATOM     19  C   UNL d   1       0.877  -4.024   5.728  0.00  0.00     0.037 A 
ATOM     20 CL   UNL d   1       1.413  -4.875   7.125  0.00  0.00    -0.084 Cl
ATOM     21  C   UNL d   1      -0.464  -4.101   5.357  0.00  0.00     0.048 A 
ATOM     22  C   UNL d   1      -0.892  -3.396   4.242  0.00  0.00     0.037 A 
ATOM     23  C   UNL d   1       0.012  -2.642   3.494  0.00  0.00     0.053 A 
ATOM     24 CL   UNL d   1      -2.541  -3.468   3.756  0.00  0.00    -0.084 Cl
ENDBRANCH  14  17
ENDBRANCH  12  13
ENDBRANCH  11  12
ENDBRANCH   1  11
BRANCH   4  25
ATOM     25  C   UNL d   1       1.869   2.716  -0.127  0.00  0.00     0.084 C 
ATOM     26  C   UNL d   1       1.529   3.118  -1.567  0.00  0.00     0.032 C 
ATOM     27  C   UNL d   1       1.394   3.759   0.881  0.00  0.00     0.032 C 
ENDBRANCH   4  25
BRANCH   7  28
ATOM     28  C   UNL d   1      -3.359  -1.640  -0.085  0.00  0.00     0.417 C 
ATOM     29  F   UNL d   1      -3.088  -2.969   0.040  0.00  0.00    -0.166 F 
ATOM     30  F   UNL d   1      -4.207  -1.333   0.936  0.00  0.00    -0.166 F 
ATOM     31  F   UNL d   1      -4.086  -1.511  -1.228  0.00  0.00    -0.166 F 
ENDBRANCH   7  28
TORSDOF 6
