REMARK  4 active torsions:
REMARK  status: ('A' for Active; 'I' for Inactive)
REMARK    1  A    between atoms: C_9  and  C_1 
REMARK    2  A    between atoms: C_7  and  C_2 
REMARK    3  A    between atoms: N_10  and  C_8 
REMARK    4  A    between atoms: O_16  and  C_9 
ROOT
ATOM      1  C   UNL d   1       2.034  -1.355  -0.451  0.00  0.00     0.052 A 
ATOM      2  C   UNL d   1       0.539  -1.688  -0.372  0.00  0.00     0.100 A 
ATOM      3  C   UNL d   1      -0.361  -0.459  -0.481  0.00  0.00     0.023 A 
ATOM      4  C   UNL d   1       2.452  -0.079  -0.670  0.00  0.00     0.018 A 
ATOM      5  C   UNL d   1       0.156   0.781  -0.617  0.00  0.00     0.020 A 
ATOM      6  N   UNL d   1       1.509   0.946  -0.769  0.00  0.00    -0.362 N 
ATOM      7  C   UNL d   1      -1.836  -0.610  -0.357  0.00  0.00     0.158 C 
ATOM      8  O   UNL d   1      -2.410  -1.634  -0.715  0.00  0.00    -0.293 OA
ATOM      9  C   UNL d   1      -0.676   2.039  -0.483  0.00  0.00     0.058 C 
ATOM     10  C   UNL d   1       3.883   0.393  -0.768  0.00  0.00     0.069 C 
ATOM     11  C   UNL d   1      -2.595   0.565   0.206  0.00  0.00     0.084 C 
ATOM     12  C   UNL d   1      -2.185   1.814  -0.554  0.00  0.00     0.014 C 
ATOM     13  H   UNL d   1       1.871   1.893  -0.863  0.00  0.00     0.165 HD
ENDROOT
BRANCH   2  14
ATOM     14  C   UNL d   1       0.118  -2.602   0.808  0.00  0.00    -0.018 A 
ATOM     15  C   UNL d   1       0.343  -2.402   2.198  0.00  0.00     0.037 A 
ATOM     16  C   UNL d   1      -0.322  -3.296   3.078  0.00  0.00     0.030 A 
ATOM     17  C   UNL d   1      -1.070  -4.392   2.645  0.00  0.00     0.002 A 
ATOM     18  C   UNL d   1      -1.188  -4.645   1.295  0.00  0.00     0.001 A 
ATOM     19  C   UNL d   1      -0.614  -3.754   0.395  0.00  0.00     0.010 A 
BRANCH  15  20
ATOM     20  N   UNL d   1       1.260  -1.504   2.733  0.00  0.00    -0.376 N 
ATOM     21  C   UNL d   1       1.916  -1.817   4.029  0.00  0.00     0.149 C 
ATOM     22  C   UNL d   1       3.294  -1.135   4.071  0.00  0.00     0.187 C 
ATOM     23  O   UNL d   1       3.182   0.291   3.889  0.00  0.00    -0.388 OA
ATOM     24  C   UNL d   1       2.541   0.558   2.628  0.00  0.00     0.187 C 
ATOM     25  C   UNL d   1       1.123  -0.046   2.598  0.00  0.00     0.149 C 
ENDBRANCH  15  20
ENDBRANCH   2  14
BRANCH   1  26
ATOM     26  C   UNL d   1       2.976  -2.493  -0.286  0.00  0.00     0.291 C 
ATOM     27  O   UNL d   1       4.065  -2.429   0.266  0.00  0.00    -0.260 OA
BRANCH  26  28
ATOM     28  O   UNL d   1       2.448  -3.612  -0.848  0.00  0.00    -0.323 OA
ATOM     29  C   UNL d   1       3.190  -4.807  -0.601  0.00  0.00     0.213 C 
ENDBRANCH  26  28
ENDBRANCH   1  26
TORSDOF 4
