REMARK  8 active torsions:
REMARK  status: ('A' for Active; 'I' for Inactive)
REMARK    1  A    between atoms: C_3  and  C_1 
REMARK    2  A    between atoms: C_13  and  N_2 
REMARK    3  A    between atoms: C_26  and  N_6 
REMARK    4  A    between atoms: S_16  and  C_7 
REMARK    5  A    between atoms: C_14  and  C_17 
REMARK    6  A    between atoms: C_20  and  S_16 
REMARK    7  A    between atoms: C_19  and  C_20 
REMARK    8  A    between atoms: C_25  and  C_19 
ROOT
ATOM      1  C   UNL d   1      -0.075  -1.242   0.223  0.00  0.00     0.158 A 
ATOM      2  N   UNL d   1       1.235  -0.755   0.208  0.00  0.00    -0.274 N 
ATOM      3  N   UNL d   1      -0.924  -0.235   0.266  0.00  0.00    -0.281 N 
ATOM      4  HN  UNL d   1      -1.938  -0.311   0.341  1.00  0.00     0.188 HD
ATOM      5  C   UNL d   1       1.064   0.624   0.122  0.00  0.00     0.168 A 
ATOM      6  N   UNL d   1      -0.211   0.932   0.191  0.00  0.00    -0.278 N 
ATOM      7  HN  UNL d   1      -0.602   1.875   0.190  1.00  0.00     0.189 HD
ENDROOT
BRANCH   2   8
ATOM      8  C   UNL d   1       2.445  -1.511   0.310  0.00  0.00     0.044 A 
ATOM      9  C   UNL d   1       3.600  -1.131  -0.386  0.00  0.00     0.046 A 
ATOM     10  C   UNL d   1       4.807  -1.835  -0.227  0.00  0.00     0.050 A 
ATOM     11  C   UNL d   1       4.829  -2.969   0.597  0.00  0.00     0.016 A 
ATOM     12  C   UNL d   1       3.676  -3.374   1.267  0.00  0.00     0.003 A 
ATOM     13  C   UNL d   1       2.494  -2.642   1.139  0.00  0.00     0.030 A 
BRANCH  10  14
ATOM     14  C   UNL d   1       6.070  -1.374  -0.913  0.00  0.00     0.417 C 
ATOM     15  F   UNL d   1       5.905  -0.239  -1.651  0.00  0.00    -0.166 F 
ATOM     16  F   UNL d   1       7.071  -1.102  -0.032  0.00  0.00    -0.166 F 
ATOM     17  F   UNL d   1       6.567  -2.307  -1.771  0.00  0.00    -0.166 F 
ENDBRANCH  10  14
ENDBRANCH   2   8
BRANCH   1  18
ATOM     18  C   UNL d   1      -0.494  -2.604   0.063  0.00  0.00     0.098 A 
ATOM     19  N   UNL d   1      -1.596  -3.179   0.651  0.00  0.00    -0.289 N 
ATOM     20  N   UNL d   1      -1.702  -4.504   0.396  0.00  0.00    -0.303 N 
ATOM     21  C   UNL d   1      -0.699  -4.763  -0.447  0.00  0.00     0.024 A 
ATOM     22  HN  UNL d   1      -2.393  -5.158   0.765  1.00  0.00     0.186 HD
ATOM     23  C   UNL d   1       0.059  -3.606  -0.715  0.00  0.00     0.061 A 
ATOM     24  C   UNL d   1      -0.484  -6.134  -0.964  0.00  0.00     0.070 C 
BRANCH  19  25
ATOM     25  C   UNL d   1      -2.586  -2.574   1.526  0.00  0.00     0.145 C 
ATOM     26  C   UNL d   1      -3.832  -2.149   0.770  0.00  0.00     0.028 C 
ENDBRANCH  19  25
ENDBRANCH   1  18
BRANCH   5  27
ATOM     27  S   UNL d   1       2.345   1.789   0.013  0.00  0.00    -0.084 SA
BRANCH  27  28
ATOM     28  C   UNL d   1       1.601   3.278   0.712  0.00  0.00     0.166 C 
BRANCH  28  29
ATOM     29  C   UNL d   1       1.565   3.260   2.231  0.00  0.00     0.169 C 
ATOM     30  O   UNL d   1       1.750   2.247   2.905  0.00  0.00    -0.291 OA
BRANCH  29  31
ATOM     31  C   UNL d   1       1.281   4.551   2.937  0.00  0.00     0.010 A 
ATOM     32  C   UNL d   1       1.152   5.771   2.259  0.00  0.00     0.015 A 
ATOM     33  C   UNL d   1       0.905   6.950   2.969  0.00  0.00     0.001 A 
ATOM     34  C   UNL d   1       0.778   6.919   4.355  0.00  0.00     0.000 A 
ATOM     35  C   UNL d   1       0.899   5.711   5.038  0.00  0.00     0.001 A 
ATOM     36  C   UNL d   1       1.153   4.532   4.334  0.00  0.00     0.015 A 
ENDBRANCH  29  31
ENDBRANCH  28  29
ENDBRANCH  27  28
ENDBRANCH   5  27
TORSDOF 8
