REMARK  9 active torsions:
REMARK  status: ('A' for Active; 'I' for Inactive)
REMARK    1  A    between atoms: C_2  and  C_1 
REMARK    2  A    between atoms: C_4  and  C_1 
REMARK    3  A    between atoms: C_6  and  C_1 
REMARK    4  A    between atoms: O_17  and  C_1 
REMARK       I    between atoms: C_3  and  N_5 
REMARK    5  A    between atoms: O_18  and  C_3 
REMARK    6  A    between atoms: O_19  and  C_4 
REMARK    7  A    between atoms: N_5  and  C_7 
REMARK    8  A    between atoms: C_21  and  O_18 
REMARK    9  A    between atoms: C_22  and  O_19 
ROOT
ATOM      1  C   UNL d   1       0.489   0.478   1.315  0.00  0.00    -0.005 A 
ATOM      2  C   UNL d   1      -0.061   1.675   3.879  0.00  0.00     0.038 A 
ATOM      3  C   UNL d   1       0.149  -0.301   2.428  0.00  0.00     0.013 A 
ATOM      4  C   UNL d   1       0.562   1.863   1.515  0.00  0.00     0.013 A 
ATOM      5  C   UNL d   1      -0.118   0.285   3.677  0.00  0.00     0.030 A 
ATOM      6  C   UNL d   1       0.291   2.443   2.765  0.00  0.00     0.030 A 
ENDROOT
BRANCH   1   7
ATOM      7  C   UNL d   1       0.830  -0.158  -0.041  0.00  0.00     0.271 C 
BRANCH   7   8
ATOM      8  C   UNL d   1      -0.236  -1.131  -0.600  0.00  0.00     0.432 C 
ATOM      9  F   UNL d   1       0.227  -2.390  -0.783  0.00  0.00    -0.167 F 
ATOM     10  F   UNL d   1      -1.346  -1.229   0.166  0.00  0.00    -0.167 F 
ATOM     11  F   UNL d   1      -0.654  -0.712  -1.828  0.00  0.00    -0.167 F 
ENDBRANCH   7   8
BRANCH   7  12
ATOM     12  C   UNL d   1       2.123  -0.984   0.079  0.00  0.00     0.308 C 
ATOM     13  O   UNL d   1       2.445  -1.672   1.038  0.00  0.00    -0.261 OA
BRANCH  12  14
ATOM     14  O   UNL d   1       2.905  -0.805  -1.032  0.00  0.00    -0.319 OA
BRANCH  14  15
ATOM     15  C   UNL d   1       4.296  -1.107  -0.843  0.00  0.00     0.174 C 
ATOM     16  C   UNL d   1       4.976   0.136  -0.292  0.00  0.00     0.034 C 
ENDBRANCH  14  15
ENDBRANCH  12  14
ENDBRANCH   7  12
BRANCH   7  17
ATOM     17  O   UNL d   1       1.062   0.934  -0.983  0.00  0.00    -0.368 OA
ATOM     18  H   UNL d   1       1.268   0.520  -1.843  0.00  0.00     0.212 HD
ENDBRANCH   7  17
ENDBRANCH   1   7
BRANCH   2  19
ATOM     19  N   UNL d   1      -0.361   2.253   5.176  0.00  0.00    -0.298 N 
ATOM     20  C   UNL d   1      -0.281   3.630   5.444  0.00  0.00     0.367 C 
ATOM     21  O   UNL d   1       0.065   4.514   4.671  0.00  0.00    -0.238 OA
ATOM     22  C   UNL d   1      -0.779   1.335   6.238  0.00  0.00     0.162 C 
BRANCH  20  23
ATOM     23  O   UNL d   1      -0.652   3.928   6.730  0.00  0.00    -0.304 OA
BRANCH  23  24
ATOM     24  C   UNL d   1      -0.630   5.316   7.098  0.00  0.00     0.176 C 
ATOM     25  C   UNL d   1      -1.929   5.986   6.690  0.00  0.00     0.034 C 
ENDBRANCH  23  24
ENDBRANCH  20  23
ENDBRANCH   2  19
TORSDOF 9
