REMARK  4 active torsions:
REMARK  status: ('A' for Active; 'I' for Inactive)
REMARK    1  A    between atoms: C_6  and  C_1 
REMARK    2  A    between atoms: C_8  and  C_2 
REMARK    3  A    between atoms: C_13  and  N_3 
REMARK       I    between atoms: N_14  and  C_8 
REMARK    4  A    between atoms: C_12  and  C_16 
ROOT
ATOM      1  C   UNL d   1      -0.167  -1.148   0.088  0.00  0.00     0.103 C 
ATOM      2  C   UNL d   1       1.052  -0.516  -0.140  0.00  0.00     0.086 C 
ATOM      3  N   UNL d   1      -1.135  -0.153  -0.001  0.00  0.00    -0.253 N 
ATOM      4  N   UNL d   1      -0.566   1.081  -0.072  0.00  0.00    -0.297 N 
ATOM      5  HN  UNL d   1      -1.026   1.985   0.038  1.00  0.00     0.187 HD
ATOM      6  C   UNL d   1       0.724   0.850  -0.316  0.00  0.00     0.040 C 
ATOM      7  C   UNL d   1       1.610   1.990  -0.663  0.00  0.00     0.071 C 
ENDROOT
BRANCH   3   8
ATOM      8  C   UNL d   1      -2.559  -0.221  -0.113  0.00  0.00     0.057 A 
ATOM      9  C   UNL d   1      -3.317   0.913   0.235  0.00  0.00     0.047 A 
ATOM     10  C   UNL d   1      -4.718   0.908   0.139  0.00  0.00     0.050 A 
ATOM     11  C   UNL d   1      -5.360  -0.255  -0.308  0.00  0.00     0.016 A 
ATOM     12  C   UNL d   1      -4.614  -1.368  -0.696  0.00  0.00     0.003 A 
ATOM     13  C   UNL d   1      -3.218  -1.343  -0.624  0.00  0.00     0.031 A 
BRANCH  10  14
ATOM     14  C   UNL d   1      -5.529   2.129   0.501  0.00  0.00     0.417 C 
ATOM     15  F   UNL d   1      -4.774   3.211   0.837  0.00  0.00    -0.166 F 
ATOM     16  F   UNL d   1      -6.336   2.538  -0.517  0.00  0.00    -0.166 F 
ATOM     17  F   UNL d   1      -6.353   1.906   1.562  0.00  0.00    -0.166 F 
ENDBRANCH  10  14
ENDBRANCH   3   8
BRANCH   1  18
ATOM     18  C   UNL d   1      -0.359  -2.602   0.398  0.00  0.00     0.087 C 
ATOM     19  N   UNL d   1       0.535  -3.527   0.029  0.00  0.00    -0.259 N 
ATOM     20  O   UNL d   1      -0.021  -4.753   0.336  0.00  0.00    -0.242 OA
ATOM     21  HN  UNL d   1       1.447  -3.359  -0.395  1.00  0.00     0.195 HD
ATOM     22  C   UNL d   1      -1.217  -4.562   0.948  0.00  0.00     0.074 C 
ATOM     23  C   UNL d   1      -1.440  -3.213   1.080  0.00  0.00     0.068 C 
ATOM     24  C   UNL d   1      -1.979  -5.775   1.296  0.00  0.00     0.079 C 
ENDBRANCH   1  18
BRANCH   2  25
ATOM     25  C   UNL d   1       2.379  -1.116  -0.199  0.00  0.00     0.258 C 
ATOM     26  N   UNL d   1       3.262  -0.871   0.873  0.00  0.00    -0.348 N 
ATOM     27  C   UNL d   1       3.138   0.278   1.775  0.00  0.00     0.126 C 
ATOM     28  C   UNL d   1       4.601  -1.444   0.752  0.00  0.00     0.126 C 
ATOM     29  C   UNL d   1       3.825   0.079   3.122  0.00  0.00     0.020 C 
ATOM     30  C   UNL d   1       5.250  -0.436   2.963  0.00  0.00     0.003 C 
ATOM     31  C   UNL d   1       5.251  -1.697   2.110  0.00  0.00     0.020 C 
ATOM     32  O   UNL d   1       2.707  -1.785  -1.176  0.00  0.00    -0.267 OA
ENDBRANCH   2  25
TORSDOF 4
