REMARK  6 active torsions:
REMARK  status: ('A' for Active; 'I' for Inactive)
REMARK    1  A    between atoms: N_3  and  C_1 
REMARK    2  A    between atoms: C_8  and  C_2 
REMARK       I    between atoms: C_5  and  N_3 
REMARK    3  A    between atoms: C_6  and  C_5 
REMARK    4  A    between atoms: O_15  and  C_8 
REMARK    5  A    between atoms: C_16  and  C_9 
REMARK    6  A    between atoms: C_17  and  O_15 
ROOT
ATOM      1  C   UNL d   1       0.411   1.234   0.206  0.00  0.00     0.073 A 
ATOM      2  C   UNL d   1       1.693   0.722   0.092  0.00  0.00     0.069 A 
ATOM      3  S   UNL d   1      -0.790   0.025   0.348  0.00  0.00    -0.081 SA
ATOM      4  C   UNL d   1       1.613  -0.727   0.034  0.00  0.00     0.034 A 
ATOM      5  C   UNL d   1       0.335  -1.228   0.113  0.00  0.00    -0.015 A 
ENDROOT
BRANCH   1   6
ATOM      6  N   UNL d   1      -0.140   2.489   0.368  0.00  0.00    -0.214 NA
ATOM      7  C   UNL d   1      -0.369   3.369  -0.670  0.00  0.00     0.309 C 
ATOM      8  O   UNL d   1      -1.293   4.179  -0.480  0.00  0.00    -0.269 OA
ATOM      9  H   UNL d   1      -0.990   2.483   0.928  0.00  0.00     0.137 HD
BRANCH   7  10
ATOM     10  C   UNL d   1       0.426   3.362  -1.984  0.00  0.00     0.467 C 
ATOM     11  F   UNL d   1       1.332   2.357  -2.122  0.00  0.00    -0.162 F 
ATOM     12  F   UNL d   1      -0.403   3.256  -3.063  0.00  0.00    -0.162 F 
ATOM     13  F   UNL d   1       1.120   4.523  -2.156  0.00  0.00    -0.162 F 
ENDBRANCH   7  10
ENDBRANCH   1   6
BRANCH   2  14
ATOM     14  C   UNL d   1       3.004   1.377   0.082  0.00  0.00     0.295 C 
ATOM     15  O   UNL d   1       4.041   0.726   0.092  0.00  0.00    -0.259 OA
BRANCH  14  16
ATOM     16  O   UNL d   1       2.993   2.749   0.082  0.00  0.00    -0.318 OA
BRANCH  16  17
ATOM     17  C   UNL d   1       4.305   3.351   0.152  0.00  0.00     0.174 C 
ATOM     18  C   UNL d   1       4.982   3.413  -1.208  0.00  0.00     0.034 C 
ENDBRANCH  16  17
ENDBRANCH  14  16
ENDBRANCH   2  14
BRANCH   5  19
ATOM     19  C   UNL d   1      -0.101  -2.661   0.043  0.00  0.00     0.041 C 
ATOM     20  C   UNL d   1      -0.363  -3.091  -1.394  0.00  0.00     0.010 C 
ENDBRANCH   5  19
TORSDOF 6
