REMARK  2 active torsions:
REMARK  status: ('A' for Active; 'I' for Inactive)
REMARK    1  A    between atoms: C_12  and  N_3 
REMARK    2  A    between atoms: C_9  and  C_4 
ROOT
ATOM      1  C   UNL d   1       0.208  -0.587  -0.025  0.00  0.00     0.186 A 
ATOM      2  C   UNL d   1       0.233   0.796   0.003  0.00  0.00     0.056 A 
ATOM      3  N   UNL d   1       1.513  -1.038   0.028  0.00  0.00    -0.233 N 
ATOM      4  C   UNL d   1      -1.049   1.427  -0.034  0.00  0.00     0.070 A 
ATOM      5  N   UNL d   1       2.364   0.015   0.117  0.00  0.00    -0.295 N 
ATOM      6  HN  UNL d   1       3.379  -0.029   0.208  1.00  0.00     0.187 HD
ATOM      7  C   UNL d   1       1.611   1.124   0.061  0.00  0.00     0.038 A 
ATOM      8  O   UNL d   1      -0.845  -1.390  -0.071  0.00  0.00    -0.255 OA
ATOM      9  C   UNL d   1      -2.073  -0.825  -0.104  0.00  0.00     0.290 A 
ATOM     10  C   UNL d   1      -2.152   0.649  -0.084  0.00  0.00     0.099 A 
ATOM     11  O   UNL d   1      -3.101  -1.490  -0.148  0.00  0.00    -0.260 OA
ATOM     12  C   UNL d   1       2.382   2.396   0.069  0.00  0.00     0.070 C 
ENDROOT
BRANCH   3  13
ATOM     13  C   UNL d   1       2.022  -2.371   0.004  0.00  0.00     0.059 A 
ATOM     14  C   UNL d   1       1.197  -3.477  -0.243  0.00  0.00     0.031 A 
ATOM     15  C   UNL d   1       1.729  -4.770  -0.253  0.00  0.00     0.002 A 
ATOM     16  C   UNL d   1       3.085  -4.974  -0.017  0.00  0.00     0.000 A 
ATOM     17  C   UNL d   1       3.917  -3.883   0.223  0.00  0.00     0.002 A 
ATOM     18  C   UNL d   1       3.393  -2.587   0.227  0.00  0.00     0.031 A 
ENDBRANCH   3  13
BRANCH   4  19
ATOM     19  C   UNL d   1      -1.248   2.908   0.004  0.00  0.00     0.418 C 
ATOM     20  F   UNL d   1      -0.134   3.659   0.092  0.00  0.00    -0.166 F 
ATOM     21  F   UNL d   1      -1.908   3.333  -1.107  0.00  0.00    -0.166 F 
ATOM     22  F   UNL d   1      -2.026   3.263   1.062  0.00  0.00    -0.166 F 
ENDBRANCH   4  19
TORSDOF 2
