REMARK  5 active torsions:
REMARK  status: ('A' for Active; 'I' for Inactive)
REMARK    1  A    between atoms: C_2  and  C_1 
REMARK    2  A    between atoms: C_3  and  C_1 
REMARK    3  A    between atoms: N_4  and  C_1 
REMARK    4  A    between atoms: N_5  and  C_1 
REMARK    5  A    between atoms: C_6  and  N_4 
REMARK       I    between atoms: C_7  and  N_5 
ROOT
ATOM      1  C   UNL d   1       1.050  -0.243   0.032  0.00  0.00     0.290 C 
ENDROOT
BRANCH   1   2
ATOM      2  C   UNL d   1       0.521  -1.425  -0.895  0.00  0.00     0.435 C 
ATOM      3  F   UNL d   1      -0.138  -2.415  -0.267  0.00  0.00    -0.167 F 
ATOM      4  F   UNL d   1      -0.343  -0.943  -1.838  0.00  0.00    -0.167 F 
ATOM      5  F   UNL d   1       1.505  -1.995  -1.637  0.00  0.00    -0.167 F 
ENDBRANCH   1   2
BRANCH   1   6
ATOM      6  C   UNL d   1       0.780  -0.557   1.569  0.00  0.00     0.435 C 
ATOM      7  F   UNL d   1       0.121  -1.704   1.822  0.00  0.00    -0.167 F 
ATOM      8  F   UNL d   1       1.933  -0.595   2.295  0.00  0.00    -0.167 F 
ATOM      9  F   UNL d   1       0.059   0.429   2.171  0.00  0.00    -0.167 F 
ENDBRANCH   1   6
BRANCH   1  10
ATOM     10  N   UNL d   1       0.519   1.109  -0.412  0.00  0.00    -0.251 NA
ATOM     11  H   UNL d   1       0.852   1.299  -1.357  0.00  0.00     0.130 HD
BRANCH  10  12
ATOM     12  C   UNL d   1      -0.855   1.434  -0.369  0.00  0.00     0.016 A 
ATOM     13  C   UNL d   1      -1.285   2.711  -0.808  0.00  0.00    -0.041 A 
ATOM     14  C   UNL d   1      -0.352   3.769  -1.341  0.00  0.00     0.050 C 
ATOM     15  C   UNL d   1      -2.645   3.074  -0.707  0.00  0.00     0.008 A 
ATOM     16  C   UNL d   1      -3.593   2.188  -0.205  0.00  0.00     0.001 A 
ATOM     17  C   UNL d   1      -3.191   0.930   0.207  0.00  0.00     0.002 A 
ATOM     18  C   UNL d   1      -1.842   0.568   0.132  0.00  0.00     0.024 A 
ENDBRANCH  10  12
ENDBRANCH   1  10
BRANCH   1  19
ATOM     19  N   UNL d   1       2.506   0.009  -0.193  0.00  0.00    -0.324 N 
ATOM     20  C   UNL d   1       3.386  -1.015   0.095  0.00  0.00     0.215 C 
ATOM     21  O   UNL d   1       2.992  -2.132   0.420  0.00  0.00    -0.274 OA
ATOM     22  C   UNL d   1       4.842  -0.662   0.021  0.00  0.00     0.117 C 
ATOM     23  H   UNL d   1       2.816   0.958  -0.030  0.00  0.00     0.165 HD
ENDBRANCH   1  19
TORSDOF 5
