REMARK  6 active torsions:
REMARK  status: ('A' for Active; 'I' for Inactive)
REMARK    1  A    between atoms: N_2  and  S_1 
REMARK    2  A    between atoms: C_6  and  S_1 
REMARK    3  A    between atoms: S_5  and  N_2 
REMARK    4  A    between atoms: C_13  and  C_4 
REMARK    5  A    between atoms: C_17  and  S_5 
REMARK    6  A    between atoms: C_11  and  C_14 
ROOT
ATOM      1  C   UNL d   1       0.611  -1.726  -0.065  0.00  0.00     0.121 A 
ATOM      2  S   UNL d   1      -1.066  -2.059  -0.169  0.00  0.00    -0.074 SA
ATOM      3  C   UNL d   1      -0.820  -3.736   0.054  0.00  0.00     0.034 A 
ATOM      4  C   UNL d   1       1.346  -2.894   0.017  0.00  0.00     0.034 A 
ATOM      5  C   UNL d   1       0.522  -4.051   0.086  0.00  0.00     0.023 A 
ENDROOT
BRANCH   1   6
ATOM      6  S   UNL d   1       1.120  -0.017  -0.077  0.00  0.00     0.276 S 
ATOM      7  O   UNL d   1       0.008   0.738   0.477  0.00  0.00    -0.199 OA
ATOM      8  O   UNL d   1       2.406  -0.015   0.594  0.00  0.00    -0.199 OA
BRANCH   6   9
ATOM      9  N   UNL d   1       1.341   0.479  -1.676  0.00  0.00    -0.236 N 
ATOM     10  HN  UNL d   1       0.774   1.247  -2.037  1.00  0.00     0.189 HD
BRANCH   9  11
ATOM     11  S   UNL d   1       2.447  -0.238  -2.678  0.00  0.00     0.061 S 
ATOM     12  O   UNL d   1       2.361  -1.678  -2.681  0.00  0.00    -0.244 OA
ATOM     13  C   UNL d   1       2.063   0.395  -4.284  0.00  0.00     0.143 C 
BRANCH  11  14
ATOM     14  C   UNL d   1       4.054   0.309  -2.258  0.00  0.00     0.039 A 
ATOM     15  C   UNL d   1       5.012  -0.633  -1.875  0.00  0.00     0.023 A 
ATOM     16  C   UNL d   1       6.346  -0.245  -1.727  0.00  0.00     0.025 A 
ATOM     17  C   UNL d   1       6.710   1.081  -1.957  0.00  0.00     0.034 A 
ATOM     18  C   UNL d   1       5.747   2.030  -2.302  0.00  0.00     0.025 A 
ATOM     19 CL   UNL d   1       8.364   1.544  -1.849  0.00  0.00    -0.084 Cl
ATOM     20  C   UNL d   1       4.411   1.646  -2.451  0.00  0.00     0.023 A 
ENDBRANCH  11  14
ENDBRANCH   9  11
ENDBRANCH   6   9
ENDBRANCH   1   6
BRANCH   3  21
ATOM     21  C   UNL d   1      -1.911  -4.753   0.229  0.00  0.00     0.067 A 
ATOM     22  C   UNL d   1      -3.302  -4.537   0.147  0.00  0.00     0.068 A 
ATOM     23  C   UNL d   1      -3.886  -5.754   0.454  0.00  0.00     0.136 A 
ATOM     24  N   UNL d   1      -2.844  -6.595   0.731  0.00  0.00    -0.292 N 
ATOM     25  N   UNL d   1      -1.639  -6.026   0.542  0.00  0.00    -0.297 N 
ATOM     26  C   UNL d   1      -2.891  -7.942   1.258  0.00  0.00     0.178 C 
ATOM     27  HN  UNL d   1      -0.723  -6.467   0.619  1.00  0.00     0.187 HD
BRANCH  23  28
ATOM     28  C   UNL d   1      -5.307  -6.141   0.529  0.00  0.00     0.434 C 
ATOM     29  F   UNL d   1      -5.497  -7.442   0.857  0.00  0.00    -0.165 F 
ATOM     30  F   UNL d   1      -5.971  -5.406   1.454  0.00  0.00    -0.165 F 
ATOM     31  F   UNL d   1      -5.936  -5.943  -0.656  0.00  0.00    -0.165 F 
ENDBRANCH  23  28
ENDBRANCH   3  21
TORSDOF 6
