REMARK  3 active torsions:
REMARK  status: ('A' for Active; 'I' for Inactive)
REMARK    1  A    between atoms: C_15  and  C_9 
REMARK    2  A    between atoms: O_13  and  C_10 
REMARK    3  A    between atoms: O_16  and  C_15 
ROOT
ATOM      1  C   UNL d   1       0.187  -0.641  -0.004  0.00  0.00     0.136 A 
ATOM      2  C   UNL d   1       0.216   0.752   0.001  0.00  0.00     0.042 A 
ATOM      3  N   UNL d   1       1.491  -1.047   0.005  0.00  0.00    -0.280 N 
ATOM      4  N   UNL d   1       2.378  -0.034   0.031  0.00  0.00    -0.301 N 
ATOM      5  HN  UNL d   1       3.396  -0.090   0.054  1.00  0.00     0.187 HD
ATOM      6  C   UNL d   1       1.610   1.067   0.019  0.00  0.00     0.036 A 
ATOM      7  N   UNL d   1      -0.902  -1.441  -0.011  0.00  0.00    -0.321 N 
ATOM      8  HN  UNL d   1      -0.860  -2.460  -0.009  1.00  0.00     0.169 HD
ATOM      9  C   UNL d   1      -1.022   1.442  -0.005  0.00  0.00    -0.015 A 
ATOM     10  C   UNL d   1      -2.044  -0.739  -0.022  0.00  0.00     0.141 A 
ATOM     11  C   UNL d   1      -2.176   0.636  -0.021  0.00  0.00     0.066 A 
ATOM     12  C   UNL d   1       1.977  -2.404  -0.001  0.00  0.00     0.179 C 
ATOM     13  C   UNL d   1       2.286   2.387   0.026  0.00  0.00     0.070 C 
ENDROOT
BRANCH   9  14
ATOM     14  C   UNL d   1      -1.173   2.938   0.039  0.00  0.00     0.206 C 
BRANCH  14  15
ATOM     15  O   UNL d   1      -0.604   3.502  -1.139  0.00  0.00    -0.391 OA
ATOM     16  C   UNL d   1      -0.635   4.923  -1.104  0.00  0.00     0.201 C 
ENDBRANCH  14  15
ENDBRANCH   9  14
BRANCH  10  17
ATOM     17  O   UNL d   1      -3.161  -1.514  -0.018  0.00  0.00    -0.346 OA
ATOM     18  H   UNL d   1      -2.752  -2.399  -0.014  0.00  0.00     0.219 HD
ENDBRANCH  10  17
TORSDOF 3
