REMARK  3 active torsions:
REMARK  status: ('A' for Active; 'I' for Inactive)
REMARK    1  A    between atoms: C_12  and  N_3 
REMARK    2  A    between atoms: C_8  and  C_4 
REMARK       I    between atoms: N_9  and  C_8 
REMARK    3  A    between atoms: C_14  and  N_9 
ROOT
ATOM      1  N   UNL d   1      -0.364   1.181   0.141  0.00  0.00    -0.272 N 
ATOM      2  HN  UNL d   1      -0.765   2.112   0.256  1.00  0.00     0.189 HD
ATOM      3  N   UNL d   1       0.952   0.816   0.043  0.00  0.00    -0.196 N 
ATOM      4  C   UNL d   1      -0.995  -0.010   0.048  0.00  0.00     0.141 A 
ATOM      5  N   UNL d   1       1.188  -0.501  -0.177  0.00  0.00    -0.281 N 
ATOM      6  HN  UNL d   1       2.082  -0.971  -0.325  1.00  0.00     0.189 HD
ATOM      7  C   UNL d   1      -0.035  -1.032  -0.151  0.00  0.00     0.057 A 
ATOM      8  C   UNL d   1      -0.230  -2.489  -0.324  0.00  0.00     0.072 C 
ENDROOT
BRANCH   4   9
ATOM      9  C   UNL d   1      -2.450  -0.190   0.116  0.00  0.00     0.276 C 
ATOM     10  N   UNL d   1      -3.172   0.987   0.034  0.00  0.00    -0.322 N 
ATOM     11  H   UNL d   1      -2.610   1.833   0.030  0.00  0.00     0.169 HD
ATOM     12  O   UNL d   1      -2.927  -1.318   0.208  0.00  0.00    -0.266 OA
BRANCH  10  13
ATOM     13  C   UNL d   1      -4.567   1.109  -0.159  0.00  0.00     0.037 A 
ATOM     14  C   UNL d   1      -5.427   0.013  -0.303  0.00  0.00     0.069 A 
ATOM     15  C   UNL d   1      -6.774   0.200  -0.617  0.00  0.00     0.104 A 
ATOM     16  O   UNL d   1      -7.520  -0.934  -0.817  0.00  0.00    -0.346 OA
ATOM     17  C   UNL d   1      -7.299   1.486  -0.736  0.00  0.00     0.102 A 
ATOM     18  C   UNL d   1      -8.685  -0.640  -1.593  0.00  0.00     0.202 C 
ATOM     19  C   UNL d   1      -9.417   0.557  -1.010  0.00  0.00     0.202 C 
ATOM     20  O   UNL d   1      -8.607   1.740  -1.056  0.00  0.00    -0.346 OA
ATOM     21  C   UNL d   1      -6.463   2.586  -0.560  0.00  0.00     0.042 A 
ATOM     22  C   UNL d   1      -5.103   2.398  -0.277  0.00  0.00     0.032 A 
ENDBRANCH  10  13
ENDBRANCH   4   9
BRANCH   3  23
ATOM     23  C   UNL d   1       2.029   1.732   0.185  0.00  0.00     0.074 A 
ATOM     24  C   UNL d   1       1.793   3.080   0.476  0.00  0.00     0.033 A 
ATOM     25  C   UNL d   1       2.874   3.951   0.648  0.00  0.00     0.002 A 
ATOM     26  C   UNL d   1       4.184   3.484   0.526  0.00  0.00     0.000 A 
ATOM     27  C   UNL d   1       4.424   2.145   0.226  0.00  0.00     0.002 A 
ATOM     28  C   UNL d   1       3.351   1.269   0.056  0.00  0.00     0.033 A 
ENDBRANCH   3  23
TORSDOF 3
