REMARK  2 active torsions:
REMARK  status: ('A' for Active; 'I' for Inactive)
REMARK    1  A    between atoms: C_2  and  C_1 
REMARK       I    between atoms: N_5  and  C_2 
REMARK    2  A    between atoms: C_9  and  N_5 
ROOT
ATOM      1  C   UNL d   1       0.060   2.357   0.102  0.00  0.00     0.264 C 
ATOM      2  N   UNL d   1       1.071   3.307   0.125  0.00  0.00    -0.322 N 
ATOM      3  O   UNL d   1       0.288   1.151   0.010  0.00  0.00    -0.267 OA
ATOM      4  H   UNL d   1       0.805   4.250   0.382  0.00  0.00     0.169 HD
ENDROOT
BRANCH   2   5
ATOM      5  C   UNL d   1       2.437   3.108  -0.177  0.00  0.00     0.035 A 
ATOM      6  C   UNL d   1       2.942   1.933  -0.745  0.00  0.00     0.031 A 
ATOM      7  C   UNL d   1       4.296   1.824  -1.074  0.00  0.00     0.026 A 
ATOM      8  C   UNL d   1       5.157   2.888  -0.831  0.00  0.00     0.034 A 
ATOM      9  C   UNL d   1       4.674   4.061  -0.260  0.00  0.00     0.026 A 
ATOM     10 CL   UNL d   1       6.821   2.757  -1.250  0.00  0.00    -0.084 Cl
ATOM     11  C   UNL d   1       3.316   4.173   0.060  0.00  0.00     0.031 A 
ENDBRANCH   2   5
BRANCH   1  12
ATOM     12  C   UNL d   1      -1.304   2.881   0.202  0.00  0.00     0.094 A 
ATOM     13  C   UNL d   1      -1.811   4.170   0.229  0.00  0.00     0.057 A 
ATOM     14  C   UNL d   1      -3.239   4.202   0.261  0.00  0.00     0.032 A 
ATOM     15 CL   UNL d   1      -0.922   5.638   0.200  0.00  0.00    -0.083 Cl
ATOM     16  C   UNL d   1      -3.789   2.942   0.276  0.00  0.00     0.052 A 
ATOM     17  S   UNL d   1      -2.593   1.730   0.260  0.00  0.00    -0.095 SA
ENDBRANCH   1  12
TORSDOF 2
