REMARK  5 active torsions:
REMARK  status: ('A' for Active; 'I' for Inactive)
REMARK    1  A    between atoms: C_8  and  N_1 
REMARK    2  A    between atoms: C_12  and  C_4 
REMARK    3  A    between atoms: C_7  and  O_18 
REMARK       I    between atoms: N_11  and  C_7 
REMARK    4  A    between atoms: C_15  and  N_11 
REMARK    5  A    between atoms: O_18  and  N_13 
ROOT
ATOM      1  C   UNL d   1      -1.046   2.498   0.142  0.00  0.00     0.130 C 
ATOM      2  N   UNL d   1      -2.210   2.829  -0.313  0.00  0.00    -0.267 N 
ATOM      3  HN  UNL d   1      -2.885   2.192  -0.737  1.00  0.00     0.194 HD
ENDROOT
BRANCH   2   4
ATOM      4  O   UNL d   1      -2.394   4.209  -0.130  0.00  0.00    -0.181 OA
BRANCH   4   5
ATOM      5  C   UNL d   1      -3.546   4.613  -0.748  0.00  0.00     0.387 C 
ATOM      6  N   UNL d   1      -4.371   5.425  -0.003  0.00  0.00    -0.301 N 
ATOM      7  H   UNL d   1      -5.214   5.638  -0.525  0.00  0.00     0.171 HD
ATOM      8  O   UNL d   1      -3.873   4.291  -1.886  0.00  0.00    -0.236 OA
BRANCH   6   9
ATOM      9  C   UNL d   1      -4.349   5.769   1.363  0.00  0.00     0.038 A 
ATOM     10  C   UNL d   1      -3.277   5.547   2.230  0.00  0.00     0.055 A 
ATOM     11  C   UNL d   1      -3.386   5.846   3.597  0.00  0.00     0.058 A 
ATOM     12 CL   UNL d   1      -2.014   5.515   4.598  0.00  0.00    -0.082 Cl
ATOM     13  C   UNL d   1      -4.570   6.382   4.108  0.00  0.00     0.055 A 
ATOM     14  C   UNL d   1      -5.632   6.642   3.243  0.00  0.00     0.028 A 
ATOM     15 CL   UNL d   1      -4.785   6.736   5.784  0.00  0.00    -0.083 Cl
ATOM     16  C   UNL d   1      -5.518   6.346   1.880  0.00  0.00     0.031 A 
ENDBRANCH   6   9
ENDBRANCH   4   5
ENDBRANCH   2   4
BRANCH   1  17
ATOM     17  C   UNL d   1      -0.634   1.108   0.222  0.00  0.00     0.029 C 
ATOM     18  C   UNL d   1      -1.383  -0.051   0.060  0.00  0.00     0.039 C 
ATOM     19  N   UNL d   1      -0.491  -1.103   0.191  0.00  0.00    -0.287 N 
ATOM     20  C   UNL d   1      -2.847  -0.214  -0.174  0.00  0.00     0.071 C 
ATOM     21  N   UNL d   1       0.727  -0.674   0.593  0.00  0.00    -0.301 N 
ATOM     22  C   UNL d   1       0.654   0.651   0.596  0.00  0.00     0.035 C 
ATOM     23  HN  UNL d   1       1.533  -1.249   0.841  1.00  0.00     0.187 HD
ATOM     24  C   UNL d   1       1.845   1.440   1.001  0.00  0.00     0.070 C 
BRANCH  19  25
ATOM     25  C   UNL d   1      -0.679  -2.567   0.065  0.00  0.00     0.043 C 
ATOM     26  C   UNL d   1      -1.313  -3.122   1.351  0.00  0.00     0.039 C 
ATOM     27  C   UNL d   1      -1.536  -2.959  -1.156  0.00  0.00     0.039 C 
ATOM     28  C   UNL d   1       0.689  -3.277  -0.137  0.00  0.00     0.039 C 
ENDBRANCH  19  25
ENDBRANCH   1  17
TORSDOF 5
