REMARK  5 active torsions:
REMARK  status: ('A' for Active; 'I' for Inactive)
REMARK    1  A    between atoms: N_2  and  C_1 
REMARK    2  A    between atoms: C_3  and  C_8 
REMARK    3  A    between atoms: O_9  and  C_4 
REMARK    4  A    between atoms: C_6  and  O_9 
REMARK    5  A    between atoms: C_19  and  C_7 
ROOT
ATOM      1  O   UNL d   1       1.260  -2.260  -0.693  0.00  0.00    -0.308 OA
ENDROOT
BRANCH   1   2
ATOM      2  C   UNL d   1       2.513  -2.745  -0.398  0.00  0.00     0.083 A 
ATOM      3  C   UNL d   1       3.097  -2.518   0.863  0.00  0.00    -0.018 A 
ATOM      4  C   UNL d   1       4.455  -2.902   1.010  0.00  0.00     0.034 A 
ATOM      5  C   UNL d   1       5.164  -3.538  -0.010  0.00  0.00     0.034 A 
ATOM      6  C   UNL d   1       4.561  -3.779  -1.230  0.00  0.00     0.026 A 
ATOM      7 CL   UNL d   1       6.798  -4.009   0.248  0.00  0.00    -0.084 Cl
ATOM      8  C   UNL d   1       3.249  -3.359  -1.433  0.00  0.00     0.039 A 
BRANCH   3   9
ATOM      9  C   UNL d   1       2.449  -1.863   2.094  0.00  0.00     0.021 C 
ATOM     10  C   UNL d   1       2.578  -2.756   3.355  0.00  0.00     0.009 C 
ATOM     11  C   UNL d   1       1.605  -3.929   3.314  0.00  0.00     0.001 C 
ATOM     12  C   UNL d   1       0.170  -3.429   3.305  0.00  0.00     0.000 C 
ATOM     13  C   UNL d   1      -0.092  -2.403   2.206  0.00  0.00     0.001 C 
ATOM     14  C   UNL d   1       0.998  -1.339   2.048  0.00  0.00     0.009 C 
ENDBRANCH   3   9
ENDBRANCH   1   2
BRANCH   1  15
ATOM     15  C   UNL d   1       0.339  -3.097  -1.295  0.00  0.00     0.109 A 
ATOM     16  C   UNL d   1      -0.589  -2.574  -2.207  0.00  0.00     0.137 A 
ATOM     17  C   UNL d   1      -1.715  -3.330  -2.591  0.00  0.00     0.055 A 
ATOM     18  C   UNL d   1      -1.921  -4.616  -2.067  0.00  0.00     0.050 A 
ATOM     19  C   UNL d   1      -0.942  -5.166  -1.227  0.00  0.00     0.019 A 
ATOM     20  C   UNL d   1       0.172  -4.416  -0.843  0.00  0.00     0.040 A 
BRANCH  16  21
ATOM     21  N   UNL d   1      -0.419  -1.237  -2.790  0.00  0.00    -0.113 N 
ATOM     22  O   UNL d   1       0.705  -0.720  -2.775  0.00  0.00    -0.532 OA
ATOM     23  O   UNL d   1      -1.415  -0.719  -3.317  0.00  0.00    -0.532 OA
ENDBRANCH  16  21
BRANCH  18  24
ATOM     24  C   UNL d   1      -3.187  -5.392  -2.354  0.00  0.00     0.417 C 
ATOM     25  F   UNL d   1      -4.095  -4.694  -3.090  0.00  0.00    -0.166 F 
ATOM     26  F   UNL d   1      -2.951  -6.544  -3.034  0.00  0.00    -0.166 F 
ATOM     27  F   UNL d   1      -3.833  -5.753  -1.211  0.00  0.00    -0.166 F 
ENDBRANCH  18  24
ENDBRANCH   1  15
TORSDOF 5
