REMARK  4 active torsions:
REMARK  status: ('A' for Active; 'I' for Inactive)
REMARK    1  A    between atoms: C_9  and  C_1 
REMARK    2  A    between atoms: C_10  and  C_2 
REMARK    3  A    between atoms: N_8  and  C_11 
REMARK    4  A    between atoms: O_22  and  C_17 
ROOT
ATOM      1  C   UNL d   1      -0.219   1.024  -0.042  0.00  0.00     0.177 A 
ATOM      2  C   UNL d   1      -0.176  -1.107  -0.088  0.00  0.00     0.176 A 
ATOM      3  O   UNL d   1      -1.058  -0.053  -0.125  0.00  0.00    -0.272 OA
ATOM      4  N   UNL d   1       1.047   0.674   0.051  0.00  0.00    -0.277 N 
ATOM      5  HN  UNL d   1       1.849   1.298   0.142  1.00  0.00     0.189 HD
ATOM      6  N   UNL d   1       1.075  -0.702  -0.000  0.00  0.00    -0.277 N 
ATOM      7  HN  UNL d   1       1.905  -1.294   0.025  1.00  0.00     0.189 HD
ENDROOT
BRANCH   1   8
ATOM      8  C   UNL d   1      -0.822   2.340   0.091  0.00  0.00     0.050 A 
ATOM      9  C   UNL d   1      -2.012   2.746  -0.531  0.00  0.00     0.117 A 
ATOM     10  C   UNL d   1      -2.567   4.019  -0.315  0.00  0.00     0.037 A 
ATOM     11  C   UNL d   1      -1.923   4.911   0.540  0.00  0.00     0.002 A 
ATOM     12  C   UNL d   1      -0.732   4.540   1.160  0.00  0.00     0.001 A 
ATOM     13  C   UNL d   1      -0.186   3.271   0.932  0.00  0.00     0.018 A 
BRANCH   9  14
ATOM     14  N   UNL d   1      -2.706   1.873  -1.458  0.00  0.00    -0.115 N 
ATOM     15  O   UNL d   1      -2.077   1.483  -2.450  0.00  0.00    -0.532 OA
ATOM     16  O   UNL d   1      -3.888   1.612  -1.203  0.00  0.00    -0.532 OA
ENDBRANCH   9  14
ENDBRANCH   1   8
BRANCH   2  17
ATOM     17  C   UNL d   1      -0.756  -2.446  -0.085  0.00  0.00     0.037 A 
ATOM     18  C   UNL d   1      -0.140  -3.545   0.537  0.00  0.00     0.025 A 
ATOM     19  C   UNL d   1      -0.759  -4.802   0.534  0.00  0.00     0.023 A 
ATOM     20 BR   UNL d   1       1.516  -3.444   1.470  0.00  0.00    -0.050 Br
ATOM     21  C   UNL d   1      -1.999  -4.984  -0.080  0.00  0.00     0.038 A 
ATOM     22  C   UNL d   1      -2.631  -3.910  -0.698  0.00  0.00     0.069 A 
ATOM     23  C   UNL d   1      -2.004  -2.658  -0.708  0.00  0.00     0.054 A 
BRANCH  22  24
ATOM     24  O   UNL d   1      -3.852  -3.946  -1.311  0.00  0.00    -0.356 OA
ATOM     25  C   UNL d   1      -4.555  -5.182  -1.278  0.00  0.00     0.210 C 
ENDBRANCH  22  24
ENDBRANCH   2  17
TORSDOF 4
