REMARK  3 active torsions:
REMARK  status: ('A' for Active; 'I' for Inactive)
REMARK    1  A    between atoms: O_11  and  C_1 
REMARK    2  A    between atoms: C_5  and  C_2 
REMARK    3  A    between atoms: O_12  and  C_4 
ROOT
ATOM      1  C   UNL d   1       0.932   0.952   0.058  0.00  0.00     0.116 A 
ATOM      2  C   UNL d   1       2.287  -1.527  -0.057  0.00  0.00    -0.030 A 
ATOM      3  C   UNL d   1       0.220  -0.257   0.026  0.00  0.00     0.047 A 
ATOM      4  C   UNL d   1       2.329   0.932   0.048  0.00  0.00     0.103 A 
ATOM      5  C   UNL d   1       0.886  -1.483  -0.027  0.00  0.00     0.031 A 
ATOM      6  C   UNL d   1       2.987  -0.308  -0.006  0.00  0.00     0.049 A 
ATOM      7 BR   UNL d   1      -1.680  -0.264   0.046  0.00  0.00    -0.048 Br
ENDROOT
BRANCH   2   8
ATOM      8  C   UNL d   1       3.053  -2.829  -0.149  0.00  0.00     0.141 C 
ATOM      9  S   UNL d   1       2.632  -3.787  -1.637  0.00  0.00    -0.148 SA
ATOM     10  C   UNL d   1       3.034  -5.395  -0.920  0.00  0.00     0.085 C 
ATOM     11  C   UNL d   1       2.431  -5.422   0.470  0.00  0.00     0.085 C 
ATOM     12  S   UNL d   1       2.841  -3.876   1.331  0.00  0.00    -0.148 SA
ENDBRANCH   2   8
BRANCH   4  13
ATOM     13  O   UNL d   1       3.200   1.988   0.083  0.00  0.00    -0.353 OA
ATOM     14  C   UNL d   1       2.667   3.304   0.093  0.00  0.00     0.210 C 
ENDBRANCH   4  13
BRANCH   1  15
ATOM     15  O   UNL d   1       0.242   2.135   0.095  0.00  0.00    -0.357 OA
ATOM     16  H   UNL d   1      -0.708   1.923   0.064  0.00  0.00     0.218 HD
ENDBRANCH   1  15
TORSDOF 3
