REMARK  5 active torsions:
REMARK  status: ('A' for Active; 'I' for Inactive)
REMARK    1  A    between atoms: C_5  and  C_1 
REMARK    2  A    between atoms: C_9  and  C_4 
REMARK       I    between atoms: N_11  and  C_5 
REMARK    3  A    between atoms: C_7  and  C_14 
REMARK       I    between atoms: C_10  and  N_12 
REMARK    4  A    between atoms: C_15  and  C_10 
REMARK    5  A    between atoms: N_12  and  N_11 
ROOT
ATOM      1  C   UNL d   1       2.189   1.726   0.562  0.00  0.00     0.287 C 
ATOM      2  N   UNL d   1       2.287   3.040   0.152  0.00  0.00    -0.262 N 
ATOM      3  O   UNL d   1       1.104   1.152   0.658  0.00  0.00    -0.264 OA
ATOM      4  H   UNL d   1       3.183   3.525   0.101  0.00  0.00     0.190 HD
ENDROOT
BRANCH   2   5
ATOM      5  N   UNL d   1       1.115   3.749  -0.174  0.00  0.00    -0.263 N 
ATOM      6  C   UNL d   1       1.116   5.122  -0.033  0.00  0.00     0.270 C 
ATOM      7  O   UNL d   1       2.107   5.762   0.314  0.00  0.00    -0.266 OA
ATOM      8  H   UNL d   1       0.251   3.207  -0.163  0.00  0.00     0.190 HD
BRANCH   6   9
ATOM      9  C   UNL d   1      -0.166   5.824  -0.324  0.00  0.00     0.033 A 
ATOM     10  C   UNL d   1      -0.466   7.000   0.376  0.00  0.00     0.018 A 
ATOM     11  C   UNL d   1      -1.621   7.731   0.075  0.00  0.00     0.017 A 
ATOM     12  C   UNL d   1      -2.489   7.307  -0.943  0.00  0.00     0.048 A 
ATOM     13  C   UNL d   1      -2.184   6.126  -1.641  0.00  0.00     0.017 A 
ATOM     14  C   UNL d   1      -1.034   5.386  -1.333  0.00  0.00     0.018 A 
BRANCH  12  15
ATOM     15  C   UNL d   1      -3.718   8.111  -1.309  0.00  0.00     0.417 C 
ATOM     16  F   UNL d   1      -3.899   9.217  -0.536  0.00  0.00    -0.166 F 
ATOM     17  F   UNL d   1      -3.681   8.557  -2.596  0.00  0.00    -0.166 F 
ATOM     18  F   UNL d   1      -4.865   7.386  -1.199  0.00  0.00    -0.166 F 
ENDBRANCH  12  15
ENDBRANCH   6   9
ENDBRANCH   2   5
BRANCH   1  19
ATOM     19  C   UNL d   1       3.468   1.067   0.851  0.00  0.00     0.110 A 
ATOM     20  N   UNL d   1       4.710   1.714   0.765  0.00  0.00    -0.345 N 
ATOM     21  C   UNL d   1       5.687   0.865   1.046  0.00  0.00     0.091 A 
ATOM     22  HN  UNL d   1       4.842   2.695   0.521  1.00  0.00     0.167 HD
ATOM     23  S   UNL d   1       5.172  -0.729   1.451  0.00  0.00    -0.080 SA
ATOM     24  C   UNL d   1       3.547  -0.262   1.230  0.00  0.00     0.087 A 
BRANCH  21  25
ATOM     25  C   UNL d   1       7.079   1.256   1.082  0.00  0.00     0.038 A 
ATOM     26  S   UNL d   1       8.365   0.168   0.724  0.00  0.00    -0.099 SA
ATOM     27  C   UNL d   1       9.558   1.346   1.048  0.00  0.00     0.050 A 
ATOM     28  C   UNL d   1       9.003   2.554   1.401  0.00  0.00     0.008 A 
ATOM     29  C   UNL d   1       7.576   2.508   1.398  0.00  0.00     0.022 A 
ENDBRANCH  21  25
ENDBRANCH   1  19
TORSDOF 5
