REMARK  6 active torsions:
REMARK  status: ('A' for Active; 'I' for Inactive)
REMARK    1  A    between atoms: N_2  and  S_1 
REMARK    2  A    between atoms: C_13  and  S_1 
REMARK    3  A    between atoms: C_3  and  N_2 
REMARK    4  A    between atoms: C_10  and  N_2 
REMARK    5  A    between atoms: C_6  and  C_7 
REMARK    6  A    between atoms: C_17  and  C_10 
ROOT
ATOM      1  N   UNL d   1       0.712  -1.062  -1.232  0.00  0.00    -0.251 N 
ENDROOT
BRANCH   1   2
ATOM      2  S   UNL d   1       0.990  -0.078   0.120  0.00  0.00     0.266 S 
ATOM      3  O   UNL d   1       0.650  -0.803   1.330  0.00  0.00    -0.200 OA
ATOM      4  O   UNL d   1       0.459   1.245  -0.133  0.00  0.00    -0.200 OA
BRANCH   2   5
ATOM      5  C   UNL d   1       2.774   0.051   0.098  0.00  0.00     0.080 A 
ATOM      6  C   UNL d   1       3.400   1.089  -0.600  0.00  0.00     0.025 A 
ATOM      7  C   UNL d   1       4.792   1.192  -0.576  0.00  0.00     0.002 A 
ATOM      8  C   UNL d   1       5.551   0.278   0.158  0.00  0.00     0.000 A 
ATOM      9  C   UNL d   1       4.922  -0.746   0.867  0.00  0.00     0.002 A 
ATOM     10  C   UNL d   1       3.532  -0.862   0.840  0.00  0.00     0.025 A 
ENDBRANCH   2   5
ENDBRANCH   1   2
BRANCH   1  11
ATOM     11  C   UNL d   1      -0.366  -1.977  -1.035  0.00  0.00     0.139 A 
ATOM     12  N   UNL d   1      -1.603  -1.463  -1.220  0.00  0.00    -0.349 N 
ATOM     13  C   UNL d   1      -2.654  -2.278  -0.953  0.00  0.00     0.106 A 
ATOM     14  HN  UNL d   1      -1.740  -0.507  -1.547  1.00  0.00     0.166 HD
ATOM     15  C   UNL d   1      -2.532  -3.596  -0.529  0.00  0.00     0.065 A 
ATOM     16  C   UNL d   1      -1.240  -4.103  -0.355  0.00  0.00     0.045 A 
ATOM     17  C   UNL d   1      -0.139  -3.283  -0.593  0.00  0.00     0.079 A 
ATOM     18 CL   UNL d   1       1.440  -3.931  -0.352  0.00  0.00    -0.080 Cl
BRANCH  15  19
ATOM     19  C   UNL d   1      -3.759  -4.417  -0.268  0.00  0.00     0.418 C 
ATOM     20  F   UNL d   1      -3.482  -5.702   0.088  0.00  0.00    -0.166 F 
ATOM     21  F   UNL d   1      -4.524  -3.907   0.733  0.00  0.00    -0.166 F 
ATOM     22  F   UNL d   1      -4.569  -4.499  -1.358  0.00  0.00    -0.166 F 
ENDBRANCH  15  19
ENDBRANCH   1  11
BRANCH   1  23
ATOM     23  C   UNL d   1       0.781  -0.401  -2.554  0.00  0.00     0.183 C 
BRANCH  23  24
ATOM     24  C   UNL d   1       1.627  -1.155  -3.551  0.00  0.00    -0.024 A 
ATOM     25  C   UNL d   1       1.377  -1.036  -4.915  0.00  0.00     0.096 A 
ATOM     26  N   UNL d   1       2.093  -1.661  -5.878  0.00  0.00    -0.375 N 
ATOM     27  C   UNL d   1       3.117  -2.438  -5.467  0.00  0.00     0.087 A 
ATOM     28  HN  UNL d   1       1.869  -1.551  -6.867  1.00  0.00     0.164 HD
ATOM     29  C   UNL d   1       3.473  -2.600  -4.140  0.00  0.00     0.018 A 
ATOM     30  C   UNL d   1       2.725  -1.934  -3.175  0.00  0.00     0.011 A 
ENDBRANCH  23  24
ENDBRANCH   1  23
TORSDOF 6
