REMARK  2 active torsions:
REMARK  status: ('A' for Active; 'I' for Inactive)
REMARK    1  A    between atoms: N_8  and  C_3 
REMARK    2  A    between atoms: C_9  and  C_4 
ROOT
ATOM      1  N   UNL d   1       1.092  -0.662   0.807  0.00  0.00    -0.321 N 
ATOM      2  HN  UNL d   1       1.697  -1.188   1.438  1.00  0.00     0.169 HD
ATOM      3  C   UNL d   1       0.224  -1.201  -0.029  0.00  0.00     0.164 A 
ATOM      4  C   UNL d   1       1.066   0.736   0.703  0.00  0.00     0.123 A 
ATOM      5  N   UNL d   1       0.200   1.287  -0.153  0.00  0.00    -0.309 N 
ATOM      6  HN  UNL d   1       0.059   2.285  -0.311  1.00  0.00     0.176 HD
ATOM      7  S   UNL d   1      -0.601   0.053  -0.906  0.00  0.00     0.024 SA
ENDROOT
BRANCH   3   8
ATOM      8  N   UNL d   1       0.033  -2.549  -0.215  0.00  0.00    -0.360 N 
ATOM      9  C   UNL d   1      -1.244  -3.030  -0.751  0.00  0.00     0.125 C 
ATOM     10  C   UNL d   1      -1.065  -4.404  -1.392  0.00  0.00     0.024 C 
ATOM     11  C   UNL d   1      -0.465  -5.404  -0.401  0.00  0.00    -0.015 C 
ATOM     12  C   UNL d   1       0.850  -4.847   0.158  0.00  0.00     0.024 C 
ATOM     13  C   UNL d   1      -0.250  -6.759  -1.072  0.00  0.00     0.010 C 
ATOM     14  C   UNL d   1       0.673  -3.447   0.755  0.00  0.00     0.125 C 
ENDBRANCH   3   8
BRANCH   4  15
ATOM     15  C   UNL d   1       1.976   1.566   1.503  0.00  0.00     0.009 A 
ATOM     16  C   UNL d   1       2.819   0.991   2.465  0.00  0.00     0.015 A 
ATOM     17  C   UNL d   1       3.695   1.789   3.210  0.00  0.00     0.001 A 
ATOM     18  C   UNL d   1       3.740   3.166   3.003  0.00  0.00     0.000 A 
ATOM     19  C   UNL d   1       2.908   3.753   2.055  0.00  0.00     0.001 A 
ATOM     20  C   UNL d   1       2.031   2.958   1.312  0.00  0.00     0.015 A 
ENDBRANCH   4  15
TORSDOF 2
