REMARK  4 active torsions:
REMARK  status: ('A' for Active; 'I' for Inactive)
REMARK    1  A    between atoms: C_2  and  S_1 
REMARK    2  A    between atoms: C_13  and  S_1 
REMARK    3  A    between atoms: N_16  and  C_5 
REMARK    4  A    between atoms: C_10  and  C_6 
ROOT
ATOM      1  C   UNL d   1       0.558  -1.264   1.144  0.00  0.00     0.113 A 
ATOM      2  N   UNL d   1       0.398  -3.511   1.872  0.00  0.00    -0.331 N 
ATOM      3  HN  UNL d   1       0.496  -4.511   1.697  1.00  0.00     0.168 HD
ATOM      4  C   UNL d   1       0.652  -2.613   0.904  0.00  0.00     0.102 A 
ATOM      5  C   UNL d   1       0.009  -3.053   3.080  0.00  0.00     0.118 A 
ATOM      6  N   UNL d   1      -0.184  -1.752   3.365  0.00  0.00    -0.350 N 
ATOM      7  HN  UNL d   1      -0.513  -1.445   4.281  1.00  0.00     0.166 HD
ATOM      8  C   UNL d   1       0.081  -0.878   2.373  0.00  0.00     0.116 A 
ENDROOT
BRANCH   5   9
ATOM      9  C   UNL d   1      -0.146  -4.031   4.163  0.00  0.00     0.023 A 
ATOM     10  C   UNL d   1       0.078  -5.393   3.955  0.00  0.00     0.102 A 
ATOM     11  N   UNL d   1      -0.029  -6.360   4.904  0.00  0.00    -0.374 N 
ATOM     12  C   UNL d   1      -0.379  -5.955   6.140  0.00  0.00     0.087 A 
ATOM     13  HN  UNL d   1       0.147  -7.342   4.691  1.00  0.00     0.164 HD
ATOM     14  C   UNL d   1      -0.621  -4.634   6.471  0.00  0.00     0.018 A 
ATOM     15  C   UNL d   1      -0.501  -3.668   5.471  0.00  0.00     0.018 A 
ENDBRANCH   5   9
BRANCH   4  16
ATOM     16  N   UNL d   1       1.115  -3.162  -0.282  0.00  0.00    -0.287 NA
ATOM     17  H   UNL d   1       0.982  -4.172  -0.252  0.00  0.00     0.125 HD
ATOM     18  H   UNL d   1       0.673  -2.743  -1.107  0.00  0.00     0.125 HD
ENDBRANCH   4  16
BRANCH   1  19
ATOM     19  S   UNL d   1       1.006  -0.044  -0.029  0.00  0.00     0.183 S 
ATOM     20  O   UNL d   1       0.331   1.181   0.357  0.00  0.00    -0.222 OA
ATOM     21  O   UNL d   1       0.775  -0.605  -1.349  0.00  0.00    -0.222 OA
BRANCH  19  22
ATOM     22  C   UNL d   1       2.778   0.183   0.215  0.00  0.00     0.105 C 
ATOM     23  C   UNL d   1       3.311   1.215  -0.777  0.00  0.00     0.026 C 
ATOM     24  C   UNL d   1       3.113   0.622   1.640  0.00  0.00     0.026 C 
ENDBRANCH  19  22
ENDBRANCH   1  19
TORSDOF 4
