REMARK  4 active torsions:
REMARK  status: ('A' for Active; 'I' for Inactive)
REMARK    1  A    between atoms: C_3  and  C_1 
REMARK    2  A    between atoms: S_4  and  C_2 
REMARK    3  A    between atoms: O_10  and  C_3 
REMARK    4  A    between atoms: C_9  and  S_4 
ROOT
ATOM      1  C   UNL d   1       1.058   0.695  -0.302  0.00  0.00     0.040 C 
ATOM      2  C   UNL d   1       1.112  -0.646  -0.159  0.00  0.00     0.005 C 
ATOM      3  S   UNL d   1      -1.466  -0.038   0.139  0.00  0.00    -0.159 SA
ATOM      4  C   UNL d   1      -0.287   1.321  -0.067  0.00  0.00     0.120 C 
ATOM      5  C   UNL d   1      -0.188  -1.317   0.196  0.00  0.00     0.121 C 
ENDROOT
BRANCH   2   6
ATOM      6  S   UNL d   1       2.527  -1.646  -0.224  0.00  0.00    -0.093 SA
BRANCH   6   7
ATOM      7  C   UNL d   1       2.532  -2.123  -1.942  0.00  0.00     0.005 A 
ATOM      8  C   UNL d   1       3.323  -1.419  -2.858  0.00  0.00     0.020 A 
ATOM      9  C   UNL d   1       3.433  -1.851  -4.183  0.00  0.00     0.025 A 
ATOM     10  C   UNL d   1       2.758  -2.997  -4.593  0.00  0.00     0.034 A 
ATOM     11  C   UNL d   1       1.965  -3.706  -3.693  0.00  0.00     0.025 A 
ATOM     12 CL   UNL d   1       2.925  -3.554  -6.212  0.00  0.00    -0.084 Cl
ATOM     13  C   UNL d   1       1.855  -3.271  -2.368  0.00  0.00     0.020 A 
ENDBRANCH   6   7
ENDBRANCH   2   6
BRANCH   1  14
ATOM     14  C   UNL d   1       2.099   1.694  -0.641  0.00  0.00     0.290 C 
ATOM     15  O   UNL d   1       1.815   2.851  -0.922  0.00  0.00    -0.260 OA
BRANCH  14  16
ATOM     16  O   UNL d   1       3.350   1.190  -0.597  0.00  0.00    -0.323 OA
ATOM     17  C   UNL d   1       4.418   2.070  -0.959  0.00  0.00     0.213 C 
ENDBRANCH  14  16
ENDBRANCH   1  14
TORSDOF 4
