REMARK  8 active torsions:
REMARK  status: ('A' for Active; 'I' for Inactive)
REMARK    1  A    between atoms: C_7  and  C_1 
REMARK    2  A    between atoms: C_5  and  S_17 
REMARK    3  A    between atoms: S_18  and  C_6 
REMARK    4  A    between atoms: C_13  and  C_16 
REMARK    5  A    between atoms: C_25  and  C_14 
REMARK    6  A    between atoms: S_17  and  C_25 
REMARK    7  A    between atoms: C_27  and  S_18 
REMARK    8  A    between atoms: C_26  and  C_27 
ROOT
ATOM      1  S   UNL d   1      -5.796   3.315  -0.385  0.00  0.00    -0.038 SA
ATOM      2  C   UNL d   1      -4.109   3.231  -0.095  0.00  0.00     0.129 A 
ATOM      3  C   UNL d   1      -5.679   5.013  -0.179  0.00  0.00     0.129 A 
ATOM      4  N   UNL d   1      -3.533   4.398   0.069  0.00  0.00    -0.287 N 
ATOM      5  HN  UNL d   1      -2.531   4.526   0.214  1.00  0.00     0.188 HD
ATOM      6  N   UNL d   1      -4.446   5.433   0.022  0.00  0.00    -0.287 N 
ATOM      7  HN  UNL d   1      -4.194   6.415   0.131  1.00  0.00     0.188 HD
ENDROOT
BRANCH   2   8
ATOM      8  S   UNL d   1      -3.240   1.714  -0.022  0.00  0.00    -0.097 SA
BRANCH   8   9
ATOM      9  C   UNL d   1      -1.746   2.188   0.900  0.00  0.00     0.148 C 
BRANCH   9  10
ATOM     10  C   UNL d   1      -1.992   2.565   2.314  0.00  0.00     0.088 A 
ATOM     11  C   UNL d   1      -3.035   2.452   3.200  0.00  0.00     0.068 A 
ATOM     12  C   UNL d   1      -2.644   3.233   4.323  0.00  0.00     0.070 A 
ATOM     13  N   UNL d   1      -1.378   3.651   4.179  0.00  0.00    -0.260 N 
ATOM     14  O   UNL d   1      -0.975   3.232   2.926  0.00  0.00    -0.241 OA
ATOM     15  HN  UNL d   1      -0.825   4.174   4.858  1.00  0.00     0.195 HD
BRANCH  12  16
ATOM     16  C   UNL d   1      -3.478   3.647   5.447  0.00  0.00     0.036 A 
ATOM     17  C   UNL d   1      -3.134   3.367   6.780  0.00  0.00     0.048 A 
ATOM     18 CL   UNL d   1      -1.694   2.509   7.220  0.00  0.00    -0.083 Cl
ATOM     19  C   UNL d   1      -3.973   3.760   7.835  0.00  0.00     0.025 A 
ATOM     20  C   UNL d   1      -5.167   4.435   7.580  0.00  0.00     0.003 A 
ATOM     21  C   UNL d   1      -5.505   4.740   6.268  0.00  0.00     0.025 A 
ATOM     22  C   UNL d   1      -4.670   4.362   5.212  0.00  0.00     0.048 A 
ATOM     23 CL   UNL d   1      -5.165   4.862   3.626  0.00  0.00    -0.083 Cl
ENDBRANCH  12  16
ENDBRANCH   9  10
ENDBRANCH   8   9
ENDBRANCH   2   8
BRANCH   3  24
ATOM     24  S   UNL d   1      -6.989   6.176  -0.192  0.00  0.00    -0.099 SA
BRANCH  24  25
ATOM     25  C   UNL d   1      -8.489   5.226  -0.509  0.00  0.00     0.120 C 
BRANCH  25  26
ATOM     26  C   UNL d   1      -9.044   4.341   0.590  0.00  0.00    -0.048 A 
ATOM     27  C   UNL d   1      -8.588   4.335   1.917  0.00  0.00     0.024 A 
ATOM     28  C   UNL d   1      -9.150   3.476   2.881  0.00  0.00     0.048 A 
ATOM     29  C   UNL d   1     -10.198   2.627   2.511  0.00  0.00     0.016 A 
ATOM     30  C   UNL d   1     -10.690   2.647   1.210  0.00  0.00     0.001 A 
ATOM     31  C   UNL d   1     -10.118   3.495   0.261  0.00  0.00     0.008 A 
BRANCH  28  32
ATOM     32  C   UNL d   1      -8.608   3.450   4.288  0.00  0.00     0.417 C 
ATOM     33  F   UNL d   1      -8.292   4.689   4.755  0.00  0.00    -0.166 F 
ATOM     34  F   UNL d   1      -9.481   2.930   5.196  0.00  0.00    -0.166 F 
ATOM     35  F   UNL d   1      -7.475   2.702   4.396  0.00  0.00    -0.166 F 
ENDBRANCH  28  32
ENDBRANCH  25  26
ENDBRANCH  24  25
ENDBRANCH   3  24
TORSDOF 8
