REMARK  5 active torsions:
REMARK  status: ('A' for Active; 'I' for Inactive)
REMARK    1  A    between atoms: N_5  and  C_1 
REMARK    2  A    between atoms: C_3  and  C_2 
REMARK       I    between atoms: N_6  and  C_3 
REMARK    3  A    between atoms: O_19  and  C_4 
REMARK       I    between atoms: C_8  and  N_6 
REMARK       I    between atoms: N_12  and  C_8 
REMARK    4  A    between atoms: O_21  and  C_9 
REMARK    5  A    between atoms: C_10  and  N_12 
ROOT
ATOM      1  C   UNL d   1       1.993   2.367   0.148  0.00  0.00     0.265 C 
ATOM      2  N   UNL d   1       2.976   2.492  -0.823  0.00  0.00    -0.275 N 
ATOM      3  C   UNL d   1       2.962   1.978  -2.106  0.00  0.00     0.327 C 
ATOM      4  N   UNL d   1       3.938   2.453  -2.968  0.00  0.00    -0.305 N 
ATOM      5  O   UNL d   1       1.800   3.272   0.955  0.00  0.00    -0.267 OA
ATOM      6  O   UNL d   1       2.140   1.164  -2.523  0.00  0.00    -0.247 OA
ATOM      7  H   UNL d   1       3.464   3.361  -0.701  0.00  0.00     0.173 HD
ATOM      8  H   UNL d   1       3.577   2.394  -3.916  0.00  0.00     0.171 HD
ENDROOT
BRANCH   1   9
ATOM      9  C   UNL d   1       1.189   1.132   0.190  0.00  0.00     0.103 C 
ATOM     10  C   UNL d   1       1.861  -0.098   0.269  0.00  0.00     0.119 C 
ATOM     11  C   UNL d   1       1.149  -1.276   0.021  0.00  0.00     0.139 C 
ATOM     12  C   UNL d   1      -0.254  -1.241  -0.089  0.00  0.00     0.065 C 
ATOM     13  C   UNL d   1      -0.925  -0.021  -0.001  0.00  0.00     0.070 C 
ATOM     14  C   UNL d   1      -0.214   1.179   0.132  0.00  0.00     0.108 C 
ATOM     15 CL   UNL d   1      -2.648  -0.055  -0.126  0.00  0.00    -0.081 Cl
BRANCH  10  16
ATOM     16  O   UNL d   1       3.186  -0.088   0.623  0.00  0.00    -0.352 OA
ATOM     17  C   UNL d   1       3.346  -0.529   1.978  0.00  0.00     0.210 C 
ENDBRANCH  10  16
BRANCH  11  18
ATOM     18  N   UNL d   1       1.830  -2.547  -0.210  0.00  0.00    -0.113 N 
ATOM     19  O   UNL d   1       3.029  -2.535  -0.527  0.00  0.00    -0.532 OA
ATOM     20  O   UNL d   1       1.154  -3.583  -0.093  0.00  0.00    -0.532 OA
ENDBRANCH  11  18
BRANCH  14  21
ATOM     21  O   UNL d   1      -0.866   2.384   0.073  0.00  0.00    -0.353 OA
ATOM     22  C   UNL d   1      -1.396   2.763   1.348  0.00  0.00     0.210 C 
ENDBRANCH  14  21
ENDBRANCH   1   9
BRANCH   4  23
ATOM     23  C   UNL d   1       4.729   3.591  -2.667  0.00  0.00     0.080 A 
ATOM     24  C   UNL d   1       5.861   3.480  -1.843  0.00  0.00     0.062 A 
ATOM     25 CL   UNL d   1       6.509   1.943  -1.393  0.00  0.00    -0.082 Cl
ATOM     26  C   UNL d   1       6.496   4.627  -1.363  0.00  0.00     0.026 A 
ATOM     27  C   UNL d   1       6.006   5.888  -1.702  0.00  0.00     0.003 A 
ATOM     28  C   UNL d   1       4.923   6.006  -2.574  0.00  0.00     0.026 A 
ATOM     29  C   UNL d   1       4.302   4.862  -3.079  0.00  0.00     0.062 A 
ATOM     30 CL   UNL d   1       2.941   5.056  -4.124  0.00  0.00    -0.082 Cl
ENDBRANCH   4  23
TORSDOF 5
