REMARK  7 active torsions:
REMARK  status: ('A' for Active; 'I' for Inactive)
REMARK    1  A    between atoms: C_7  and  C_1 
REMARK       I    between atoms: C_8  and  N_9 
REMARK    2  A    between atoms: C_19  and  C_8 
REMARK    3  A    between atoms: N_9  and  C_12 
REMARK    4  A    between atoms: C_10  and  C_20 
REMARK    5  A    between atoms: O_17  and  C_10 
REMARK    6  A    between atoms: S_16  and  C_19 
REMARK    7  A    between atoms: C_20  and  S_16 
ROOT
ATOM      1  C   UNL d   1       2.160  -1.401   0.059  0.00  0.00    -0.004 A 
ATOM      2  C   UNL d   1       2.280  -2.196  -1.093  0.00  0.00     0.043 A 
ATOM      3  C   UNL d   1       3.410  -2.981  -1.329  0.00  0.00     0.035 A 
ATOM      4  C   UNL d   1       3.205  -1.406   0.989  0.00  0.00     0.014 A 
ATOM      5  C   UNL d   1       4.338  -2.194   0.769  0.00  0.00     0.003 A 
ATOM      6  C   UNL d   1       4.434  -2.990  -0.375  0.00  0.00     0.029 A 
ENDROOT
BRANCH   3   7
ATOM      7  N   UNL d   1       3.561  -3.788  -2.481  0.00  0.00    -0.327 N 
ATOM      8  C   UNL d   1       2.805  -3.703  -3.636  0.00  0.00     0.231 C 
ATOM      9  O   UNL d   1       1.919  -2.878  -3.879  0.00  0.00    -0.272 OA
ATOM     10  H   UNL d   1       4.325  -4.451  -2.465  0.00  0.00     0.169 HD
BRANCH   8  11
ATOM     11  C   UNL d   1       3.104  -4.772  -4.670  0.00  0.00     0.177 C 
BRANCH  11  12
ATOM     12  S   UNL d   1       1.965  -6.183  -4.476  0.00  0.00    -0.149 SA
BRANCH  12  13
ATOM     13  C   UNL d   1       0.337  -5.356  -4.570  0.00  0.00     0.184 C 
BRANCH  13  14
ATOM     14  C   UNL d   1       0.098  -4.676  -5.899  0.00  0.00     0.149 C 
ATOM     15  O   UNL d   1      -0.327  -5.249  -6.892  0.00  0.00    -0.649 OA
BRANCH  14  16
ATOM     16  O   UNL d   1       0.410  -3.357  -5.919  0.00  0.00    -0.776 OA
ATOM     17  H   UNL d   1       0.784  -3.002  -5.073  0.00  0.00     0.167 HD
ENDBRANCH  14  16
ENDBRANCH  13  14
ENDBRANCH  12  13
ENDBRANCH  11  12
ENDBRANCH   8  11
ENDBRANCH   3   7
BRANCH   1  18
ATOM     18  C   UNL d   1       0.925  -0.639   0.276  0.00  0.00     0.077 A 
ATOM     19  C   UNL d   1       0.711   0.646   0.840  0.00  0.00     0.057 A 
ATOM     20  C   UNL d   1      -0.642   0.864   0.811  0.00  0.00     0.131 A 
ATOM     21 BR   UNL d   1       1.985   1.869   1.469  0.00  0.00    -0.047 Br
ATOM     22  N   UNL d   1      -1.172  -0.247   0.234  0.00  0.00    -0.306 N 
ATOM     23  N   UNL d   1      -0.255  -1.167  -0.105  0.00  0.00    -0.297 N 
ATOM     24  C   UNL d   1      -2.571  -0.496  -0.020  0.00  0.00     0.177 C 
ATOM     25  HN  UNL d   1      -0.417  -2.069  -0.552  1.00  0.00     0.187 HD
ENDBRANCH   1  18
TORSDOF 7
