REMARK  3 active torsions:
REMARK  status: ('A' for Active; 'I' for Inactive)
REMARK    1  A    between atoms: C_9  and  N_1 
REMARK    2  A    between atoms: S_4  and  C_8 
REMARK    3  A    between atoms: N_7  and  S_4 
ROOT
ATOM      1  C   UNL d   1      -6.348  -2.408  -0.197  0.00  0.00     0.079 A 
ATOM      2  C   UNL d   1      -3.736  -1.335  -0.019  0.00  0.00     0.046 A 
ATOM      3  C   UNL d   1      -5.568  -2.658   0.928  0.00  0.00     0.027 A 
ATOM      4  C   UNL d   1      -5.835  -1.647  -1.246  0.00  0.00     0.027 A 
ATOM      5  C   UNL d   1      -4.546  -1.101  -1.144  0.00  0.00     0.032 A 
ATOM      6  C   UNL d   1      -4.281  -2.116   1.016  0.00  0.00     0.032 A 
ENDROOT
BRANCH   2   7
ATOM      7  N   UNL d   1      -2.399  -0.838   0.059  0.00  0.00    -0.241 N 
ATOM      8  C   UNL d   1      -1.864   0.149  -0.752  0.00  0.00     0.284 A 
ATOM      9  C   UNL d   1      -0.460   0.290  -0.369  0.00  0.00     0.134 A 
ATOM     10  O   UNL d   1      -2.388   0.836  -1.611  0.00  0.00    -0.265 OA
ATOM     11  N   UNL d   1       0.467   1.110  -0.904  0.00  0.00    -0.358 N 
ATOM     12  C   UNL d   1      -0.207  -0.587   0.644  0.00  0.00     0.134 A 
ATOM     13  C   UNL d   1       1.694   0.964  -0.333  0.00  0.00     0.105 A 
ATOM     14  HN  UNL d   1       0.270   1.769  -1.656  1.00  0.00     0.165 HD
ATOM     15  C   UNL d   1       1.953   0.054   0.699  0.00  0.00     0.105 A 
ATOM     16  N   UNL d   1       0.998  -0.755   1.225  0.00  0.00    -0.358 N 
ATOM     17  HN  UNL d   1       1.173  -1.419   1.979  1.00  0.00     0.165 HD
ATOM     18  C   UNL d   1      -1.437  -1.311   0.937  0.00  0.00     0.284 A 
ATOM     19  O   UNL d   1      -1.495  -2.179   1.790  0.00  0.00    -0.265 OA
ENDBRANCH   2   7
BRANCH   1  20
ATOM     20  S   UNL d   1      -7.958  -3.153  -0.327  0.00  0.00     0.261 S 
ATOM     21  O   UNL d   1      -8.254  -3.291  -1.737  0.00  0.00    -0.200 OA
ATOM     22  O   UNL d   1      -7.965  -4.303   0.552  0.00  0.00    -0.200 OA
BRANCH  20  23
ATOM     23  N   UNL d   1      -8.996  -1.998   0.323  0.00  0.00    -0.303 N 
ATOM     24  C   UNL d   1      -8.971  -1.717   1.780  0.00  0.00     0.161 C 
ATOM     25  C   UNL d   1      -8.213  -0.420   2.083  0.00  0.00     0.188 C 
ATOM     26  O   UNL d   1      -8.743   0.682   1.335  0.00  0.00    -0.388 OA
ATOM     27  C   UNL d   1      -8.636   0.437  -0.074  0.00  0.00     0.188 C 
ATOM     28  C   UNL d   1      -9.403  -0.822  -0.485  0.00  0.00     0.161 C 
ENDBRANCH  20  23
ENDBRANCH   1  20
TORSDOF 3
