REMARK  3 active torsions:
REMARK  status: ('A' for Active; 'I' for Inactive)
REMARK       I    between atoms: N_3  and  C_1 
REMARK    1  A    between atoms: C_7  and  C_1 
REMARK       I    between atoms: C_2  and  N_4 
REMARK    2  A    between atoms: C_5  and  C_2 
REMARK    3  A    between atoms: N_4  and  N_3 
ROOT
ATOM      1  C   UNL d   1       0.409  -1.261   3.310  0.00  0.00     0.270 C 
ATOM      2  N   UNL d   1       0.953  -1.299   2.043  0.00  0.00    -0.263 N 
ATOM      3  O   UNL d   1      -0.617  -0.646   3.586  0.00  0.00    -0.266 OA
ATOM      4  H   UNL d   1       1.914  -1.583   1.861  0.00  0.00     0.190 HD
ENDROOT
BRANCH   2   5
ATOM      5  N   UNL d   1       0.314  -0.600   1.012  0.00  0.00    -0.266 N 
ATOM      6  C   UNL d   1       1.089  -0.178  -0.053  0.00  0.00     0.249 C 
ATOM      7  O   UNL d   1       2.286  -0.458  -0.134  0.00  0.00    -0.271 OA
ATOM      8  H   UNL d   1      -0.569  -0.141   1.241  0.00  0.00     0.190 HD
BRANCH   6   9
ATOM      9  C   UNL d   1       0.308   0.497  -1.172  0.00  0.00     0.141 C 
ATOM     10  S   UNL d   1      -0.673   1.918  -0.594  0.00  0.00    -0.155 SA
ATOM     11  C   UNL d   1      -0.334   2.960  -2.045  0.00  0.00     0.075 C 
ATOM     12  C   UNL d   1       0.337   2.043  -3.054  0.00  0.00     0.012 C 
ATOM     13  C   UNL d   1       1.204   1.079  -2.259  0.00  0.00     0.026 C 
ENDBRANCH   6   9
ENDBRANCH   2   5
BRANCH   1  14
ATOM     14  C   UNL d   1       1.147  -2.019   4.357  0.00  0.00     0.033 A 
ATOM     15  C   UNL d   1       1.071  -1.583   5.686  0.00  0.00     0.019 A 
ATOM     16  C   UNL d   1       1.717  -2.299   6.698  0.00  0.00     0.025 A 
ATOM     17  C   UNL d   1       2.428  -3.456   6.383  0.00  0.00     0.034 A 
ATOM     18  C   UNL d   1       2.503  -3.902   5.066  0.00  0.00     0.025 A 
ATOM     19 CL   UNL d   1       3.202  -4.352   7.633  0.00  0.00    -0.084 Cl
ATOM     20  C   UNL d   1       1.863  -3.185   4.049  0.00  0.00     0.019 A 
ENDBRANCH   1  14
TORSDOF 3
