REMARK  4 active torsions:
REMARK  status: ('A' for Active; 'I' for Inactive)
REMARK    1  A    between atoms: C_4  and  C_1 
REMARK    2  A    between atoms: C_5  and  C_2 
REMARK    3  A    between atoms: K_12  and  K_12 
REMARK    4  A    between atoms: K_13  and  K_13 
ROOT
ATOM      1  K   UNL d   2       1.877   2.559   3.136  0.00  0.00     0.000 K 
ENDROOT
TORSDOF 4
