REMARK  4 active torsions:
REMARK  status: ('A' for Active; 'I' for Inactive)
REMARK    1  A    between atoms: C_7  and  C_11 
REMARK    2  A    between atoms: C_8  and  C_10 
REMARK    3  A    between atoms: N_13  and  C_9 
REMARK    4  A    between atoms: C_16  and  N_13 
ROOT
ATOM      1  C   UNL d   1      -6.608   0.104  -2.071  0.00  0.00     0.050 A 
ATOM      2  C   UNL d   1      -5.890   1.880  -3.579  0.00  0.00     0.050 A 
ATOM      3  C   UNL d   1      -6.855   0.953  -3.159  0.00  0.00     0.032 A 
ATOM      4  C   UNL d   1      -4.413   1.142  -1.773  0.00  0.00     0.033 A 
ATOM      5  C   UNL d   1      -5.378   0.201  -1.401  0.00  0.00     0.045 A 
ATOM      6  C   UNL d   1      -4.683   1.978  -2.864  0.00  0.00     0.045 A 
ENDROOT
BRANCH   4   7
ATOM      7  N   UNL d   1      -3.145   1.186  -1.176  0.00  0.00    -0.365 N 
ATOM      8  H   UNL d   1      -2.685   2.099  -1.143  0.00  0.00     0.165 HD
BRANCH   7   9
ATOM      9  C   UNL d   1      -2.429   0.122  -0.671  0.00  0.00     0.112 C 
ATOM     10  C   UNL d   1      -1.198   0.115  -0.134  0.00  0.00     0.130 C 
ATOM     11  C   UNL d   1      -0.602  -1.175   0.227  0.00  0.00     0.303 C 
ATOM     12  C   UNL d   1      -0.438   1.358   0.012  0.00  0.00     0.303 C 
ATOM     13  O   UNL d   1       0.745  -1.175   0.303  0.00  0.00    -0.279 OA
ATOM     14  O   UNL d   1      -1.258  -2.185   0.434  0.00  0.00    -0.259 OA
ATOM     15  C   UNL d   1       1.458  -0.057  -0.235  0.00  0.00     0.175 C 
ATOM     16  O   UNL d   1       0.895   1.199   0.146  0.00  0.00    -0.279 OA
ATOM     17  C   UNL d   1       1.554  -0.161  -1.762  0.00  0.00     0.080 C 
ATOM     18  C   UNL d   1       2.862  -0.102   0.362  0.00  0.00     0.080 C 
ATOM     19  O   UNL d   1      -0.956   2.469   0.007  0.00  0.00    -0.259 OA
ENDBRANCH   7   9
ENDBRANCH   4   7
BRANCH   1  20
ATOM     20  C   UNL d   1      -7.616  -0.926  -1.627  0.00  0.00     0.417 C 
ATOM     21  F   UNL d   1      -8.758  -0.921  -2.368  0.00  0.00    -0.166 F 
ATOM     22  F   UNL d   1      -7.126  -2.193  -1.703  0.00  0.00    -0.166 F 
ATOM     23  F   UNL d   1      -8.007  -0.751  -0.335  0.00  0.00    -0.166 F 
ENDBRANCH   1  20
BRANCH   2  24
ATOM     24  C   UNL d   1      -6.108   2.726  -4.810  0.00  0.00     0.417 C 
ATOM     25  F   UNL d   1      -7.292   2.477  -5.436  0.00  0.00    -0.166 F 
ATOM     26  F   UNL d   1      -6.098   4.060  -4.542  0.00  0.00    -0.166 F 
ATOM     27  F   UNL d   1      -5.143   2.524  -5.750  0.00  0.00    -0.166 F 
ENDBRANCH   2  24
TORSDOF 4
