REMARK  8 active torsions:
REMARK  status: ('A' for Active; 'I' for Inactive)
REMARK    1  A    between atoms: S_14  and  C_3 
REMARK    2  A    between atoms: C_7  and  C_4 
REMARK    3  A    between atoms: O_19  and  C_7 
REMARK    4  A    between atoms: C_8  and  O_18 
REMARK       I    between atoms: N_12  and  C_8 
REMARK    5  A    between atoms: C_17  and  N_12 
REMARK    6  A    between atoms: C_28  and  S_14 
REMARK    7  A    between atoms: O_18  and  C_29 
REMARK    8  A    between atoms: C_29  and  C_28 
ROOT
ATOM      1  C   UNL d   1       0.081  -0.694   0.022  0.00  0.00     0.041 A 
ATOM      2  C   UNL d   1       0.428   0.715   0.005  0.00  0.00    -0.018 A 
ATOM      3  C   UNL d   1       1.191  -1.508  -0.078  0.00  0.00     0.056 A 
ATOM      4  C   UNL d   1       1.806   0.907  -0.050  0.00  0.00     0.088 A 
ATOM      5  S   UNL d   1       2.632  -0.598  -0.072  0.00  0.00    -0.076 SA
ATOM      6  C   UNL d   1      -1.311  -1.131   0.088  0.00  0.00     0.162 C 
ATOM      7  C   UNL d   1      -0.637   1.796  -0.001  0.00  0.00     0.050 C 
ATOM      8  C   UNL d   1      -2.057   1.268   0.367  0.00  0.00    -0.037 C 
ATOM      9  C   UNL d   1      -2.325  -0.083  -0.333  0.00  0.00     0.093 C 
ATOM     10  O   UNL d   1      -1.662  -2.243   0.474  0.00  0.00    -0.292 OA
ATOM     11  C   UNL d   1      -3.127   2.273  -0.102  0.00  0.00     0.015 C 
ATOM     12  C   UNL d   1      -2.191   1.117   1.897  0.00  0.00     0.015 C 
ENDROOT
BRANCH   3  13
ATOM     13  S   UNL d   1       1.251  -3.251  -0.324  0.00  0.00    -0.119 SA
BRANCH  13  14
ATOM     14  C   UNL d   1       1.409  -3.838   1.394  0.00  0.00     0.107 C 
BRANCH  14  15
ATOM     15  C   UNL d   1       1.383  -5.367   1.443  0.00  0.00     0.191 C 
BRANCH  15  16
ATOM     16  O   UNL d   1       2.523  -5.973   0.803  0.00  0.00    -0.303 OA
BRANCH  16  17
ATOM     17  C   UNL d   1       3.663  -6.035   1.533  0.00  0.00     0.365 C 
ATOM     18  N   UNL d   1       4.699  -6.727   0.963  0.00  0.00    -0.303 N 
ATOM     19  H   UNL d   1       5.499  -6.746   1.582  0.00  0.00     0.171 HD
ATOM     20  O   UNL d   1       3.788  -5.543   2.647  0.00  0.00    -0.238 OA
BRANCH  18  21
ATOM     21  C   UNL d   1       4.837  -7.388  -0.272  0.00  0.00     0.036 A 
ATOM     22  C   UNL d   1       3.855  -7.444  -1.263  0.00  0.00     0.031 A 
ATOM     23  C   UNL d   1       4.101  -8.102  -2.477  0.00  0.00     0.026 A 
ATOM     24  C   UNL d   1       5.330  -8.709  -2.705  0.00  0.00     0.034 A 
ATOM     25  C   UNL d   1       6.315  -8.679  -1.723  0.00  0.00     0.026 A 
ATOM     26 CL   UNL d   1       5.638  -9.489  -4.207  0.00  0.00    -0.084 Cl
ATOM     27  C   UNL d   1       6.066  -8.022  -0.513  0.00  0.00     0.031 A 
ENDBRANCH  18  21
ENDBRANCH  16  17
ENDBRANCH  15  16
ENDBRANCH  14  15
ENDBRANCH  13  14
ENDBRANCH   3  13
BRANCH   4  28
ATOM     28  C   UNL d   1       2.544   2.166  -0.110  0.00  0.00     0.300 C 
ATOM     29  O   UNL d   1       2.034   3.280  -0.135  0.00  0.00    -0.259 OA
BRANCH  28  30
ATOM     30  O   UNL d   1       3.893   1.949  -0.137  0.00  0.00    -0.322 OA
ATOM     31  C   UNL d   1       4.698   3.126  -0.204  0.00  0.00     0.213 C 
ENDBRANCH  28  30
ENDBRANCH   4  28
TORSDOF 8
