REMARK  4 active torsions:
REMARK  status: ('A' for Active; 'I' for Inactive)
REMARK    1  A    between atoms: N_3  and  C_1 
REMARK    2  A    between atoms: S_5  and  C_2 
REMARK    3  A    between atoms: C_4  and  C_6 
REMARK    4  A    between atoms: C_11  and  S_5 
ROOT
ATOM      1  C   UNL d   1       3.517   5.364  -0.107  0.00  0.00     0.063 A 
ATOM      2  N   UNL d   1       1.388   4.757   0.874  0.00  0.00    -0.359 N 
ATOM      3  HN  UNL d   1       0.716   4.841   1.636  1.00  0.00     0.166 HD
ATOM      4  C   UNL d   1       1.139   3.966  -0.195  0.00  0.00     0.075 A 
ATOM      5  C   UNL d   1       2.563   5.432   0.896  0.00  0.00     0.105 A 
ATOM      6  C   UNL d   1       3.223   4.566  -1.216  0.00  0.00     0.020 A 
ATOM      7  C   UNL d   1       2.024   3.853  -1.261  0.00  0.00     0.038 A 
ENDROOT
BRANCH   4   8
ATOM      8  S   UNL d   1      -0.318   2.941  -0.129  0.00  0.00    -0.063 SA
BRANCH   8   9
ATOM      9  C   UNL d   1      -1.507   4.102  -0.725  0.00  0.00     0.080 A 
ATOM     10  C   UNL d   1      -2.037   4.263  -1.999  0.00  0.00     0.127 A 
ATOM     11  C   UNL d   1      -3.067   5.271  -2.019  0.00  0.00     0.045 A 
ATOM     12  C   UNL d   1      -3.284   5.835  -0.784  0.00  0.00     0.053 A 
ATOM     13  S   UNL d   1      -2.260   5.168   0.402  0.00  0.00    -0.092 SA
BRANCH  10  14
ATOM     14  N   UNL d   1      -1.653   3.526  -3.187  0.00  0.00    -0.114 N 
ATOM     15  O   UNL d   1      -0.705   2.736  -3.117  0.00  0.00    -0.532 OA
ATOM     16  O   UNL d   1      -2.301   3.765  -4.214  0.00  0.00    -0.532 OA
ENDBRANCH  10  14
ENDBRANCH   8   9
ENDBRANCH   4   8
BRANCH   1  17
ATOM     17  C   UNL d   1       4.819   6.095   0.014  0.00  0.00     0.418 C 
ATOM     18  F   UNL d   1       4.945   6.800   1.171  0.00  0.00    -0.166 F 
ATOM     19  F   UNL d   1       5.890   5.255  -0.027  0.00  0.00    -0.166 F 
ATOM     20  F   UNL d   1       5.010   6.991  -0.993  0.00  0.00    -0.166 F 
ENDBRANCH   1  17
TORSDOF 4
