REMARK  3 active torsions:
REMARK  status: ('A' for Active; 'I' for Inactive)
REMARK       I    between atoms: N_2  and  C_1 
REMARK       I    between atoms: N_3  and  C_1 
REMARK    1  A    between atoms: C_13  and  N_3 
REMARK    2  A    between atoms: N_4  and  C_10 
REMARK    3  A    between atoms: C_10  and  C_7 
ROOT
ATOM      1  C   UNL d   1       0.957   0.198  -0.210  0.00  0.00     0.322 C 
ATOM      2  N   UNL d   1       0.267   1.373   0.097  0.00  0.00    -0.334 N 
ATOM      3  N   UNL d   1       0.849  -0.820   0.713  0.00  0.00    -0.309 N 
ATOM      4  C   UNL d   1      -0.634   1.596   1.234  0.00  0.00     0.133 C 
ATOM      5  O   UNL d   1       1.637   0.128  -1.231  0.00  0.00    -0.247 OA
ATOM      6  C   UNL d   1      -1.805   2.530   0.879  0.00  0.00     0.022 C 
ATOM      7  C   UNL d   1       0.747   2.587  -0.573  0.00  0.00     0.127 C 
ATOM      8  C   UNL d   1      -0.385   3.523  -0.966  0.00  0.00     0.020 C 
ATOM      9  C   UNL d   1      -1.277   3.821   0.232  0.00  0.00     0.009 C 
ATOM     10  H   UNL d   1       0.363  -0.617   1.567  0.00  0.00     0.170 HD
ENDROOT
BRANCH   3  11
ATOM     11  C   UNL d   1       1.562  -2.043   0.706  0.00  0.00     0.036 A 
ATOM     12  C   UNL d   1       2.398  -2.458  -0.336  0.00  0.00     0.031 A 
ATOM     13  C   UNL d   1       3.151  -3.632  -0.227  0.00  0.00     0.026 A 
ATOM     14  C   UNL d   1       3.059  -4.410   0.921  0.00  0.00     0.034 A 
ATOM     15  C   UNL d   1       2.198  -4.037   1.950  0.00  0.00     0.026 A 
ATOM     16 CL   UNL d   1       4.022  -5.825   1.076  0.00  0.00    -0.084 Cl
ATOM     17  C   UNL d   1       1.449  -2.860   1.839  0.00  0.00     0.031 A 
ENDBRANCH   3  11
BRANCH   6  18
ATOM     18  C   UNL d   1      -2.822   1.769   0.002  0.00  0.00     0.134 C 
BRANCH  18  19
ATOM     19  N   UNL d   1      -3.972   2.568  -0.388  0.00  0.00    -0.366 N 
ATOM     20  C   UNL d   1      -4.976   2.974   0.451  0.00  0.00     0.090 A 
ATOM     21  C   UNL d   1      -5.857   3.736  -0.285  0.00  0.00     0.019 A 
ATOM     22  C   UNL d   1      -5.379   3.771  -1.617  0.00  0.00     0.019 A 
ATOM     23  C   UNL d   1      -4.218   3.028  -1.654  0.00  0.00     0.090 A 
ENDBRANCH  18  19
ENDBRANCH   6  18
TORSDOF 3
