REMARK  1 active torsions:
REMARK  status: ('A' for Active; 'I' for Inactive)
REMARK    1  A    between atoms: C_4  and  N_1 
ROOT
ATOM      1  N   UNL d   1      -0.853   1.035  -0.021  0.00  0.00    -0.224 N 
ATOM      2  N   UNL d   1      -1.284  -0.264   0.089  0.00  0.00    -0.300 N 
ATOM      3  HN  UNL d   1      -2.279  -0.456   0.198  1.00  0.00     0.187 HD
ATOM      4  C   UNL d   1       0.489   1.409  -0.082  0.00  0.00     0.243 C 
ATOM      5  C   UNL d   1      -0.446  -1.246   0.056  0.00  0.00     0.001 C 
ATOM      6  O   UNL d   1       0.904   2.573  -0.124  0.00  0.00    -0.271 OA
ATOM      7  C   UNL d   1       1.523   0.317  -0.028  0.00  0.00     0.111 C 
ATOM      8  C   UNL d   1       1.034  -1.103  -0.063  0.00  0.00     0.063 C 
ATOM      9  C   UNL d   1      -0.995  -2.651   0.104  0.00  0.00     0.065 C 
ENDROOT
BRANCH   1  10
ATOM     10  C   UNL d   1      -1.941   1.977  -0.107  0.00  0.00     0.063 A 
ATOM     11  C   UNL d   1      -1.790   3.244  -0.690  0.00  0.00     0.055 A 
ATOM     12  C   UNL d   1      -2.875   4.120  -0.793  0.00  0.00     0.037 A 
ATOM     13 CL   UNL d   1      -2.662   5.651  -1.555  0.00  0.00    -0.084 Cl
ATOM     14  C   UNL d   1      -4.127   3.767  -0.307  0.00  0.00     0.048 A 
ATOM     15  C   UNL d   1      -4.290   2.518   0.279  0.00  0.00     0.037 A 
ATOM     16  C   UNL d   1      -3.218   1.627   0.369  0.00  0.00     0.055 A 
ATOM     17 CL   UNL d   1      -5.832   2.067   0.897  0.00  0.00    -0.084 Cl
ENDBRANCH   1  10
TORSDOF 1
