REMARK  5 active torsions:
REMARK  status: ('A' for Active; 'I' for Inactive)
REMARK    1  A    between atoms: C_12  and  C_1 
REMARK    2  A    between atoms: S_2  and  N_13 
REMARK    3  A    between atoms: C_9  and  S_2 
REMARK    4  A    between atoms: C_5  and  C_3 
REMARK       I    between atoms: N_15  and  C_12 
REMARK    5  A    between atoms: N_13  and  N_15 
ROOT
ATOM      1  C   UNL d   1      -0.316  -2.586  -0.121  0.00  0.00     0.279 C 
ATOM      2  N   UNL d   1       0.823  -3.358   0.047  0.00  0.00    -0.256 N 
ATOM      3  O   UNL d   1      -1.417  -3.130  -0.235  0.00  0.00    -0.265 OA
ATOM      4  H   UNL d   1       1.751  -2.955   0.165  0.00  0.00     0.191 HD
ENDROOT
BRANCH   1   5
ATOM      5  C   UNL d   1      -0.136  -1.146  -0.106  0.00  0.00     0.098 A 
ATOM      6  S   UNL d   1       1.385  -0.393   0.144  0.00  0.00    -0.063 SA
ATOM      7  C   UNL d   1       0.641   1.155   0.073  0.00  0.00     0.104 A 
ATOM      8  N   UNL d   1      -0.660   1.136  -0.135  0.00  0.00    -0.351 N 
ATOM      9  C   UNL d   1      -1.109  -0.170  -0.270  0.00  0.00     0.029 A 
ATOM     10  HN  UNL d   1      -1.253   1.964  -0.189  1.00  0.00     0.166 HD
ATOM     11  C   UNL d   1      -2.552  -0.389  -0.568  0.00  0.00     0.070 C 
BRANCH   7  12
ATOM     12  C   UNL d   1       1.394   2.447   0.237  0.00  0.00     0.091 A 
ATOM     13  N   UNL d   1       2.727   2.518   0.357  0.00  0.00    -0.258 N 
ATOM     14  O   UNL d   1       3.021   3.866   0.479  0.00  0.00    -0.242 OA
ATOM     15  HN  UNL d   1       3.388   1.742   0.358  1.00  0.00     0.195 HD
ATOM     16  C   UNL d   1       1.868   4.588   0.452  0.00  0.00     0.074 A 
ATOM     17  C   UNL d   1       0.806   3.733   0.292  0.00  0.00     0.068 A 
ATOM     18  C   UNL d   1       2.006   6.049   0.596  0.00  0.00     0.079 C 
ENDBRANCH   7  12
ENDBRANCH   1   5
BRANCH   2  19
ATOM     19  N   UNL d   1       0.675  -4.798   0.130  0.00  0.00    -0.220 N 
ATOM     20  H   UNL d   1      -0.261  -5.213   0.036  0.00  0.00     0.200 HD
BRANCH  19  21
ATOM     21  S   UNL d   1       1.867  -5.742   0.849  0.00  0.00     0.278 S 
ATOM     22  O   UNL d   1       1.486  -7.130   0.774  0.00  0.00    -0.199 OA
ATOM     23  O   UNL d   1       3.134  -5.264   0.330  0.00  0.00    -0.199 OA
BRANCH  21  24
ATOM     24  C   UNL d   1       1.768  -5.227   2.547  0.00  0.00     0.102 A 
ATOM     25  C   UNL d   1       0.591  -5.363   3.288  0.00  0.00     0.059 A 
ATOM     26  C   UNL d   1       0.554  -4.911   4.613  0.00  0.00     0.049 A 
ATOM     27 CL   UNL d   1      -0.866  -6.047   2.663  0.00  0.00    -0.083 Cl
ATOM     28  C   UNL d   1       1.685  -4.333   5.187  0.00  0.00     0.035 A 
ATOM     29  C   UNL d   1       2.861  -4.201   4.454  0.00  0.00     0.025 A 
ATOM     30 CL   UNL d   1       1.628  -3.776   6.813  0.00  0.00    -0.084 Cl
ATOM     31  C   UNL d   1       2.906  -4.648   3.133  0.00  0.00     0.029 A 
ENDBRANCH  21  24
ENDBRANCH  19  21
ENDBRANCH   2  19
TORSDOF 5
