REMARK  7 active torsions:
REMARK  status: ('A' for Active; 'I' for Inactive)
REMARK    1  A    between atoms: N_9  and  S_1 
REMARK    2  A    between atoms: C_13  and  S_1 
REMARK    3  A    between atoms: N_4  and  C_10 
REMARK    4  A    between atoms: C_14  and  C_7 
REMARK    5  A    between atoms: N_12  and  N_9 
REMARK    6  A    between atoms: C_10  and  C_11 
REMARK       I    between atoms: C_11  and  N_12 
REMARK    7  A    between atoms: C_17  and  C_18 
ROOT
ATOM      1  N   UNL d   1      -0.587  -4.274   0.786  0.00  0.00    -0.268 N 
ATOM      2  HN  UNL d   1       0.009  -5.079   0.980  1.00  0.00     0.190 HD
ATOM      3  N   UNL d   1      -0.834  -3.637  -0.386  0.00  0.00    -0.207 N 
ATOM      4  N   UNL d   1      -2.039  -2.548   0.962  0.00  0.00    -0.266 N 
ATOM      5  HN  UNL d   1      -2.687  -1.880   1.381  1.00  0.00     0.186 HD
ATOM      6  C   UNL d   1      -1.351  -3.542   1.623  0.00  0.00     0.144 A 
ATOM      7  N   UNL d   1      -1.704  -2.619  -0.313  0.00  0.00    -0.002 NA
ENDROOT
BRANCH   3   8
ATOM      8  C   UNL d   1      -0.223  -3.954  -1.662  0.00  0.00     0.271 C 
BRANCH   8   9
ATOM      9  C   UNL d   1       0.702  -5.139  -1.746  0.00  0.00     0.257 C 
ATOM     10  N   UNL d   1       0.998  -5.828  -0.599  0.00  0.00    -0.259 N 
ATOM     11  H   UNL d   1       0.586  -5.580   0.310  0.00  0.00     0.190 HD
ATOM     12  O   UNL d   1       1.163  -5.492  -2.839  0.00  0.00    -0.270 OA
BRANCH  10  13
ATOM     13  N   UNL d   1       1.774  -7.040  -0.696  0.00  0.00    -0.220 N 
ATOM     14  H   UNL d   1       2.150  -7.327  -1.607  0.00  0.00     0.200 HD
BRANCH  13  15
ATOM     15  S   UNL d   1       1.641  -8.220   0.499  0.00  0.00     0.276 S 
ATOM     16  O   UNL d   1       1.700  -7.564   1.791  0.00  0.00    -0.199 OA
ATOM     17  O   UNL d   1       2.515  -9.315   0.145  0.00  0.00    -0.199 OA
BRANCH  15  18
ATOM     18  C   UNL d   1      -0.041  -8.748   0.241  0.00  0.00     0.081 A 
ATOM     19  C   UNL d   1      -0.310  -9.791  -0.651  0.00  0.00     0.027 A 
ATOM     20  C   UNL d   1      -1.634 -10.177  -0.873  0.00  0.00     0.025 A 
ATOM     21  C   UNL d   1      -2.671  -9.525  -0.202  0.00  0.00     0.034 A 
ATOM     22  C   UNL d   1      -2.398  -8.496   0.701  0.00  0.00     0.025 A 
ATOM     23 CL   UNL d   1      -4.301  -9.993  -0.491  0.00  0.00    -0.084 Cl
ATOM     24  C   UNL d   1      -1.078  -8.109   0.931  0.00  0.00     0.027 A 
ENDBRANCH  15  18
ENDBRANCH  13  15
ENDBRANCH  10  13
ENDBRANCH   8   9
ENDBRANCH   3   8
BRANCH   6  25
ATOM     25  C   UNL d   1      -1.482  -3.732   3.063  0.00  0.00     0.010 A 
ATOM     26  C   UNL d   1      -0.783  -4.720   3.765  0.00  0.00     0.016 A 
ATOM     27  C   UNL d   1      -0.956  -4.869   5.154  0.00  0.00     0.009 A 
ATOM     28  C   UNL d   1      -1.831  -4.040   5.886  0.00  0.00    -0.051 A 
ATOM     29  C   UNL d   1      -2.505  -3.042   5.168  0.00  0.00     0.009 A 
ATOM     30  C   UNL d   1      -2.337  -2.893   3.787  0.00  0.00     0.016 A 
BRANCH  28  31
ATOM     31  C   UNL d   1      -2.055  -4.250   7.397  0.00  0.00    -0.024 C 
ATOM     32  C   UNL d   1      -3.073  -3.257   8.009  0.00  0.00     0.019 C 
ATOM     33  C   UNL d   1      -2.603  -5.671   7.646  0.00  0.00     0.019 C 
ATOM     34  C   UNL d   1      -0.735  -4.080   8.178  0.00  0.00     0.019 C 
ENDBRANCH  28  31
ENDBRANCH   6  25
TORSDOF 7
