REMARK  6 active torsions:
REMARK  status: ('A' for Active; 'I' for Inactive)
REMARK    1  A    between atoms: C_6  and  C_1 
REMARK    2  A    between atoms: C_9  and  C_2 
REMARK    3  A    between atoms: C_10  and  N_3 
REMARK    4  A    between atoms: N_7  and  C_12 
REMARK       I    between atoms: N_13  and  C_9 
REMARK    5  A    between atoms: C_31  and  N_13 
REMARK    6  A    between atoms: C_30  and  C_31 
ROOT
ATOM      1  C   UNL d   1       1.084  -0.487  -0.024  0.00  0.00     0.157 C 
ATOM      2  C   UNL d   1      -0.249  -0.895  -0.035  0.00  0.00     0.082 C 
ATOM      3  N   UNL d   1       1.077   0.900   0.073  0.00  0.00    -0.251 N 
ATOM      4  N   UNL d   1      -0.176   1.366   0.288  0.00  0.00    -0.303 N 
ATOM      5  HN  UNL d   1      -0.453   2.322   0.510  1.00  0.00     0.186 HD
ATOM      6  C   UNL d   1      -0.967   0.308   0.145  0.00  0.00     0.127 C 
ENDROOT
BRANCH   2   7
ATOM      7  C   UNL d   1      -0.912  -2.189  -0.134  0.00  0.00     0.255 C 
ATOM      8  N   UNL d   1      -0.149  -3.332  -0.086  0.00  0.00    -0.353 N 
ATOM      9  H   UNL d   1       0.797  -3.279   0.264  0.00  0.00     0.163 HD
ATOM     10  O   UNL d   1      -2.136  -2.240  -0.233  0.00  0.00    -0.268 OA
BRANCH   8  11
ATOM     11  C   UNL d   1      -0.834  -4.595   0.093  0.00  0.00     0.161 C 
BRANCH  11  12
ATOM     12  C   UNL d   1       0.024  -5.824  -0.078  0.00  0.00    -0.038 A 
ATOM     13  C   UNL d   1      -0.412  -7.015   0.536  0.00  0.00     0.048 A 
ATOM     14  C   UNL d   1       0.370  -8.142   0.415  0.00  0.00     0.105 A 
ATOM     15  O   UNL d   1       0.117  -9.348   0.989  0.00  0.00    -0.323 OA
ATOM     16  C   UNL d   1       1.534  -8.140  -0.313  0.00  0.00     0.105 A 
ATOM     17  C   UNL d   1       1.340 -10.046   0.677  0.00  0.00     0.352 C 
ATOM     18  O   UNL d   1       2.166  -9.345  -0.277  0.00  0.00    -0.323 OA
ATOM     19  C   UNL d   1       1.966  -7.014  -0.980  0.00  0.00     0.040 A 
ATOM     20  C   UNL d   1       1.202  -5.846  -0.859  0.00  0.00     0.012 A 
ENDBRANCH  11  12
ENDBRANCH   8  11
ENDBRANCH   2   7
BRANCH   1  21
ATOM     21  C   UNL d   1       2.338  -1.253  -0.024  0.00  0.00     0.435 C 
ATOM     22  F   UNL d   1       2.166  -2.512   0.453  0.00  0.00    -0.165 F 
ATOM     23  F   UNL d   1       2.845  -1.387  -1.273  0.00  0.00    -0.165 F 
ATOM     24  F   UNL d   1       3.302  -0.704   0.753  0.00  0.00    -0.165 F 
ENDBRANCH   1  21
BRANCH   3  25
ATOM     25  C   UNL d   1       2.133   1.860   0.021  0.00  0.00     0.057 A 
ATOM     26  C   UNL d   1       3.307   1.653  -0.715  0.00  0.00     0.034 A 
ATOM     27  C   UNL d   1       4.340   2.599  -0.674  0.00  0.00     0.038 A 
ATOM     28  C   UNL d   1       4.196   3.760   0.096  0.00  0.00     0.103 A 
ATOM     29  C   UNL d   1       3.005   4.007   0.787  0.00  0.00     0.038 A 
ATOM     30  C   UNL d   1       1.974   3.065   0.734  0.00  0.00     0.034 A 
BRANCH  28  31
ATOM     31  N   UNL d   1       5.303   4.718   0.188  0.00  0.00    -0.116 N 
ATOM     32  O   UNL d   1       5.140   5.723   0.895  0.00  0.00    -0.532 OA
ATOM     33  O   UNL d   1       6.343   4.459  -0.435  0.00  0.00    -0.532 OA
ENDBRANCH  28  31
ENDBRANCH   3  25
TORSDOF 6
