REMARK  5 active torsions:
REMARK  status: ('A' for Active; 'I' for Inactive)
REMARK    1  A    between atoms: C_2  and  N_1 
REMARK    2  A    between atoms: O_14  and  C_3 
REMARK    3  A    between atoms: S_11  and  C_10 
REMARK    4  A    between atoms: C_13  and  S_11 
REMARK    5  A    between atoms: C_21  and  O_14 
ROOT
ATOM      1  N   UNL d   1       4.955  -3.130   2.113  0.00  0.00    -0.195 NA
ATOM      2  C   UNL d   1       3.833  -3.258   1.845  0.00  0.00     0.085 C 
ATOM      3  C   UNL d   1       2.398  -3.489   1.512  0.00  0.00     0.299 C 
ENDROOT
BRANCH   3   4
ATOM      4  O   UNL d   1       1.713  -2.265   1.170  0.00  0.00    -0.335 OA
BRANCH   4   5
ATOM      5  C   UNL d   1       0.549  -2.392   0.448  0.00  0.00     0.104 A 
ATOM      6  C   UNL d   1       0.056  -1.288  -0.266  0.00  0.00     0.136 A 
ATOM      7  C   UNL d   1      -1.101  -1.370  -1.058  0.00  0.00     0.040 A 
ATOM      8  C   UNL d   1      -1.791  -2.580  -1.140  0.00  0.00     0.021 A 
ATOM      9  C   UNL d   1      -1.346  -3.685  -0.410  0.00  0.00     0.008 A 
ATOM     10  C   UNL d   1      -0.202  -3.575   0.398  0.00  0.00     0.058 A 
BRANCH   6  11
ATOM     11  N   UNL d   1       0.731  -0.005  -0.204  0.00  0.00    -0.113 N 
ATOM     12  O   UNL d   1       1.906   0.040  -0.589  0.00  0.00    -0.532 OA
ATOM     13  O   UNL d   1       0.056   0.964   0.172  0.00  0.00    -0.532 OA
ENDBRANCH   6  11
BRANCH   9  14
ATOM     14  S   UNL d   1      -2.277  -5.199  -0.413  0.00  0.00    -0.091 SA
BRANCH  14  15
ATOM     15  C   UNL d   1      -1.574  -6.179  -1.730  0.00  0.00     0.005 A 
ATOM     16  C   UNL d   1      -0.239  -6.110  -2.147  0.00  0.00     0.020 A 
ATOM     17  C   UNL d   1       0.245  -6.983  -3.131  0.00  0.00     0.025 A 
ATOM     18  C   UNL d   1      -0.602  -7.931  -3.700  0.00  0.00     0.034 A 
ATOM     19  C   UNL d   1      -1.933  -8.006  -3.304  0.00  0.00     0.025 A 
ATOM     20 CL   UNL d   1       0.003  -9.026  -4.879  0.00  0.00    -0.084 Cl
ATOM     21  C   UNL d   1      -2.414  -7.134  -2.323  0.00  0.00     0.020 A 
ENDBRANCH  14  15
ENDBRANCH   9  14
ENDBRANCH   4   5
ENDBRANCH   3   4
TORSDOF 5
