REMARK  7 active torsions:
REMARK  status: ('A' for Active; 'I' for Inactive)
REMARK    1  A    between atoms: C_3  and  C_1 
REMARK    2  A    between atoms: O_6  and  C_2 
REMARK    3  A    between atoms: O_13  and  C_3 
REMARK    4  A    between atoms: C_11  and  O_6 
REMARK    5  A    between atoms: C_7  and  C_11 
REMARK    6  A    between atoms: O_14  and  C_7 
REMARK    7  A    between atoms: O_15  and  C_10 
ROOT
ATOM      1  C   UNL d   1       1.339  -0.285   0.129  0.00  0.00     0.071 A 
ATOM      2  C   UNL d   1       0.439  -1.369   0.089  0.00  0.00     0.089 A 
ATOM      3  C   UNL d   1       0.831   1.026   0.064  0.00  0.00     0.024 A 
ATOM      4  C   UNL d   1      -0.935  -1.108  -0.062  0.00  0.00     0.074 A 
ATOM      5  C   UNL d   1      -1.432   0.195  -0.102  0.00  0.00     0.070 A 
ATOM      6  C   UNL d   1      -0.542   1.261  -0.038  0.00  0.00     0.038 A 
ENDROOT
BRANCH   2   7
ATOM      7  O   UNL d   1       0.925  -2.653   0.183  0.00  0.00    -0.340 OA
BRANCH   7   8
ATOM      8  C   UNL d   1      -0.023  -3.657   0.557  0.00  0.00     0.285 C 
BRANCH   8   9
ATOM      9  C   UNL d   1       0.675  -4.940   0.958  0.00  0.00     0.164 C 
ATOM     10  O   UNL d   1       0.089  -5.920   1.399  0.00  0.00    -0.648 OA
BRANCH   9  11
ATOM     11  O   UNL d   1       2.014  -4.915   0.766  0.00  0.00    -0.775 OA
ATOM     12  H   UNL d   1       2.288  -4.032   0.427  0.00  0.00     0.167 HD
ENDBRANCH   9  11
ENDBRANCH   8   9
ENDBRANCH   7   8
ENDBRANCH   2   7
BRANCH   1  13
ATOM     13  C   UNL d   1       2.821  -0.401   0.252  0.00  0.00     0.178 C 
ATOM     14  O   UNL d   1       3.589   0.549   0.287  0.00  0.00    -0.646 OA
BRANCH  13  15
ATOM     15  O   UNL d   1       3.303  -1.652   0.328  0.00  0.00    -0.773 OA
ATOM     16  H   UNL d   1       4.270  -1.503   0.403  0.00  0.00     0.167 HD
ENDBRANCH  13  15
ENDBRANCH   1  13
BRANCH   5  17
ATOM     17  O   UNL d   1      -2.752   0.537  -0.200  0.00  0.00    -0.356 OA
ATOM     18  C   UNL d   1      -3.699  -0.527  -0.160  0.00  0.00     0.210 C 
ENDBRANCH   5  17
TORSDOF 7
