REMARK  6 active torsions:
REMARK  status: ('A' for Active; 'I' for Inactive)
REMARK    1  A    between atoms: C_2  and  C_1 
REMARK       I    between atoms: N_3  and  C_2 
REMARK       I    between atoms: C_4  and  N_3 
REMARK       I    between atoms: N_9  and  C_4 
REMARK    2  A    between atoms: O_18  and  C_5 
REMARK    3  A    between atoms: O_19  and  C_6 
REMARK    4  A    between atoms: C_10  and  N_9 
REMARK    5  A    between atoms: C_24  and  C_14 
REMARK    6  A    between atoms: C_23  and  C_15 
ROOT
ATOM      1  C   UNL d   1       0.576  -3.297  -2.623  0.00  0.00     0.244 C 
ATOM      2  N   UNL d   1       1.399  -3.800  -1.618  0.00  0.00    -0.175 NA
ATOM      3  C   UNL d   1       2.764  -3.634  -1.664  0.00  0.00     0.305 C 
ATOM      4  N   UNL d   1       3.250  -2.550  -0.955  0.00  0.00    -0.312 N 
ATOM      5  O   UNL d   1       0.606  -2.129  -2.993  0.00  0.00    -0.273 OA
ATOM      6  O   UNL d   1       3.457  -4.542  -2.121  0.00  0.00    -0.253 OA
ATOM      7  H   UNL d   1       1.290  -4.808  -1.594  0.00  0.00     0.141 HD
ATOM      8  H   UNL d   1       2.826  -1.676  -1.235  0.00  0.00     0.170 HD
ENDROOT
BRANCH   1   9
ATOM      9  C   UNL d   1      -0.471  -4.269  -3.140  0.00  0.00     0.096 A 
ATOM     10  C   UNL d   1      -0.099  -5.600  -3.422  0.00  0.00     0.108 A 
ATOM     11  C   UNL d   1      -1.057  -6.563  -3.768  0.00  0.00     0.070 A 
ATOM     12 CL   UNL d   1      -0.639  -8.218  -4.027  0.00  0.00    -0.081 Cl
ATOM     13  C   UNL d   1      -2.396  -6.208  -3.865  0.00  0.00     0.053 A 
ATOM     14  C   UNL d   1      -2.778  -4.890  -3.636  0.00  0.00     0.070 A 
ATOM     15  C   UNL d   1      -1.817  -3.895  -3.328  0.00  0.00     0.108 A 
ATOM     16 CL   UNL d   1      -4.483  -4.583  -3.657  0.00  0.00    -0.081 Cl
BRANCH  10  17
ATOM     17  O   UNL d   1       1.211  -5.978  -3.267  0.00  0.00    -0.353 OA
ATOM     18  C   UNL d   1       1.879  -6.112  -4.528  0.00  0.00     0.210 C 
ENDBRANCH  10  17
BRANCH  15  19
ATOM     19  O   UNL d   1      -2.185  -2.592  -3.113  0.00  0.00    -0.353 OA
ATOM     20  C   UNL d   1      -2.830  -1.993  -4.246  0.00  0.00     0.210 C 
ENDBRANCH  15  19
ENDBRANCH   1   9
BRANCH   4  21
ATOM     21  C   UNL d   1       4.597  -2.553  -0.471  0.00  0.00     0.048 C 
ATOM     22  C   UNL d   1       5.464  -1.454  -0.708  0.00  0.00    -0.031 C 
ATOM     23  C   UNL d   1       6.841  -1.620  -0.435  0.00  0.00     0.009 C 
ATOM     24  C   UNL d   1       7.347  -2.776   0.143  0.00  0.00     0.001 C 
ATOM     25  C   UNL d   1       6.474  -3.791   0.498  0.00  0.00     0.009 C 
ATOM     26  C   UNL d   1       5.096  -3.679   0.239  0.00  0.00    -0.031 C 
BRANCH  22  27
ATOM     27  C   UNL d   1       5.046  -0.154  -1.364  0.00  0.00     0.036 C 
ATOM     28  C   UNL d   1       5.602   1.115  -0.703  0.00  0.00     0.010 C 
ENDBRANCH  22  27
BRANCH  26  29
ATOM     29  C   UNL d   1       4.207  -4.783   0.799  0.00  0.00     0.036 C 
ATOM     30  C   UNL d   1       4.368  -4.978   2.306  0.00  0.00     0.010 C 
ENDBRANCH  26  29
ENDBRANCH   4  21
TORSDOF 6
