REMARK  4 active torsions:
REMARK  status: ('A' for Active; 'I' for Inactive)
REMARK       I    between atoms: N_2  and  C_1 
REMARK    1  A    between atoms: C_3  and  C_1 
REMARK    2  A    between atoms: C_5  and  N_2 
REMARK       I    between atoms: N_6  and  C_3 
REMARK    3  A    between atoms: C_11  and  N_6 
REMARK    4  A    between atoms: C_14  and  C_11 
ROOT
ATOM      1  C   UNL d   1       1.030   0.109  -0.138  0.00  0.00     0.310 C 
ATOM      2  N   UNL d   1       0.338   0.711   0.884  0.00  0.00    -0.340 N 
ATOM      3  O   UNL d   1       2.238   0.175  -0.319  0.00  0.00    -0.262 OA
ATOM      4  H   UNL d   1      -0.661   0.519   0.966  0.00  0.00     0.163 HD
ENDROOT
BRANCH   1   5
ATOM      5  C   UNL d   1       0.147  -0.724  -1.098  0.00  0.00     0.309 C 
ATOM      6  N   UNL d   1       0.861  -1.359  -2.086  0.00  0.00    -0.349 N 
ATOM      7  H   UNL d   1       1.866  -1.212  -2.097  0.00  0.00     0.163 HD
ATOM      8  O   UNL d   1      -1.062  -0.781  -0.929  0.00  0.00    -0.262 OA
BRANCH   6   9
ATOM      9  C   UNL d   1       0.252  -2.258  -3.032  0.00  0.00     0.161 C 
BRANCH   9  10
ATOM     10  C   UNL d   1       0.449  -1.785  -4.447  0.00  0.00    -0.039 A 
ATOM     11  C   UNL d   1       1.565  -2.194  -5.193  0.00  0.00     0.032 A 
ATOM     12  C   UNL d   1       1.729  -1.757  -6.508  0.00  0.00     0.034 A 
ATOM     13 CL   UNL d   1       3.095  -2.278  -7.416  0.00  0.00    -0.084 Cl
ATOM     14  C   UNL d   1       0.794  -0.906  -7.094  0.00  0.00     0.024 A 
ATOM     15  C   UNL d   1      -0.310  -0.482  -6.356  0.00  0.00     0.002 A 
ATOM     16  C   UNL d   1      -0.479  -0.915  -5.038  0.00  0.00     0.009 A 
ENDBRANCH   9  10
ENDBRANCH   6   9
ENDBRANCH   1   5
BRANCH   2  17
ATOM     17  C   UNL d   1       0.992   1.496   1.923  0.00  0.00     0.177 C 
ATOM     18  C   UNL d   1       0.180   1.355   3.223  0.00  0.00     0.240 C 
ATOM     19  N   UNL d   1       0.677   1.938   4.354  0.00  0.00    -0.359 N 
ATOM     20  O   UNL d   1      -0.895   0.758   3.275  0.00  0.00    -0.271 OA
ATOM     21  C   UNL d   1       1.950   2.609   4.491  0.00  0.00     0.122 C 
ATOM     22  H   UNL d   1       0.101   1.799   5.177  0.00  0.00     0.162 HD
ATOM     23  C   UNL d   1       2.010   3.916   3.710  0.00  0.00     0.020 C 
ATOM     24  C   UNL d   1       2.211   3.726   2.207  0.00  0.00     0.004 C 
ATOM     25  C   UNL d   1       1.089   2.965   1.500  0.00  0.00     0.035 C 
ENDBRANCH   2  17
TORSDOF 4
