REMARK  3 active torsions:
REMARK  status: ('A' for Active; 'I' for Inactive)
REMARK    1  A    between atoms: C_2  and  C_1 
REMARK       I    between atoms: N_8  and  C_1 
REMARK    2  A    between atoms: C_5  and  C_12 
REMARK    3  A    between atoms: C_14  and  N_8 
ROOT
ATOM      1  C   UNL d   1      -4.087   0.849   1.176  0.00  0.00    -0.001 A 
ATOM      2  C   UNL d   1      -1.263   0.858   0.906  0.00  0.00     0.034 A 
ATOM      3  C   UNL d   1      -3.373   2.050   1.101  0.00  0.00     0.016 A 
ATOM      4  C   UNL d   1      -3.366  -0.351   1.090  0.00  0.00     0.016 A 
ATOM      5  C   UNL d   1      -1.980   2.052   0.970  0.00  0.00     0.030 A 
ATOM      6  C   UNL d   1      -1.969  -0.348   0.946  0.00  0.00     0.030 A 
ENDROOT
BRANCH   2   7
ATOM      7  N   UNL d   1       0.141   0.810   0.775  0.00  0.00    -0.327 N 
ATOM      8  C   UNL d   1       1.003   1.873   0.963  0.00  0.00     0.226 C 
ATOM      9  O   UNL d   1       0.713   2.982   1.392  0.00  0.00    -0.273 OA
ATOM     10  H   UNL d   1       0.553  -0.093   0.595  0.00  0.00     0.169 HD
BRANCH   8  11
ATOM     11  C   UNL d   1       2.428   1.571   0.626  0.00  0.00     0.078 A 
ATOM     12  C   UNL d   1       3.520   1.879   1.625  0.00  0.00     0.015 A 
ATOM     13  C   UNL d   1       3.389   2.718   0.387  0.00  0.00     0.015 A 
ENDBRANCH   8  11
ENDBRANCH   2   7
BRANCH   1  14
ATOM     14  C   UNL d   1      -5.532   0.869   1.350  0.00  0.00     0.102 A 
ATOM     15  O   UNL d   1      -6.176  -0.338   1.447  0.00  0.00    -0.304 OA
ATOM     16  C   UNL d   1      -7.484  -0.003   1.618  0.00  0.00     0.233 A 
ATOM     17  N   UNL d   1      -7.736   1.285   1.633  0.00  0.00    -0.354 N 
ATOM     18  C   UNL d   1      -6.497   1.849   1.463  0.00  0.00     0.127 A 
ATOM     19  HN  UNL d   1      -8.636   1.753   1.743  1.00  0.00     0.166 HD
ENDBRANCH   1  14
TORSDOF 3
