REMARK  3 active torsions:
REMARK  status: ('A' for Active; 'I' for Inactive)
REMARK    1  A    between atoms: S_11  and  C_3 
REMARK    2  A    between atoms: C_9  and  C_4 
REMARK    3  A    between atoms: C_10  and  C_5 
ROOT
ATOM      1  N   UNL d   1      -0.708   1.197   0.060  0.00  0.00    -0.336 N 
ATOM      2  HN  UNL d   1      -1.198   2.091   0.089  1.00  0.00     0.168 HD
ATOM      3  C   UNL d   1      -1.385   0.027  -0.003  0.00  0.00     0.084 A 
ATOM      4  C   UNL d   1      -0.767  -1.215   0.002  0.00  0.00     0.065 A 
ATOM      5  C   UNL d   1       0.632   1.139   0.084  0.00  0.00     0.116 A 
ATOM      6  N   UNL d   1       1.321  -0.012   0.087  0.00  0.00    -0.345 N 
ATOM      7  HN  UNL d   1       2.340  -0.012   0.123  1.00  0.00     0.167 HD
ATOM      8  C   UNL d   1       0.625  -1.177   0.041  0.00  0.00     0.023 A 
ATOM      9  C   UNL d   1       1.488  -2.407   0.020  0.00  0.00     0.069 C 
ENDROOT
BRANCH   5  10
ATOM     10  C   UNL d   1       1.386   2.407   0.013  0.00  0.00     0.008 A 
ATOM     11  C   UNL d   1       0.730   3.653   0.023  0.00  0.00     0.016 A 
ATOM     12  C   UNL d   1       1.436   4.852  -0.111  0.00  0.00     0.007 A 
ATOM     13  C   UNL d   1       2.825   4.849  -0.257  0.00  0.00    -0.062 A 
ATOM     14  C   UNL d   1       3.497   3.624  -0.246  0.00  0.00     0.007 A 
ATOM     15  C   UNL d   1       3.565   6.139  -0.447  0.00  0.00     0.048 C 
ATOM     16  C   UNL d   1       2.787   2.425  -0.110  0.00  0.00     0.016 A 
ENDBRANCH   5  10
BRANCH   3  17
ATOM     17  S   UNL d   1      -3.131   0.310  -0.198  0.00  0.00    -0.124 SA
ATOM     18  H   UNL d   1      -3.022   1.640  -0.060  0.00  0.00     0.108 HD
ENDBRANCH   3  17
BRANCH   4  19
ATOM     19  C   UNL d   1      -1.481  -2.513  -0.108  0.00  0.00     0.160 C 
ATOM     20  O   UNL d   1      -1.019  -3.389  -0.838  0.00  0.00    -0.293 OA
ATOM     21  C   UNL d   1      -2.727  -2.787   0.696  0.00  0.00     0.097 C 
ENDBRANCH   4  19
TORSDOF 3
