REMARK  8 active torsions:
REMARK  status: ('A' for Active; 'I' for Inactive)
REMARK    1  A    between atoms: C_2  and  C_1 
REMARK    2  A    between atoms: C_3  and  C_1 
REMARK    3  A    between atoms: C_6  and  C_1 
REMARK    4  A    between atoms: O_22  and  C_1 
REMARK       I    between atoms: C_4  and  N_5 
REMARK    5  A    between atoms: C_7  and  C_4 
REMARK    6  A    between atoms: N_5  and  C_8 
REMARK    7  A    between atoms: O_25  and  C_6 
REMARK    8  A    between atoms: O_27  and  C_10 
ROOT
ATOM      1  C   UNL d   1       0.603   1.415  -0.150  0.00  0.00    -0.002 A 
ATOM      2  C   UNL d   1      -0.575   3.999  -0.070  0.00  0.00     0.068 A 
ATOM      3  C   UNL d   1      -0.783   1.581   0.036  0.00  0.00     0.050 A 
ATOM      4  C   UNL d   1      -1.378   2.853   0.074  0.00  0.00     0.095 A 
ATOM      5  C   UNL d   1       1.379   2.570  -0.308  0.00  0.00     0.013 A 
ATOM      6  C   UNL d   1       0.799   3.840  -0.260  0.00  0.00     0.033 A 
ENDROOT
BRANCH   2   7
ATOM      7  N   UNL d   1      -1.202   5.273   0.019  0.00  0.00    -0.321 N 
ATOM      8  C   UNL d   1      -0.593   6.499  -0.180  0.00  0.00     0.256 C 
ATOM      9  O   UNL d   1       0.574   6.664  -0.530  0.00  0.00    -0.267 OA
ATOM     10  H   UNL d   1      -2.185   5.214   0.260  0.00  0.00     0.169 HD
BRANCH   8  11
ATOM     11  C   UNL d   1      -1.399   7.734   0.042  0.00  0.00     0.034 A 
ATOM     12  C   UNL d   1      -2.799   7.769   0.053  0.00  0.00     0.042 A 
ATOM     13  C   UNL d   1      -3.464   8.995   0.202  0.00  0.00     0.056 A 
ATOM     14 CL   UNL d   1      -5.193   8.970   0.193  0.00  0.00    -0.083 Cl
ATOM     15  C   UNL d   1      -2.741  10.189   0.336  0.00  0.00     0.055 A 
ATOM     16  C   UNL d   1      -1.349  10.156   0.336  0.00  0.00     0.026 A 
ATOM     17 CL   UNL d   1      -3.503  11.731   0.480  0.00  0.00    -0.083 Cl
ATOM     18  C   UNL d   1      -0.687   8.938   0.191  0.00  0.00     0.019 A 
ENDBRANCH   8  11
ENDBRANCH   2   7
BRANCH   4  19
ATOM     19  O   UNL d   1      -2.730   3.062   0.230  0.00  0.00    -0.354 OA
ATOM     20  C   UNL d   1      -3.523   1.912   0.523  0.00  0.00     0.210 C 
ENDBRANCH   4  19
BRANCH   1  21
ATOM     21  C   UNL d   1       1.234   0.013  -0.149  0.00  0.00     0.271 C 
BRANCH  21  22
ATOM     22  C   UNL d   1       0.942  -0.775   1.156  0.00  0.00     0.432 C 
ATOM     23  F   UNL d   1       0.315  -0.040   2.103  0.00  0.00    -0.167 F 
ATOM     24  F   UNL d   1       0.206  -1.894   0.979  0.00  0.00    -0.167 F 
ATOM     25  F   UNL d   1       2.123  -1.172   1.713  0.00  0.00    -0.167 F 
ENDBRANCH  21  22
BRANCH  21  26
ATOM     26  C   UNL d   1       0.649  -0.872  -1.270  0.00  0.00     0.307 C 
ATOM     27  O   UNL d   1      -0.479  -0.771  -1.730  0.00  0.00    -0.261 OA
BRANCH  26  28
ATOM     28  O   UNL d   1       1.528  -1.849  -1.652  0.00  0.00    -0.324 OA
ATOM     29  C   UNL d   1       1.011  -2.713  -2.671  0.00  0.00     0.213 C 
ENDBRANCH  26  28
ENDBRANCH  21  26
BRANCH  21  30
ATOM     30  O   UNL d   1       2.665   0.192  -0.337  0.00  0.00    -0.368 OA
ATOM     31  H   UNL d   1       3.114  -0.224   0.425  0.00  0.00     0.212 HD
ENDBRANCH  21  30
ENDBRANCH   1  21
TORSDOF 8
