REMARK  7 active torsions:
REMARK  status: ('A' for Active; 'I' for Inactive)
REMARK    1  A    between atoms: C_11  and  N_1 
REMARK    2  A    between atoms: C_4  and  C_9 
REMARK    3  A    between atoms: C_10  and  C_6 
REMARK       I    between atoms: C_9  and  N_20 
REMARK    4  A    between atoms: O_31  and  C_13 
REMARK    5  A    between atoms: N_20  and  N_14 
REMARK    6  A    between atoms: O_34  and  C_21 
REMARK    7  A    between atoms: C_27  and  C_30 
ROOT
ATOM      1  N   UNL d   1      -5.711  -2.749  -4.932  0.00  0.00    -0.355 N 
ATOM      2  HN  UNL d   1      -6.170  -1.870  -5.170  1.00  0.00     0.166 HD
ATOM      3  C   UNL d   1      -4.455  -5.117  -4.236  0.00  0.00     0.048 A 
ATOM      4  C   UNL d   1      -6.443  -3.797  -4.516  0.00  0.00     0.044 A 
ATOM      5  C   UNL d   1      -4.366  -2.859  -5.035  0.00  0.00     0.044 A 
ATOM      6  C   UNL d   1      -5.867  -5.022  -4.127  0.00  0.00     0.006 A 
ATOM      7  C   UNL d   1      -3.713  -4.032  -4.711  0.00  0.00     0.048 A 
ATOM      8  C   UNL d   1      -6.727  -6.046  -3.657  0.00  0.00     0.015 A 
ATOM      9  C   UNL d   1      -7.827  -3.655  -4.464  0.00  0.00     0.037 A 
ATOM     10  C   UNL d   1      -8.109  -5.877  -3.604  0.00  0.00     0.007 A 
ATOM     11  C   UNL d   1      -8.675  -4.676  -4.012  0.00  0.00    -0.060 A 
ATOM     12  C   UNL d   1     -10.163  -4.484  -3.989  0.00  0.00     0.048 C 
ENDROOT
BRANCH   3  13
ATOM     13  C   UNL d   1      -3.712  -6.368  -3.898  0.00  0.00     0.271 C 
ATOM     14  N   UNL d   1      -2.440  -6.181  -3.370  0.00  0.00    -0.266 N 
ATOM     15  H   UNL d   1      -2.086  -5.260  -3.144  0.00  0.00     0.190 HD
ATOM     16  O   UNL d   1      -4.222  -7.466  -4.103  0.00  0.00    -0.266 OA
BRANCH  14  17
ATOM     17  N   UNL d   1      -1.729  -7.266  -2.972  0.00  0.00    -0.308 N 
ATOM     18  C   UNL d   1      -0.543  -7.041  -2.515  0.00  0.00     0.118 C 
ATOM     19  HN  UNL d   1      -2.111  -8.210  -3.030  1.00  0.00     0.186 HD
BRANCH  18  20
ATOM     20  C   UNL d   1       0.264  -8.145  -1.961  0.00  0.00    -0.019 A 
ATOM     21  C   UNL d   1      -0.260  -9.444  -1.920  0.00  0.00     0.015 A 
ATOM     22  C   UNL d   1       0.456 -10.467  -1.300  0.00  0.00     0.037 A 
ATOM     23  C   UNL d   1       1.700 -10.182  -0.724  0.00  0.00     0.102 A 
ATOM     24  C   UNL d   1       2.244  -8.890  -0.794  0.00  0.00     0.037 A 
ATOM     25  C   UNL d   1       1.522  -7.867  -1.418  0.00  0.00     0.015 A 
BRANCH  23  26
ATOM     26  N   UNL d   1       2.429 -11.240  -0.012  0.00  0.00    -0.116 N 
ATOM     27  O   UNL d   1       3.507 -10.939   0.516  0.00  0.00    -0.532 OA
ATOM     28  O   UNL d   1       1.915 -12.368   0.026  0.00  0.00    -0.532 OA
ENDBRANCH  23  26
ENDBRANCH  18  20
ENDBRANCH  14  17
ENDBRANCH   3  13
BRANCH   5  29
ATOM     29  C   UNL d   1      -3.651  -1.661  -5.514  0.00  0.00    -0.007 A 
ATOM     30  C   UNL d   1      -4.127  -0.377  -5.193  0.00  0.00     0.053 A 
ATOM     31  C   UNL d   1      -3.523   0.781  -5.700  0.00  0.00     0.102 A 
ATOM     32  C   UNL d   1      -2.392   0.668  -6.530  0.00  0.00     0.101 A 
ATOM     33  C   UNL d   1      -1.871  -0.597  -6.806  0.00  0.00     0.040 A 
ATOM     34  C   UNL d   1      -2.499  -1.745  -6.311  0.00  0.00     0.016 A 
BRANCH  31  35
ATOM     35  O   UNL d   1      -3.975   2.055  -5.454  0.00  0.00    -0.353 OA
ATOM     36  C   UNL d   1      -5.136   2.190  -4.646  0.00  0.00     0.210 C 
ENDBRANCH  31  35
BRANCH  32  37
ATOM     37  O   UNL d   1      -1.880   1.840  -7.028  0.00  0.00    -0.353 OA
ATOM     38  C   UNL d   1      -0.790   1.750  -7.934  0.00  0.00     0.210 C 
ENDBRANCH  32  37
ENDBRANCH   5  29
TORSDOF 7
