REMARK  4 active torsions:
REMARK  status: ('A' for Active; 'I' for Inactive)
REMARK    1  A    between atoms: N_9  and  C_7 
REMARK    2  A    between atoms: N_10  and  C_8 
REMARK    3  A    between atoms: C_16  and  N_9 
REMARK    4  A    between atoms: C_15  and  N_10 
ROOT
ATOM      1  C   UNL d   1       1.399  -0.833  -0.103  0.00  0.00     0.058 A 
ATOM      2  C   UNL d   1       1.349   0.587  -0.072  0.00  0.00     0.058 A 
ATOM      3  C   UNL d   1       0.119  -1.601  -0.012  0.00  0.00     0.196 A 
ATOM      4  C   UNL d   1       0.032   1.279  -0.050  0.00  0.00     0.196 A 
ATOM      5  C   UNL d   1      -1.174  -0.881   0.051  0.00  0.00     0.029 A 
ATOM      6  C   UNL d   1      -1.212   0.505   0.029  0.00  0.00     0.029 A 
ATOM      7  C   UNL d   1       2.533   1.373  -0.098  0.00  0.00     0.043 A 
ATOM      8  C   UNL d   1       2.649  -1.508  -0.169  0.00  0.00     0.043 A 
ATOM      9  O   UNL d   1       0.116  -2.827   0.042  0.00  0.00    -0.286 OA
ATOM     10  O   UNL d   1      -0.054   2.504  -0.120  0.00  0.00    -0.286 OA
ATOM     11  C   UNL d   1       3.792  -0.697  -0.228  0.00  0.00     0.032 A 
ATOM     12  C   UNL d   1       3.742   0.689  -0.158  0.00  0.00     0.032 A 
ATOM     13  C   UNL d   1      -2.380  -1.598   0.136  0.00  0.00     0.016 A 
ATOM     14  C   UNL d   1      -2.443   1.185   0.078  0.00  0.00     0.016 A 
ATOM     15  C   UNL d   1      -3.605  -0.923   0.187  0.00  0.00     0.001 A 
ATOM     16  C   UNL d   1      -3.638   0.469   0.155  0.00  0.00     0.001 A 
ENDROOT
BRANCH   7  17
ATOM     17  N   UNL d   1       2.520   2.764   0.072  0.00  0.00    -0.384 N 
ATOM     18  H   UNL d   1       1.570   3.145  -0.051  0.00  0.00     0.160 HD
BRANCH  17  19
ATOM     19  C   UNL d   1       3.569   3.634  -0.471  0.00  0.00     0.081 C 
ATOM     20  C   UNL d   1       3.688   4.890   0.403  0.00  0.00     0.025 C 
ATOM     21  C   UNL d   1       2.569   5.900   0.176  0.00  0.00     0.002 C 
ATOM     22  C   UNL d   1       2.429   6.244  -1.303  0.00  0.00     0.000 C 
ATOM     23  C   UNL d   1       2.187   4.997  -2.141  0.00  0.00     0.002 C 
ATOM     24  C   UNL d   1       3.300   3.969  -1.944  0.00  0.00     0.025 C 
ENDBRANCH  17  19
ENDBRANCH   7  17
BRANCH   8  25
ATOM     25  N   UNL d   1       2.783  -2.909  -0.281  0.00  0.00    -0.384 N 
ATOM     26  H   UNL d   1       1.927  -3.409  -0.015  0.00  0.00     0.160 HD
BRANCH  25  27
ATOM     27  C   UNL d   1       4.067  -3.549   0.074  0.00  0.00     0.081 C 
ATOM     28  C   UNL d   1       4.961  -3.660  -1.175  0.00  0.00     0.025 C 
ATOM     29  C   UNL d   1       4.701  -4.907  -2.006  0.00  0.00     0.002 C 
ATOM     30  C   UNL d   1       4.879  -6.150  -1.154  0.00  0.00     0.000 C 
ATOM     31  C   UNL d   1       3.883  -6.156  -0.003  0.00  0.00     0.002 C 
ATOM     32  C   UNL d   1       3.904  -4.876   0.832  0.00  0.00     0.025 C 
ENDBRANCH  25  27
ENDBRANCH   8  25
TORSDOF 4
