REMARK  4 active torsions:
REMARK  status: ('A' for Active; 'I' for Inactive)
REMARK    1  A    between atoms: C_3  and  S_1 
REMARK    2  A    between atoms: C_4  and  S_1 
REMARK    3  A    between atoms: C_2  and  C_5 
REMARK    4  A    between atoms: C_15  and  C_4 
ROOT
ATOM      1  C   UNL d   1       0.364  -1.639   0.359  0.00  0.00     0.184 C 
ENDROOT
BRANCH   1   2
ATOM      2  S   UNL d   1       0.882   0.016  -0.075  0.00  0.00     0.179 S 
ATOM      3  O   UNL d   1       2.330   0.103  -0.017  0.00  0.00    -0.222 OA
ATOM      4  O   UNL d   1       0.153   0.448  -1.255  0.00  0.00    -0.222 OA
BRANCH   2   5
ATOM      5  C   UNL d   1       0.265   0.979   1.296  0.00  0.00     0.059 A 
ATOM      6  C   UNL d   1       1.057   1.131   2.436  0.00  0.00     0.024 A 
ATOM      7  C   UNL d   1       0.596   1.918   3.493  0.00  0.00     0.008 A 
ATOM      8  C   UNL d   1      -0.645   2.564   3.411  0.00  0.00    -0.062 A 
ATOM      9  C   UNL d   1      -1.430   2.398   2.261  0.00  0.00     0.008 A 
ATOM     10  C   UNL d   1      -1.115   3.425   4.547  0.00  0.00     0.048 C 
ATOM     11  C   UNL d   1      -0.976   1.613   1.199  0.00  0.00     0.024 A 
ENDBRANCH   2   5
ENDBRANCH   1   2
BRANCH   1  12
ATOM     12  C   UNL d   1       0.904  -2.629  -0.642  0.00  0.00    -0.044 A 
ATOM     13  C   UNL d   1       2.183  -3.179  -0.477  0.00  0.00     0.009 A 
ATOM     14  C   UNL d   1       2.672  -4.130  -1.376  0.00  0.00     0.017 A 
ATOM     15  C   UNL d   1       1.893  -4.550  -2.462  0.00  0.00     0.047 A 
ATOM     16  C   UNL d   1       0.624  -3.979  -2.643  0.00  0.00     0.017 A 
ATOM     17  C   UNL d   1       0.136  -3.026  -1.744  0.00  0.00     0.009 A 
BRANCH  15  18
ATOM     18  C   UNL d   1       2.390  -5.606  -3.420  0.00  0.00     0.417 C 
ATOM     19  F   UNL d   1       3.647  -6.051  -3.138  0.00  0.00    -0.166 F 
ATOM     20  F   UNL d   1       1.597  -6.714  -3.423  0.00  0.00    -0.166 F 
ATOM     21  F   UNL d   1       2.429  -5.172  -4.710  0.00  0.00    -0.166 F 
ENDBRANCH  15  18
ENDBRANCH   1  12
TORSDOF 4
