REMARK  2 active torsions:
REMARK  status: ('A' for Active; 'I' for Inactive)
REMARK    1  A    between atoms: C_13  and  C_6 
REMARK    2  A    between atoms: C_19  and  C_14 
ROOT
ATOM      1  C   UNL d   1       1.865   1.492  -0.010  0.00  0.00     0.030 C 
ATOM      2  N   UNL d   1       0.753   1.544  -0.650  0.00  0.00    -0.357 N 
ATOM      3  HN  UNL d   1       0.680   2.276  -1.356  1.00  0.00     0.166 HD
ATOM      4  C   UNL d   1       2.380   0.476   0.934  0.00  0.00     0.079 C 
ATOM      5  S   UNL d   1       0.614  -1.646   0.909  0.00  0.00    -0.117 SA
ATOM      6  C   UNL d   1       2.192  -0.947   0.456  0.00  0.00     0.097 C 
ATOM      7  C   UNL d   1       2.760   2.650   0.073  0.00  0.00     0.020 A 
ATOM      8  C   UNL d   1      -0.383   0.717  -0.499  0.00  0.00     0.049 A 
ATOM      9  C   UNL d   1       1.936   1.054   2.270  0.00  0.00     0.188 C 
ATOM     10  C   UNL d   1      -0.560  -0.563   0.073  0.00  0.00     0.028 A 
ATOM     11  O   UNL d   1       2.591   2.344   2.507  0.00  0.00    -0.349 OA
ATOM     12  C   UNL d   1       3.134   2.965   1.395  0.00  0.00     0.081 A 
ATOM     13  C   UNL d   1       3.462   3.127  -1.028  0.00  0.00     0.016 A 
ATOM     14  C   UNL d   1      -1.547   1.376  -0.962  0.00  0.00     0.031 A 
ATOM     15  C   UNL d   1      -1.858  -1.131   0.106  0.00  0.00     0.021 A 
ATOM     16  C   UNL d   1       4.216   3.807   1.613  0.00  0.00     0.037 A 
ATOM     17  C   UNL d   1       4.579   3.930  -0.793  0.00  0.00     0.001 A 
ATOM     18  C   UNL d   1      -2.827   0.818  -0.884  0.00  0.00     0.002 A 
ATOM     19  C   UNL d   1      -2.978  -0.449  -0.364  0.00  0.00     0.002 A 
ATOM     20  C   UNL d   1       4.953   4.266   0.517  0.00  0.00     0.003 A 
ENDROOT
BRANCH   6  21
ATOM     21  C   UNL d   1       3.430  -1.690   0.990  0.00  0.00    -0.043 A 
ATOM     22  C   UNL d   1       4.609  -1.629   0.218  0.00  0.00     0.009 A 
ATOM     23  C   UNL d   1       5.861  -1.789   0.814  0.00  0.00     0.008 A 
ATOM     24  C   UNL d   1       5.969  -2.039   2.187  0.00  0.00    -0.055 A 
ATOM     25  C   UNL d   1       4.793  -2.239   2.925  0.00  0.00     0.008 A 
ATOM     26  C   UNL d   1       3.537  -2.071   2.335  0.00  0.00     0.009 A 
BRANCH  24  27
ATOM     27  C   UNL d   1       7.313  -2.034   2.896  0.00  0.00     0.010 C 
ATOM     28  C   UNL d   1       8.201  -3.179   2.417  0.00  0.00     0.015 C 
ATOM     29  C   UNL d   1       8.030  -0.685   2.745  0.00  0.00     0.015 C 
ENDBRANCH  24  27
ENDBRANCH   6  21
TORSDOF 2
