REMARK  3 active torsions:
REMARK  status: ('A' for Active; 'I' for Inactive)
REMARK    1  A    between atoms: O_10  and  N_4 
REMARK    2  A    between atoms: C_7  and  O_10 
REMARK    3  A    between atoms: C_11  and  C_7 
ROOT
ATOM      1  C   UNL d   1      -0.028  -1.169   0.307  0.00  0.00     0.004 C 
ATOM      2  C   UNL d   1      -0.072  -0.022   1.359  0.00  0.00    -0.031 C 
ATOM      3  C   UNL d   1      -1.244  -0.773  -0.530  0.00  0.00     0.020 C 
ATOM      4  N   UNL d   1      -2.036  -1.642  -1.065  0.00  0.00    -0.265 N 
ATOM      5  HN  UNL d   1      -1.859  -2.647  -1.082  1.00  0.00     0.194 HD
ATOM      6  C   UNL d   1      -0.097   1.077   0.260  0.00  0.00    -0.000 C 
ATOM      7  C   UNL d   1      -1.349   0.736  -0.590  0.00  0.00     0.060 C 
ATOM      8  C   UNL d   1       1.179  -0.805  -0.587  0.00  0.00     0.016 C 
ATOM      9  C   UNL d   1       1.151   0.739  -0.594  0.00  0.00     0.007 C 
ATOM     10  C   UNL d   1      -0.029  -2.588   0.828  0.00  0.00     0.022 C 
ATOM     11  C   UNL d   1       1.152   0.043   2.293  0.00  0.00     0.016 C 
ATOM     12  C   UNL d   1      -1.316  -0.024   2.274  0.00  0.00     0.016 C 
ENDROOT
BRANCH   4  13
ATOM     13  O   UNL d   1      -3.175  -1.029  -1.621  0.00  0.00    -0.195 OA
BRANCH  13  14
ATOM     14  C   UNL d   1      -3.829  -1.946  -2.395  0.00  0.00     0.315 C 
ATOM     15  O   UNL d   1      -3.321  -2.707  -3.206  0.00  0.00    -0.257 OA
BRANCH  14  16
ATOM     16  C   UNL d   1      -5.287  -1.951  -2.079  0.00  0.00     0.041 A 
ATOM     17  C   UNL d   1      -6.096  -2.901  -2.727  0.00  0.00     0.019 A 
ATOM     18  C   UNL d   1      -7.450  -3.017  -2.403  0.00  0.00     0.025 A 
ATOM     19  C   UNL d   1      -8.004  -2.185  -1.434  0.00  0.00     0.034 A 
ATOM     20  C   UNL d   1      -7.217  -1.228  -0.795  0.00  0.00     0.025 A 
ATOM     21 CL   UNL d   1      -9.662  -2.349  -1.010  0.00  0.00    -0.084 Cl
ATOM     22  C   UNL d   1      -5.860  -1.109  -1.115  0.00  0.00     0.019 A 
ENDBRANCH  14  16
ENDBRANCH  13  14
ENDBRANCH   4  13
TORSDOF 3
