REMARK  7 active torsions:
REMARK  status: ('A' for Active; 'I' for Inactive)
REMARK    1  A    between atoms: C_7  and  C_1 
REMARK    2  A    between atoms: C_8  and  C_3 
REMARK    3  A    between atoms: C_10  and  C_6 
REMARK    4  A    between atoms: O_15  and  C_7 
REMARK    5  A    between atoms: S_13  and  C_8 
REMARK    6  A    between atoms: C_9  and  S_13 
REMARK    7  A    between atoms: C_20  and  O_15 
ROOT
ATOM      1  C   UNL d   1       0.087   1.350  -0.021  0.00  0.00     0.105 A 
ATOM      2  S   UNL d   1      -1.075   0.086  -0.066  0.00  0.00    -0.064 SA
ATOM      3  C   UNL d   1       1.367   0.806  -0.002  0.00  0.00     0.043 A 
ATOM      4  N   UNL d   1       1.391  -0.587   0.040  0.00  0.00    -0.351 N 
ATOM      5  HN  UNL d   1       2.243  -1.146   0.090  1.00  0.00     0.166 HD
ATOM      6  C   UNL d   1       0.174  -1.091   0.009  0.00  0.00     0.085 A 
ENDROOT
BRANCH   3   7
ATOM      7  C   UNL d   1       2.665   1.568   0.007  0.00  0.00     0.139 C 
BRANCH   7   8
ATOM      8  S   UNL d   1       4.042   0.711  -0.818  0.00  0.00    -0.106 SA
BRANCH   8   9
ATOM      9  C   UNL d   1       5.317   1.940  -0.608  0.00  0.00     0.069 A 
ATOM     10  N   UNL d   1       5.001   3.101   0.013  0.00  0.00    -0.361 N 
ATOM     11  C   UNL d   1       5.985   4.016   0.162  0.00  0.00     0.089 A 
ATOM     12  HN  UNL d   1       4.057   3.279   0.355  1.00  0.00     0.165 HD
ATOM     13  C   UNL d   1       7.280   3.832  -0.286  0.00  0.00     0.017 A 
ATOM     14  C   UNL d   1       7.586   2.637  -0.925  0.00  0.00     0.004 A 
ATOM     15  C   UNL d   1       6.594   1.675  -1.089  0.00  0.00     0.037 A 
ENDBRANCH   8   9
ENDBRANCH   7   8
ENDBRANCH   3   7
BRANCH   1  16
ATOM     16  C   UNL d   1      -0.363   2.728  -0.043  0.00  0.00     0.302 C 
ATOM     17  O   UNL d   1      -1.468   3.122  -0.398  0.00  0.00    -0.259 OA
BRANCH  16  18
ATOM     18  O   UNL d   1       0.640   3.551   0.371  0.00  0.00    -0.317 OA
BRANCH  18  19
ATOM     19  C   UNL d   1       0.482   4.953   0.111  0.00  0.00     0.174 C 
ATOM     20  C   UNL d   1       0.049   5.689   1.362  0.00  0.00     0.034 C 
ENDBRANCH  18  19
ENDBRANCH  16  18
ENDBRANCH   1  16
BRANCH   6  21
ATOM     21  C   UNL d   1      -0.117  -2.536  -0.015  0.00  0.00    -0.002 A 
ATOM     22  C   UNL d   1       0.832  -3.413  -0.567  0.00  0.00     0.014 A 
ATOM     23  C   UNL d   1       0.603  -4.791  -0.609  0.00  0.00     0.001 A 
ATOM     24  C   UNL d   1      -0.577  -5.317  -0.090  0.00  0.00     0.000 A 
ATOM     25  C   UNL d   1      -1.525  -4.466   0.473  0.00  0.00     0.001 A 
ATOM     26  C   UNL d   1      -1.297  -3.086   0.510  0.00  0.00     0.014 A 
ENDBRANCH   6  21
TORSDOF 7
