REMARK  5 active torsions:
REMARK  status: ('A' for Active; 'I' for Inactive)
REMARK       I    between atoms: N_2  and  C_1 
REMARK    1  A    between atoms: C_3  and  C_1 
REMARK       I    between atoms: C_4  and  N_2 
REMARK       I    between atoms: N_6  and  C_4 
REMARK    2  A    between atoms: C_5  and  C_8 
REMARK    3  A    between atoms: C_7  and  N_6 
REMARK    4  A    between atoms: N_9  and  C_20 
REMARK    5  A    between atoms: C_25  and  N_11 
ROOT
ATOM      1  C   UNL d   1       3.162   1.341   0.134  0.00  0.00     0.042 A 
ATOM      2  C   UNL d   1       2.901   0.525  -0.982  0.00  0.00    -0.033 A 
ATOM      3  C   UNL d   1       3.661  -0.650  -1.158  0.00  0.00     0.039 A 
ATOM      4  C   UNL d   1       4.665  -1.025  -0.256  0.00  0.00     0.048 A 
ATOM      5  C   UNL d   1       4.200   1.009   1.007  0.00  0.00     0.032 A 
ATOM      6  C   UNL d   1       4.946  -0.161   0.808  0.00  0.00     0.033 A 
ATOM      7  C   UNL d   1       1.911   0.884  -2.059  0.00  0.00     0.050 C 
ENDROOT
BRANCH   1   8
ATOM      8  N   UNL d   1       2.291   2.390   0.452  0.00  0.00    -0.308 N 
ATOM      9  C   UNL d   1       2.534   3.697   0.773  0.00  0.00     0.327 C 
ATOM     10  N   UNL d   1       3.817   4.151   0.614  0.00  0.00    -0.275 N 
ATOM     11  O   UNL d   1       1.569   4.384   1.096  0.00  0.00    -0.247 OA
ATOM     12  C   UNL d   1       4.198   5.490   0.586  0.00  0.00     0.265 C 
ATOM     13  H   UNL d   1       4.523   3.449   0.468  0.00  0.00     0.173 HD
ATOM     14  O   UNL d   1       3.459   6.434   0.794  0.00  0.00    -0.267 OA
ATOM     15  H   UNL d   1       1.297   2.211   0.363  0.00  0.00     0.170 HD
BRANCH  12  16
ATOM     16  C   UNL d   1       5.627   5.755   0.260  0.00  0.00     0.109 A 
ATOM     17  C   UNL d   1       6.018   6.980  -0.297  0.00  0.00     0.135 A 
ATOM     18  F   UNL d   1       5.136   7.960  -0.534  0.00  0.00    -0.205 F 
ATOM     19  C   UNL d   1       7.352   7.217  -0.647  0.00  0.00     0.043 A 
ATOM     20  C   UNL d   1       8.315   6.231  -0.441  0.00  0.00     0.006 A 
ATOM     21  C   UNL d   1       7.943   5.023   0.144  0.00  0.00     0.043 A 
ATOM     22  C   UNL d   1       6.612   4.798   0.494  0.00  0.00     0.135 A 
ATOM     23  F   UNL d   1       6.301   3.627   1.067  0.00  0.00    -0.205 F 
ENDBRANCH  12  16
ENDBRANCH   1   8
BRANCH   4  24
ATOM     24  N   UNL d   1       5.371  -2.223  -0.509  0.00  0.00    -0.300 N 
ATOM     25  N   UNL d   1       5.726  -2.812   0.537  0.00  0.00    -0.300 N 
ATOM     26  HN  UNL d   1       5.526  -2.464   1.475  1.00  0.00     0.187 HD
ATOM     27  HN  UNL d   1       5.570  -2.572  -1.446  1.00  0.00     0.187 HD
BRANCH  25  28
ATOM     28  C   UNL d   1       6.434  -4.011   0.281  0.00  0.00     0.048 A 
ATOM     29  C   UNL d   1       7.156  -4.258  -0.899  0.00  0.00     0.047 A 
ATOM     30  C   UNL d   1       7.876  -5.453  -1.087  0.00  0.00     0.050 A 
ATOM     31  C   UNL d   1       7.873  -6.415  -0.067  0.00  0.00     0.016 A 
ATOM     32  C   UNL d   1       7.168  -6.184   1.113  0.00  0.00     0.003 A 
ATOM     33  C   UNL d   1       6.459  -4.990   1.282  0.00  0.00     0.031 A 
BRANCH  30  34
ATOM     34  C   UNL d   1       8.654  -5.700  -2.355  0.00  0.00     0.417 C 
ATOM     35  F   UNL d   1       8.569  -4.682  -3.256  0.00  0.00    -0.166 F 
ATOM     36  F   UNL d   1       9.984  -5.879  -2.121  0.00  0.00    -0.166 F 
ATOM     37  F   UNL d   1       8.238  -6.817  -3.015  0.00  0.00    -0.166 F 
ENDBRANCH  30  34
ENDBRANCH  25  28
ENDBRANCH   4  24
TORSDOF 5
