REMARK  13 active torsions:
REMARK  status: ('A' for Active; 'I' for Inactive)
REMARK    1  A    between atoms: N_2  and  C_1 
REMARK    2  A    between atoms: C_4  and  C_1 
REMARK    3  A    between atoms: C_5  and  C_1 
REMARK    4  A    between atoms: N_7  and  C_1 
REMARK       I    between atoms: C_6  and  N_2 
REMARK    5  A    between atoms: C_3  and  C_9 
REMARK    6  A    between atoms: C_8  and  C_3 
REMARK    7  A    between atoms: C_11  and  C_3 
REMARK    8  A    between atoms: O_29  and  C_3 
REMARK    9  A    between atoms: C_10  and  C_6 
REMARK   10  A    between atoms: C_12  and  N_7 
REMARK   11  A    between atoms: O_30  and  C_11 
REMARK   12  A    between atoms: O_32  and  C_16 
REMARK   13  A    between atoms: C_35  and  O_32 
ROOT
ATOM      1  C   UNL d   1       1.103   0.592   0.531  0.00  0.00     0.306 C 
ENDROOT
BRANCH   1   2
ATOM      2  N   UNL d   1       0.620   1.251  -0.691  0.00  0.00    -0.315 N 
ATOM      3  C   UNL d   1      -0.587   1.909  -0.724  0.00  0.00     0.256 C 
ATOM      4  O   UNL d   1      -1.284   2.002   0.277  0.00  0.00    -0.267 OA
ATOM      5  H   UNL d   1       1.172   1.091  -1.523  0.00  0.00     0.165 HD
BRANCH   3   6
ATOM      6  C   UNL d   1      -0.980   2.529  -2.026  0.00  0.00     0.065 A 
ATOM      7  C   UNL d   1      -2.318   2.536  -2.472  0.00  0.00     0.084 A 
ATOM      8  C   UNL d   1      -2.614   3.142  -3.699  0.00  0.00     0.038 A 
ATOM      9  C   UNL d   1      -1.611   3.762  -4.450  0.00  0.00     0.003 A 
ATOM     10  C   UNL d   1      -0.298   3.773  -3.996  0.00  0.00     0.001 A 
ATOM     11  C   UNL d   1       0.021   3.156  -2.789  0.00  0.00     0.020 A 
BRANCH   7  12
ATOM     12  O   UNL d   1      -3.263   1.974  -1.659  0.00  0.00    -0.350 OA
BRANCH  12  13
ATOM     13  C   UNL d   1      -4.551   1.632  -2.170  0.00  0.00     0.171 C 
ATOM     14  C   UNL d   1      -5.539   2.789  -2.112  0.00  0.00     0.034 C 
ENDBRANCH  12  13
ENDBRANCH   7  12
ENDBRANCH   3   6
ENDBRANCH   1   2
BRANCH   1  15
ATOM     15  C   UNL d   1       0.266  -0.670   0.947  0.00  0.00     0.441 C 
ATOM     16  F   UNL d   1      -1.055  -0.484   1.109  0.00  0.00    -0.166 F 
ATOM     17  F   UNL d   1       0.402  -1.634  -0.015  0.00  0.00    -0.166 F 
ATOM     18  F   UNL d   1       0.750  -1.235   2.082  0.00  0.00    -0.166 F 
ENDBRANCH   1  15
BRANCH   1  19
ATOM     19  C   UNL d   1       1.094   1.456   1.832  0.00  0.00     0.441 C 
ATOM     20  F   UNL d   1       1.270   2.776   1.561  0.00  0.00    -0.166 F 
ATOM     21  F   UNL d   1      -0.036   1.344   2.564  0.00  0.00    -0.166 F 
ATOM     22  F   UNL d   1       2.113   1.104   2.662  0.00  0.00    -0.166 F 
ENDBRANCH   1  19
BRANCH   1  23
ATOM     23  N   UNL d   1       2.459   0.090   0.097  0.00  0.00    -0.348 N 
ATOM     24  H   UNL d   1       2.534  -0.914   0.248  0.00  0.00     0.162 HD
BRANCH  23  25
ATOM     25  C   UNL d   1       3.679   0.712  -0.072  0.00  0.00     0.036 A 
ATOM     26  C   UNL d   1       4.845  -0.085  -0.163  0.00  0.00    -0.035 A 
ATOM     27  C   UNL d   1       6.077   0.480  -0.550  0.00  0.00     0.020 A 
ATOM     28  C   UNL d   1       4.828  -1.566   0.130  0.00  0.00     0.050 C 
ATOM     29  C   UNL d   1       6.205   1.841  -0.853  0.00  0.00    -0.004 A 
ATOM     30  C   UNL d   1       5.072   2.644  -0.645  0.00  0.00     0.013 A 
ATOM     31  C   UNL d   1       3.832   2.086  -0.266  0.00  0.00     0.030 A 
BRANCH  29  32
ATOM     32  C   UNL d   1       7.519   2.389  -1.437  0.00  0.00     0.271 C 
BRANCH  32  33
ATOM     33  C   UNL d   1       7.300   3.319  -2.647  0.00  0.00     0.432 C 
ATOM     34  F   UNL d   1       6.370   2.839  -3.507  0.00  0.00    -0.167 F 
ATOM     35  F   UNL d   1       6.920   4.570  -2.304  0.00  0.00    -0.167 F 
ATOM     36  F   UNL d   1       8.452   3.437  -3.363  0.00  0.00    -0.167 F 
ENDBRANCH  32  33
BRANCH  32  37
ATOM     37  C   UNL d   1       8.311   3.255  -0.443  0.00  0.00     0.307 C 
ATOM     38  O   UNL d   1       7.854   3.842   0.522  0.00  0.00    -0.261 OA
BRANCH  37  39
ATOM     39  O   UNL d   1       9.634   3.302  -0.837  0.00  0.00    -0.324 OA
ATOM     40  C   UNL d   1      10.456   4.141  -0.028  0.00  0.00     0.213 C 
ENDBRANCH  37  39
ENDBRANCH  32  37
BRANCH  32  41
ATOM     41  O   UNL d   1       8.352   1.256  -1.830  0.00  0.00    -0.368 OA
ATOM     42  H   UNL d   1       9.159   1.640  -2.228  0.00  0.00     0.212 HD
ENDBRANCH  32  41
ENDBRANCH  29  32
ENDBRANCH  23  25
ENDBRANCH   1  23
TORSDOF 13
