REMARK  5 active torsions:
REMARK  status: ('A' for Active; 'I' for Inactive)
REMARK    1  A    between atoms: C_10  and  C_3 
REMARK    2  A    between atoms: C_15  and  C_4 
REMARK    3  A    between atoms: S_14  and  C_9 
REMARK    4  A    between atoms: C_13  and  C_16 
REMARK    5  A    between atoms: C_16  and  S_14 
ROOT
ATOM      1  N   UNL d   1       2.629   2.590   0.918  0.00  0.00    -0.335 N 
ATOM      2  HN  UNL d   1       1.920   2.674   1.647  1.00  0.00     0.168 HD
ATOM      3  C   UNL d   1       3.699   3.396   0.888  0.00  0.00     0.144 A 
ATOM      4  C   UNL d   1       2.529   1.664  -0.057  0.00  0.00     0.062 A 
ATOM      5  N   UNL d   1       4.662   3.351  -0.046  0.00  0.00    -0.347 N 
ATOM      6  HN  UNL d   1       5.455   3.992  -0.034  1.00  0.00     0.167 HD
ATOM      7  C   UNL d   1       3.468   1.532  -1.056  0.00  0.00     0.049 A 
ATOM      8  C   UNL d   1       4.522   2.411  -0.999  0.00  0.00     0.092 A 
ENDROOT
BRANCH   4   9
ATOM      9  C   UNL d   1       1.354   0.795  -0.012  0.00  0.00     0.066 A 
ATOM     10  N   UNL d   1       1.157  -0.242  -0.919  0.00  0.00    -0.348 N 
ATOM     11  C   UNL d   1       0.011  -0.854  -0.676  0.00  0.00     0.084 A 
ATOM     12  HN  UNL d   1       1.806  -0.494  -1.665  1.00  0.00     0.166 HD
ATOM     13  S   UNL d   1      -0.865  -0.233   0.675  0.00  0.00    -0.081 SA
ATOM     14  C   UNL d   1       0.354   0.936   0.929  0.00  0.00     0.083 A 
BRANCH  11  15
ATOM     15  C   UNL d   1      -0.493  -2.017  -1.428  0.00  0.00    -0.002 A 
ATOM     16  C   UNL d   1       0.422  -2.911  -2.007  0.00  0.00     0.014 A 
ATOM     17  C   UNL d   1      -0.020  -4.042  -2.700  0.00  0.00     0.001 A 
ATOM     18  C   UNL d   1      -1.384  -4.289  -2.836  0.00  0.00     0.000 A 
ATOM     19  C   UNL d   1      -2.306  -3.401  -2.289  0.00  0.00     0.001 A 
ATOM     20  C   UNL d   1      -1.865  -2.272  -1.593  0.00  0.00     0.014 A 
ENDBRANCH  11  15
ENDBRANCH   4   9
BRANCH   3  21
ATOM     21  S   UNL d   1       3.777   4.586   2.197  0.00  0.00    -0.089 SA
BRANCH  21  22
ATOM     22  C   UNL d   1       5.340   5.440   1.811  0.00  0.00     0.122 C 
BRANCH  22  23
ATOM     23  C   UNL d   1       5.597   6.519   2.842  0.00  0.00    -0.027 A 
ATOM     24  C   UNL d   1       6.304   6.282   4.033  0.00  0.00     0.041 A 
ATOM     25 CL   UNL d   1       7.045   4.759   4.373  0.00  0.00    -0.084 Cl
ATOM     26  C   UNL d   1       6.423   7.285   5.001  0.00  0.00     0.024 A 
ATOM     27  C   UNL d   1       5.841   8.536   4.796  0.00  0.00     0.002 A 
ATOM     28  C   UNL d   1       5.149   8.790   3.616  0.00  0.00     0.001 A 
ATOM     29  C   UNL d   1       5.027   7.792   2.648  0.00  0.00     0.009 A 
ENDBRANCH  22  23
ENDBRANCH  21  22
ENDBRANCH   3  21
TORSDOF 5
