REMARK  4 active torsions:
REMARK  status: ('A' for Active; 'I' for Inactive)
REMARK    1  A    between atoms: N_2  and  C_1 
REMARK    2  A    between atoms: N_4  and  C_3 
REMARK    3  A    between atoms: C_7  and  C_6 
REMARK    4  A    between atoms: C_15  and  C_7 
ROOT
ATOM      1  C   UNL d   1       1.383  -0.217   0.098  0.00  0.00     0.131 A 
ATOM      2  C   UNL d   1       0.565  -1.349  -0.069  0.00  0.00     0.071 A 
ATOM      3  C   UNL d   1       0.844   1.077   0.192  0.00  0.00     0.054 A 
ATOM      4  C   UNL d   1      -0.539   1.253   0.117  0.00  0.00     0.017 A 
ATOM      5  C   UNL d   1      -0.820  -1.138  -0.200  0.00  0.00     0.033 A 
ATOM      6  C   UNL d   1      -1.363   0.149  -0.123  0.00  0.00     0.018 A 
ENDROOT
BRANCH   4   7
ATOM      7  C   UNL d   1      -1.100   2.621   0.258  0.00  0.00     0.192 C 
ATOM      8  O   UNL d   1      -0.453   3.569  -0.173  0.00  0.00    -0.287 OA
BRANCH   7   9
ATOM      9  C   UNL d   1      -2.415   2.853   0.915  0.00  0.00     0.015 A 
ATOM     10  C   UNL d   1      -3.178   3.956   0.517  0.00  0.00     0.015 A 
ATOM     11  C   UNL d   1      -4.427   4.189   1.097  0.00  0.00     0.001 A 
ATOM     12  C   UNL d   1      -4.915   3.324   2.077  0.00  0.00     0.000 A 
ATOM     13  C   UNL d   1      -4.149   2.239   2.496  0.00  0.00     0.001 A 
ATOM     14  C   UNL d   1      -2.894   2.011   1.929  0.00  0.00     0.015 A 
ENDBRANCH   7   9
ENDBRANCH   4   7
BRANCH   1  15
ATOM     15  N   UNL d   1       2.830  -0.291   0.042  0.00  0.00    -0.113 N 
ATOM     16  O   UNL d   1       3.334  -0.676  -1.019  0.00  0.00    -0.532 OA
ATOM     17  O   UNL d   1       3.445   0.067   1.055  0.00  0.00    -0.532 OA
ENDBRANCH   1  15
BRANCH   2  18
ATOM     18  N   UNL d   1       1.045  -2.693  -0.077  0.00  0.00    -0.331 N 
ATOM     19  C   UNL d   1       2.163  -3.194   0.559  0.00  0.00     0.097 A 
ATOM     20  C   UNL d   1       2.260  -4.547   0.312  0.00  0.00     0.019 A 
ATOM     21  C   UNL d   1       1.148  -4.911  -0.469  0.00  0.00     0.019 A 
ATOM     22  C   UNL d   1       0.410  -3.768  -0.676  0.00  0.00     0.097 A 
ENDBRANCH   2  18
TORSDOF 4
