REMARK  2 active torsions:
REMARK  status: ('A' for Active; 'I' for Inactive)
REMARK    1  A    between atoms: N_7  and  C_1 
REMARK    2  A    between atoms: C_11  and  N_7 
ROOT
ATOM      1  C   UNL d   1      -1.133  -1.479  -0.239  0.00  0.00     0.090 A 
ATOM      2  C   UNL d   1      -1.608  -0.237  -0.045  0.00  0.00     0.110 A 
ATOM      3  C   UNL d   1       0.346  -1.679  -0.351  0.00  0.00     0.206 A 
ATOM      4  C   UNL d   1      -0.727   0.957   0.081  0.00  0.00     0.206 A 
ATOM      5  C   UNL d   1       1.247  -0.537  -0.148  0.00  0.00     0.030 A 
ATOM      6  C   UNL d   1       0.731   0.741   0.026  0.00  0.00     0.030 A 
ATOM      7  O   UNL d   1       0.797  -2.791  -0.620  0.00  0.00    -0.285 OA
ATOM      8  O   UNL d   1      -1.163   2.092   0.231  0.00  0.00    -0.286 OA
ATOM      9 CL   UNL d   1      -3.314   0.077   0.012  0.00  0.00    -0.078 Cl
ATOM     10  C   UNL d   1       1.605   1.830   0.150  0.00  0.00     0.016 A 
ATOM     11  C   UNL d   1       2.634  -0.742  -0.160  0.00  0.00     0.016 A 
ATOM     12  C   UNL d   1       2.986   1.629   0.123  0.00  0.00     0.001 A 
ATOM     13  C   UNL d   1       3.501   0.342  -0.021  0.00  0.00     0.001 A 
ENDROOT
BRANCH   1  14
ATOM     14  N   UNL d   1      -1.875  -2.648  -0.443  0.00  0.00    -0.255 NA
ATOM     15  H   UNL d   1      -1.264  -3.331  -0.915  0.00  0.00     0.134 HD
BRANCH  14  16
ATOM     16  C   UNL d   1      -2.500  -3.385   0.604  0.00  0.00     0.012 A 
ATOM     17  C   UNL d   1      -2.360  -3.085   1.964  0.00  0.00     0.024 A 
ATOM     18  C   UNL d   1      -2.934  -3.912   2.935  0.00  0.00     0.002 A 
ATOM     19  C   UNL d   1      -3.664  -5.038   2.558  0.00  0.00     0.000 A 
ATOM     20  C   UNL d   1      -3.830  -5.335   1.209  0.00  0.00     0.002 A 
ATOM     21  C   UNL d   1      -3.252  -4.513   0.240  0.00  0.00     0.024 A 
ENDBRANCH  14  16
ENDBRANCH   1  14
TORSDOF 2
