REMARK  4 active torsions:
REMARK  status: ('A' for Active; 'I' for Inactive)
REMARK       I    between atoms: N_2  and  C_1 
REMARK       I    between atoms: N_6  and  C_1 
REMARK    1  A    between atoms: C_4  and  N_2 
REMARK    2  A    between atoms: C_3  and  C_7 
REMARK    3  A    between atoms: O_16  and  C_3 
REMARK    4  A    between atoms: C_11  and  N_6 
ROOT
ATOM      1  C   UNL d   1       1.085   0.054  -0.037  0.00  0.00     0.325 C 
ATOM      2  N   UNL d   1       2.433   0.089   0.302  0.00  0.00    -0.307 N 
ATOM      3  N   UNL d   1       0.303   0.531   1.005  0.00  0.00    -0.309 N 
ATOM      4  O   UNL d   1       0.668  -0.371  -1.102  0.00  0.00    -0.247 OA
ATOM      5  H   UNL d   1       2.606  -0.135   1.275  0.00  0.00     0.170 HD
ATOM      6  H   UNL d   1       0.755   1.196   1.615  0.00  0.00     0.170 HD
ENDROOT
BRANCH   2   7
ATOM      7  C   UNL d   1       3.416  -0.391  -0.603  0.00  0.00     0.058 A 
ATOM      8  C   UNL d   1       4.363  -1.334  -0.177  0.00  0.00     0.062 A 
ATOM      9  C   UNL d   1       5.348  -1.798  -1.050  0.00  0.00     0.050 A 
ATOM     10 CL   UNL d   1       4.280  -2.015   1.411  0.00  0.00    -0.082 Cl
ATOM     11  C   UNL d   1       5.398  -1.302  -2.351  0.00  0.00     0.035 A 
ATOM     12  C   UNL d   1       4.460  -0.370  -2.792  0.00  0.00     0.026 A 
ATOM     13 CL   UNL d   1       6.630  -1.846  -3.423  0.00  0.00    -0.084 Cl
ATOM     14  C   UNL d   1       3.464   0.081  -1.920  0.00  0.00     0.033 A 
ENDBRANCH   2   7
BRANCH   3  15
ATOM     15  C   UNL d   1      -1.108   0.479   1.044  0.00  0.00     0.037 A 
ATOM     16  C   UNL d   1      -1.849  -0.433   0.286  0.00  0.00     0.047 A 
ATOM     17  C   UNL d   1      -3.253  -0.404   0.292  0.00  0.00     0.041 A 
ATOM     18  C   UNL d   1      -3.915   0.529   1.099  0.00  0.00     0.018 A 
ATOM     19  C   UNL d   1      -3.182   1.408   1.897  0.00  0.00     0.003 A 
ATOM     20  C   UNL d   1      -1.783   1.377   1.875  0.00  0.00     0.029 A 
BRANCH  17  21
ATOM     21  C   UNL d   1      -4.071  -1.321  -0.556  0.00  0.00     0.293 C 
ATOM     22  O   UNL d   1      -5.284  -1.328  -0.566  0.00  0.00    -0.259 OA
BRANCH  21  23
ATOM     23  O   UNL d   1      -3.255  -2.093  -1.318  0.00  0.00    -0.323 OA
ATOM     24  C   UNL d   1      -3.932  -2.953  -2.233  0.00  0.00     0.213 C 
ENDBRANCH  21  23
ENDBRANCH  17  21
ENDBRANCH   3  15
TORSDOF 4
