REMARK  5 active torsions:
REMARK  status: ('A' for Active; 'I' for Inactive)
REMARK    1  A    between atoms: C_5  and  C_1 
REMARK    2  A    between atoms: C_8  and  C_2 
REMARK    3  A    between atoms: O_19  and  C_8 
REMARK    4  A    between atoms: C_9  and  C_14 
REMARK    5  A    between atoms: N_10  and  O_19 
ROOT
ATOM      1  C   UNL d   1       2.789  -1.554  -0.122  0.00  0.00     0.318 C 
ATOM      2  O   UNL d   1       3.872  -0.992  -0.235  0.00  0.00    -0.257 OA
ENDROOT
BRANCH   1   3
ATOM      3  C   UNL d   1       1.549  -0.802  -0.028  0.00  0.00     0.091 A 
ATOM      4  C   UNL d   1       1.352   0.515   0.496  0.00  0.00     0.150 A 
ATOM      5  N   UNL d   1       0.067   0.903   0.338  0.00  0.00    -0.294 N 
ATOM      6  N   UNL d   1      -0.530  -0.130  -0.270  0.00  0.00    -0.306 N 
ATOM      7  HN  UNL d   1      -0.355   1.787   0.619  1.00  0.00     0.187 HD
ATOM      8  C   UNL d   1      -1.910  -0.018  -0.679  0.00  0.00     0.177 C 
ATOM      9  C   UNL d   1       0.297  -1.192  -0.472  0.00  0.00     0.129 A 
BRANCH   4  10
ATOM     10  C   UNL d   1       2.357   1.423   1.171  0.00  0.00     0.435 C 
ATOM     11  F   UNL d   1       3.536   0.823   1.468  0.00  0.00    -0.165 F 
ATOM     12  F   UNL d   1       2.648   2.516   0.414  0.00  0.00    -0.165 F 
ATOM     13  F   UNL d   1       1.882   1.893   2.361  0.00  0.00    -0.165 F 
ENDBRANCH   4  10
ENDBRANCH   1   3
BRANCH   1  14
ATOM     14  O   UNL d   1       2.587  -2.923  -0.095  0.00  0.00    -0.195 OA
BRANCH  14  15
ATOM     15  N   UNL d   1       3.839  -3.569  -0.123  0.00  0.00    -0.268 N 
ATOM     16  C   UNL d   1       3.704  -4.858  -0.122  0.00  0.00     0.130 C 
ATOM     17  HN  UNL d   1       4.736  -3.084  -0.142  1.00  0.00     0.194 HD
BRANCH  16  18
ATOM     18  C   UNL d   1       4.889  -5.735  -0.176  0.00  0.00     0.042 A 
ATOM     19  C   UNL d   1       6.113  -5.287   0.337  0.00  0.00     0.129 A 
ATOM     20  F   UNL d   1       6.217  -4.107   0.962  0.00  0.00    -0.205 F 
ATOM     21  C   UNL d   1       7.264  -6.068   0.246  0.00  0.00     0.043 A 
ATOM     22  C   UNL d   1       7.205  -7.320  -0.357  0.00  0.00     0.005 A 
ATOM     23  C   UNL d   1       5.988  -7.791  -0.853  0.00  0.00     0.025 A 
ATOM     24  C   UNL d   1       4.830  -7.005  -0.758  0.00  0.00     0.048 A 
ATOM     25 CL   UNL d   1       3.373  -7.659  -1.422  0.00  0.00    -0.083 Cl
ENDBRANCH  16  18
ENDBRANCH  14  15
ENDBRANCH   1  14
TORSDOF 5
