REMARK  4 active torsions:
REMARK  status: ('A' for Active; 'I' for Inactive)
REMARK    1  A    between atoms: S_10  and  C_2 
REMARK    2  A    between atoms: C_6  and  C_4 
REMARK       I    between atoms: N_12  and  C_6 
REMARK    3  A    between atoms: O_15  and  N_8 
REMARK    4  A    between atoms: N_14  and  N_12 
ROOT
ATOM      1  C   UNL d   1       0.384   0.726  -0.079  0.00  0.00     0.020 A 
ATOM      2  C   UNL d   1       1.750   0.947  -0.087  0.00  0.00     0.054 A 
ATOM      3  C   UNL d   1       0.085  -0.699  -0.061  0.00  0.00    -0.021 A 
ATOM      4  C   UNL d   1       1.226  -1.488  -0.012  0.00  0.00     0.082 A 
ATOM      5  S   UNL d   1       2.634  -0.521  -0.074  0.00  0.00    -0.076 SA
ATOM      6  C   UNL d   1      -0.709   1.712  -0.063  0.00  0.00     0.044 C 
ATOM      7  N   UNL d   1      -0.465   2.953  -0.350  0.00  0.00    -0.271 N 
ATOM      8  HN  UNL d   1       0.455   3.315  -0.603  1.00  0.00     0.194 HD
ATOM      9  C   UNL d   1      -1.333  -1.213  -0.045  0.00  0.00     0.041 C 
ATOM     10  C   UNL d   1      -2.089   1.168   0.303  0.00  0.00     0.060 C 
ATOM     11  C   UNL d   1      -2.340  -0.136  -0.449  0.00  0.00     0.011 C 
ENDROOT
BRANCH   4  12
ATOM     12  C   UNL d   1       1.306  -2.945   0.098  0.00  0.00     0.273 C 
ATOM     13  O   UNL d   1       0.319  -3.676   0.189  0.00  0.00    -0.266 OA
ATOM     14  N   UNL d   1       2.590  -3.491   0.111  0.00  0.00    -0.289 N 
ATOM     15  H   UNL d   1       3.394  -2.884  -0.035  0.00  0.00     0.183 HD
BRANCH  14  16
ATOM     16  N   UNL d   1       2.775  -4.893   0.169  0.00  0.00    -0.247 NA
ATOM     17  H   UNL d   1       1.867  -5.323  -0.059  0.00  0.00     0.143 HD
ATOM     18  H   UNL d   1       2.924  -5.149   1.150  0.00  0.00     0.143 HD
ENDBRANCH  14  16
ENDBRANCH   4  12
BRANCH   2  19
ATOM     19  S   UNL d   1       2.637   2.469  -0.036  0.00  0.00    -0.126 SA
ATOM     20  C   UNL d   1       2.872   2.755  -1.805  0.00  0.00     0.096 C 
ENDBRANCH   2  19
BRANCH   7  21
ATOM     21  O   UNL d   1      -1.630   3.734  -0.269  0.00  0.00    -0.285 OA
ATOM     22  C   UNL d   1      -1.321   5.072  -0.633  0.00  0.00     0.237 C 
ENDBRANCH   7  21
TORSDOF 4
