REMARK  5 active torsions:
REMARK  status: ('A' for Active; 'I' for Inactive)
REMARK    1  A    between atoms: C_7  and  C_1 
REMARK    2  A    between atoms: C_4  and  C_8 
REMARK    3  A    between atoms: C_5  and  C_13 
REMARK       I    between atoms: N_10  and  C_7 
REMARK       I    between atoms: C_9  and  N_11 
REMARK    4  A    between atoms: C_14  and  C_9 
REMARK    5  A    between atoms: N_11  and  N_10 
ROOT
ATOM      1  C   UNL d   1      -3.226   0.302   0.147  0.00  0.00     0.272 C 
ATOM      2  N   UNL d   1      -4.118   1.346   0.002  0.00  0.00    -0.263 N 
ATOM      3  O   UNL d   1      -2.018   0.508  -0.014  0.00  0.00    -0.266 OA
ATOM      4  H   UNL d   1      -5.127   1.276  -0.094  0.00  0.00     0.190 HD
ENDROOT
BRANCH   2   5
ATOM      5  N   UNL d   1      -3.574   2.625  -0.262  0.00  0.00    -0.263 N 
ATOM      6  C   UNL d   1      -4.378   3.574  -0.861  0.00  0.00     0.270 C 
ATOM      7  O   UNL d   1      -5.542   3.354  -1.174  0.00  0.00    -0.266 OA
ATOM      8  H   UNL d   1      -2.558   2.681  -0.255  0.00  0.00     0.190 HD
BRANCH   6   9
ATOM      9  C   UNL d   1      -3.766   4.915  -1.101  0.00  0.00     0.033 A 
ATOM     10  C   UNL d   1      -4.229   5.681  -2.177  0.00  0.00     0.018 A 
ATOM     11  C   UNL d   1      -3.780   6.995  -2.360  0.00  0.00     0.017 A 
ATOM     12  C   UNL d   1      -2.871   7.570  -1.459  0.00  0.00     0.048 A 
ATOM     13  C   UNL d   1      -2.388   6.787  -0.398  0.00  0.00     0.017 A 
ATOM     14  C   UNL d   1      -2.829   5.467  -0.218  0.00  0.00     0.018 A 
BRANCH  12  15
ATOM     15  C   UNL d   1      -2.449   9.017  -1.587  0.00  0.00     0.417 C 
ATOM     16  F   UNL d   1      -2.986   9.649  -2.669  0.00  0.00    -0.166 F 
ATOM     17  F   UNL d   1      -2.815   9.759  -0.505  0.00  0.00    -0.166 F 
ATOM     18  F   UNL d   1      -1.101   9.162  -1.701  0.00  0.00    -0.166 F 
ENDBRANCH  12  15
ENDBRANCH   6   9
ENDBRANCH   2   5
BRANCH   1  19
ATOM     19  C   UNL d   1      -3.686  -1.080   0.507  0.00  0.00     0.055 A 
ATOM     20  C   UNL d   1      -4.911  -1.482   1.049  0.00  0.00     0.021 A 
ATOM     21  N   UNL d   1      -5.148  -2.772   1.442  0.00  0.00    -0.355 N 
ATOM     22  C   UNL d   1      -6.075  -0.578   1.320  0.00  0.00     0.069 C 
ATOM     23  C   UNL d   1      -4.171  -3.717   1.323  0.00  0.00     0.117 A 
ATOM     24  HN  UNL d   1      -6.058  -3.027   1.827  1.00  0.00     0.166 HD
ATOM     25  C   UNL d   1      -2.940  -3.397   0.774  0.00  0.00     0.035 A 
ATOM     26  C   UNL d   1      -2.707  -2.084   0.366  0.00  0.00     0.021 A 
BRANCH  23  27
ATOM     27  C   UNL d   1      -4.417  -5.138   1.818  0.00  0.00     0.432 C 
ATOM     28  F   UNL d   1      -5.649  -5.343   2.363  0.00  0.00    -0.165 F 
ATOM     29  F   UNL d   1      -4.290  -6.066   0.826  0.00  0.00    -0.165 F 
ATOM     30  F   UNL d   1      -3.520  -5.513   2.781  0.00  0.00    -0.165 F 
ENDBRANCH  23  27
ENDBRANCH   1  19
TORSDOF 5
