REMARK  6 active torsions:
REMARK  status: ('A' for Active; 'I' for Inactive)
REMARK    1  A    between atoms: C_19  and  C_5 
REMARK    2  A    between atoms: C_26  and  C_6 
REMARK    3  A    between atoms: C_27  and  C_7 
REMARK    4  A    between atoms: C_24  and  C_8 
REMARK    5  A    between atoms: C_25  and  C_9 
REMARK    6  A    between atoms: C_14  and  C_20 
ROOT
ATOM      1  C   UNL d   1       0.585   2.672   0.139  0.00  0.00     0.079 A 
ATOM      2  C   UNL d   1       1.691   4.667  -0.737  0.00  0.00     0.013 A 
ATOM      3  C   UNL d   1       1.357   3.303  -0.841  0.00  0.00     0.048 A 
ATOM      4  N   UNL d   1       0.119   3.370   1.209  0.00  0.00    -0.363 N 
ATOM      5  HN  UNL d   1      -0.449   2.915   1.923  1.00  0.00     0.165 HD
ATOM      6  C   UNL d   1       0.429   4.680   1.303  0.00  0.00     0.089 A 
ATOM      7  C   UNL d   1       1.198   5.358   0.374  0.00  0.00     0.032 A 
ENDROOT
BRANCH   1   8
ATOM      8  C   UNL d   1       0.285   1.220   0.081  0.00  0.00     0.147 A 
ATOM      9  N   UNL d   1       0.772   0.503  -0.957  0.00  0.00    -0.337 N 
ATOM     10  C   UNL d   1       0.571  -0.846  -0.932  0.00  0.00     0.073 A 
ATOM     11  HN  UNL d   1       1.271   0.952  -1.725  1.00  0.00     0.167 HD
ATOM     12  C   UNL d   1      -0.094  -1.466   0.133  0.00  0.00     0.086 A 
ATOM     13  N   UNL d   1      -0.599  -0.692   1.121  0.00  0.00    -0.296 N 
ATOM     14  N   UNL d   1      -0.406   0.662   1.096  0.00  0.00    -0.283 N 
ATOM     15  HN  UNL d   1      -1.125  -1.119   1.885  1.00  0.00     0.187 HD
ATOM     16  HN  UNL d   1      -0.782   1.248   1.842  1.00  0.00     0.188 HD
BRANCH  10  17
ATOM     17  C   UNL d   1       1.163  -1.556  -2.093  0.00  0.00    -0.007 A 
ATOM     18  C   UNL d   1       2.446  -1.205  -2.554  0.00  0.00     0.014 A 
ATOM     19  C   UNL d   1       3.088  -1.941  -3.555  0.00  0.00     0.001 A 
ATOM     20  C   UNL d   1       2.459  -3.044  -4.121  0.00  0.00     0.000 A 
ATOM     21  C   UNL d   1       1.167  -3.379  -3.726  0.00  0.00     0.001 A 
ATOM     22  C   UNL d   1       0.517  -2.624  -2.744  0.00  0.00     0.014 A 
ENDBRANCH  10  17
BRANCH  12  23
ATOM     23  C   UNL d   1      -0.290  -2.916   0.332  0.00  0.00    -0.006 A 
ATOM     24  C   UNL d   1       0.748  -3.846   0.144  0.00  0.00     0.014 A 
ATOM     25  C   UNL d   1       0.520  -5.221   0.251  0.00  0.00     0.001 A 
ATOM     26  C   UNL d   1      -0.743  -5.693   0.598  0.00  0.00     0.000 A 
ATOM     27  C   UNL d   1      -1.772  -4.790   0.849  0.00  0.00     0.001 A 
ATOM     28  C   UNL d   1      -1.547  -3.417   0.718  0.00  0.00     0.014 A 
ENDBRANCH  12  23
ENDBRANCH   1   8
BRANCH   2  29
ATOM     29  C   UNL d   1       2.560   5.320  -1.736  0.00  0.00     0.131 A 
ATOM     30  N   UNL d   1       2.852   6.626  -1.589  0.00  0.00    -0.338 N 
ATOM     31  C   UNL d   1       3.737   7.162  -2.484  0.00  0.00     0.073 A 
ATOM     32  HN  UNL d   1       2.435   7.188  -0.847  1.00  0.00     0.167 HD
ATOM     33  C   UNL d   1       4.332   6.380  -3.481  0.00  0.00     0.086 A 
ATOM     34  N   UNL d   1       3.965   5.084  -3.594  0.00  0.00    -0.296 N 
ATOM     35  N   UNL d   1       3.072   4.551  -2.713  0.00  0.00    -0.284 N 
ATOM     36  HN  UNL d   1       4.356   4.505  -4.337  1.00  0.00     0.187 HD
ATOM     37  HN  UNL d   1       2.794   3.573  -2.795  1.00  0.00     0.188 HD
BRANCH  31  38
ATOM     38  C   UNL d   1       4.024   8.598  -2.245  0.00  0.00    -0.007 A 
ATOM     39  C   UNL d   1       4.256   9.066  -0.938  0.00  0.00     0.014 A 
ATOM     40  C   UNL d   1       4.667  10.380  -0.694  0.00  0.00     0.001 A 
ATOM     41  C   UNL d   1       4.849  11.259  -1.757  0.00  0.00     0.000 A 
ATOM     42  C   UNL d   1       4.569  10.842  -3.054  0.00  0.00     0.001 A 
ATOM     43  C   UNL d   1       4.132   9.535  -3.292  0.00  0.00     0.014 A 
ENDBRANCH  31  38
BRANCH  33  44
ATOM     44  C   UNL d   1       5.370   6.794  -4.449  0.00  0.00    -0.006 A 
ATOM     45  C   UNL d   1       5.298   6.366  -5.790  0.00  0.00     0.014 A 
ATOM     46  C   UNL d   1       6.242   6.770  -6.739  0.00  0.00     0.001 A 
ATOM     47  C   UNL d   1       7.285   7.612  -6.365  0.00  0.00     0.000 A 
ATOM     48  C   UNL d   1       7.402   8.023  -5.042  0.00  0.00     0.001 A 
ATOM     49  C   UNL d   1       6.469   7.596  -4.090  0.00  0.00     0.014 A 
ENDBRANCH  33  44
ENDBRANCH   2  29
TORSDOF 6
