REMARK  4 active torsions:
REMARK  status: ('A' for Active; 'I' for Inactive)
REMARK    1  A    between atoms: C_5  and  N_1 
REMARK       I    between atoms: C_2  and  N_4 
REMARK    2  A    between atoms: C_3  and  C_2 
REMARK    3  A    between atoms: N_6  and  C_7 
REMARK    4  A    between atoms: N_21  and  C_12 
ROOT
ATOM      1  C   UNL d   1      -3.451  -8.714   0.673  0.00  0.00     0.255 C 
ATOM      2  N   UNL d   1      -2.647  -7.576   0.723  0.00  0.00    -0.346 N 
ATOM      3  N   UNL d   1      -1.303  -5.054   0.823  0.00  0.00    -0.266 NA
ATOM      4  O   UNL d   1      -4.087  -9.117   1.650  0.00  0.00    -0.267 OA
ATOM      5  C   UNL d   1      -2.528  -6.859   1.999  0.00  0.00     0.141 C 
ATOM      6  C   UNL d   1      -1.583  -7.239  -0.240  0.00  0.00     0.141 C 
ATOM      7  C   UNL d   1      -1.530  -5.721  -0.474  0.00  0.00     0.117 C 
ATOM      8  C   UNL d   1      -2.374  -5.334   1.804  0.00  0.00     0.117 C 
ENDROOT
BRANCH   1   9
ATOM      9  C   UNL d   1      -3.570  -9.486  -0.593  0.00  0.00     0.053 C 
ATOM     10  C   UNL d   1      -3.501 -10.894  -0.566  0.00  0.00     0.021 C 
ATOM     11  C   UNL d   1      -3.511 -11.580  -1.787  0.00  0.00     0.024 C 
ATOM     12  C   UNL d   1      -3.707 -10.902  -2.993  0.00  0.00     0.002 C 
ATOM     13  C   UNL d   1      -3.890  -9.522  -2.997  0.00  0.00     0.001 C 
ATOM     14  C   UNL d   1      -3.838  -8.815  -1.796  0.00  0.00     0.019 C 
BRANCH  10  15
ATOM     15  N   UNL d   1      -3.200 -11.613   0.610  0.00  0.00    -0.302 NA
ATOM     16  H   UNL d   1      -3.524 -11.100   1.438  0.00  0.00     0.124 HD
ATOM     17  H   UNL d   1      -3.569 -12.559   0.604  0.00  0.00     0.124 HD
ENDBRANCH  10  15
ENDBRANCH   1   9
BRANCH   3  18
ATOM     18  C   UNL d   1      -0.907  -3.719   0.724  0.00  0.00     0.082 A 
ATOM     19  C   UNL d   1      -0.282  -3.117   1.821  0.00  0.00     0.045 A 
ATOM     20  C   UNL d   1       0.275  -1.841   1.698  0.00  0.00     0.041 A 
ATOM     21  C   UNL d   1       0.178  -1.192   0.473  0.00  0.00     0.118 A 
ATOM     22  C   UNL d   1      -0.482  -1.820  -0.564  0.00  0.00     0.125 A 
ATOM     23  N   UNL d   1      -1.014  -3.068  -0.459  0.00  0.00    -0.354 N 
ATOM     24  HN  UNL d   1      -1.482  -3.504  -1.253  1.00  0.00     0.166 HD
BRANCH  21  25
ATOM     25  N   UNL d   1       0.794   0.106   0.262  0.00  0.00    -0.114 N 
ATOM     26  O   UNL d   1       0.586   0.677  -0.818  0.00  0.00    -0.532 OA
ATOM     27  O   UNL d   1       1.496   0.568   1.174  0.00  0.00    -0.532 OA
ENDBRANCH  21  25
ENDBRANCH   3  18
TORSDOF 4
