REMARK  9 active torsions:
REMARK  status: ('A' for Active; 'I' for Inactive)
REMARK    1  A    between atoms: C_6  and  C_1 
REMARK    2  A    between atoms: S_8  and  C_3 
REMARK    3  A    between atoms: C_10  and  C_4 
REMARK    4  A    between atoms: O_17  and  C_6 
REMARK    5  A    between atoms: C_14  and  S_8 
REMARK    6  A    between atoms: C_11  and  C_14 
REMARK    7  A    between atoms: O_21  and  C_11 
REMARK    8  A    between atoms: C_23  and  O_17 
REMARK    9  A    between atoms: C_24  and  O_21 
ROOT
ATOM      1  C   UNL d   1       1.286  -1.256  -0.044  0.00  0.00     0.094 A 
ATOM      2  C   UNL d   1      -0.714  -0.043  -0.108  0.00  0.00     0.081 A 
ATOM      3  C   UNL d   1       0.213   0.983  -0.092  0.00  0.00     0.064 A 
ATOM      4  C   UNL d   1      -0.105  -1.362  -0.085  0.00  0.00     0.020 A 
ATOM      5  S   UNL d   1       1.804   0.383  -0.118  0.00  0.00    -0.075 SA
ATOM      6  C   UNL d   1      -2.125   0.216  -0.116  0.00  0.00     0.102 C 
ATOM      7  N   UNL d   1      -3.273   0.401  -0.066  0.00  0.00    -0.191 NA
ENDROOT
BRANCH   4   8
ATOM      8  C   UNL d   1      -0.808  -2.664  -0.060  0.00  0.00    -0.023 A 
ATOM      9  C   UNL d   1      -0.331  -3.767  -0.789  0.00  0.00     0.014 A 
ATOM     10  C   UNL d   1      -0.974  -5.009  -0.729  0.00  0.00     0.024 A 
ATOM     11  C   UNL d   1      -2.144  -5.148   0.007  0.00  0.00     0.034 A 
ATOM     12  C   UNL d   1      -2.661  -4.061   0.703  0.00  0.00     0.024 A 
ATOM     13 CL   UNL d   1      -2.953  -6.664   0.055  0.00  0.00    -0.084 Cl
ATOM     14  C   UNL d   1      -1.982  -2.836   0.691  0.00  0.00     0.014 A 
ENDBRANCH   4   8
BRANCH   3  15
ATOM     15  S   UNL d   1      -0.132   2.716   0.013  0.00  0.00    -0.111 SA
BRANCH  15  16
ATOM     16  C   UNL d   1       0.623   3.368  -1.502  0.00  0.00     0.191 C 
BRANCH  16  17
ATOM     17  C   UNL d   1       0.082   2.733  -2.764  0.00  0.00     0.268 C 
ATOM     18  O   UNL d   1      -0.754   1.844  -2.837  0.00  0.00    -0.264 OA
BRANCH  17  19
ATOM     19  O   UNL d   1       0.764   3.246  -3.832  0.00  0.00    -0.321 OA
BRANCH  19  20
ATOM     20  C   UNL d   1       0.710   2.452  -5.025  0.00  0.00     0.174 C 
ATOM     21  C   UNL d   1       1.839   1.439  -4.954  0.00  0.00     0.034 C 
ENDBRANCH  19  20
ENDBRANCH  17  19
ENDBRANCH  16  17
ENDBRANCH  15  16
ENDBRANCH   3  15
BRANCH   1  22
ATOM     22  C   UNL d   1       2.287  -2.294   0.159  0.00  0.00     0.301 C 
ATOM     23  O   UNL d   1       2.118  -3.322   0.804  0.00  0.00    -0.259 OA
BRANCH  22  24
ATOM     24  O   UNL d   1       3.472  -1.966  -0.442  0.00  0.00    -0.317 OA
BRANCH  24  25
ATOM     25  C   UNL d   1       4.588  -2.772  -0.037  0.00  0.00     0.174 C 
ATOM     26  C   UNL d   1       5.125  -2.219   1.271  0.00  0.00     0.034 C 
ENDBRANCH  24  25
ENDBRANCH  22  24
ENDBRANCH   1  22
TORSDOF 9
