REMARK  5 active torsions:
REMARK  status: ('A' for Active; 'I' for Inactive)
REMARK    1  A    between atoms: S_6  and  C_1 
REMARK    2  A    between atoms: C_9  and  S_6 
REMARK    3  A    between atoms: C_7  and  C_9 
REMARK    4  A    between atoms: O_10  and  C_7 
REMARK    5  A    between atoms: C_14  and  O_10 
ROOT
ATOM      1  C   UNL d   1      -1.190  -1.229  -0.046  0.00  0.00     0.035 A 
ATOM      2  N   UNL d   1      -1.194   0.980   0.086  0.00  0.00    -0.358 N 
ATOM      3  C   UNL d   1      -2.012  -0.122   0.024  0.00  0.00     0.023 A 
ATOM      4  C   UNL d   1       0.164  -0.786  -0.048  0.00  0.00     0.009 A 
ATOM      5  C   UNL d   1       0.131   0.606   0.045  0.00  0.00     0.044 A 
ATOM      6  C   UNL d   1      -3.492   0.008   0.032  0.00  0.00     0.069 C 
ATOM      7  C   UNL d   1       1.425  -1.419  -0.129  0.00  0.00     0.015 A 
ATOM      8  C   UNL d   1       1.288   1.394   0.072  0.00  0.00     0.030 A 
ATOM      9  C   UNL d   1       2.591  -0.647  -0.096  0.00  0.00     0.001 A 
ATOM     10  C   UNL d   1       2.521   0.739   0.004  0.00  0.00     0.002 A 
ATOM     11  H   UNL d   1      -1.513   1.939   0.141  0.00  0.00     0.166 HD
ENDROOT
BRANCH   1  12
ATOM     12  S   UNL d   1      -1.735  -2.889  -0.157  0.00  0.00    -0.117 SA
BRANCH  12  13
ATOM     13  C   UNL d   1      -1.077  -3.555   1.399  0.00  0.00     0.190 C 
BRANCH  13  14
ATOM     14  C   UNL d   1      -1.598  -4.949   1.681  0.00  0.00     0.268 C 
ATOM     15  O   UNL d   1      -2.381  -5.598   1.002  0.00  0.00    -0.264 OA
BRANCH  14  16
ATOM     16  O   UNL d   1      -1.061  -5.382   2.865  0.00  0.00    -0.321 OA
BRANCH  16  17
ATOM     17  C   UNL d   1      -1.540  -6.650   3.338  0.00  0.00     0.174 C 
ATOM     18  C   UNL d   1      -2.791  -6.439   4.170  0.00  0.00     0.034 C 
ENDBRANCH  16  17
ENDBRANCH  14  16
ENDBRANCH  13  14
ENDBRANCH  12  13
ENDBRANCH   1  12
TORSDOF 5
