REMARK  2 active torsions:
REMARK  status: ('A' for Active; 'I' for Inactive)
REMARK    1  A    between atoms: C_9  and  C_6 
REMARK    2  A    between atoms: C_10  and  C_8 
ROOT
ATOM      1  C   UNL d   1      -6.137  -2.006  -0.100  0.00  0.00    -0.026 A 
ATOM      2  C   UNL d   1      -3.299  -1.969  -0.003  0.00  0.00    -0.035 A 
ATOM      3  C   UNL d   1      -5.430  -2.553   0.988  0.00  0.00     0.013 A 
ATOM      4  C   UNL d   1      -5.372  -1.452  -1.144  0.00  0.00     0.013 A 
ATOM      5  C   UNL d   1      -4.033  -2.528   1.043  0.00  0.00     0.012 A 
ATOM      6  C   UNL d   1      -3.971  -1.437  -1.102  0.00  0.00     0.012 A 
ENDROOT
BRANCH   2   7
ATOM      7  C   UNL d   1      -1.842  -1.948   0.071  0.00  0.00     0.029 C 
ATOM      8  C   UNL d   1      -1.028  -2.923  -0.363  0.00  0.00     0.045 A 
ATOM      9  C   UNL d   1       0.452  -2.832  -0.113  0.00  0.00     0.257 A 
ATOM     10  C   UNL d   1      -1.282  -4.200  -1.034  0.00  0.00     0.006 A 
ATOM     11  N   UNL d   1       0.966  -4.027  -0.584  0.00  0.00    -0.322 N 
ATOM     12  O   UNL d   1       1.063  -1.919   0.406  0.00  0.00    -0.267 OA
ATOM     13  C   UNL d   1      -0.034  -4.833  -1.123  0.00  0.00     0.046 A 
ATOM     14  H   UNL d   1       1.948  -4.255  -0.540  0.00  0.00     0.169 HD
ATOM     15  C   UNL d   1       0.132  -6.081  -1.688  0.00  0.00     0.030 A 
ATOM     16  C   UNL d   1      -1.006  -6.708  -2.198  0.00  0.00     0.002 A 
ATOM     17  C   UNL d   1      -2.262  -6.078  -2.139  0.00  0.00     0.001 A 
ATOM     18  C   UNL d   1      -2.408  -4.815  -1.553  0.00  0.00     0.015 A 
ENDBRANCH   2   7
BRANCH   1  19
ATOM     19  C   UNL d   1      -7.621  -2.015  -0.136  0.00  0.00    -0.026 A 
ATOM     20  C   UNL d   1      -8.331  -2.118  -1.346  0.00  0.00     0.012 A 
ATOM     21  C   UNL d   1      -9.730  -2.134  -1.375  0.00  0.00     0.001 A 
ATOM     22  C   UNL d   1     -10.455  -2.060  -0.191  0.00  0.00     0.000 A 
ATOM     23  C   UNL d   1      -9.782  -1.956   1.021  0.00  0.00     0.001 A 
ATOM     24  C   UNL d   1      -8.384  -1.925   1.045  0.00  0.00     0.012 A 
ENDBRANCH   1  19
TORSDOF 2
