REMARK  6 active torsions:
REMARK  status: ('A' for Active; 'I' for Inactive)
REMARK    1  A    between atoms: C_4  and  C_1 
REMARK    2  A    between atoms: C_6  and  C_1 
REMARK    3  A    between atoms: N_8  and  N_2 
REMARK    4  A    between atoms: C_10  and  C_4 
REMARK    5  A    between atoms: C_5  and  C_7 
REMARK    6  A    between atoms: C_17  and  N_8 
ROOT
ATOM      1  C   UNL d   1       1.101   0.018   0.136  0.00  0.00     0.144 C 
ATOM      2  N   UNL d   1       0.423   0.750   0.977  0.00  0.00    -0.293 N 
ATOM      3  HN  UNL d   1      -0.589   0.647   1.052  1.00  0.00     0.187 HD
ENDROOT
BRANCH   2   4
ATOM      4  N   UNL d   1       1.081   1.647   1.750  0.00  0.00    -0.300 N 
ATOM      5  H   UNL d   1       1.964   2.053   1.412  0.00  0.00     0.187 HD
BRANCH   4   6
ATOM      6  C   UNL d   1       0.314   2.495   2.575  0.00  0.00     0.048 A 
ATOM      7  C   UNL d   1      -1.061   2.301   2.770  0.00  0.00     0.031 A 
ATOM      8  C   UNL d   1      -1.780   3.072   3.689  0.00  0.00     0.018 A 
ATOM      9  C   UNL d   1      -1.132   4.046   4.457  0.00  0.00     0.048 A 
ATOM     10  C   UNL d   1       0.243   4.248   4.265  0.00  0.00     0.018 A 
ATOM     11  C   UNL d   1       0.956   3.475   3.340  0.00  0.00     0.031 A 
BRANCH   9  12
ATOM     12  C   UNL d   1      -1.881   4.846   5.493  0.00  0.00     0.417 C 
ATOM     13  F   UNL d   1      -3.203   4.525   5.580  0.00  0.00    -0.166 F 
ATOM     14  F   UNL d   1      -1.376   4.673   6.746  0.00  0.00    -0.166 F 
ATOM     15  F   UNL d   1      -1.838   6.186   5.255  0.00  0.00    -0.166 F 
ENDBRANCH   9  12
ENDBRANCH   4   6
ENDBRANCH   2   4
BRANCH   1  16
ATOM     16  C   UNL d   1       0.278  -0.964  -0.666  0.00  0.00     0.213 C 
ATOM     17  O   UNL d   1       0.604  -1.168  -1.830  0.00  0.00    -0.285 OA
BRANCH  16  18
ATOM     18  C   UNL d   1      -0.901  -1.635  -0.055  0.00  0.00     0.016 A 
ATOM     19  C   UNL d   1      -1.958  -2.025  -0.884  0.00  0.00     0.015 A 
ATOM     20  C   UNL d   1      -3.098  -2.619  -0.337  0.00  0.00     0.001 A 
ATOM     21  C   UNL d   1      -3.180  -2.840   1.038  0.00  0.00     0.000 A 
ATOM     22  C   UNL d   1      -2.121  -2.473   1.867  0.00  0.00     0.001 A 
ATOM     23  C   UNL d   1      -0.981  -1.875   1.325  0.00  0.00     0.015 A 
ENDBRANCH  16  18
ENDBRANCH   1  16
BRANCH   1  24
ATOM     24  C   UNL d   1       2.606   0.152  -0.047  0.00  0.00     0.177 C 
ATOM     25  O   UNL d   1       3.142   1.247   0.116  0.00  0.00    -0.291 OA
ATOM     26  C   UNL d   1       3.398  -1.093  -0.323  0.00  0.00     0.098 C 
ENDBRANCH   1  24
TORSDOF 6
