REMARK  6 active torsions:
REMARK  status: ('A' for Active; 'I' for Inactive)
REMARK       I    between atoms: N_2  and  C_1 
REMARK    1  A    between atoms: C_4  and  C_1 
REMARK    2  A    between atoms: N_9  and  C_5 
REMARK    3  A    between atoms: S_10  and  C_5 
REMARK    4  A    between atoms: C_20  and  N_9 
REMARK    5  A    between atoms: C_14  and  C_24 
REMARK    6  A    between atoms: C_24  and  C_20 
ROOT
ATOM      1  C   UNL d   1       0.821  -0.226   0.067  0.00  0.00     0.261 C 
ATOM      2  N   UNL d   1       0.219  -0.524  -1.125  0.00  0.00    -0.303 N 
ATOM      3  HN  UNL d   1      -0.759  -0.811  -1.148  1.00  0.00     0.171 HD
ATOM      4  C   UNL d   1       0.896  -0.441  -2.221  0.00  0.00     0.142 C 
ATOM      5  O   UNL d   1       1.992  -0.416   0.368  0.00  0.00    -0.267 OA
ENDROOT
BRANCH   4   6
ATOM      6  N   UNL d   1       2.227  -0.151  -2.349  0.00  0.00    -0.370 N 
ATOM      7  H   UNL d   1       2.743  -0.100  -1.470  0.00  0.00     0.161 HD
BRANCH   6   8
ATOM      8  C   UNL d   1       2.986   0.134  -3.550  0.00  0.00     0.126 C 
BRANCH   8   9
ATOM      9  C   UNL d   1       2.780   1.585  -4.001  0.00  0.00     0.058 C 
BRANCH   9  10
ATOM     10  C   UNL d   1       3.448   1.877  -5.324  0.00  0.00    -0.057 A 
ATOM     11  C   UNL d   1       2.790   1.581  -6.527  0.00  0.00     0.009 A 
ATOM     12  C   UNL d   1       3.400   1.851  -7.754  0.00  0.00     0.024 A 
ATOM     13  C   UNL d   1       4.673   2.415  -7.785  0.00  0.00     0.034 A 
ATOM     14  C   UNL d   1       5.342   2.707  -6.598  0.00  0.00     0.024 A 
ATOM     15 CL   UNL d   1       5.423   2.755  -9.296  0.00  0.00    -0.084 Cl
ATOM     16  C   UNL d   1       4.733   2.436  -5.370  0.00  0.00     0.009 A 
ENDBRANCH   9  10
ENDBRANCH   8   9
ENDBRANCH   6   8
ENDBRANCH   4   6
BRANCH   4  17
ATOM     17  S   UNL d   1      -0.023  -0.719  -3.709  0.00  0.00    -0.099 SA
ATOM     18  C   UNL d   1      -1.717  -0.547  -3.106  0.00  0.00     0.099 C 
ENDBRANCH   4  17
BRANCH   1  19
ATOM     19  C   UNL d   1      -0.091   0.430   1.021  0.00  0.00     0.075 A 
ATOM     20  C   UNL d   1      -0.519   1.740   0.768  0.00  0.00     0.051 A 
ATOM     21 CL   UNL d   1       0.091   2.687  -0.544  0.00  0.00    -0.083 Cl
ATOM     22  C   UNL d   1      -1.464   2.339   1.605  0.00  0.00     0.025 A 
ATOM     23  C   UNL d   1      -1.974   1.640   2.699  0.00  0.00     0.003 A 
ATOM     24  C   UNL d   1      -1.528   0.345   2.966  0.00  0.00     0.025 A 
ATOM     25  C   UNL d   1      -0.587  -0.265   2.128  0.00  0.00     0.051 A 
ATOM     26 CL   UNL d   1      -0.115  -1.883   2.501  0.00  0.00    -0.083 Cl
ENDBRANCH   1  19
TORSDOF 6
