REMARK  4 active torsions:
REMARK  status: ('A' for Active; 'I' for Inactive)
REMARK    1  A    between atoms: N_10  and  C_1 
REMARK       I    between atoms: C_2  and  N_4 
REMARK    2  A    between atoms: C_3  and  C_2 
REMARK       I    between atoms: N_4  and  C_9 
REMARK       I    between atoms: C_9  and  N_10 
REMARK    3  A    between atoms: O_22  and  C_13 
REMARK    4  A    between atoms: O_24  and  C_16 
ROOT
ATOM      1  C   UNL d   1      -4.003   0.625  -0.194  0.00  0.00     0.265 C 
ATOM      2  N   UNL d   1      -3.499   1.715  -0.883  0.00  0.00    -0.274 N 
ATOM      3  C   UNL d   1      -4.282   2.817  -1.218  0.00  0.00     0.341 C 
ATOM      4  N   UNL d   1      -3.518   3.917  -1.536  0.00  0.00    -0.141 N 
ATOM      5  O   UNL d   1      -5.195   0.373  -0.046  0.00  0.00    -0.267 OA
ATOM      6  O   UNL d   1      -5.502   2.785  -1.258  0.00  0.00    -0.246 OA
ATOM      7  H   UNL d   1      -2.506   1.832  -0.895  0.00  0.00     0.173 HD
ATOM      8  H   UNL d   1      -2.519   3.912  -1.459  0.00  0.00     0.189 HD
ENDROOT
BRANCH   1   9
ATOM      9  C   UNL d   1      -3.035  -0.338   0.395  0.00  0.00     0.100 C 
ATOM     10  C   UNL d   1      -3.320  -1.720   0.366  0.00  0.00     0.108 C 
ATOM     11  C   UNL d   1      -2.667  -2.577   1.269  0.00  0.00     0.068 C 
ATOM     12 CL   UNL d   1      -3.032  -4.266   1.337  0.00  0.00    -0.081 Cl
ATOM     13  C   UNL d   1      -1.713  -2.082   2.159  0.00  0.00     0.029 C 
ATOM     14  C   UNL d   1      -1.357  -0.735   2.115  0.00  0.00     0.039 C 
ATOM     15  C   UNL d   1      -1.983   0.127   1.206  0.00  0.00     0.086 C 
BRANCH  10  16
ATOM     16  O   UNL d   1      -4.279  -2.291  -0.437  0.00  0.00    -0.353 OA
ATOM     17  C   UNL d   1      -4.118  -2.031  -1.830  0.00  0.00     0.210 C 
ENDBRANCH  10  16
BRANCH  15  18
ATOM     18  O   UNL d   1      -1.631   1.452   1.203  0.00  0.00    -0.355 OA
ATOM     19  C   UNL d   1      -0.323   1.654   0.657  0.00  0.00     0.210 C 
ENDBRANCH  15  18
ENDBRANCH   1   9
BRANCH   4  20
ATOM     20  C   UNL d   1      -4.036   5.181  -1.828  0.00  0.00     0.689 A 
ATOM     21  N   UNL d   1      -3.113   6.135  -1.951  0.00  0.00    -0.181 N 
ATOM     22  C   UNL d   1      -3.597   7.363  -2.167  0.00  0.00     0.094 A 
ATOM     23  HN  UNL d   1      -2.114   5.942  -1.884  1.00  0.00     0.185 HD
ATOM     24  C   UNL d   1      -2.627   8.498  -2.274  0.00  0.00     0.089 C 
ATOM     25  N   UNL d   1      -4.889   7.666  -2.289  0.00  0.00    -0.335 N 
ATOM     26  C   UNL d   1      -5.725   6.636  -2.170  0.00  0.00     0.094 A 
ATOM     27  HN  UNL d   1      -5.214   8.617  -2.461  1.00  0.00     0.168 HD
ATOM     28  N   UNL d   1      -5.341   5.385  -1.938  0.00  0.00    -0.181 N 
ATOM     29  C   UNL d   1      -7.194   6.905  -2.268  0.00  0.00     0.089 C 
ATOM     30  HN  UNL d   1      -6.014   4.624  -1.849  1.00  0.00     0.185 HD
ENDBRANCH   4  20
TORSDOF 4
