REMARK  2 active torsions:
REMARK  status: ('A' for Active; 'I' for Inactive)
REMARK       I    between atoms: N_3  and  C_1 
REMARK    1  A    between atoms: C_9  and  C_1 
REMARK    2  A    between atoms: C_2  and  N_3 
ROOT
ATOM      1  C   UNL d   1       1.047  -0.228   2.361  0.00  0.00     0.058 A 
ATOM      2  C   UNL d   1       2.060   0.695   2.644  0.00  0.00     0.057 A 
ATOM      3  C   UNL d   1       1.322  -1.181   4.578  0.00  0.00     0.051 A 
ATOM      4  C   UNL d   1       0.662  -1.145   3.349  0.00  0.00     0.062 A 
ATOM      5  C   UNL d   1       2.702   0.686   3.887  0.00  0.00     0.058 A 
ATOM      6  C   UNL d   1       2.344  -0.267   4.848  0.00  0.00     0.057 A 
ATOM      7 CL   UNL d   1      -0.590  -2.300   3.051  0.00  0.00    -0.082 Cl
ATOM      8 CL   UNL d   1       3.916   1.880   4.176  0.00  0.00    -0.082 Cl
ATOM      9 CL   UNL d   1       3.121  -0.364   6.388  0.00  0.00    -0.082 Cl
ENDROOT
BRANCH   1  10
ATOM     10  N   UNL d   1       0.393  -0.231   1.102  0.00  0.00    -0.325 N 
ATOM     11  C   UNL d   1       1.057  -0.018  -0.092  0.00  0.00     0.229 C 
ATOM     12  O   UNL d   1       2.279   0.125  -0.166  0.00  0.00    -0.272 OA
ATOM     13  H   UNL d   1      -0.469  -0.759   1.063  0.00  0.00     0.169 HD
BRANCH  11  14
ATOM     14  C   UNL d   1       0.161   0.097  -1.342  0.00  0.00     0.030 C 
ATOM     15  C   UNL d   1      -0.565   1.450  -1.282  0.00  0.00     0.025 C 
ATOM     16  C   UNL d   1       1.053   0.060  -2.596  0.00  0.00     0.025 C 
ATOM     17  C   UNL d   1      -0.862  -1.043  -1.446  0.00  0.00     0.025 C 
ENDBRANCH  11  14
ENDBRANCH   1  10
TORSDOF 2
