REMARK  5 active torsions:
REMARK  status: ('A' for Active; 'I' for Inactive)
REMARK    1  A    between atoms: C_2  and  S_1 
REMARK    2  A    between atoms: C_6  and  S_1 
REMARK    3  A    between atoms: C_7  and  C_3 
REMARK    4  A    between atoms: S_8  and  C_9 
REMARK    5  A    between atoms: C_14  and  S_8 
ROOT
ATOM      1  C   UNL d   1       0.893  -0.053  -2.159  0.00  0.00     0.144 C 
ATOM      2  C   UNL d   1      -0.444  -0.211  -2.125  0.00  0.00     0.048 C 
ATOM      3  C   UNL d   1       1.798  -0.821  -1.386  0.00  0.00     0.112 C 
ATOM      4  N   UNL d   1       2.539  -1.470  -0.768  0.00  0.00    -0.191 NA
ENDROOT
BRANCH   1   5
ATOM      5  S   UNL d   1       1.582   1.099  -3.255  0.00  0.00     0.216 S 
ATOM      6  O   UNL d   1       2.308   2.111  -2.510  0.00  0.00    -0.216 OA
ATOM      7  O   UNL d   1       0.604   1.497  -4.253  0.00  0.00    -0.216 OA
BRANCH   5   8
ATOM      8  C   UNL d   1       2.801   0.121  -4.135  0.00  0.00     0.065 A 
ATOM      9  C   UNL d   1       2.415  -0.611  -5.265  0.00  0.00     0.025 A 
ATOM     10  C   UNL d   1       3.365  -1.381  -5.941  0.00  0.00     0.025 A 
ATOM     11  C   UNL d   1       4.687  -1.409  -5.491  0.00  0.00     0.034 A 
ATOM     12  C   UNL d   1       5.071  -0.666  -4.374  0.00  0.00     0.025 A 
ATOM     13 CL   UNL d   1       5.850  -2.365  -6.323  0.00  0.00    -0.084 Cl
ATOM     14  C   UNL d   1       4.130   0.111  -3.695  0.00  0.00     0.025 A 
ENDBRANCH   5   8
ENDBRANCH   1   5
BRANCH   2  15
ATOM     15  C   UNL d   1      -1.078  -1.316  -1.387  0.00  0.00    -0.017 A 
ATOM     16  C   UNL d   1      -1.603  -1.201  -0.084  0.00  0.00     0.015 A 
ATOM     17  C   UNL d   1      -2.110  -2.352   0.539  0.00  0.00     0.019 A 
ATOM     18  C   UNL d   1      -2.092  -3.589  -0.115  0.00  0.00     0.001 A 
ATOM     19  C   UNL d   1      -1.599  -3.689  -1.412  0.00  0.00     0.001 A 
ATOM     20  C   UNL d   1      -1.096  -2.558  -2.046  0.00  0.00     0.013 A 
BRANCH  16  21
ATOM     21  S   UNL d   1      -1.795   0.395   0.691  0.00  0.00    -0.090 SA
BRANCH  21  22
ATOM     22  C   UNL d   1      -0.894   0.381   2.229  0.00  0.00     0.005 A 
ATOM     23  C   UNL d   1       0.030  -0.592   2.621  0.00  0.00     0.020 A 
ATOM     24  C   UNL d   1       0.721  -0.468   3.836  0.00  0.00     0.025 A 
ATOM     25  C   UNL d   1       0.500   0.634   4.660  0.00  0.00     0.034 A 
ATOM     26  C   UNL d   1      -0.415   1.611   4.287  0.00  0.00     0.025 A 
ATOM     27 CL   UNL d   1       1.369   0.797   6.136  0.00  0.00    -0.084 Cl
ATOM     28  C   UNL d   1      -1.108   1.480   3.080  0.00  0.00     0.020 A 
ENDBRANCH  21  22
ENDBRANCH  16  21
ENDBRANCH   2  15
TORSDOF 5
