REMARK  4 active torsions:
REMARK  status: ('A' for Active; 'I' for Inactive)
REMARK    1  A    between atoms: C_7  and  CA_4 
REMARK    2  A    between atoms: OXT_14  and  C_7 
REMARK    3  A    between atoms: O_15  and  C_8 
REMARK    4  A    between atoms: O_16  and  C_9 
ROOT
ATOM      1  N   UNL d   1      -0.763  -1.925   0.152  0.00  0.00    -0.348 N 
ATOM      2  C   UNL d   1       0.240  -0.940   0.041  0.00  0.00     0.083 A 
ATOM      3  C   UNL d   1      -0.155   0.453   0.046  0.00  0.00     0.077 A 
ATOM      4  CA  UNL d   1      -2.107  -1.659   0.008  0.00  0.00     0.111 C 
ATOM      5  C   UNL d   1      -1.640   0.704   0.110  0.00  0.00     0.189 C 
ATOM      6  C   UNL d   1      -2.582  -0.418  -0.065  0.00  0.00     0.092 C 
ATOM      7  C   UNL d   1       0.829   1.463   0.001  0.00  0.00     0.084 A 
ATOM      8  C   UNL d   1       1.612  -1.281   0.037  0.00  0.00     0.096 A 
ATOM      9  O   UNL d   1      -2.172   1.785   0.326  0.00  0.00    -0.287 OA
ATOM     10  C   UNL d   1       2.177   1.074  -0.020  0.00  0.00     0.040 A 
ATOM     11  C   UNL d   1       2.560  -0.259   0.000  0.00  0.00     0.042 A 
ATOM     12  H   UNL d   1      -0.546  -2.880  -0.107  0.00  0.00     0.166 HD
ENDROOT
BRANCH   4  13
ATOM     13  C   UNL d   1      -2.994  -2.854  -0.137  0.00  0.00     0.193 C 
ATOM     14  O   UNL d   1      -2.535  -3.938  -0.473  0.00  0.00    -0.645 OA
BRANCH  13  15
ATOM     15  OXT UNL d   1      -4.292  -2.675   0.170  0.00  0.00    -0.772 OA
ATOM     16  HXT UNL d   1      -4.511  -1.840   0.625  0.00  0.00     0.167 HD
ENDBRANCH  13  15
ENDBRANCH   4  13
BRANCH   8  17
ATOM     17  O   UNL d   1       2.244  -2.492   0.071  0.00  0.00    -0.354 OA
ATOM     18  C   UNL d   1       1.558  -3.725   0.062  0.00  0.00     0.210 C 
ENDBRANCH   8  17
BRANCH   7  19
ATOM     19  O   UNL d   1       0.797   2.825  -0.027  0.00  0.00    -0.355 OA
ATOM     20  C   UNL d   1      -0.381   3.596  -0.103  0.00  0.00     0.210 C 
ENDBRANCH   7  19
TORSDOF 4
