REMARK  5 active torsions:
REMARK  status: ('A' for Active; 'I' for Inactive)
REMARK    1  A    between atoms: C_10  and  C_2 
REMARK    2  A    between atoms: N_20  and  C_10 
REMARK    3  A    between atoms: O_16  and  N_11 
REMARK    4  A    between atoms: C_15  and  O_16 
REMARK    5  A    between atoms: C_17  and  C_15 
ROOT
ATOM      1  C   UNL d   1      -3.553  -1.448  -0.042  0.00  0.00     0.109 C 
ATOM      2  N   UNL d   1      -3.678  -2.732   0.116  0.00  0.00    -0.246 N 
ATOM      3  HN  UNL d   1      -4.568  -3.197   0.296  1.00  0.00     0.196 HD
ENDROOT
BRANCH   1   4
ATOM      4  C   UNL d   1      -4.796  -0.592   0.001  0.00  0.00     0.006 A 
ATOM      5  C   UNL d   1      -4.791   0.629  -0.710  0.00  0.00     0.048 A 
ATOM      6  C   UNL d   1      -5.980   1.377  -0.617  0.00  0.00     0.086 A 
ATOM      7  C   UNL d   1      -7.131   0.927   0.152  0.00  0.00     0.085 A 
ATOM      8  N   UNL d   1      -6.279   2.560  -1.167  0.00  0.00    -0.240 N 
ATOM      9  N   UNL d   1      -8.093   1.852   0.048  0.00  0.00    -0.240 N 
ATOM     10  C   UNL d   1      -7.132  -0.293   0.853  0.00  0.00     0.035 A 
ATOM     11  O   UNL d   1      -7.573   2.848  -0.762  0.00  0.00    -0.156 OA
ATOM     12  HN  UNL d   1      -9.018   1.828   0.478  1.00  0.00     0.197 HD
ATOM     13  C   UNL d   1      -5.931  -1.034   0.746  0.00  0.00     0.017 A 
ATOM     14  HN  UNL d   1      -5.679   3.132  -1.761  1.00  0.00     0.197 HD
ENDBRANCH   1   4
BRANCH   1  15
ATOM     15  N   UNL d   1      -2.340  -0.828  -0.238  0.00  0.00    -0.286 NA
ATOM     16  H   UNL d   1      -2.248   0.107   0.144  0.00  0.00     0.125 HD
ATOM     17  H   UNL d   1      -1.559  -1.423   0.014  0.00  0.00     0.125 HD
ENDBRANCH   1  15
BRANCH   2  18
ATOM     18  O   UNL d   1      -2.436  -3.418   0.010  0.00  0.00    -0.193 OA
BRANCH  18  19
ATOM     19  C   UNL d   1      -2.657  -4.766   0.107  0.00  0.00     0.315 C 
ATOM     20  O   UNL d   1      -3.738  -5.319   0.289  0.00  0.00    -0.257 OA
BRANCH  19  21
ATOM     21  C   UNL d   1      -1.403  -5.567  -0.018  0.00  0.00     0.043 A 
ATOM     22  C   UNL d   1      -0.144  -5.013  -0.285  0.00  0.00     0.041 A 
ATOM     23  C   UNL d   1       0.973  -5.854  -0.390  0.00  0.00     0.035 A 
ATOM     24 CL   UNL d   1       2.522  -5.178  -0.721  0.00  0.00    -0.084 Cl
ATOM     25  C   UNL d   1       0.857  -7.233  -0.234  0.00  0.00     0.024 A 
ATOM     26  C   UNL d   1      -0.392  -7.793   0.032  0.00  0.00     0.003 A 
ATOM     27  C   UNL d   1      -1.511  -6.963   0.137  0.00  0.00     0.018 A 
ENDBRANCH  19  21
ENDBRANCH  18  19
ENDBRANCH   2  18
TORSDOF 5
