REMARK  2 active torsions:
REMARK  status: ('A' for Active; 'I' for Inactive)
REMARK    1  A    between atoms: C_4  and  C_1 
REMARK    2  A    between atoms: C_10  and  C_8 
ROOT
ATOM      1  N   UNL d   1       0.402  -3.900  -0.989  0.00  0.00    -0.348 N 
ATOM      2  HN  UNL d   1      -0.068  -3.480  -1.791  1.00  0.00     0.166 HD
ATOM      3  C   UNL d   1       0.998  -3.189   0.035  0.00  0.00     0.051 A 
ATOM      4  C   UNL d   1       0.525  -5.196  -0.784  0.00  0.00     0.091 A 
ATOM      5  S   UNL d   1       0.049  -7.849  -1.486  0.00  0.00    -0.085 SA
ATOM      6  C   UNL d   1      -0.019  -6.153  -1.720  0.00  0.00     0.039 A 
ATOM      7  C   UNL d   1      -0.752  -8.183  -2.959  0.00  0.00     0.041 A 
ATOM      8  S   UNL d   1       1.371  -5.619   0.656  0.00  0.00    -0.081 SA
ATOM      9  C   UNL d   1       1.591  -3.961   1.013  0.00  0.00     0.082 A 
ATOM     10  C   UNL d   1      -0.658  -5.853  -2.910  0.00  0.00     0.023 A 
ATOM     11  C   UNL d   1      -1.077  -7.017  -3.623  0.00  0.00     0.023 A 
ENDROOT
BRANCH   3  12
ATOM     12  C   UNL d   1       0.968  -1.718  -0.003  0.00  0.00     0.009 A 
ATOM     13  C   UNL d   1       1.958  -0.915   0.521  0.00  0.00     0.065 A 
ATOM     14  S   UNL d   1       1.618   0.742   0.332  0.00  0.00    -0.100 SA
ATOM     15  C   UNL d   1       0.118   0.420  -0.451  0.00  0.00     0.016 A 
ATOM     16  C   UNL d   1      -0.115  -0.955  -0.580  0.00  0.00    -0.006 A 
ATOM     17  C   UNL d   1      -0.802   1.378  -0.922  0.00  0.00     0.019 A 
ATOM     18  C   UNL d   1      -1.328  -1.351  -1.206  0.00  0.00     0.014 A 
ATOM     19  C   UNL d   1      -2.244  -0.404  -1.676  0.00  0.00     0.001 A 
ATOM     20  C   UNL d   1      -1.982   0.948  -1.532  0.00  0.00     0.001 A 
ENDBRANCH   3  12
BRANCH   7  21
ATOM     21  C   UNL d   1      -1.020  -9.526  -3.395  0.00  0.00     0.117 A 
ATOM     22  O   UNL d   1      -1.664  -9.805  -4.574  0.00  0.00    -0.237 OA
ATOM     23  N   UNL d   1      -1.784 -11.174  -4.744  0.00  0.00    -0.272 N 
ATOM     24  C   UNL d   1      -1.212 -11.713  -3.669  0.00  0.00     0.117 A 
ATOM     25  HN  UNL d   1      -2.217 -11.664  -5.526  1.00  0.00     0.194 HD
ATOM     26  C   UNL d   1      -0.720 -10.733  -2.792  0.00  0.00     0.059 A 
ENDBRANCH   7  21
TORSDOF 2
