REMARK  6 active torsions:
REMARK  status: ('A' for Active; 'I' for Inactive)
REMARK    1  A    between atoms: C_2  and  S_1 
REMARK    2  A    between atoms: N_4  and  S_1 
REMARK    3  A    between atoms: C_11  and  N_4 
REMARK    4  A    between atoms: C_16  and  C_21 
REMARK    5  A    between atoms: S_17  and  C_19 
REMARK    6  A    between atoms: C_21  and  S_17 
ROOT
ATOM      1  C   UNL d   1       0.640  -2.606   0.444  0.00  0.00     0.059 A 
ATOM      2  C   UNL d   1       1.986  -3.011   0.316  0.00  0.00     0.028 A 
ATOM      3  C   UNL d   1      -0.392  -3.517   0.169  0.00  0.00     0.031 A 
ATOM      4  C   UNL d   1       2.255  -4.322  -0.123  0.00  0.00     0.021 A 
ATOM      5  C   UNL d   1      -0.101  -4.819  -0.236  0.00  0.00     0.002 A 
ATOM      6  C   UNL d   1       1.221  -5.219  -0.388  0.00  0.00     0.002 A 
ENDROOT
BRANCH   1   7
ATOM      7  N   UNL d   1       0.264  -1.304   0.898  0.00  0.00    -0.279 N 
ATOM      8  H   UNL d   1      -0.545  -1.258   1.523  0.00  0.00     0.179 HD
BRANCH   7   9
ATOM      9  S   UNL d   1       0.321   0.028  -0.138  0.00  0.00     0.265 S 
ATOM     10  O   UNL d   1       0.126   1.197   0.693  0.00  0.00    -0.200 OA
ATOM     11  O   UNL d   1       1.464  -0.079  -1.012  0.00  0.00    -0.200 OA
BRANCH   9  12
ATOM     12  C   UNL d   1      -1.102  -0.061  -1.155  0.00  0.00     0.110 A 
ATOM     13  C   UNL d   1      -2.374  -0.411  -0.683  0.00  0.00     0.108 A 
ATOM     14  C   UNL d   1      -3.552  -0.338  -1.545  0.00  0.00     0.086 A 
ATOM     15  N   UNL d   1      -2.775  -0.835   0.524  0.00  0.00    -0.238 N 
ATOM     16  N   UNL d   1      -4.615  -0.732  -0.839  0.00  0.00    -0.239 N 
ATOM     17  C   UNL d   1      -3.487   0.096  -2.885  0.00  0.00     0.034 A 
ATOM     18  O   UNL d   1      -4.144  -1.027   0.426  0.00  0.00    -0.156 OA
ATOM     19  HN  UNL d   1      -5.579  -0.800  -1.166  1.00  0.00     0.197 HD
ATOM     20  C   UNL d   1      -2.199   0.442  -3.331  0.00  0.00     0.004 A 
ATOM     21  C   UNL d   1      -1.050   0.363  -2.502  0.00  0.00     0.028 A 
ATOM     22  HN  UNL d   1      -2.191  -0.986   1.347  1.00  0.00     0.197 HD
ENDBRANCH   9  12
ENDBRANCH   7   9
ENDBRANCH   1   7
BRANCH   2  23
ATOM     23  S   UNL d   1       3.442  -2.043   0.733  0.00  0.00    -0.123 SA
BRANCH  23  24
ATOM     24  C   UNL d   1       2.958  -1.336   2.342  0.00  0.00     0.121 C 
BRANCH  24  25
ATOM     25  C   UNL d   1       4.116  -0.779   3.134  0.00  0.00    -0.008 A 
ATOM     26  C   UNL d   1       4.250  -1.109   4.489  0.00  0.00     0.145 A 
ATOM     27  C   UNL d   1       5.248  -0.534   5.276  0.00  0.00     0.073 A 
ATOM     28  F   UNL d   1       3.385  -1.977   5.040  0.00  0.00    -0.204 F 
ATOM     29 CL   UNL d   1       5.385  -0.932   6.946  0.00  0.00    -0.081 Cl
ATOM     30  C   UNL d   1       6.133   0.388   4.718  0.00  0.00     0.027 A 
ATOM     31  C   UNL d   1       6.013   0.731   3.372  0.00  0.00     0.002 A 
ATOM     32  C   UNL d   1       5.007   0.160   2.587  0.00  0.00     0.011 A 
ENDBRANCH  24  25
ENDBRANCH  23  24
ENDBRANCH   2  23
TORSDOF 6
