REMARK  6 active torsions:
REMARK  status: ('A' for Active; 'I' for Inactive)
REMARK    1  A    between atoms: C_2  and  C_1 
REMARK    2  A    between atoms: C_3  and  C_2 
REMARK    3  A    between atoms: N_9  and  N_4 
REMARK    4  A    between atoms: C_6  and  O_10 
REMARK    5  A    between atoms: O_10  and  C_7 
REMARK    6  A    between atoms: C_12  and  N_9 
ROOT
ATOM      1  C   UNL d   1       0.928  -0.320  -0.591  0.00  0.00     0.179 C 
ATOM      2  N   UNL d   1       0.223   0.498   0.140  0.00  0.00    -0.287 N 
ATOM      3  HN  UNL d   1       0.700   1.229   0.667  1.00  0.00     0.188 HD
ATOM      4  C   UNL d   1       0.260  -1.359  -1.329  0.00  0.00     0.123 C 
ATOM      5  N   UNL d   1      -0.327  -2.180  -1.911  0.00  0.00    -0.190 NA
ENDROOT
BRANCH   1   6
ATOM      6  C   UNL d   1       2.425  -0.151  -0.630  0.00  0.00     0.223 C 
ATOM      7  O   UNL d   1       3.123  -1.131  -0.848  0.00  0.00    -0.284 OA
BRANCH   6   8
ATOM      8  C   UNL d   1       3.021   1.179  -0.361  0.00  0.00     0.051 A 
ATOM      9  C   UNL d   1       4.221   1.335   0.356  0.00  0.00     0.092 A 
ATOM     10  C   UNL d   1       4.756   2.621   0.514  0.00  0.00     0.038 A 
ATOM     11  C   UNL d   1       4.107   3.740  -0.015  0.00  0.00     0.003 A 
ATOM     12  C   UNL d   1       2.924   3.584  -0.726  0.00  0.00     0.001 A 
ATOM     13  C   UNL d   1       2.384   2.311  -0.900  0.00  0.00     0.018 A 
BRANCH   9  14
ATOM     14  O   UNL d   1       5.030   0.325   0.791  0.00  0.00    -0.254 OA
BRANCH  14  15
ATOM     15  C   UNL d   1       4.504  -0.589   1.748  0.00  0.00     0.530 C 
ATOM     16  F   UNL d   1       3.162  -0.525   1.876  0.00  0.00    -0.144 F 
ATOM     17  F   UNL d   1       4.856  -1.845   1.400  0.00  0.00    -0.144 F 
ATOM     18  F   UNL d   1       5.051  -0.325   2.956  0.00  0.00    -0.144 F 
ENDBRANCH  14  15
ENDBRANCH   9  14
ENDBRANCH   6   8
ENDBRANCH   1   6
BRANCH   2  19
ATOM     19  N   UNL d   1      -1.137   0.404   0.218  0.00  0.00    -0.298 N 
ATOM     20  H   UNL d   1      -1.621  -0.478   0.011  0.00  0.00     0.187 HD
BRANCH  19  21
ATOM     21  C   UNL d   1      -1.725   1.048   1.342  0.00  0.00     0.069 A 
ATOM     22  C   UNL d   1      -2.917   0.565   1.912  0.00  0.00     0.062 A 
ATOM     23 CL   UNL d   1      -3.723  -0.809   1.238  0.00  0.00    -0.082 Cl
ATOM     24  C   UNL d   1      -3.458   1.158   3.057  0.00  0.00     0.026 A 
ATOM     25  C   UNL d   1      -2.832   2.265   3.631  0.00  0.00     0.002 A 
ATOM     26  C   UNL d   1      -1.684   2.792   3.046  0.00  0.00     0.002 A 
ATOM     27  C   UNL d   1      -1.140   2.193   1.907  0.00  0.00     0.033 A 
ENDBRANCH  19  21
ENDBRANCH   2  19
TORSDOF 6
