REMARK  7 active torsions:
REMARK  status: ('A' for Active; 'I' for Inactive)
REMARK    1  A    between atoms: N_14  and  C_2 
REMARK    2  A    between atoms: S_17  and  C_3 
REMARK    3  A    between atoms: C_9  and  C_4 
REMARK    4  A    between atoms: O_18  and  C_9 
REMARK    5  A    between atoms: C_10  and  N_14 
REMARK    6  A    between atoms: C_19  and  S_17 
REMARK    7  A    between atoms: C_20  and  O_18 
ROOT
ATOM      1  C   UNL d   1       1.912   4.433  -0.067  0.00  0.00     0.135 C 
ATOM      2  C   UNL d   1       1.629   3.117  -0.062  0.00  0.00     0.119 C 
ATOM      3  C   UNL d   1       3.245   4.909   0.019  0.00  0.00     0.107 C 
ATOM      4  N   UNL d   1       4.357   5.236   0.082  0.00  0.00    -0.191 NA
ENDROOT
BRANCH   1   5
ATOM      5  C   UNL d   1       0.790   5.388  -0.240  0.00  0.00     0.305 C 
ATOM      6  O   UNL d   1      -0.382   5.064  -0.361  0.00  0.00    -0.258 OA
BRANCH   5   7
ATOM      7  O   UNL d   1       1.268   6.657  -0.310  0.00  0.00    -0.317 OA
BRANCH   7   8
ATOM      8  C   UNL d   1       0.354   7.647  -0.801  0.00  0.00     0.174 C 
ATOM      9  C   UNL d   1       0.455   7.675  -2.316  0.00  0.00     0.034 C 
ENDBRANCH   7   8
ENDBRANCH   5   7
ENDBRANCH   1   5
BRANCH   2  10
ATOM     10  N   UNL d   1       2.493   2.047   0.072  0.00  0.00    -0.344 N 
ATOM     11  H   UNL d   1       3.468   2.273   0.257  0.00  0.00     0.167 HD
BRANCH  10  12
ATOM     12  C   UNL d   1       2.172   0.729   0.023  0.00  0.00     0.165 A 
ATOM     13  S   UNL d   1       3.342  -0.453   0.482  0.00  0.00    -0.026 SA
ATOM     14  C   UNL d   1       2.157  -1.645   0.175  0.00  0.00     0.131 A 
ATOM     15  N   UNL d   1       1.012  -1.177  -0.266  0.00  0.00    -0.286 N 
ATOM     16  N   UNL d   1       1.018   0.204  -0.340  0.00  0.00    -0.278 N 
ATOM     17  HN  UNL d   1       0.216  -1.761  -0.521  1.00  0.00     0.188 HD
ATOM     18  HN  UNL d   1       0.216   0.757  -0.643  1.00  0.00     0.189 HD
BRANCH  14  19
ATOM     19  S   UNL d   1       2.433  -3.347   0.450  0.00  0.00    -0.089 SA
BRANCH  19  20
ATOM     20  C   UNL d   1       1.555  -4.051  -0.979  0.00  0.00     0.205 C 
ATOM     21  C   UNL d   1       2.186  -3.706  -2.259  0.00  0.00     0.069 C 
ATOM     22  N   UNL d   1       2.700  -3.441  -3.267  0.00  0.00    -0.197 NA
ENDBRANCH  19  20
ENDBRANCH  14  19
ENDBRANCH  10  12
ENDBRANCH   2  10
TORSDOF 7
