REMARK  11 active torsions:
REMARK  status: ('A' for Active; 'I' for Inactive)
REMARK    1  A    between atoms: N_3  and  C_1 
REMARK    2  A    between atoms: C_4  and  C_1 
REMARK    3  A    between atoms: C_5  and  C_1 
REMARK    4  A    between atoms: N_6  and  C_1 
REMARK    5  A    between atoms: S_2  and  C_8 
REMARK    6  A    between atoms: N_11  and  S_2 
REMARK       I    between atoms: C_7  and  N_3 
REMARK    7  A    between atoms: O_21  and  C_5 
REMARK    8  A    between atoms: C_17  and  N_6 
REMARK    9  A    between atoms: O_20  and  C_7 
REMARK   10  A    between atoms: C_24  and  O_20 
REMARK   11  A    between atoms: C_25  and  O_21 
ROOT
ATOM      1  C   UNL d   1       0.828   0.002   0.058  0.00  0.00     0.282 C 
ENDROOT
BRANCH   1   2
ATOM      2  N   UNL d   1       0.322   1.340   0.280  0.00  0.00    -0.298 N 
ATOM      3  C   UNL d   1      -0.998   1.627   0.223  0.00  0.00     0.362 C 
ATOM      4  O   UNL d   1      -1.856   0.845  -0.153  0.00  0.00    -0.238 OA
ATOM      5  H   UNL d   1       0.933   2.009   0.720  0.00  0.00     0.167 HD
BRANCH   3   6
ATOM      6  O   UNL d   1      -1.189   2.906   0.608  0.00  0.00    -0.304 OA
BRANCH   6   7
ATOM      7  C   UNL d   1      -2.511   3.418   0.403  0.00  0.00     0.176 C 
ATOM      8  C   UNL d   1      -2.579   4.026  -0.985  0.00  0.00     0.034 C 
ENDBRANCH   6   7
ENDBRANCH   3   6
ENDBRANCH   1   2
BRANCH   1   9
ATOM      9  C   UNL d   1       0.262  -0.828  -1.149  0.00  0.00     0.436 C 
ATOM     10  F   UNL d   1      -0.224  -0.040  -2.142  0.00  0.00    -0.166 F 
ATOM     11  F   UNL d   1       1.240  -1.587  -1.718  0.00  0.00    -0.166 F 
ATOM     12  F   UNL d   1      -0.724  -1.690  -0.803  0.00  0.00    -0.166 F 
ENDBRANCH   1   9
BRANCH   1  13
ATOM     13  C   UNL d   1       0.476  -0.839   1.317  0.00  0.00     0.312 C 
ATOM     14  O   UNL d   1      -0.258  -0.477   2.232  0.00  0.00    -0.260 OA
BRANCH  13  15
ATOM     15  O   UNL d   1       1.156  -2.029   1.317  0.00  0.00    -0.319 OA
BRANCH  15  16
ATOM     16  C   UNL d   1       0.853  -2.893   2.426  0.00  0.00     0.174 C 
ATOM     17  C   UNL d   1       1.700  -2.519   3.627  0.00  0.00     0.034 C 
ENDBRANCH  15  16
ENDBRANCH  13  15
ENDBRANCH   1  13
BRANCH   1  18
ATOM     18  N   UNL d   1       2.317   0.217   0.048  0.00  0.00    -0.250 NA
ATOM     19  H   UNL d   1       2.795  -0.640   0.338  0.00  0.00     0.131 HD
BRANCH  18  20
ATOM     20  C   UNL d   1       3.000   0.818  -1.010  0.00  0.00     0.011 A 
ATOM     21  C   UNL d   1       2.394   1.573  -2.023  0.00  0.00     0.025 A 
ATOM     22  C   UNL d   1       3.150   2.206  -3.015  0.00  0.00     0.026 A 
ATOM     23  C   UNL d   1       4.539   2.137  -2.975  0.00  0.00     0.074 A 
ATOM     24  C   UNL d   1       5.177   1.422  -1.963  0.00  0.00     0.026 A 
ATOM     25  C   UNL d   1       4.407   0.782  -0.986  0.00  0.00     0.025 A 
BRANCH  23  26
ATOM     26  S   UNL d   1       5.489   2.947  -4.224  0.00  0.00     0.239 S 
ATOM     27  O   UNL d   1       6.826   2.405  -4.237  0.00  0.00    -0.206 OA
ATOM     28  O   UNL d   1       4.689   3.075  -5.421  0.00  0.00    -0.206 OA
BRANCH  26  29
ATOM     29  N   UNL d   1       5.623   4.498  -3.589  0.00  0.00    -0.225 NA
ATOM     30  H   UNL d   1       6.606   4.715  -3.416  0.00  0.00     0.136 HD
ATOM     31  H   UNL d   1       5.154   5.164  -4.200  0.00  0.00     0.136 HD
ENDBRANCH  26  29
ENDBRANCH  23  26
ENDBRANCH  18  20
ENDBRANCH   1  18
TORSDOF 11
