REMARK  3 active torsions:
REMARK  status: ('A' for Active; 'I' for Inactive)
REMARK    1  A    between atoms: N_2  and  C_1 
REMARK    2  A    between atoms: C_3  and  C_1 
REMARK    3  A    between atoms: O_11  and  C_8 
ROOT
ATOM      1  C   UNL d   1       0.272   0.577  -1.044  0.00  0.00     0.023 A 
ATOM      2  C   UNL d   1      -0.301   1.857  -1.096  0.00  0.00     0.078 A 
ATOM      3  C   UNL d   1       0.131  -0.270  -2.156  0.00  0.00     0.016 A 
ATOM      4  C   UNL d   1      -1.015   2.273  -2.218  0.00  0.00     0.037 A 
ATOM      5  C   UNL d   1      -0.580   0.151  -3.283  0.00  0.00     0.001 A 
ATOM      6  C   UNL d   1      -1.156   1.420  -3.311  0.00  0.00     0.003 A 
ENDROOT
BRANCH   1   7
ATOM      7  C   UNL d   1       0.996   0.071   0.145  0.00  0.00     0.043 C 
ATOM      8  C   UNL d   1       2.326   0.287   0.150  0.00  0.00     0.044 C 
BRANCH   7   9
ATOM      9  N   UNL d   1       0.292  -0.590   1.176  0.00  0.00    -0.317 N 
ATOM     10  C   UNL d   1      -1.073  -0.817   1.252  0.00  0.00     0.188 A 
ATOM     11  N   UNL d   1      -1.433  -1.446   2.349  0.00  0.00    -0.360 N 
ATOM     12  C   UNL d   1      -0.272  -1.656   3.031  0.00  0.00     0.106 A 
ATOM     13  HN  UNL d   1      -2.375  -1.717   2.629  1.00  0.00     0.166 HD
ATOM     14  C   UNL d   1       0.799  -1.149   2.336  0.00  0.00     0.115 A 
ENDBRANCH   7   9
ENDBRANCH   1   7
BRANCH   2  15
ATOM     15  O   UNL d   1      -0.208   2.757  -0.071  0.00  0.00    -0.360 OA
ATOM     16  H   UNL d   1       0.391   2.408   0.608  0.00  0.00     0.217 HD
ENDBRANCH   2  15
TORSDOF 3
