REMARK  8 active torsions:
REMARK  status: ('A' for Active; 'I' for Inactive)
REMARK    1  A    between atoms: C_8  and  C_1 
REMARK    2  A    between atoms: N_16  and  C_2 
REMARK    3  A    between atoms: C_7  and  C_3 
REMARK    4  A    between atoms: C_10  and  C_7 
REMARK    5  A    between atoms: O_20  and  C_8 
REMARK    6  A    between atoms: O_21  and  C_10 
REMARK    7  A    between atoms: C_23  and  O_20 
REMARK    8  A    between atoms: C_24  and  O_21 
ROOT
ATOM      1  C   UNL d   1      -1.190   2.157   1.250  0.00  0.00     0.205 C 
ATOM      2  C   UNL d   1      -0.040   3.067   1.360  0.00  0.00     0.075 C 
ATOM      3  N   UNL d   1       0.856   3.799   1.428  0.00  0.00    -0.196 NA
ENDROOT
BRANCH   1   4
ATOM      4  C   UNL d   1      -1.194   1.335  -0.069  0.00  0.00     0.092 C 
ATOM      5  C   UNL d   1      -2.475   0.517  -0.205  0.00  0.00     0.073 C 
ATOM      6  C   UNL d   1      -2.461  -0.824  -0.061  0.00  0.00     0.134 C 
ATOM      7  O   UNL d   1      -1.301  -1.504   0.283  0.00  0.00    -0.296 OA
ATOM      8  C   UNL d   1      -0.083  -0.928   0.019  0.00  0.00     0.106 A 
ATOM      9  C   UNL d   1       0.028   0.443  -0.240  0.00  0.00    -0.010 A 
ATOM     10  C   UNL d   1       1.052  -1.748   0.017  0.00  0.00     0.070 A 
ATOM     11  C   UNL d   1       1.282   0.961  -0.602  0.00  0.00     0.034 A 
ATOM     12  C   UNL d   1       2.407   0.132  -0.620  0.00  0.00     0.036 A 
ATOM     13 CL   UNL d   1       3.942   0.790  -1.031  0.00  0.00    -0.084 Cl
ATOM     14  C   UNL d   1       2.301  -1.216  -0.294  0.00  0.00     0.050 A 
ATOM     15 CL   UNL d   1       0.942  -3.429   0.395  0.00  0.00    -0.081 Cl
BRANCH   5  16
ATOM     16  C   UNL d   1      -3.697   1.304  -0.530  0.00  0.00     0.293 C 
ATOM     17  O   UNL d   1      -3.644   2.460  -0.923  0.00  0.00    -0.259 OA
BRANCH  16  18
ATOM     18  O   UNL d   1      -4.832   0.620  -0.240  0.00  0.00    -0.318 OA
BRANCH  18  19
ATOM     19  C   UNL d   1      -6.081   1.285  -0.490  0.00  0.00     0.174 C 
ATOM     20  C   UNL d   1      -6.519   1.049  -1.923  0.00  0.00     0.034 C 
ENDBRANCH  18  19
ENDBRANCH  16  18
ENDBRANCH   5  16
BRANCH   6  21
ATOM     21  N   UNL d   1      -3.534  -1.671  -0.188  0.00  0.00    -0.282 NA
ATOM     22  H   UNL d   1      -4.438  -1.221  -0.059  0.00  0.00     0.126 HD
ATOM     23  H   UNL d   1      -3.418  -2.523   0.354  0.00  0.00     0.126 HD
ENDBRANCH   6  21
ENDBRANCH   1   4
BRANCH   1  24
ATOM     24  C   UNL d   1      -1.215   1.269   2.476  0.00  0.00     0.277 C 
ATOM     25  O   UNL d   1      -0.293   0.563   2.860  0.00  0.00    -0.264 OA
BRANCH  24  26
ATOM     26  O   UNL d   1      -2.437   1.344   3.078  0.00  0.00    -0.321 OA
BRANCH  26  27
ATOM     27  C   UNL d   1      -2.619   0.517   4.239  0.00  0.00     0.174 C 
ATOM     28  C   UNL d   1      -3.104  -0.855   3.812  0.00  0.00     0.034 C 
ENDBRANCH  26  27
ENDBRANCH  24  26
ENDBRANCH   1  24
TORSDOF 8
