REMARK  2 active torsions:
REMARK  status: ('A' for Active; 'I' for Inactive)
REMARK    1  A    between atoms: C_6  and  C_1 
REMARK    2  A    between atoms: N_8  and  C_2 
ROOT
ATOM      1  C   UNL d   1      -2.498   0.038  -0.059  0.00  0.00     0.047 A 
ATOM      2  C   UNL d   1      -1.703   1.125  -0.102  0.00  0.00     0.032 A 
ATOM      3  C   UNL d   1      -1.637  -1.173   0.005  0.00  0.00     0.196 A 
ATOM      4  C   UNL d   1      -0.306   0.693  -0.058  0.00  0.00     0.000 A 
ATOM      5  C   UNL d   1      -0.259  -0.695  -0.001  0.00  0.00     0.027 A 
ATOM      6  O   UNL d   1      -1.987  -2.334   0.059  0.00  0.00    -0.287 OA
ATOM      7  C   UNL d   1       0.876   1.417  -0.070  0.00  0.00     0.014 A 
ATOM      8  C   UNL d   1       0.922  -1.414   0.042  0.00  0.00     0.016 A 
ATOM      9  C   UNL d   1       2.089   0.718  -0.019  0.00  0.00     0.001 A 
ATOM     10  C   UNL d   1       2.112  -0.687   0.033  0.00  0.00     0.001 A 
ENDROOT
BRANCH   1  11
ATOM     11  C   UNL d   1      -3.955   0.037  -0.065  0.00  0.00    -0.020 A 
ATOM     12  C   UNL d   1      -4.656  -0.005  -1.276  0.00  0.00     0.012 A 
ATOM     13  C   UNL d   1      -6.050   0.065  -1.284  0.00  0.00     0.001 A 
ATOM     14  C   UNL d   1      -6.751   0.179  -0.085  0.00  0.00     0.000 A 
ATOM     15  C   UNL d   1      -6.061   0.214   1.126  0.00  0.00     0.001 A 
ATOM     16  C   UNL d   1      -4.666   0.143   1.137  0.00  0.00     0.012 A 
ENDBRANCH   1  11
BRANCH   2  17
ATOM     17  N   UNL d   1      -2.030   2.455  -0.175  0.00  0.00    -0.301 NA
ATOM     18  H   UNL d   1      -3.007   2.637   0.053  0.00  0.00     0.124 HD
ATOM     19  H   UNL d   1      -1.395   3.067   0.329  0.00  0.00     0.124 HD
ENDBRANCH   2  17
TORSDOF 2
