REMARK  3 active torsions:
REMARK  status: ('A' for Active; 'I' for Inactive)
REMARK    1  A    between atoms: C_2  and  C_1 
REMARK    2  A    between atoms: N_3  and  C_5 
REMARK    3  A    between atoms: C_6  and  C_7 
ROOT
ATOM      1  C   UNL d   1      -3.937   1.036  -1.268  0.00  0.00     0.074 A 
ATOM      2  C   UNL d   1      -2.938   0.356  -1.982  0.00  0.00     0.047 A 
ATOM      3  C   UNL d   1      -5.257   1.043  -1.765  0.00  0.00     0.018 A 
ATOM      4  C   UNL d   1      -3.274  -0.272  -3.190  0.00  0.00     0.030 A 
ATOM      5  C   UNL d   1      -5.581   0.381  -2.948  0.00  0.00     0.001 A 
ATOM      6  C   UNL d   1      -4.587  -0.278  -3.662  0.00  0.00     0.002 A 
ENDROOT
BRANCH   2   7
ATOM      7  N   UNL d   1      -1.607   0.399  -1.548  0.00  0.00    -0.358 N 
ATOM      8  C   UNL d   1      -0.932  -0.670  -1.238  0.00  0.00     0.023 C 
ATOM      9  C   UNL d   1      -1.464  -2.088  -1.335  0.00  0.00     0.069 C 
ATOM     10  HN  UNL d   1      -1.147   1.307  -1.472  1.00  0.00     0.166 HD
BRANCH   8  11
ATOM     11  C   UNL d   1       0.451  -0.522  -0.800  0.00  0.00     0.027 A 
ATOM     12  S   UNL d   1       0.915   0.841   0.132  0.00  0.00    -0.100 SA
ATOM     13  C   UNL d   1       2.525   0.285   0.273  0.00  0.00     0.050 A 
ATOM     14  C   UNL d   1       2.721  -0.902  -0.393  0.00  0.00     0.008 A 
ATOM     15  C   UNL d   1       1.522  -1.373  -1.007  0.00  0.00     0.021 A 
ENDBRANCH   8  11
ENDBRANCH   2   7
BRANCH   1  16
ATOM     16  C   UNL d   1      -3.625   1.827  -0.022  0.00  0.00     0.419 C 
ATOM     17  F   UNL d   1      -2.669   1.287   0.783  0.00  0.00    -0.166 F 
ATOM     18  F   UNL d   1      -4.721   1.960   0.786  0.00  0.00    -0.166 F 
ATOM     19  F   UNL d   1      -3.230   3.103  -0.293  0.00  0.00    -0.166 F 
ENDBRANCH   1  16
TORSDOF 3
