REMARK  6 active torsions:
REMARK  status: ('A' for Active; 'I' for Inactive)
REMARK    1  A    between atoms: C_7  and  C_1 
REMARK    2  A    between atoms: C_6  and  C_2 
REMARK    3  A    between atoms: C_4  and  C_7 
REMARK    4  A    between atoms: C_5  and  C_4 
REMARK    5  A    between atoms: O_13  and  C_5 
REMARK    6  A    between atoms: O_14  and  C_6 
ROOT
ATOM      1  C   UNL d   1       1.079   0.043  -0.062  0.00  0.00    -0.039 C 
ATOM      2  C   UNL d   1       0.990  -1.373  -0.059  0.00  0.00     0.050 C 
ATOM      3  C   UNL d   1      -0.281  -1.999   0.080  0.00  0.00    -0.044 C 
ATOM      4  C   UNL d   1      -0.118   0.776  -0.132  0.00  0.00     0.015 C 
ATOM      5  C   UNL d   1      -1.441  -1.208   0.095  0.00  0.00     0.014 C 
ATOM      6  C   UNL d   1      -1.369   0.174  -0.029  0.00  0.00    -0.061 C 
ATOM      7  C   UNL d   1      -0.486  -3.486   0.223  0.00  0.00     0.049 C 
ATOM      8  C   UNL d   1      -2.586   1.049   0.016  0.00  0.00     0.048 C 
ENDROOT
BRANCH   1   9
ATOM      9  C   UNL d   1       2.356   0.871  -0.035  0.00  0.00     0.059 C 
BRANCH   9  10
ATOM     10  C   UNL d   1       2.630   1.783   1.212  0.00  0.00     0.042 C 
ATOM     11  C   UNL d   1       3.764   2.768   0.841  0.00  0.00     0.026 C 
ATOM     12  C   UNL d   1       1.465   2.695   1.668  0.00  0.00     0.026 C 
BRANCH  10  13
ATOM     13  C   UNL d   1       2.985   0.903   2.421  0.00  0.00     0.148 C 
ATOM     14  O   UNL d   1       2.164   0.530   3.247  0.00  0.00    -0.649 OA
BRANCH  13  15
ATOM     15  O   UNL d   1       4.284   0.565   2.538  0.00  0.00    -0.776 OA
ATOM     16  H   UNL d   1       4.855   0.784   1.782  0.00  0.00     0.167 HD
ENDBRANCH  13  15
ENDBRANCH  10  13
ENDBRANCH   9  10
ENDBRANCH   1   9
BRANCH   2  17
ATOM     17  C   UNL d   1       2.215  -2.204  -0.255  0.00  0.00     0.177 C 
ATOM     18  O   UNL d   1       3.283  -1.992   0.301  0.00  0.00    -0.646 OA
BRANCH  17  19
ATOM     19  O   UNL d   1       2.067  -3.164  -1.192  0.00  0.00    -0.773 OA
ATOM     20  H   UNL d   1       1.196  -3.188  -1.629  0.00  0.00     0.167 HD
ENDBRANCH  17  19
ENDBRANCH   2  17
TORSDOF 6
