REMARK  5 active torsions:
REMARK  status: ('A' for Active; 'I' for Inactive)
REMARK    1  A    between atoms: S_2  and  C_1 
REMARK    2  A    between atoms: N_12  and  S_2 
REMARK    3  A    between atoms: N_8  and  C_17 
REMARK    4  A    between atoms: C_16  and  N_12 
REMARK    5  A    between atoms: C_17  and  C_16 
ROOT
ATOM      1  N   UNL d   1       3.329  -2.700  -0.041  0.00  0.00    -0.214 NA
ATOM      2  H   UNL d   1       2.328  -2.837   0.109  0.00  0.00     0.140 HD
ENDROOT
BRANCH   1   3
ATOM      3  S   UNL d   1       3.577  -1.617  -1.305  0.00  0.00     0.243 S 
ATOM      4  O   UNL d   1       4.917  -1.083  -1.201  0.00  0.00    -0.206 OA
ATOM      5  O   UNL d   1       2.419  -0.754  -1.359  0.00  0.00    -0.206 OA
BRANCH   3   6
ATOM      6  C   UNL d   1       3.551  -2.477  -2.797  0.00  0.00     0.105 A 
ATOM      7  C   UNL d   1       2.475  -3.179  -3.281  0.00  0.00     0.099 A 
ATOM      8  S   UNL d   1       2.795  -3.942  -4.768  0.00  0.00    -0.064 SA
ATOM      9 CL   UNL d   1       0.920  -3.395  -2.578  0.00  0.00    -0.075 Cl
ATOM     10  C   UNL d   1       4.387  -3.366  -4.761  0.00  0.00     0.077 A 
ATOM     11  C   UNL d   1       4.685  -2.597  -3.666  0.00  0.00     0.058 A 
ATOM     12 CL   UNL d   1       5.446  -3.766  -6.051  0.00  0.00    -0.076 Cl
ENDBRANCH   3   6
ENDBRANCH   1   3
BRANCH   1  13
ATOM     13  C   UNL d   1       4.120  -3.949  -0.006  0.00  0.00     0.124 C 
BRANCH  13  14
ATOM     14  C   UNL d   1       5.640  -3.739   0.043  0.00  0.00     0.142 C 
BRANCH  14  15
ATOM     15  N   UNL d   1       6.350  -5.004   0.091  0.00  0.00    -0.332 N 
ATOM     16  C   UNL d   1       6.327  -5.912  -0.973  0.00  0.00     0.318 C 
ATOM     17  N   UNL d   1       7.319  -6.851  -0.737  0.00  0.00    -0.341 N 
ATOM     18  O   UNL d   1       5.580  -5.899  -1.933  0.00  0.00    -0.247 OA
ATOM     19  C   UNL d   1       7.913  -6.641   0.555  0.00  0.00     0.144 C 
ATOM     20  H   UNL d   1       7.369  -7.690  -1.298  0.00  0.00     0.164 HD
ATOM     21  C   UNL d   1       7.570  -5.186   0.848  0.00  0.00     0.147 C 
ENDBRANCH  14  15
ENDBRANCH  13  14
ENDBRANCH   1  13
TORSDOF 5
