REMARK  2 active torsions:
REMARK  status: ('A' for Active; 'I' for Inactive)
REMARK    1  A    between atoms: C_7  and  C_1 
REMARK    2  A    between atoms: C_8  and  C_2 
ROOT
ATOM      1  C   UNL d   1      -1.165  -1.171   0.035  0.00  0.00     0.090 A 
ATOM      2  C   UNL d   1      -1.263   1.239   0.038  0.00  0.00    -0.017 A 
ATOM      3  C   UNL d   1      -1.901  -0.052   0.052  0.00  0.00     0.050 A 
ATOM      4  O   UNL d   1       0.250  -1.116   0.048  0.00  0.00    -0.275 OA
ATOM      5  C   UNL d   1       0.901   0.088   0.052  0.00  0.00     0.289 A 
ATOM      6  C   UNL d   1       0.076   1.310   0.036  0.00  0.00     0.095 A 
ATOM      7  O   UNL d   1       2.124   0.171   0.064  0.00  0.00    -0.260 OA
ENDROOT
BRANCH   1   8
ATOM      8  C   UNL d   1      -1.752  -2.524   0.014  0.00  0.00    -0.002 A 
ATOM      9  C   UNL d   1      -2.974  -2.777  -0.633  0.00  0.00     0.014 A 
ATOM     10  C   UNL d   1      -3.528  -4.059  -0.654  0.00  0.00     0.001 A 
ATOM     11  C   UNL d   1      -2.862  -5.113  -0.037  0.00  0.00     0.000 A 
ATOM     12  C   UNL d   1      -1.642  -4.886   0.597  0.00  0.00     0.001 A 
ATOM     13  C   UNL d   1      -1.090  -3.601   0.620  0.00  0.00     0.014 A 
ENDBRANCH   1   8
BRANCH   2  14
ATOM     14  C   UNL d   1      -2.060   2.476   0.006  0.00  0.00    -0.026 A 
ATOM     15  C   UNL d   1      -2.447   3.030  -1.220  0.00  0.00     0.012 A 
ATOM     16  C   UNL d   1      -3.302   4.133  -1.252  0.00  0.00     0.001 A 
ATOM     17  C   UNL d   1      -3.774   4.684  -0.062  0.00  0.00     0.000 A 
ATOM     18  C   UNL d   1      -3.385   4.142   1.163  0.00  0.00     0.001 A 
ATOM     19  C   UNL d   1      -2.530   3.039   1.198  0.00  0.00     0.012 A 
ENDBRANCH   2  14
TORSDOF 2
