REMARK  3 active torsions:
REMARK  status: ('A' for Active; 'I' for Inactive)
REMARK    1  A    between atoms: N_9  and  C_2 
REMARK    2  A    between atoms: C_16  and  C_3 
REMARK    3  A    between atoms: C_12  and  N_9 
ROOT
ATOM      1  C   UNL d   1       0.219   0.941  -0.011  0.00  0.00     0.053 A 
ATOM      2  C   UNL d   1       1.609   1.217   0.058  0.00  0.00     0.116 A 
ATOM      3  C   UNL d   1      -0.992   1.752  -0.022  0.00  0.00    -0.003 A 
ATOM      4  C   UNL d   1      -2.130   0.965  -0.093  0.00  0.00     0.065 A 
ATOM      5  C   UNL d   1      -0.107  -0.406  -0.123  0.00  0.00     0.089 A 
ATOM      6  S   UNL d   1      -1.782  -0.701  -0.158  0.00  0.00    -0.082 SA
ATOM      7  N   UNL d   1       2.481   0.185  -0.069  0.00  0.00    -0.338 N 
ATOM      8  HN  UNL d   1       3.486   0.360  -0.077  1.00  0.00     0.168 HD
ATOM      9  N   UNL d   1       0.740  -1.445  -0.203  0.00  0.00    -0.346 N 
ATOM     10  HN  UNL d   1       0.441  -2.417  -0.272  1.00  0.00     0.167 HD
ATOM     11  C   UNL d   1       2.014  -1.062  -0.182  0.00  0.00     0.182 A 
ENDROOT
BRANCH   3  12
ATOM     12  C   UNL d   1      -1.139   3.208  -0.019  0.00  0.00    -0.024 A 
ATOM     13  C   UNL d   1      -0.409   4.001  -0.917  0.00  0.00     0.012 A 
ATOM     14  C   UNL d   1      -0.524   5.393  -0.890  0.00  0.00     0.001 A 
ATOM     15  C   UNL d   1      -1.406   6.004  -0.002  0.00  0.00     0.000 A 
ATOM     16  C   UNL d   1      -2.172   5.225   0.863  0.00  0.00     0.001 A 
ATOM     17  C   UNL d   1      -2.032   3.835   0.862  0.00  0.00     0.012 A 
ENDBRANCH   3  12
BRANCH   2  18
ATOM     18  N   UNL d   1       2.143   2.501   0.252  0.00  0.00    -0.371 N 
ATOM     19  H   UNL d   1       1.442   3.212   0.414  0.00  0.00     0.161 HD
BRANCH  18  20
ATOM     20  C   UNL d   1       3.345   2.876  -0.489  0.00  0.00     0.083 A 
ATOM     21  C   UNL d   1       4.665   3.043   0.206  0.00  0.00     0.027 A 
ATOM     22  C   UNL d   1       3.938   4.246  -0.317  0.00  0.00     0.027 A 
ENDBRANCH  18  20
ENDBRANCH   2  18
TORSDOF 3
