REMARK  5 active torsions:
REMARK  status: ('A' for Active; 'I' for Inactive)
REMARK    1  A    between atoms: C_11  and  C_1 
REMARK       I    between atoms: C_15  and  N_2 
REMARK    2  A    between atoms: C_12  and  C_7 
REMARK    3  A    between atoms: C_10  and  C_14 
REMARK    4  A    between atoms: C_21  and  C_15 
REMARK    5  A    between atoms: C_16  and  C_22 
ROOT
ATOM      1  N   UNL d   1       5.644   6.168   1.936  0.00  0.00    -0.231 N 
ATOM      2  N   UNL d   1       4.952   5.513   0.964  0.00  0.00    -0.290 N 
ATOM      3  HN  UNL d   1       4.636   5.884   0.067  1.00  0.00     0.187 HD
ATOM      4  C   UNL d   1       4.778   4.275   1.443  0.00  0.00     0.067 A 
ATOM      5  C   UNL d   1       5.960   7.536   1.809  0.00  0.00     0.276 C 
ATOM      6  C   UNL d   1       5.374   4.120   2.715  0.00  0.00     0.051 A 
ATOM      7  C   UNL d   1       5.962   5.331   2.983  0.00  0.00     0.122 A 
ATOM      8  O   UNL d   1       6.784   7.997   2.601  0.00  0.00    -0.265 OA
ENDROOT
BRANCH   4   9
ATOM      9  C   UNL d   1       4.029   3.222   0.682  0.00  0.00     0.034 A 
ATOM     10  S   UNL d   1       3.599   1.708   1.340  0.00  0.00    -0.086 SA
ATOM     11  C   UNL d   1       2.835   1.211  -0.103  0.00  0.00     0.034 A 
ATOM     12  C   UNL d   1       2.929   2.174  -1.086  0.00  0.00     0.023 A 
ATOM     13  C   UNL d   1       3.601   3.349  -0.624  0.00  0.00     0.023 A 
BRANCH  11  14
ATOM     14  C   UNL d   1       2.151  -0.112  -0.263  0.00  0.00     0.067 A 
ATOM     15  C   UNL d   1       1.935  -1.062   0.755  0.00  0.00     0.068 A 
ATOM     16  C   UNL d   1       1.257  -2.109   0.157  0.00  0.00     0.136 A 
ATOM     17  N   UNL d   1       1.152  -1.763  -1.162  0.00  0.00    -0.292 N 
ATOM     18  N   UNL d   1       1.653  -0.537  -1.429  0.00  0.00    -0.297 N 
ATOM     19  C   UNL d   1       0.612  -2.503  -2.281  0.00  0.00     0.178 C 
ATOM     20  HN  UNL d   1       1.651  -0.045  -2.322  1.00  0.00     0.187 HD
BRANCH  16  21
ATOM     21  C   UNL d   1       0.759  -3.353   0.772  0.00  0.00     0.434 C 
ATOM     22  F   UNL d   1      -0.160  -4.010   0.025  0.00  0.00    -0.165 F 
ATOM     23  F   UNL d   1       1.771  -4.223   1.009  0.00  0.00    -0.165 F 
ATOM     24  F   UNL d   1       0.170  -3.106   1.970  0.00  0.00    -0.165 F 
ENDBRANCH  16  21
ENDBRANCH  11  14
ENDBRANCH   4   9
BRANCH   5  25
ATOM     25  C   UNL d   1       5.338   8.454   0.818  0.00  0.00     0.035 A 
ATOM     26  C   UNL d   1       3.993   8.319   0.450  0.00  0.00     0.033 A 
ATOM     27  C   UNL d   1       3.398   9.232  -0.434  0.00  0.00     0.048 A 
ATOM     28  C   UNL d   1       4.173  10.287  -0.941  0.00  0.00     0.016 A 
ATOM     29  C   UNL d   1       5.510  10.432  -0.566  0.00  0.00     0.002 A 
ATOM     30  C   UNL d   1       6.091   9.523   0.318  0.00  0.00     0.017 A 
BRANCH  27  31
ATOM     31  C   UNL d   1       1.945   9.101  -0.823  0.00  0.00     0.417 C 
ATOM     32  F   UNL d   1       1.327   8.022  -0.267  0.00  0.00    -0.166 F 
ATOM     33  F   UNL d   1       1.210  10.184  -0.448  0.00  0.00    -0.166 F 
ATOM     34  F   UNL d   1       1.774   8.978  -2.168  0.00  0.00    -0.166 F 
ENDBRANCH  27  31
ENDBRANCH   5  25
TORSDOF 5
