REMARK  12 active torsions:
REMARK  status: ('A' for Active; 'I' for Inactive)
REMARK    1  A    between atoms: C_5  and  C_1 
REMARK    2  A    between atoms: S_18  and  C_6 
REMARK    3  A    between atoms: C_9  and  C_10 
REMARK    4  A    between atoms: C_11  and  N_14 
REMARK    5  A    between atoms: C_12  and  C_21 
REMARK    6  A    between atoms: C_13  and  C_25 
REMARK       I    between atoms: N_14  and  C_16 
REMARK    7  A    between atoms: O_19  and  C_15 
REMARK    8  A    between atoms: C_16  and  C_33 
REMARK    9  A    between atoms: C_33  and  S_18 
REMARK   10  A    between atoms: C_21  and  O_19 
REMARK   11  A    between atoms: C_25  and  O_35 
REMARK   12  A    between atoms: O_35  and  C_34 
ROOT
ATOM      1  C   UNL d   1      -0.277  -0.989   0.254  0.00  0.00     0.178 A 
ATOM      2  O   UNL d   1      -1.153  -0.168   0.918  0.00  0.00    -0.267 OA
ATOM      3  N   UNL d   1       0.824  -0.358  -0.091  0.00  0.00    -0.277 N 
ATOM      4  HN  UNL d   1       1.618  -0.750  -0.597  1.00  0.00     0.189 HD
ATOM      5  C   UNL d   1      -0.483   1.023   0.946  0.00  0.00     0.204 A 
ATOM      6  N   UNL d   1       0.697   0.940   0.368  0.00  0.00    -0.272 N 
ATOM      7  HN  UNL d   1       1.384   1.688   0.276  1.00  0.00     0.189 HD
ENDROOT
BRANCH   1   8
ATOM      8  C   UNL d   1      -0.701  -2.374   0.072  0.00  0.00     0.053 A 
ATOM      9  C   UNL d   1       0.162  -3.484   0.025  0.00  0.00     0.083 A 
ATOM     10  C   UNL d   1      -0.374  -4.761  -0.224  0.00  0.00     0.040 A 
ATOM     11  C   UNL d   1      -1.748  -4.964  -0.395  0.00  0.00     0.039 A 
ATOM     12  C   UNL d   1      -2.605  -3.877  -0.321  0.00  0.00     0.070 A 
ATOM     13  C   UNL d   1      -2.082  -2.602  -0.111  0.00  0.00     0.055 A 
BRANCH   9  14
ATOM     14  O   UNL d   1       1.528  -3.498   0.117  0.00  0.00    -0.341 OA
BRANCH  14  15
ATOM     15  C   UNL d   1       2.146  -2.707   1.142  0.00  0.00     0.293 C 
BRANCH  15  16
ATOM     16  C   UNL d   1       3.317  -3.432   1.805  0.00  0.00     0.408 C 
ATOM     17  F   UNL d   1       3.413  -4.728   1.436  0.00  0.00    -0.169 F 
ATOM     18  F   UNL d   1       4.495  -2.835   1.510  0.00  0.00    -0.169 F 
ATOM     19  F   UNL d   1       3.185  -3.408   3.155  0.00  0.00    -0.169 F 
ENDBRANCH  15  16
ENDBRANCH  14  15
ENDBRANCH   9  14
BRANCH  12  20
ATOM     20  O   UNL d   1      -3.958  -3.915  -0.487  0.00  0.00    -0.342 OA
BRANCH  20  21
ATOM     21  C   UNL d   1      -4.622  -5.131  -0.123  0.00  0.00     0.293 C 
BRANCH  21  22
ATOM     22  C   UNL d   1      -6.065  -4.853   0.295  0.00  0.00     0.408 C 
ATOM     23  F   UNL d   1      -6.418  -3.558   0.146  0.00  0.00    -0.169 F 
ATOM     24  F   UNL d   1      -6.931  -5.596  -0.432  0.00  0.00    -0.169 F 
ATOM     25  F   UNL d   1      -6.256  -5.175   1.597  0.00  0.00    -0.169 F 
ENDBRANCH  21  22
ENDBRANCH  20  21
ENDBRANCH  12  20
ENDBRANCH   1   8
BRANCH   5  26
ATOM     26  S   UNL d   1      -1.142   2.453   1.685  0.00  0.00    -0.075 SA
BRANCH  26  27
ATOM     27  C   UNL d   1       0.164   3.643   1.276  0.00  0.00     0.186 C 
BRANCH  27  28
ATOM     28  C   UNL d   1      -0.109   5.071   1.723  0.00  0.00     0.231 C 
ATOM     29  N   UNL d   1      -1.246   5.300   2.481  0.00  0.00    -0.326 N 
ATOM     30  H   UNL d   1      -1.575   4.489   2.998  0.00  0.00     0.169 HD
ATOM     31  O   UNL d   1       0.698   5.960   1.445  0.00  0.00    -0.272 OA
BRANCH  29  32
ATOM     32  C   UNL d   1      -1.560   6.573   3.005  0.00  0.00     0.049 A 
ATOM     33  C   UNL d   1      -1.574   7.759   2.250  0.00  0.00     0.074 A 
ATOM     34  C   UNL d   1      -1.771   8.984   2.928  0.00  0.00     0.018 A 
ATOM     35  C   UNL d   1      -1.992   9.027   4.303  0.00  0.00     0.001 A 
ATOM     36  C   UNL d   1      -2.053   7.841   5.024  0.00  0.00     0.002 A 
ATOM     37  C   UNL d   1      -1.854   6.620   4.376  0.00  0.00     0.030 A 
BRANCH  33  38
ATOM     38  C   UNL d   1      -1.512   7.829   0.741  0.00  0.00     0.419 C 
ATOM     39  F   UNL d   1      -1.510   6.639   0.077  0.00  0.00    -0.166 F 
ATOM     40  F   UNL d   1      -2.608   8.486   0.242  0.00  0.00    -0.166 F 
ATOM     41  F   UNL d   1      -0.443   8.536   0.278  0.00  0.00    -0.166 F 
ENDBRANCH  33  38
ENDBRANCH  29  32
ENDBRANCH  27  28
ENDBRANCH  26  27
ENDBRANCH   5  26
TORSDOF 12
