REMARK  3 active torsions:
REMARK  status: ('A' for Active; 'I' for Inactive)
REMARK    1  A    between atoms: C_2  and  C_1 
REMARK    2  A    between atoms: C_16  and  C_11 
REMARK    3  A    between atoms: C_14  and  C_15 
ROOT
ATOM      1  C   UNL d   1      -1.614  -2.423   0.085  0.00  0.00     0.183 A 
ATOM      2  O   UNL d   1      -1.531  -3.382   1.070  0.00  0.00    -0.272 OA
ATOM      3  N   UNL d   1      -2.467  -2.772  -0.860  0.00  0.00    -0.277 N 
ATOM      4  HN  UNL d   1      -2.713  -2.226  -1.686  1.00  0.00     0.189 HD
ATOM      5  N   UNL d   1      -2.964  -4.013  -0.523  0.00  0.00    -0.277 N 
ATOM      6  HN  UNL d   1      -3.646  -4.560  -1.047  1.00  0.00     0.189 HD
ATOM      7  C   UNL d   1      -2.382  -4.350   0.608  0.00  0.00     0.174 A 
ENDROOT
BRANCH   7   8
ATOM      8  C   UNL d   1      -2.481  -5.583   1.379  0.00  0.00     0.017 A 
ATOM      9  C   UNL d   1      -1.746  -5.781   2.557  0.00  0.00     0.017 A 
ATOM     10  C   UNL d   1      -1.828  -6.989   3.258  0.00  0.00     0.017 A 
ATOM     11  C   UNL d   1      -2.648  -8.028   2.798  0.00  0.00     0.048 A 
ATOM     12  C   UNL d   1      -3.393  -7.829   1.625  0.00  0.00     0.017 A 
ATOM     13  C   UNL d   1      -3.308  -6.621   0.925  0.00  0.00     0.017 A 
BRANCH  11  14
ATOM     14  C   UNL d   1      -2.736  -9.342   3.536  0.00  0.00     0.417 C 
ATOM     15  F   UNL d   1      -1.950  -9.397   4.646  0.00  0.00    -0.166 F 
ATOM     16  F   UNL d   1      -4.000  -9.617   3.960  0.00  0.00    -0.166 F 
ATOM     17  F   UNL d   1      -2.362 -10.398   2.762  0.00  0.00    -0.166 F 
ENDBRANCH  11  14
ENDBRANCH   7   8
BRANCH   1  18
ATOM     18  C   UNL d   1      -0.847  -1.214   0.077  0.00  0.00     0.081 A 
ATOM     19  C   UNL d   1      -0.436  -0.445  -1.001  0.00  0.00     0.027 A 
ATOM     20  N   UNL d   1       0.299   0.684  -0.660  0.00  0.00    -0.357 N 
ATOM     21  C   UNL d   1      -0.655  -0.689  -2.453  0.00  0.00     0.070 C 
ATOM     22  C   UNL d   1       0.445   0.761   0.643  0.00  0.00     0.048 A 
ATOM     23  HN  UNL d   1       0.674   1.358  -1.328  1.00  0.00     0.166 HD
ATOM     24  S   UNL d   1      -0.272  -0.514   1.536  0.00  0.00    -0.071 SA
ATOM     25  C   UNL d   1       1.178   1.860   1.330  0.00  0.00     0.076 C 
ENDBRANCH   1  18
TORSDOF 3
