REMARK  9 active torsions:
REMARK  status: ('A' for Active; 'I' for Inactive)
REMARK    1  A    between atoms: C_8  and  C_2 
REMARK    2  A    between atoms: S_9  and  C_5 
REMARK    3  A    between atoms: C_11  and  S_9 
REMARK    4  A    between atoms: C_10  and  C_11 
REMARK    5  A    between atoms: C_13  and  C_10 
REMARK    6  A    between atoms: C_21  and  C_18 
REMARK    7  A    between atoms: C_22  and  C_21 
REMARK    8  A    between atoms: C_24  and  C_22 
REMARK    9  A    between atoms: C_23  and  C_24 
ROOT
ATOM      1  N   UNL d   1      -0.081   0.291  -1.227  0.00  0.00    -0.320 N 
ATOM      2  C   UNL d   1      -0.377   0.989  -0.085  0.00  0.00     0.132 A 
ATOM      3  N   UNL d   1      -0.263   0.157   0.938  0.00  0.00    -0.283 N 
ATOM      4  HN  UNL d   1      -0.426   0.392   1.917  1.00  0.00     0.188 HD
ATOM      5  C   UNL d   1       0.186  -0.988  -0.843  0.00  0.00     0.161 A 
ATOM      6  N   UNL d   1       0.111  -1.083   0.461  0.00  0.00    -0.278 N 
ATOM      7  HN  UNL d   1       0.294  -1.917   1.019  1.00  0.00     0.189 HD
ATOM      8  H   UNL d   1      -0.117   0.619  -2.186  0.00  0.00     0.169 HD
ENDROOT
BRANCH   2   9
ATOM      9  C   UNL d   1      -0.781   2.394  -0.027  0.00  0.00     0.009 A 
ATOM     10  C   UNL d   1      -1.568   2.840   1.044  0.00  0.00     0.016 A 
ATOM     11  C   UNL d   1      -1.978   4.174   1.134  0.00  0.00     0.008 A 
ATOM     12  C   UNL d   1      -1.598   5.099   0.156  0.00  0.00    -0.058 A 
ATOM     13  C   UNL d   1      -0.788   4.664  -0.901  0.00  0.00     0.008 A 
ATOM     14  C   UNL d   1      -0.391   3.325  -0.998  0.00  0.00     0.016 A 
BRANCH  12  15
ATOM     15  C   UNL d   1      -2.044   6.540   0.248  0.00  0.00     0.038 C 
BRANCH  15  16
ATOM     16  C   UNL d   1      -2.840   7.028  -0.969  0.00  0.00     0.005 C 
BRANCH  16  17
ATOM     17  C   UNL d   1      -4.152   6.267  -1.181  0.00  0.00    -0.000 C 
BRANCH  17  18
ATOM     18  C   UNL d   1      -4.892   6.796  -2.410  0.00  0.00    -0.005 C 
ATOM     19  C   UNL d   1      -6.191   6.046  -2.651  0.00  0.00     0.005 C 
ENDBRANCH  17  18
ENDBRANCH  16  17
ENDBRANCH  15  16
ENDBRANCH  12  15
ENDBRANCH   2   9
BRANCH   5  20
ATOM     20  S   UNL d   1       0.655  -2.219  -1.954  0.00  0.00    -0.085 SA
BRANCH  20  21
ATOM     21  C   UNL d   1      -0.850  -2.466  -2.949  0.00  0.00     0.166 C 
BRANCH  21  22
ATOM     22  C   UNL d   1      -1.170  -1.265  -3.827  0.00  0.00     0.169 C 
ATOM     23  O   UNL d   1      -0.530  -0.212  -3.792  0.00  0.00    -0.291 OA
BRANCH  22  24
ATOM     24  C   UNL d   1      -2.341  -1.332  -4.753  0.00  0.00     0.010 A 
ATOM     25  C   UNL d   1      -3.110  -2.489  -4.938  0.00  0.00     0.015 A 
ATOM     26  C   UNL d   1      -4.197  -2.465  -5.818  0.00  0.00     0.001 A 
ATOM     27  C   UNL d   1      -4.522  -1.297  -6.509  0.00  0.00     0.000 A 
ATOM     28  C   UNL d   1      -3.761  -0.147  -6.329  0.00  0.00     0.001 A 
ATOM     29  C   UNL d   1      -2.675  -0.166  -5.456  0.00  0.00     0.015 A 
ENDBRANCH  22  24
ENDBRANCH  21  22
ENDBRANCH  20  21
ENDBRANCH   5  20
TORSDOF 9
