REMARK  5 active torsions:
REMARK  status: ('A' for Active; 'I' for Inactive)
REMARK    1  A    between atoms: C_2  and  S_1 
REMARK    2  A    between atoms: N_4  and  S_1 
REMARK    3  A    between atoms: C_5  and  C_3 
REMARK    4  A    between atoms: C_12  and  N_4 
REMARK    5  A    between atoms: O_13  and  C_5 
ROOT
ATOM      1  S   UNL d   1       0.822   0.027  -0.160  0.00  0.00     0.247 S 
ATOM      2  O   UNL d   1       0.162  -0.841   0.791  0.00  0.00    -0.205 OA
ATOM      3  O   UNL d   1       2.251  -0.059  -0.376  0.00  0.00    -0.205 OA
ENDROOT
BRANCH   1   4
ATOM      4  C   UNL d   1       0.555   1.621   0.479  0.00  0.00     0.098 A 
ATOM      5  C   UNL d   1      -0.676   2.197   0.768  0.00  0.00     0.102 A 
ATOM      6  S   UNL d   1      -0.453   3.771   1.455  0.00  0.00    -0.094 SA
ATOM      7  C   UNL d   1       1.243   3.670   1.366  0.00  0.00     0.052 A 
ATOM      8  C   UNL d   1       1.655   2.479   0.822  0.00  0.00     0.033 A 
BRANCH   5   9
ATOM      9  C   UNL d   1      -2.054   1.749   0.622  0.00  0.00     0.301 C 
ATOM     10  O   UNL d   1      -3.048   2.378   0.969  0.00  0.00    -0.259 OA
BRANCH   9  11
ATOM     11  O   UNL d   1      -2.119   0.540   0.006  0.00  0.00    -0.322 OA
ATOM     12  C   UNL d   1      -3.431   0.007  -0.196  0.00  0.00     0.213 C 
ENDBRANCH   9  11
ENDBRANCH   5   9
ENDBRANCH   1   4
BRANCH   1  13
ATOM     13  N   UNL d   1       0.019  -0.139  -1.637  0.00  0.00    -0.181 NA
ATOM     14  H   UNL d   1      -0.432  -1.054  -1.645  0.00  0.00     0.146 HD
BRANCH  13  15
ATOM     15  C   UNL d   1       0.739   0.172  -2.826  0.00  0.00     0.023 A 
ATOM     16  C   UNL d   1       1.437  -0.838  -3.493  0.00  0.00     0.027 A 
ATOM     17  C   UNL d   1       2.120  -0.547  -4.674  0.00  0.00     0.044 A 
ATOM     18  C   UNL d   1       2.106   0.752  -5.170  0.00  0.00     0.116 A 
ATOM     19  C   UNL d   1       1.439   1.770  -4.493  0.00  0.00     0.044 A 
ATOM     20  F   UNL d   1       2.737   1.026  -6.317  0.00  0.00    -0.206 F 
ATOM     21  C   UNL d   1       0.759   1.482  -3.305  0.00  0.00     0.027 A 
ENDBRANCH  13  15
ENDBRANCH   1  13
TORSDOF 5
