REMARK  4 active torsions:
REMARK  status: ('A' for Active; 'I' for Inactive)
REMARK    1  A    between atoms: S_7  and  C_2 
REMARK    2  A    between atoms: C_9  and  C_4 
REMARK    3  A    between atoms: C_14  and  S_7 
REMARK    4  A    between atoms: C_16  and  C_14 
ROOT
ATOM      1  C   UNL d   1       0.047  -0.765   0.075  0.00  0.00     0.041 A 
ATOM      2  C   UNL d   1       1.145  -1.604   0.065  0.00  0.00     0.056 A 
ATOM      3  C   UNL d   1       0.419   0.633  -0.012  0.00  0.00    -0.021 A 
ATOM      4  C   UNL d   1       1.797   0.812  -0.041  0.00  0.00     0.059 A 
ATOM      5  S   UNL d   1       2.598  -0.698  -0.045  0.00  0.00    -0.078 SA
ATOM      6  C   UNL d   1      -1.360  -1.135   0.205  0.00  0.00     0.162 C 
ATOM      7  C   UNL d   1      -0.626   1.742  -0.025  0.00  0.00     0.050 C 
ATOM      8  C   UNL d   1      -2.051   1.246   0.362  0.00  0.00    -0.037 C 
ATOM      9  C   UNL d   1      -2.333  -0.104  -0.325  0.00  0.00     0.093 C 
ATOM     10  O   UNL d   1      -1.759  -2.152   0.763  0.00  0.00    -0.292 OA
ATOM     11  C   UNL d   1      -3.110   2.258  -0.104  0.00  0.00     0.015 C 
ATOM     12  C   UNL d   1      -2.176   1.099   1.895  0.00  0.00     0.015 C 
ENDROOT
BRANCH   2  13
ATOM     13  S   UNL d   1       1.257  -3.362   0.186  0.00  0.00    -0.117 SA
BRANCH  13  14
ATOM     14  C   UNL d   1      -0.023  -3.954  -0.953  0.00  0.00     0.118 C 
BRANCH  14  15
ATOM     15  C   UNL d   1      -0.022  -5.455  -1.093  0.00  0.00    -0.049 A 
ATOM     16  C   UNL d   1      -0.694  -6.255  -0.153  0.00  0.00     0.009 A 
ATOM     17  C   UNL d   1      -0.748  -7.641  -0.314  0.00  0.00     0.024 A 
ATOM     18  C   UNL d   1      -0.126  -8.233  -1.410  0.00  0.00     0.034 A 
ATOM     19  C   UNL d   1       0.561  -7.452  -2.339  0.00  0.00     0.024 A 
ATOM     20 CL   UNL d   1      -0.215  -9.938  -1.627  0.00  0.00    -0.084 Cl
ATOM     21  C   UNL d   1       0.616  -6.067  -2.180  0.00  0.00     0.009 A 
ENDBRANCH  14  15
ENDBRANCH  13  14
ENDBRANCH   2  13
BRANCH   4  22
ATOM     22  C   UNL d   1       2.532   2.084  -0.092  0.00  0.00     0.163 C 
ATOM     23  O   UNL d   1       1.979   3.132  -0.425  0.00  0.00    -0.292 OA
ATOM     24  C   UNL d   1       3.993   2.137   0.289  0.00  0.00     0.097 C 
ENDBRANCH   4  22
TORSDOF 4
