REMARK  5 active torsions:
REMARK  status: ('A' for Active; 'I' for Inactive)
REMARK    1  A    between atoms: N_4  and  C_1 
REMARK       I    between atoms: C_5  and  N_4 
REMARK    2  A    between atoms: C_8  and  C_5 
REMARK    3  A    between atoms: C_10  and  C_9 
REMARK       I    between atoms: N_11  and  C_10 
REMARK    4  A    between atoms: C_18  and  N_11 
REMARK    5  A    between atoms: C_17  and  C_18 
ROOT
ATOM      1  C   UNL d   1       3.796   2.582   0.250  0.00  0.00     0.048 A 
ATOM      2  C   UNL d   1       4.052   3.547  -0.747  0.00  0.00     0.047 A 
ATOM      3  C   UNL d   1       2.762   2.789   1.189  0.00  0.00     0.018 A 
ATOM      4  C   UNL d   1       3.220   4.687  -0.778  0.00  0.00     0.018 A 
ATOM      5  C   UNL d   1       2.187   4.873   0.145  0.00  0.00     0.001 A 
ATOM      6  C   UNL d   1       1.959   3.924   1.131  0.00  0.00     0.001 A 
ENDROOT
BRANCH   1   7
ATOM      7  C   UNL d   1       4.597   1.354   0.444  0.00  0.00     0.257 C 
ATOM      8  N   UNL d   1       3.874   0.193   0.651  0.00  0.00    -0.316 N 
ATOM      9  H   UNL d   1       2.861   0.228   0.661  0.00  0.00     0.170 HD
ATOM     10  O   UNL d   1       5.818   1.489   0.471  0.00  0.00    -0.267 OA
BRANCH   8  11
ATOM     11  C   UNL d   1       4.418  -1.084   0.769  0.00  0.00     0.100 C 
ATOM     12  C   UNL d   1       3.748  -2.269   1.002  0.00  0.00     0.079 C 
ATOM     13  C   UNL d   1       4.591  -3.429   0.840  0.00  0.00     0.006 A 
ATOM     14 CL   UNL d   1       2.065  -2.382   1.341  0.00  0.00    -0.080 Cl
ATOM     15  C   UNL d   1       4.320  -4.821   0.893  0.00  0.00     0.014 A 
ATOM     16  C   UNL d   1       5.893  -3.042   0.515  0.00  0.00     0.019 A 
ATOM     17  C   UNL d   1       5.311  -5.749   0.549  0.00  0.00     0.001 A 
ATOM     18  C   UNL d   1       6.579  -5.323   0.178  0.00  0.00     0.001 A 
ATOM     19  C   UNL d   1       6.896  -3.968   0.184  0.00  0.00     0.020 A 
ATOM     20  S   UNL d   1       6.078  -1.345   0.569  0.00  0.00    -0.070 SA
ENDBRANCH   8  11
ENDBRANCH   1   7
BRANCH   2  21
ATOM     21  C   UNL d   1       5.092   3.504  -1.835  0.00  0.00     0.252 C 
ATOM     22  N   UNL d   1       6.264   2.830  -1.619  0.00  0.00    -0.353 N 
ATOM     23  H   UNL d   1       6.395   2.312  -0.750  0.00  0.00     0.163 HD
ATOM     24  O   UNL d   1       4.882   4.123  -2.881  0.00  0.00    -0.268 OA
BRANCH  22  25
ATOM     25  C   UNL d   1       7.339   2.742  -2.584  0.00  0.00     0.162 C 
BRANCH  25  26
ATOM     26  C   UNL d   1       7.193   1.546  -3.479  0.00  0.00    -0.025 A 
ATOM     27  C   UNL d   1       7.806   0.333  -3.183  0.00  0.00     0.096 A 
ATOM     28  N   UNL d   1       7.697  -0.781  -3.946  0.00  0.00    -0.375 N 
ATOM     29  C   UNL d   1       6.928  -0.684  -5.052  0.00  0.00     0.087 A 
ATOM     30  HN  UNL d   1       8.172  -1.649  -3.699  1.00  0.00     0.164 HD
ATOM     31  C   UNL d   1       6.271   0.473  -5.434  0.00  0.00     0.018 A 
ATOM     32  C   UNL d   1       6.408   1.602  -4.633  0.00  0.00     0.011 A 
ENDBRANCH  25  26
ENDBRANCH  22  25
ENDBRANCH   2  21
TORSDOF 5
