REMARK  4 active torsions:
REMARK  status: ('A' for Active; 'I' for Inactive)
REMARK    1  A    between atoms: C_2  and  C_1 
REMARK       I    between atoms: N_4  and  C_1 
REMARK    2  A    between atoms: N_7  and  N_4 
REMARK    3  A    between atoms: C_12  and  C_10 
REMARK    4  A    between atoms: N_11  and  C_12 
ROOT
ATOM      1  C   UNL d   1       0.298   0.865   0.782  0.00  0.00     0.033 A 
ATOM      2  C   UNL d   1       0.660   2.213   0.900  0.00  0.00     0.017 A 
ATOM      3  C   UNL d   1      -0.867   0.403   1.399  0.00  0.00     0.017 A 
ATOM      4  C   UNL d   1      -0.151   3.094   1.624  0.00  0.00     0.010 A 
ATOM      5  C   UNL d   1      -1.678   1.288   2.114  0.00  0.00     0.010 A 
ATOM      6  C   UNL d   1      -1.328   2.642   2.239  0.00  0.00    -0.031 A 
ENDROOT
BRANCH   1   7
ATOM      7  C   UNL d   1       1.152  -0.106   0.047  0.00  0.00     0.265 C 
ATOM      8  O   UNL d   1       1.236  -1.274   0.411  0.00  0.00    -0.266 OA
ATOM      9  N   UNL d   1       1.813   0.393  -1.073  0.00  0.00    -0.290 N 
ATOM     10  H   UNL d   1       1.512   1.273  -1.484  0.00  0.00     0.183 HD
BRANCH   9  11
ATOM     11  N   UNL d   1       2.568  -0.497  -1.870  0.00  0.00    -0.247 NA
ATOM     12  H   UNL d   1       2.388  -1.444  -1.503  0.00  0.00     0.143 HD
ATOM     13  H   UNL d   1       3.557  -0.341  -1.662  0.00  0.00     0.143 HD
ENDBRANCH   9  11
ENDBRANCH   1   7
BRANCH   6  14
ATOM     14  C   UNL d   1      -2.218   3.595   2.999  0.00  0.00     0.305 C 
BRANCH  14  15
ATOM     15  N   UNL d   1      -2.406   3.175   4.382  0.00  0.00     0.082 N 
ATOM     16  H   UNL d   1      -2.996   3.852   4.862  0.00  0.00     0.313 HD
ATOM     17  H   UNL d   1      -1.506   3.188   4.859  0.00  0.00     0.313 HD
ENDBRANCH  14  15
ENDBRANCH   6  14
TORSDOF 4
