REMARK  8 active torsions:
REMARK  status: ('A' for Active; 'I' for Inactive)
REMARK    1  A    between atoms: C_2  and  C_1 
REMARK       I    between atoms: C_3  and  N_14 
REMARK       I    between atoms: N_13  and  C_3 
REMARK    2  A    between atoms: N_15  and  C_6 
REMARK    3  A    between atoms: C_18  and  N_13 
REMARK    4  A    between atoms: N_14  and  C_17 
REMARK    5  A    between atoms: C_19  and  N_15 
REMARK    6  A    between atoms: C_17  and  C_19 
REMARK    7  A    between atoms: C_20  and  C_18 
REMARK    8  A    between atoms: C_21  and  C_20 
ROOT
ATOM      1  N   UNL d   1      -0.456   4.563  -3.208  0.00  0.00    -0.375 N 
ATOM      2  H   UNL d   1      -0.841   4.731  -2.287  0.00  0.00     0.161 HD
ENDROOT
BRANCH   1   3
ATOM      3  C   UNL d   1       0.910   4.495  -3.215  0.00  0.00     0.100 A 
ATOM      4  C   UNL d   1       1.678   4.353  -4.365  0.00  0.00     0.049 A 
ATOM      5  C   UNL d   1       3.065   4.243  -4.259  0.00  0.00     0.021 A 
ATOM      6  C   UNL d   1       3.669   4.277  -3.003  0.00  0.00     0.063 A 
ATOM      7  C   UNL d   1       2.832   4.433  -1.911  0.00  0.00     0.106 A 
ATOM      8  N   UNL d   1       1.484   4.545  -1.996  0.00  0.00    -0.352 N 
ATOM      9  HN  UNL d   1       0.917   4.664  -1.157  1.00  0.00     0.166 HD
BRANCH   6  10
ATOM     10  C   UNL d   1       5.149   4.146  -2.836  0.00  0.00     0.418 C 
ATOM     11  F   UNL d   1       5.562   4.211  -1.540  0.00  0.00    -0.166 F 
ATOM     12  F   UNL d   1       5.837   5.120  -3.493  0.00  0.00    -0.166 F 
ATOM     13  F   UNL d   1       5.626   2.965  -3.318  0.00  0.00    -0.166 F 
ENDBRANCH   6  10
ENDBRANCH   1   3
BRANCH   1  14
ATOM     14  C   UNL d   1      -1.312   4.609  -4.373  0.00  0.00     0.141 C 
BRANCH  14  15
ATOM     15  C   UNL d   1      -1.466   6.034  -4.921  0.00  0.00     0.144 C 
BRANCH  15  16
ATOM     16  N   UNL d   1      -2.233   6.077  -6.155  0.00  0.00    -0.342 N 
ATOM     17  C   UNL d   1      -1.646   5.809  -7.363  0.00  0.00     0.316 C 
ATOM     18  O   UNL d   1      -0.463   5.527  -7.493  0.00  0.00    -0.247 OA
ATOM     19  N   UNL d   1      -2.529   5.927  -8.401  0.00  0.00    -0.343 N 
ATOM     20  H   UNL d   1      -3.510   6.037  -8.201  0.00  0.00     0.164 HD
ATOM     21  H   UNL d   1      -3.235   6.165  -6.103  0.00  0.00     0.164 HD
BRANCH  19  22
ATOM     22  C   UNL d   1      -2.123   5.748  -9.780  0.00  0.00     0.124 C 
BRANCH  22  23
ATOM     23  C   UNL d   1      -2.083   4.282 -10.209  0.00  0.00     0.019 C 
BRANCH  23  24
ATOM     24  C   UNL d   1      -3.466   3.627 -10.192  0.00  0.00    -0.003 C 
ATOM     25  C   UNL d   1      -3.404   2.186 -10.673  0.00  0.00     0.005 C 
ENDBRANCH  23  24
ENDBRANCH  22  23
ENDBRANCH  19  22
ENDBRANCH  15  16
ENDBRANCH  14  15
ENDBRANCH   1  14
TORSDOF 8
