REMARK  3 active torsions:
REMARK  status: ('A' for Active; 'I' for Inactive)
REMARK    1  A    between atoms: C_6  and  C_1 
REMARK    2  A    between atoms: C_8  and  C_5 
REMARK       I    between atoms: N_10  and  C_6 
REMARK    3  A    between atoms: N_11  and  N_10 
ROOT
ATOM      1  C   UNL d   1       0.277  -1.014   0.350  0.00  0.00     0.126 A 
ATOM      2  N   UNL d   1      -0.401  -1.159  -0.802  0.00  0.00    -0.256 N 
ATOM      3  HN  UNL d   1      -0.412  -1.978  -1.410  1.00  0.00     0.195 HD
ATOM      4  C   UNL d   1       0.039   0.264   0.912  0.00  0.00     0.072 A 
ATOM      5  C   UNL d   1      -0.819   0.886   0.036  0.00  0.00     0.086 A 
ATOM      6  O   UNL d   1      -1.080   0.031  -0.994  0.00  0.00    -0.241 OA
ENDROOT
BRANCH   1   7
ATOM      7  C   UNL d   1       1.134  -2.068   0.891  0.00  0.00     0.284 C 
ATOM      8  O   UNL d   1       1.786  -1.934   1.925  0.00  0.00    -0.265 OA
ATOM      9  N   UNL d   1       1.156  -3.236   0.132  0.00  0.00    -0.288 N 
ATOM     10  H   UNL d   1       0.520  -3.307  -0.663  0.00  0.00     0.183 HD
BRANCH   9  11
ATOM     11  N   UNL d   1       1.897  -4.362   0.562  0.00  0.00    -0.247 NA
ATOM     12  H   UNL d   1       2.263  -4.144   1.499  0.00  0.00     0.143 HD
ATOM     13  H   UNL d   1       2.732  -4.433  -0.026  0.00  0.00     0.143 HD
ENDBRANCH   9  11
ENDBRANCH   1   7
BRANCH   5  14
ATOM     14  C   UNL d   1      -1.494   2.230  -0.009  0.00  0.00     0.000 C 
ATOM     15  C   UNL d   1      -1.112   3.071   1.223  0.00  0.00     0.021 C 
ATOM     16  C   UNL d   1      -1.066   2.995  -1.274  0.00  0.00     0.021 C 
ATOM     17  C   UNL d   1      -3.022   2.043  -0.019  0.00  0.00     0.021 C 
ENDBRANCH   5  14
TORSDOF 3
