REMARK  4 active torsions:
REMARK  status: ('A' for Active; 'I' for Inactive)
REMARK    1  A    between atoms: S_4  and  C_1 
REMARK       I    between atoms: N_8  and  C_1 
REMARK    2  A    between atoms: C_3  and  C_7 
REMARK    3  A    between atoms: C_12  and  S_4 
REMARK    4  A    between atoms: C_5  and  N_8 
ROOT
ATOM      1  C   UNL d   1       0.905   0.011   0.046  0.00  0.00     0.288 C 
ATOM      2  N   UNL d   1       0.076  -1.003   0.465  0.00  0.00    -0.328 N 
ATOM      3  O   UNL d   1       2.127   0.011   0.081  0.00  0.00    -0.260 OA
ATOM      4  H   UNL d   1      -0.917  -0.835   0.369  0.00  0.00     0.169 HD
ENDROOT
BRANCH   1   5
ATOM      5  S   UNL d   1      -0.037   1.371  -0.514  0.00  0.00    -0.029 SA
BRANCH   5   6
ATOM      6  C   UNL d   1       0.461   1.622  -2.211  0.00  0.00     0.010 A 
ATOM      7  C   UNL d   1       1.412   0.857  -2.891  0.00  0.00     0.019 A 
ATOM      8  C   UNL d   1       1.693   1.100  -4.242  0.00  0.00     0.008 A 
ATOM      9  C   UNL d   1       1.028   2.113  -4.940  0.00  0.00    -0.062 A 
ATOM     10  C   UNL d   1       0.093   2.895  -4.260  0.00  0.00     0.008 A 
ATOM     11  C   UNL d   1       1.314   2.337  -6.396  0.00  0.00     0.048 C 
ATOM     12  C   UNL d   1      -0.184   2.652  -2.911  0.00  0.00     0.019 A 
ENDBRANCH   5   6
ENDBRANCH   1   5
BRANCH   2  13
ATOM     13  C   UNL d   1       0.527  -2.179   1.008  0.00  0.00     0.092 C 
ATOM     14  C   UNL d   1      -0.291  -3.169   1.393  0.00  0.00     0.029 C 
BRANCH  14  15
ATOM     15  C   UNL d   1       0.144  -4.407   1.973  0.00  0.00    -0.028 A 
ATOM     16  C   UNL d   1      -0.591  -5.569   1.867  0.00  0.00     0.061 A 
ATOM     17  S   UNL d   1       0.169  -6.896   2.640  0.00  0.00    -0.113 SA
ATOM     18  C   UNL d   1       1.479  -5.920   3.145  0.00  0.00     0.050 A 
ATOM     19  C   UNL d   1       1.342  -4.614   2.726  0.00  0.00     0.019 A 
ENDBRANCH  14  15
ENDBRANCH   2  13
TORSDOF 4
