REMARK  4 active torsions:
REMARK  status: ('A' for Active; 'I' for Inactive)
REMARK    1  A    between atoms: N_8  and  C_1 
REMARK    2  A    between atoms: C_11  and  N_8 
REMARK    3  A    between atoms: C_19  and  N_8 
REMARK    4  A    between atoms: C_22  and  C_19 
ROOT
ATOM      1  C   UNL d   1       2.468  -0.683   0.015  0.00  0.00     0.156 C 
ATOM      2  N   UNL d   1       1.563  -1.177   0.802  0.00  0.00    -0.303 N 
ATOM      3  HN  UNL d   1       1.787  -2.045   1.289  1.00  0.00     0.171 HD
ATOM      4  S   UNL d   1       2.222   0.820  -0.873  0.00  0.00    -0.035 SA
ATOM      5  C   UNL d   1       0.335  -0.627   1.031  0.00  0.00     0.260 C 
ATOM      6  C   UNL d   1       0.967   1.568   0.108  0.00  0.00     0.093 A 
ATOM      7  C   UNL d   1       0.130   0.820   0.907  0.00  0.00     0.066 A 
ATOM      8  N   UNL d   1       0.831   2.913  -0.030  0.00  0.00    -0.359 N 
ATOM      9  HN  UNL d   1       1.469   3.451  -0.616  1.00  0.00     0.166 HD
ATOM     10  O   UNL d   1      -0.614  -1.298   1.421  0.00  0.00    -0.267 OA
ATOM     11  C   UNL d   1      -0.926   1.457   1.568  0.00  0.00     0.021 A 
ATOM     12  C   UNL d   1      -0.182   3.512   0.636  0.00  0.00     0.089 A 
ATOM     13  C   UNL d   1      -1.085   2.831   1.432  0.00  0.00     0.018 A 
ENDROOT
BRANCH   1  14
ATOM     14  N   UNL d   1       3.694  -1.330  -0.208  0.00  0.00    -0.327 N 
BRANCH  14  15
ATOM     15  C   UNL d   1       3.791  -2.752  -0.146  0.00  0.00     0.036 A 
ATOM     16  C   UNL d   1       2.700  -3.558  -0.528  0.00  0.00     0.030 A 
ATOM     17  C   UNL d   1       2.746  -4.957  -0.470  0.00  0.00     0.009 A 
ATOM     18  C   UNL d   1       3.899  -5.609  -0.038  0.00  0.00    -0.062 A 
ATOM     19  C   UNL d   1       5.001  -4.837   0.326  0.00  0.00     0.009 A 
ATOM     20  C   UNL d   1       3.943  -7.106   0.023  0.00  0.00     0.048 C 
ATOM     21  C   UNL d   1       4.947  -3.436   0.271  0.00  0.00     0.030 A 
ENDBRANCH  14  15
BRANCH  14  22
ATOM     22  C   UNL d   1       4.954  -0.560  -0.201  0.00  0.00     0.131 C 
BRANCH  22  23
ATOM     23  C   UNL d   1       5.694  -0.654  -1.539  0.00  0.00     0.016 C 
ATOM     24  C   UNL d   1       6.978   0.163  -1.511  0.00  0.00     0.006 C 
ENDBRANCH  22  23
ENDBRANCH  14  22
ENDBRANCH   1  14
TORSDOF 4
