REMARK  5 active torsions:
REMARK  status: ('A' for Active; 'I' for Inactive)
REMARK    1  A    between atoms: N_2  and  C_1 
REMARK    2  A    between atoms: C_3  and  S_13 
REMARK    3  A    between atoms: N_22  and  C_7 
REMARK    4  A    between atoms: C_10  and  C_14 
REMARK    5  A    between atoms: S_13  and  C_11 
ROOT
ATOM      1  C   UNL d   1       1.484  -0.167  -0.079  0.00  0.00     0.120 A 
ATOM      2  C   UNL d   1       0.707  -1.333  -0.117  0.00  0.00     0.040 A 
ATOM      3  C   UNL d   1       0.914   1.111   0.054  0.00  0.00     0.053 A 
ATOM      4  C   UNL d   1      -0.478   1.248   0.144  0.00  0.00     0.050 A 
ATOM      5  C   UNL d   1      -0.685  -1.180  -0.034  0.00  0.00     0.022 A 
ATOM      6  C   UNL d   1      -1.270   0.090   0.088  0.00  0.00     0.017 A 
ENDROOT
BRANCH   2   7
ATOM      7  S   UNL d   1       1.377  -2.989  -0.075  0.00  0.00    -0.061 SA
BRANCH   7   8
ATOM      8  C   UNL d   1       1.340  -3.406  -1.777  0.00  0.00     0.135 A 
ATOM      9  S   UNL d   1       2.292  -4.687  -2.406  0.00  0.00    -0.026 SA
ATOM     10  C   UNL d   1       1.562  -4.389  -3.930  0.00  0.00     0.159 A 
ATOM     11  N   UNL d   1       0.687  -3.407  -3.914  0.00  0.00    -0.279 N 
ATOM     12  N   UNL d   1       0.554  -2.833  -2.659  0.00  0.00    -0.286 N 
ATOM     13  HN  UNL d   1       0.164  -3.101  -4.734  1.00  0.00     0.189 HD
ATOM     14  HN  UNL d   1      -0.078  -2.060  -2.446  1.00  0.00     0.188 HD
BRANCH  10  15
ATOM     15  N   UNL d   1       1.870  -5.131  -5.009  0.00  0.00    -0.379 N 
ATOM     16  H   UNL d   1       2.305  -6.035  -4.875  0.00  0.00     0.158 HD
ATOM     17  H   UNL d   1       1.233  -5.081  -5.797  0.00  0.00     0.158 HD
ENDBRANCH  10  15
ENDBRANCH   7   8
ENDBRANCH   2   7
BRANCH   1  18
ATOM     18  N   UNL d   1       2.930  -0.239  -0.139  0.00  0.00    -0.114 N 
ATOM     19  O   UNL d   1       3.435  -0.679  -1.180  0.00  0.00    -0.532 OA
ATOM     20  O   UNL d   1       3.552   0.183   0.845  0.00  0.00    -0.532 OA
ENDBRANCH   1  18
BRANCH   4  21
ATOM     21  C   UNL d   1      -1.125   2.605   0.307  0.00  0.00     0.417 C 
ATOM     22  F   UNL d   1      -0.227   3.625   0.374  0.00  0.00    -0.166 F 
ATOM     23  F   UNL d   1      -1.963   2.908  -0.721  0.00  0.00    -0.166 F 
ATOM     24  F   UNL d   1      -1.872   2.688   1.441  0.00  0.00    -0.166 F 
ENDBRANCH   4  21
TORSDOF 5
