REMARK  3 active torsions:
REMARK  status: ('A' for Active; 'I' for Inactive)
REMARK    1  A    between atoms: C_2  and  C_1 
REMARK    2  A    between atoms: C_3  and  C_1 
REMARK    3  A    between atoms: C_4  and  C_2 
REMARK       I    between atoms: N_9  and  C_3 
ROOT
ATOM      1  C   UNL d   1       0.451  -1.309   0.728  0.00  0.00     0.168 C 
ATOM      2  O   UNL d   1      -0.092  -1.510  -0.361  0.00  0.00    -0.292 OA
ENDROOT
BRANCH   1   3
ATOM      3  C   UNL d   1       0.126  -0.073   1.524  0.00  0.00     0.186 C 
BRANCH   3   4
ATOM      4  C   UNL d   1      -0.675  -0.366   2.761  0.00  0.00     0.222 C 
ATOM      5  O   UNL d   1      -0.279  -1.092   3.665  0.00  0.00    -0.273 OA
ATOM      6  N   UNL d   1      -1.889   0.251   2.846  0.00  0.00    -0.370 N 
ATOM      7  H   UNL d   1      -2.326   0.713   2.059  0.00  0.00     0.159 HD
ATOM      8  H   UNL d   1      -2.471   0.017   3.641  0.00  0.00     0.159 HD
ENDBRANCH   3   4
ENDBRANCH   1   3
BRANCH   1   9
ATOM      9  C   UNL d   1       1.435  -2.309   1.236  0.00  0.00     0.010 A 
ATOM     10  C   UNL d   1       1.369  -3.615   0.722  0.00  0.00     0.018 A 
ATOM     11  C   UNL d   1       2.284  -4.585   1.135  0.00  0.00     0.043 A 
ATOM     12  C   UNL d   1       3.270  -4.247   2.052  0.00  0.00     0.116 A 
ATOM     13  C   UNL d   1       3.349  -2.959   2.573  0.00  0.00     0.043 A 
ATOM     14  F   UNL d   1       4.160  -5.170   2.435  0.00  0.00    -0.206 F 
ATOM     15  C   UNL d   1       2.429  -1.986   2.169  0.00  0.00     0.018 A 
ENDBRANCH   1   9
TORSDOF 3
