REMARK  7 active torsions:
REMARK  status: ('A' for Active; 'I' for Inactive)
REMARK    1  A    between atoms: N_2  and  C_1 
REMARK    2  A    between atoms: N_5  and  C_3 
REMARK    3  A    between atoms: N_14  and  C_9 
REMARK    4  A    between atoms: C_20  and  N_14 
REMARK    5  A    between atoms: N_15  and  C_19 
REMARK    6  A    between atoms: C_18  and  C_20 
REMARK    7  A    between atoms: C_19  and  C_18 
ROOT
ATOM      1  C   UNL d   1       1.592   1.268   0.037  0.00  0.00     0.131 A 
ATOM      2  C   UNL d   1       0.179   1.362  -0.030  0.00  0.00     0.087 A 
ATOM      3  C   UNL d   1      -0.494   0.098  -0.018  0.00  0.00     0.100 A 
ATOM      4  C   UNL d   1      -1.930   0.021   0.036  0.00  0.00     0.104 C 
ATOM      5  N   UNL d   1      -3.083  -0.103   0.077  0.00  0.00    -0.191 NA
ATOM      6  C   UNL d   1       2.294   0.055   0.067  0.00  0.00     0.041 A 
ATOM      7  C   UNL d   1       0.201  -1.157   0.025  0.00  0.00     0.051 A 
ATOM      8  C   UNL d   1       1.599  -1.142   0.027  0.00  0.00     0.033 A 
ENDROOT
BRANCH   2   9
ATOM      9  N   UNL d   1      -0.476   2.591  -0.158  0.00  0.00    -0.373 N 
ATOM     10  C   UNL d   1      -1.770   2.749  -0.865  0.00  0.00     0.149 C 
ATOM     11  C   UNL d   1      -1.863   4.146  -1.501  0.00  0.00     0.187 C 
ATOM     12  O   UNL d   1      -1.655   5.186  -0.533  0.00  0.00    -0.388 OA
ATOM     13  C   UNL d   1      -0.364   5.039   0.083  0.00  0.00     0.187 C 
ATOM     14  C   UNL d   1      -0.256   3.689   0.816  0.00  0.00     0.149 C 
ENDBRANCH   2   9
BRANCH   7  15
ATOM     15  N   UNL d   1      -0.492  -2.382  -0.031  0.00  0.00    -0.389 N 
ATOM     16  H   UNL d   1      -1.500  -2.310   0.109  0.00  0.00     0.159 HD
BRANCH  15  17
ATOM     17  C   UNL d   1       0.052  -3.572   0.629  0.00  0.00     0.121 C 
BRANCH  17  18
ATOM     18  C   UNL d   1       0.166  -3.373   2.142  0.00  0.00     0.050 C 
BRANCH  18  19
ATOM     19  C   UNL d   1       0.705  -4.642   2.808  0.00  0.00     0.273 C 
BRANCH  19  20
ATOM     20  N   UNL d   1       0.960  -4.487   4.249  0.00  0.00     0.080 N 
ATOM     21  C   UNL d   1      -0.259  -4.191   5.005  0.00  0.00     0.309 C 
ATOM     22  C   UNL d   1       1.580  -5.708   4.772  0.00  0.00     0.309 C 
ENDBRANCH  19  20
ENDBRANCH  18  19
ENDBRANCH  17  18
ENDBRANCH  15  17
ENDBRANCH   7  15
BRANCH   1  23
ATOM     23  N   UNL d   1       2.445   2.445   0.007  0.00  0.00    -0.113 N 
ATOM     24  O   UNL d   1       2.441   3.138  -1.018  0.00  0.00    -0.532 OA
ATOM     25  O   UNL d   1       3.151   2.644   1.007  0.00  0.00    -0.532 OA
ENDBRANCH   1  23
TORSDOF 7
