REMARK  3 active torsions:
REMARK  status: ('A' for Active; 'I' for Inactive)
REMARK    1  A    between atoms: C_3  and  C_1 
REMARK       I    between atoms: N_4  and  C_1 
REMARK    2  A    between atoms: C_2  and  C_5 
REMARK    3  A    between atoms: C_8  and  N_4 
ROOT
ATOM      1  C   UNL d   1       0.963   0.070   0.046  0.00  0.00     0.257 C 
ATOM      2  N   UNL d   1       0.209   0.807   0.942  0.00  0.00    -0.323 N 
ATOM      3  O   UNL d   1       0.509  -0.670  -0.821  0.00  0.00    -0.267 OA
ATOM      4  H   UNL d   1       0.694   1.508   1.484  0.00  0.00     0.169 HD
ENDROOT
BRANCH   2   5
ATOM      5  C   UNL d   1      -1.199   0.817   1.022  0.00  0.00     0.035 A 
ATOM      6  C   UNL d   1      -1.997  -0.204   0.500  0.00  0.00     0.045 A 
ATOM      7  C   UNL d   1      -3.398  -0.123   0.547  0.00  0.00     0.050 A 
ATOM      8  C   UNL d   1      -3.994   0.999   1.140  0.00  0.00     0.016 A 
ATOM      9  C   UNL d   1      -3.203   2.004   1.697  0.00  0.00     0.003 A 
ATOM     10  C   UNL d   1      -1.811   1.906   1.650  0.00  0.00     0.029 A 
BRANCH   7  11
ATOM     11  C   UNL d   1      -4.251  -1.212  -0.052  0.00  0.00     0.417 C 
ATOM     12  F   UNL d   1      -3.543  -2.280  -0.515  0.00  0.00    -0.166 F 
ATOM     13  F   UNL d   1      -5.145  -1.723   0.841  0.00  0.00    -0.166 F 
ATOM     14  F   UNL d   1      -4.992  -0.769  -1.106  0.00  0.00    -0.166 F 
ENDBRANCH   7  11
ENDBRANCH   2   5
BRANCH   1  15
ATOM     15  C   UNL d   1       2.450   0.168   0.166  0.00  0.00     0.048 A 
ATOM     16  C   UNL d   1       3.199   1.278   0.590  0.00  0.00     0.022 A 
ATOM     17  I   UNL d   1       2.418   3.183   1.025  0.00  0.00    -0.043 I 
ATOM     18  C   UNL d   1       4.599   1.182   0.679  0.00  0.00     0.019 A 
ATOM     19  C   UNL d   1       5.259   0.005   0.325  0.00  0.00     0.001 A 
ATOM     20  C   UNL d   1       4.531  -1.086  -0.131  0.00  0.00     0.001 A 
ATOM     21  C   UNL d   1       3.141  -1.004  -0.208  0.00  0.00     0.018 A 
ENDBRANCH   1  15
TORSDOF 3
