REMARK  9 active torsions:
REMARK  status: ('A' for Active; 'I' for Inactive)
REMARK    1  A    between atoms: C_5  and  C_1 
REMARK    2  A    between atoms: C_14  and  N_2 
REMARK       I    between atoms: N_9  and  C_5 
REMARK    3  A    between atoms: C_8  and  N_10 
REMARK    4  A    between atoms: N_13  and  C_8 
REMARK    5  A    between atoms: N_10  and  N_9 
REMARK    6  A    between atoms: C_18  and  N_13 
REMARK    7  A    between atoms: C_15  and  C_18 
REMARK    8  A    between atoms: C_19  and  C_15 
REMARK    9  A    between atoms: O_16  and  C_19 
ROOT
ATOM      1  C   UNL d   1      -0.532  -2.717   0.150  0.00  0.00     0.288 C 
ATOM      2  N   UNL d   1       0.026  -3.931   0.502  0.00  0.00    -0.262 N 
ATOM      3  O   UNL d   1       0.078  -1.654   0.263  0.00  0.00    -0.264 OA
ATOM      4  H   UNL d   1      -0.408  -4.812   0.247  0.00  0.00     0.190 HD
ENDROOT
BRANCH   2   5
ATOM      5  N   UNL d   1       1.278  -4.015   1.123  0.00  0.00    -0.274 N 
ATOM      6  H   UNL d   1       1.558  -3.234   1.721  0.00  0.00     0.189 HD
BRANCH   5   7
ATOM      7  C   UNL d   1       2.156  -5.022   0.819  0.00  0.00     0.186 C 
ATOM      8  S   UNL d   1       2.038  -6.042  -0.501  0.00  0.00    -0.040 SA
BRANCH   7   9
ATOM      9  N   UNL d   1       3.170  -5.236   1.710  0.00  0.00    -0.366 N 
ATOM     10  H   UNL d   1       3.777  -6.004   1.446  0.00  0.00     0.161 HD
BRANCH   9  11
ATOM     11  C   UNL d   1       3.130  -4.910   3.129  0.00  0.00     0.124 C 
BRANCH  11  12
ATOM     12  C   UNL d   1       4.258  -3.981   3.559  0.00  0.00     0.046 C 
BRANCH  12  13
ATOM     13  C   UNL d   1       4.227  -2.631   2.852  0.00  0.00     0.168 C 
BRANCH  13  14
ATOM     14  O   UNL d   1       2.929  -2.051   2.986  0.00  0.00    -0.396 OA
ATOM     15  C   UNL d   1       2.858  -0.791   2.326  0.00  0.00     0.201 C 
ENDBRANCH  13  14
ENDBRANCH  12  13
ENDBRANCH  11  12
ENDBRANCH   9  11
ENDBRANCH   7   9
ENDBRANCH   5   7
ENDBRANCH   2   5
BRANCH   1  16
ATOM     16  C   UNL d   1      -1.897  -2.825  -0.332  0.00  0.00     0.122 A 
ATOM     17  N   UNL d   1      -2.566  -1.910  -1.111  0.00  0.00    -0.287 N 
ATOM     18  N   UNL d   1      -3.858  -2.236  -1.339  0.00  0.00    -0.302 N 
ATOM     19  C   UNL d   1      -4.011  -3.426  -0.761  0.00  0.00     0.024 A 
ATOM     20  HN  UNL d   1      -4.559  -1.691  -1.841  1.00  0.00     0.186 HD
ATOM     21  C   UNL d   1      -2.827  -3.834  -0.115  0.00  0.00     0.063 A 
ATOM     22  C   UNL d   1      -5.308  -4.135  -0.858  0.00  0.00     0.070 C 
BRANCH  17  23
ATOM     23  C   UNL d   1      -2.046  -0.759  -1.830  0.00  0.00     0.145 C 
ATOM     24  C   UNL d   1      -1.771  -1.107  -3.285  0.00  0.00     0.028 C 
ENDBRANCH  17  23
ENDBRANCH   1  16
TORSDOF 9
