REMARK  3 active torsions:
REMARK  status: ('A' for Active; 'I' for Inactive)
REMARK    1  A    between atoms: C_13  and  C_2 
REMARK    2  A    between atoms: N_10  and  C_3 
REMARK    3  A    between atoms: C_9  and  C_16 
ROOT
ATOM      1  C   UNL d   1       3.253   6.639  -0.574  0.00  0.00     0.680 A 
ATOM      2  N   UNL d   1       2.696   7.583   0.194  0.00  0.00    -0.186 N 
ATOM      3  HN  UNL d   1       2.237   7.332   1.070  1.00  0.00     0.184 HD
ATOM      4  N   UNL d   1       2.335   2.616   0.148  0.00  0.00    -0.265 NA
ATOM      5  N   UNL d   1       3.144   5.335  -0.196  0.00  0.00    -0.215 N 
ATOM      6  C   UNL d   1       2.751   8.876  -0.207  0.00  0.00     0.133 A 
ATOM      7  N   UNL d   1       3.870   6.937  -1.731  0.00  0.00    -0.202 N 
ATOM      8  HN  UNL d   1       4.300   6.207  -2.298  1.00  0.00     0.183 HD
ATOM      9  C   UNL d   1       2.439   4.942   1.028  0.00  0.00     0.156 C 
ATOM     10  C   UNL d   1       3.882   4.278  -0.886  0.00  0.00     0.156 C 
ATOM     11  C   UNL d   1       2.951   3.078  -1.132  0.00  0.00     0.117 C 
ATOM     12  C   UNL d   1       1.528   3.711   0.751  0.00  0.00     0.117 C 
ATOM     13  C   UNL d   1       3.356   9.245  -1.391  0.00  0.00     0.052 A 
ATOM     14  C   UNL d   1       3.905   8.222  -2.118  0.00  0.00     0.108 A 
ENDROOT
BRANCH   4  15
ATOM     15  C   UNL d   1       1.614   1.420  -0.034  0.00  0.00     0.097 A 
ATOM     16  C   UNL d   1       1.349   0.449   0.980  0.00  0.00     0.048 A 
ATOM     17  C   UNL d   1       1.532   0.332   2.427  0.00  0.00     0.004 A 
ATOM     18  C   UNL d   1       0.735  -0.715   0.510  0.00  0.00     0.089 A 
ATOM     19  C   UNL d   1       1.055  -0.876   2.912  0.00  0.00     0.065 A 
ATOM     20  S   UNL d   1       0.433  -1.886   1.703  0.00  0.00    -0.082 SA
ATOM     21  N   UNL d   1       0.371  -1.010  -0.747  0.00  0.00    -0.346 N 
ATOM     22  C   UNL d   1       0.641  -0.033  -1.596  0.00  0.00     0.182 A 
ATOM     23  HN  UNL d   1      -0.066  -1.891  -1.018  1.00  0.00     0.167 HD
ATOM     24  N   UNL d   1       1.226   1.129  -1.309  0.00  0.00    -0.342 N 
ATOM     25  HN  UNL d   1       1.385   1.810  -2.051  1.00  0.00     0.167 HD
BRANCH  17  26
ATOM     26  C   UNL d   1       2.124   1.306   3.422  0.00  0.00     0.016 A 
ATOM     27  S   UNL d   1       1.615   1.381   5.067  0.00  0.00    -0.101 SA
ATOM     28  C   UNL d   1       2.670   2.674   5.420  0.00  0.00     0.050 A 
ATOM     29  C   UNL d   1       3.432   3.018   4.329  0.00  0.00     0.008 A 
ATOM     30  C   UNL d   1       3.136   2.210   3.186  0.00  0.00     0.020 A 
ENDBRANCH  17  26
ENDBRANCH   4  15
BRANCH   6  31
ATOM     31  C   UNL d   1       2.128   9.948   0.669  0.00  0.00     0.433 C 
ATOM     32  F   UNL d   1       1.569   9.480   1.821  0.00  0.00    -0.165 F 
ATOM     33  F   UNL d   1       3.033  10.895   1.053  0.00  0.00    -0.165 F 
ATOM     34  F   UNL d   1       1.137  10.633   0.027  0.00  0.00    -0.165 F 
ENDBRANCH   6  31
TORSDOF 3
