REMARK  6 active torsions:
REMARK  status: ('A' for Active; 'I' for Inactive)
REMARK    1  A    between atoms: C_2  and  S_1 
REMARK    2  A    between atoms: N_5  and  S_1 
REMARK    3  A    between atoms: C_9  and  C_4 
REMARK    4  A    between atoms: N_8  and  N_5 
REMARK       I    between atoms: C_10  and  N_8 
REMARK    5  A    between atoms: O_19  and  C_9 
REMARK    6  A    between atoms: C_13  and  C_10 
ROOT
ATOM      1  S   UNL d   1       1.046   0.019   0.031  0.00  0.00     0.292 S 
ATOM      2  O   UNL d   1       0.380  -0.894  -0.871  0.00  0.00    -0.197 OA
ATOM      3  O   UNL d   1       2.486   0.045   0.157  0.00  0.00    -0.197 OA
ENDROOT
BRANCH   1   4
ATOM      4  C   UNL d   1       0.451  -0.411   1.651  0.00  0.00     0.153 A 
ATOM      5  N   UNL d   1       0.696  -1.636   2.262  0.00  0.00    -0.336 N 
ATOM      6  C   UNL d   1       0.144  -1.660   3.539  0.00  0.00     0.111 A 
ATOM      7  C   UNL d   1       1.413  -2.755   1.675  0.00  0.00     0.157 C 
ATOM      8  C   UNL d   1      -0.487  -0.437   3.712  0.00  0.00     0.039 A 
ATOM      9  C   UNL d   1      -0.303   0.329   2.549  0.00  0.00     0.046 A 
BRANCH   6  10
ATOM     10  C   UNL d   1       0.224  -2.758   4.488  0.00  0.00     0.309 C 
ATOM     11  O   UNL d   1       0.782  -3.831   4.303  0.00  0.00    -0.258 OA
BRANCH  10  12
ATOM     12  O   UNL d   1      -0.420  -2.408   5.638  0.00  0.00    -0.321 OA
ATOM     13  C   UNL d   1      -0.409  -3.396   6.667  0.00  0.00     0.213 C 
ENDBRANCH  10  12
ENDBRANCH   6  10
ENDBRANCH   1   4
BRANCH   1  14
ATOM     14  N   UNL d   1       0.523   1.575  -0.321  0.00  0.00    -0.219 N 
ATOM     15  H   UNL d   1       0.070   2.152   0.392  0.00  0.00     0.200 HD
BRANCH  14  16
ATOM     16  N   UNL d   1       0.853   2.190  -1.588  0.00  0.00    -0.256 N 
ATOM     17  C   UNL d   1       0.417   3.481  -1.819  0.00  0.00     0.270 C 
ATOM     18  O   UNL d   1      -0.284   4.104  -1.025  0.00  0.00    -0.266 OA
ATOM     19  H   UNL d   1       1.339   1.622  -2.275  0.00  0.00     0.191 HD
BRANCH  17  20
ATOM     20  C   UNL d   1       0.830   4.093  -3.112  0.00  0.00     0.033 A 
ATOM     21  C   UNL d   1      -0.011   5.043  -3.707  0.00  0.00     0.019 A 
ATOM     22  C   UNL d   1       0.361   5.662  -4.905  0.00  0.00     0.025 A 
ATOM     23  C   UNL d   1       1.581   5.342  -5.500  0.00  0.00     0.034 A 
ATOM     24  C   UNL d   1       2.428   4.404  -4.911  0.00  0.00     0.025 A 
ATOM     25 CL   UNL d   1       2.053   6.120  -6.960  0.00  0.00    -0.084 Cl
ATOM     26  C   UNL d   1       2.055   3.778  -3.717  0.00  0.00     0.019 A 
ENDBRANCH  17  20
ENDBRANCH  14  16
ENDBRANCH   1  14
TORSDOF 6
