REMARK  6 active torsions:
REMARK  status: ('A' for Active; 'I' for Inactive)
REMARK    1  A    between atoms: C_4  and  C_1 
REMARK    2  A    between atoms: C_6  and  C_14 
REMARK    3  A    between atoms: S_22  and  C_9 
REMARK       I    between atoms: C_14  and  N_23 
REMARK    4  A    between atoms: C_31  and  S_22 
REMARK    5  A    between atoms: N_23  and  C_30 
REMARK    6  A    between atoms: C_30  and  C_31 
ROOT
ATOM      1  C   UNL d   1       2.026  -2.391   0.005  0.00  0.00     0.015 A 
ATOM      2  C   UNL d   1       2.841  -4.410  -1.098  0.00  0.00     0.079 A 
ATOM      3  N   UNL d   1       3.897  -3.644   0.911  0.00  0.00    -0.352 N 
ATOM      4  HN  UNL d   1       4.609  -3.759   1.632  1.00  0.00     0.166 HD
ATOM      5  C   UNL d   1       3.817  -4.524  -0.115  0.00  0.00     0.091 A 
ATOM      6  C   UNL d   1       1.951  -3.326  -1.037  0.00  0.00     0.041 A 
ATOM      7  C   UNL d   1       3.017  -2.603   0.973  0.00  0.00     0.018 A 
ATOM      8  C   UNL d   1       2.702  -5.352  -2.168  0.00  0.00     0.102 C 
ATOM      9  N   UNL d   1       2.535  -6.087  -3.049  0.00  0.00    -0.191 NA
ATOM     10  C   UNL d   1       3.187  -1.717   2.174  0.00  0.00     0.069 C 
ENDROOT
BRANCH   5  11
ATOM     11  S   UNL d   1       5.008  -5.859  -0.085  0.00  0.00    -0.109 SA
BRANCH  11  12
ATOM     12  C   UNL d   1       6.404  -5.047   0.780  0.00  0.00     0.100 C 
BRANCH  12  13
ATOM     13  C   UNL d   1       7.568  -6.027   0.956  0.00  0.00     0.133 C 
BRANCH  13  14
ATOM     14  N   UNL d   1       8.684  -5.431   1.678  0.00  0.00    -0.356 N 
ATOM     15  C   UNL d   1       9.695  -4.741   1.051  0.00  0.00     0.253 C 
ATOM     16  O   UNL d   1       9.730  -4.579  -0.166  0.00  0.00    -0.268 OA
ATOM     17  H   UNL d   1       8.708  -5.545   2.684  0.00  0.00     0.162 HD
BRANCH  15  18
ATOM     18  C   UNL d   1      10.737  -4.099   1.914  0.00  0.00     0.053 A 
ATOM     19  C   UNL d   1      11.094  -4.511   3.208  0.00  0.00     0.051 A 
ATOM     20  C   UNL d   1      12.005  -3.759   3.964  0.00  0.00     0.048 A 
ATOM     21 CL   UNL d   1      10.505  -5.957   3.952  0.00  0.00    -0.083 Cl
ATOM     22  C   UNL d   1      12.588  -2.616   3.425  0.00  0.00     0.035 A 
ATOM     23  C   UNL d   1      12.293  -2.226   2.123  0.00  0.00     0.025 A 
ATOM     24 CL   UNL d   1      13.678  -1.683   4.373  0.00  0.00    -0.084 Cl
ATOM     25  C   UNL d   1      11.373  -2.964   1.373  0.00  0.00     0.020 A 
ENDBRANCH  15  18
ENDBRANCH  13  14
ENDBRANCH  12  13
ENDBRANCH  11  12
ENDBRANCH   5  11
BRANCH   1  26
ATOM     26  C   UNL d   1       1.114  -1.250   0.045  0.00  0.00     0.051 A 
ATOM     27  N   UNL d   1       1.519  -0.019   0.534  0.00  0.00    -0.353 N 
ATOM     28  C   UNL d   1       0.536   0.853   0.465  0.00  0.00     0.047 A 
ATOM     29  HN  UNL d   1       2.451   0.183   0.897  1.00  0.00     0.166 HD
ATOM     30  C   UNL d   1       0.632   2.267   0.918  0.00  0.00     0.076 C 
ATOM     31  S   UNL d   1      -0.929   0.256  -0.200  0.00  0.00    -0.087 SA
ATOM     32  C   UNL d   1      -0.196  -1.283  -0.398  0.00  0.00     0.081 A 
ENDBRANCH   1  26
TORSDOF 6
