REMARK  4 active torsions:
REMARK  status: ('A' for Active; 'I' for Inactive)
REMARK    1  A    between atoms: C_3  and  N_6 
REMARK    2  A    between atoms: N_5  and  C_4 
REMARK       I    between atoms: C_8  and  N_5 
REMARK       I    between atoms: N_6  and  C_7 
REMARK    3  A    between atoms: C_7  and  C_10 
REMARK    4  A    between atoms: C_9  and  C_8 
ROOT
ATOM      1  C   UNL d   1       1.037   2.888  -0.445  0.00  0.00     0.080 C 
ATOM      2  C   UNL d   1       1.485   1.670  -0.787  0.00  0.00     0.080 C 
ENDROOT
BRANCH   1   3
ATOM      3  C   UNL d   1      -0.396   3.223  -0.648  0.00  0.00     0.245 C 
ATOM      4  N   UNL d   1      -0.685   4.519  -0.275  0.00  0.00    -0.322 N 
ATOM      5  H   UNL d   1       0.097   5.161  -0.248  0.00  0.00     0.169 HD
ATOM      6  O   UNL d   1      -1.159   2.425  -1.175  0.00  0.00    -0.268 OA
BRANCH   4   7
ATOM      7  C   UNL d   1      -1.978   5.096  -0.322  0.00  0.00     0.058 A 
ATOM      8  C   UNL d   1      -3.175   4.450   0.059  0.00  0.00     0.082 A 
ATOM      9  C   UNL d   1      -4.402   5.111  -0.127  0.00  0.00     0.058 A 
ATOM     10 CL   UNL d   1      -3.147   2.960   0.959  0.00  0.00    -0.080 Cl
ATOM     11 CL   UNL d   1      -5.926   4.389   0.272  0.00  0.00    -0.082 Cl
ATOM     12  C   UNL d   1      -4.437   6.415  -0.632  0.00  0.00     0.026 A 
ATOM     13  C   UNL d   1      -3.252   7.082  -0.925  0.00  0.00     0.004 A 
ATOM     14  C   UNL d   1      -2.030   6.429  -0.761  0.00  0.00     0.031 A 
ENDBRANCH   4   7
ENDBRANCH   1   3
BRANCH   2  15
ATOM     15  C   UNL d   1       2.883   1.316  -0.467  0.00  0.00     0.245 C 
ATOM     16  N   UNL d   1       3.354   0.266  -1.221  0.00  0.00    -0.322 N 
ATOM     17  H   UNL d   1       2.840   0.013  -2.061  0.00  0.00     0.169 HD
ATOM     18  O   UNL d   1       3.517   1.956   0.367  0.00  0.00    -0.268 OA
BRANCH  16  19
ATOM     19  C   UNL d   1       4.601  -0.389  -1.048  0.00  0.00     0.058 A 
ATOM     20  C   UNL d   1       5.152  -1.132  -2.112  0.00  0.00     0.082 A 
ATOM     21  C   UNL d   1       6.383  -1.784  -1.946  0.00  0.00     0.058 A 
ATOM     22 CL   UNL d   1       4.304  -1.192  -3.629  0.00  0.00    -0.080 Cl
ATOM     23 CL   UNL d   1       7.147  -2.668  -3.223  0.00  0.00    -0.082 Cl
ATOM     24  C   UNL d   1       7.049  -1.730  -0.719  0.00  0.00     0.026 A 
ATOM     25  C   UNL d   1       6.494  -1.023   0.343  0.00  0.00     0.004 A 
ATOM     26  C   UNL d   1       5.281  -0.351   0.175  0.00  0.00     0.031 A 
ENDBRANCH  16  19
ENDBRANCH   2  15
TORSDOF 4
