REMARK  4 active torsions:
REMARK  status: ('A' for Active; 'I' for Inactive)
REMARK    1  A    between atoms: C_8  and  C_3 
REMARK    2  A    between atoms: C_9  and  C_4 
REMARK    3  A    between atoms: C_6  and  O_10 
REMARK    4  A    between atoms: O_10  and  C_18 
ROOT
ATOM      1  N   UNL d   1       1.401  -0.580  -0.050  0.00  0.00    -0.349 N 
ATOM      2  HN  UNL d   1       2.286  -1.087  -0.073  1.00  0.00     0.166 HD
ATOM      3  C   UNL d   1       0.208  -1.147  -0.053  0.00  0.00     0.084 A 
ATOM      4  C   UNL d   1       1.281   0.803  -0.010  0.00  0.00     0.050 A 
ATOM      5  S   UNL d   1      -1.113  -0.042   0.013  0.00  0.00    -0.081 SA
ATOM      6  C   UNL d   1      -0.018   1.268   0.019  0.00  0.00     0.082 A 
ENDROOT
BRANCH   3   7
ATOM      7  C   UNL d   1      -0.026  -2.600  -0.049  0.00  0.00    -0.002 A 
ATOM      8  C   UNL d   1       0.889  -3.444   0.597  0.00  0.00     0.017 A 
ATOM      9  C   UNL d   1       0.691  -4.832   0.643  0.00  0.00     0.038 A 
ATOM     10  C   UNL d   1      -0.402  -5.403  -0.001  0.00  0.00     0.078 A 
ATOM     11  C   UNL d   1      -1.327  -4.571  -0.634  0.00  0.00     0.038 A 
ATOM     12  C   UNL d   1      -1.141  -3.186  -0.667  0.00  0.00     0.017 A 
BRANCH  10  13
ATOM     13  O   UNL d   1      -0.720  -6.726  -0.019  0.00  0.00    -0.255 OA
BRANCH  13  14
ATOM     14  C   UNL d   1       0.316  -7.697  -0.064  0.00  0.00     0.530 C 
ATOM     15  F   UNL d   1       1.562  -7.188  -0.132  0.00  0.00    -0.144 F 
ATOM     16  F   UNL d   1       0.229  -8.484   1.031  0.00  0.00    -0.144 F 
ATOM     17  F   UNL d   1       0.127  -8.476  -1.154  0.00  0.00    -0.144 F 
ENDBRANCH  13  14
ENDBRANCH  10  13
ENDBRANCH   3   7
BRANCH   4  18
ATOM     18  C   UNL d   1       2.450   1.674  -0.041  0.00  0.00    -0.009 A 
ATOM     19  C   UNL d   1       3.607   1.269  -0.717  0.00  0.00     0.015 A 
ATOM     20  C   UNL d   1       4.719   2.113  -0.800  0.00  0.00     0.020 A 
ATOM     21  C   UNL d   1       4.677   3.372  -0.203  0.00  0.00     0.011 A 
ATOM     22  C   UNL d   1       3.545   3.781   0.495  0.00  0.00     0.020 A 
ATOM     23 BR   UNL d   1       6.166   4.528  -0.338  0.00  0.00    -0.051 Br
ATOM     24  C   UNL d   1       2.439   2.935   0.578  0.00  0.00     0.015 A 
ENDBRANCH   4  18
TORSDOF 4
