REMARK  2 active torsions:
REMARK  status: ('A' for Active; 'I' for Inactive)
REMARK    1  A    between atoms: C_7  and  N_1 
REMARK    2  A    between atoms: S_13  and  C_2 
ROOT
ATOM      1  N   UNL d   1       2.445  -0.620  -0.051  0.00  0.00    -0.255 N 
ATOM      2  C   UNL d   1       2.328   0.770   0.023  0.00  0.00     0.152 A 
ATOM      3  C   UNL d   1       1.297  -1.421  -0.052  0.00  0.00     0.267 A 
ATOM      4  N   UNL d   1       1.200   1.402   0.076  0.00  0.00    -0.336 N 
ATOM      5  HN  UNL d   1       1.178   2.420   0.142  1.00  0.00     0.168 HD
ATOM      6  C   UNL d   1      -0.000  -0.722  -0.002  0.00  0.00     0.059 A 
ATOM      7  C   UNL d   1       0.014   0.666   0.043  0.00  0.00     0.049 A 
ATOM      8  O   UNL d   1       1.295  -2.652  -0.083  0.00  0.00    -0.267 OA
ATOM      9  C   UNL d   1      -1.210  -1.429  -0.032  0.00  0.00     0.019 A 
ATOM     10  C   UNL d   1      -1.201   1.356   0.022  0.00  0.00     0.030 A 
ATOM     11  C   UNL d   1      -2.417  -0.732  -0.045  0.00  0.00     0.001 A 
ATOM     12  C   UNL d   1      -2.413   0.663  -0.028  0.00  0.00     0.002 A 
ENDROOT
BRANCH   1  13
ATOM     13  C   UNL d   1       3.697  -1.300  -0.156  0.00  0.00     0.083 A 
ATOM     14  C   UNL d   1       4.687  -1.181   0.830  0.00  0.00     0.146 A 
ATOM     15  C   UNL d   1       5.929  -1.787   0.680  0.00  0.00     0.086 A 
ATOM     16  F   UNL d   1       4.446  -0.478   1.946  0.00  0.00    -0.204 F 
ATOM     17  C   UNL d   1       6.178  -2.538  -0.461  0.00  0.00     0.119 A 
ATOM     18  C   UNL d   1       5.201  -2.710  -1.436  0.00  0.00     0.045 A 
ATOM     19  F   UNL d   1       7.380  -3.104  -0.629  0.00  0.00    -0.206 F 
ATOM     20  C   UNL d   1       3.955  -2.101  -1.279  0.00  0.00     0.036 A 
ENDBRANCH   1  13
BRANCH   2  21
ATOM     21  S   UNL d   1       3.733   1.825  -0.066  0.00  0.00    -0.106 SA
ATOM     22  H   UNL d   1       4.619   0.967  -0.576  0.00  0.00     0.110 HD
ENDBRANCH   2  21
TORSDOF 2
