REMARK  7 active torsions:
REMARK  status: ('A' for Active; 'I' for Inactive)
REMARK    1  A    between atoms: C_2  and  C_1 
REMARK    2  A    between atoms: C_10  and  C_2 
REMARK    3  A    between atoms: N_11  and  N_5 
REMARK    4  A    between atoms: N_13  and  C_7 
REMARK    5  A    between atoms: O_15  and  C_10 
REMARK    6  A    between atoms: C_14  and  N_11 
REMARK    7  A    between atoms: C_21  and  O_15 
ROOT
ATOM      1  C   UNL d   1      -2.009  -2.474   0.041  0.00  0.00     0.151 C 
ATOM      2  N   UNL d   1      -3.306  -2.345   0.163  0.00  0.00    -0.293 N 
ATOM      3  HN  UNL d   1      -3.903  -3.164   0.279  1.00  0.00     0.187 HD
ENDROOT
BRANCH   1   4
ATOM      4  C   UNL d   1      -1.478  -3.841   0.021  0.00  0.00     0.075 A 
ATOM      5  N   UNL d   1      -0.110  -4.092  -0.064  0.00  0.00    -0.335 N 
ATOM      6  C   UNL d   1       0.135  -5.375  -0.007  0.00  0.00     0.142 A 
ATOM      7  HN  UNL d   1       0.605  -3.371  -0.157  1.00  0.00     0.168 HD
ATOM      8  S   UNL d   1      -1.251  -6.380   0.040  0.00  0.00    -0.064 SA
ATOM      9  C   UNL d   1      -2.250  -4.989   0.061  0.00  0.00     0.085 A 
BRANCH   6  10
ATOM     10  N   UNL d   1       1.377  -5.878   0.004  0.00  0.00    -0.380 N 
ATOM     11  H   UNL d   1       2.129  -5.247  -0.246  0.00  0.00     0.158 HD
ATOM     12  H   UNL d   1       1.521  -6.847  -0.244  0.00  0.00     0.158 HD
ENDBRANCH   6  10
ENDBRANCH   1   4
BRANCH   1  13
ATOM     13  C   UNL d   1      -1.071  -1.278  -0.140  0.00  0.00     0.313 C 
ATOM     14  O   UNL d   1      -1.372  -0.326  -0.847  0.00  0.00    -0.257 OA
BRANCH  13  15
ATOM     15  O   UNL d   1       0.092  -1.462   0.513  0.00  0.00    -0.317 OA
BRANCH  15  16
ATOM     16  C   UNL d   1       1.199  -0.689   0.033  0.00  0.00     0.175 C 
ATOM     17  C   UNL d   1       1.764  -1.334  -1.224  0.00  0.00     0.034 C 
ENDBRANCH  15  16
ENDBRANCH  13  15
ENDBRANCH   1  13
BRANCH   2  18
ATOM     18  N   UNL d   1      -3.840  -1.089   0.133  0.00  0.00    -0.300 N 
ATOM     19  H   UNL d   1      -3.335  -0.346  -0.365  0.00  0.00     0.187 HD
BRANCH  18  20
ATOM     20  C   UNL d   1      -5.244  -0.961   0.010  0.00  0.00     0.048 A 
ATOM     21  C   UNL d   1      -6.122  -2.040   0.180  0.00  0.00     0.037 A 
ATOM     22  C   UNL d   1      -7.515  -1.868   0.117  0.00  0.00    -0.060 A 
ATOM     23  C   UNL d   1      -8.444  -3.034   0.281  0.00  0.00     0.048 C 
ATOM     24  C   UNL d   1      -8.034  -0.587  -0.092  0.00  0.00     0.007 A 
ATOM     25  C   UNL d   1      -7.178   0.502  -0.232  0.00  0.00     0.003 A 
ATOM     26  C   UNL d   1      -5.794   0.317  -0.172  0.00  0.00     0.031 A 
ENDBRANCH  18  20
ENDBRANCH   2  18
TORSDOF 7
