REMARK  3 active torsions:
REMARK  status: ('A' for Active; 'I' for Inactive)
REMARK    1  A    between atoms: C_5  and  C_1 
REMARK    2  A    between atoms: C_8  and  C_4 
REMARK       I    between atoms: N_13  and  C_5 
REMARK    3  A    between atoms: N_15  and  N_13 
ROOT
ATOM      1  C   UNL d   1       1.327   0.800  -0.060  0.00  0.00     0.109 A 
ATOM      2  N   UNL d   1       1.440  -0.596  -0.021  0.00  0.00    -0.345 N 
ATOM      3  HN  UNL d   1       2.321  -1.110  -0.007  1.00  0.00     0.167 HD
ATOM      4  C   UNL d   1       0.238  -1.153  -0.005  0.00  0.00     0.091 A 
ATOM      5  S   UNL d   1      -1.073  -0.032  -0.010  0.00  0.00    -0.080 SA
ATOM      6  C   UNL d   1       0.029   1.269  -0.050  0.00  0.00     0.087 A 
ENDROOT
BRANCH   1   7
ATOM      7  C   UNL d   1       2.493   1.682  -0.120  0.00  0.00     0.282 C 
ATOM      8  O   UNL d   1       2.412   2.908  -0.201  0.00  0.00    -0.265 OA
ATOM      9  N   UNL d   1       3.707   1.006  -0.093  0.00  0.00    -0.288 N 
ATOM     10  H   UNL d   1       3.690  -0.003   0.063  0.00  0.00     0.183 HD
BRANCH   9  11
ATOM     11  N   UNL d   1       4.930   1.717  -0.105  0.00  0.00    -0.247 NA
ATOM     12  H   UNL d   1       4.697   2.717  -0.004  0.00  0.00     0.143 HD
ATOM     13  H   UNL d   1       5.324   1.649  -1.047  0.00  0.00     0.143 HD
ENDBRANCH   9  11
ENDBRANCH   1   7
BRANCH   4  14
ATOM     14  C   UNL d   1       0.058  -2.590   0.014  0.00  0.00     0.038 A 
ATOM     15  S   UNL d   1      -1.486  -3.352  -0.045  0.00  0.00    -0.099 SA
ATOM     16  C   UNL d   1      -0.809  -4.918   0.015  0.00  0.00     0.050 A 
ATOM     17  C   UNL d   1       0.564  -4.882   0.077  0.00  0.00     0.008 A 
ATOM     18  C   UNL d   1       1.061  -3.542   0.074  0.00  0.00     0.022 A 
ENDBRANCH   4  14
TORSDOF 3
