REMARK  1 active torsions:
REMARK  status: ('A' for Active; 'I' for Inactive)
REMARK    1  A    between atoms: C_15  and  C_7 
ROOT
ATOM      1  N   UNL d   1      -0.956  -1.621  -0.665  0.00  0.00    -0.283 N 
ATOM      2  C   UNL d   1      -1.611  -0.566  -0.090  0.00  0.00     0.050 A 
ATOM      3  C   UNL d   1      -0.851   0.570  -0.130  0.00  0.00    -0.019 A 
ATOM      4  C   UNL d   1      -1.477  -2.940  -0.689  0.00  0.00     0.229 C 
ATOM      5  C   UNL d   1       0.341  -1.194  -0.943  0.00  0.00     0.053 A 
ATOM      6  C   UNL d   1      -2.882  -0.766   0.630  0.00  0.00     0.139 C 
ATOM      7  C   UNL d   1      -2.730  -2.111   1.409  0.00  0.00    -0.007 C 
ATOM      8  C   UNL d   1       0.420   0.173  -0.613  0.00  0.00    -0.001 A 
ATOM      9  N   UNL d   1      -3.295   0.419   1.359  0.00  0.00    -0.402 N 
ATOM     10  C   UNL d   1      -2.688  -3.160   0.240  0.00  0.00     0.115 C 
ATOM     11  C   UNL d   1      -1.338   1.832   0.495  0.00  0.00     0.061 C 
ATOM     12  O   UNL d   1      -0.953  -3.809  -1.373  0.00  0.00    -0.273 OA
ATOM     13  C   UNL d   1      -2.846   1.719   0.851  0.00  0.00     0.122 C 
ATOM     14  C   UNL d   1      -3.963  -2.275   2.317  0.00  0.00     0.014 C 
ATOM     15  C   UNL d   1       1.483  -1.917  -1.329  0.00  0.00     0.031 A 
ATOM     16  C   UNL d   1      -3.596   0.284   2.758  0.00  0.00     0.117 C 
ATOM     17  C   UNL d   1       1.663   0.830  -0.698  0.00  0.00     0.014 A 
ATOM     18  C   UNL d   1      -4.419  -0.983   3.024  0.00  0.00     0.020 C 
ATOM     19  C   UNL d   1       2.712  -1.253  -1.350  0.00  0.00     0.002 A 
ATOM     20  C   UNL d   1       2.804   0.101  -1.045  0.00  0.00     0.001 A 
ENDROOT
BRANCH   7  21
ATOM     21  C   UNL d   1      -1.426  -2.426   2.256  0.00  0.00     0.008 C 
ATOM     22  C   UNL d   1      -0.828  -1.391   3.184  0.00  0.00     0.006 C 
ENDBRANCH   7  21
TORSDOF 1
