REMARK  5 active torsions:
REMARK  status: ('A' for Active; 'I' for Inactive)
REMARK    1  A    between atoms: C_5  and  C_1 
REMARK    2  A    between atoms: N_10  and  C_2 
REMARK       I    between atoms: C_8  and  N_10 
REMARK       I    between atoms: N_11  and  C_8 
REMARK    3  A    between atoms: C_9  and  N_12 
REMARK    4  A    between atoms: S_17  and  C_9 
REMARK    5  A    between atoms: N_12  and  N_11 
ROOT
ATOM      1  C   UNL d   1      -1.616  -1.154   1.039  0.00  0.00     0.097 C 
ATOM      2  C   UNL d   1      -0.198  -1.014   0.864  0.00  0.00     0.097 C 
ATOM      3  N   UNL d   1      -2.134   0.034   1.406  0.00  0.00    -0.258 N 
ATOM      4  HN  UNL d   1      -3.101   0.215   1.677  1.00  0.00     0.195 HD
ATOM      5  C   UNL d   1       0.014   0.344   0.952  0.00  0.00     0.101 C 
ATOM      6  O   UNL d   1      -1.122   0.953   1.348  0.00  0.00    -0.240 OA
ATOM      7  C   UNL d   1       1.169   1.222   0.697  0.00  0.00     0.081 C 
ENDROOT
BRANCH   2   8
ATOM      8  N   UNL d   1       0.811  -1.853   0.430  0.00  0.00    -0.303 N 
ATOM      9  C   UNL d   1       1.039  -3.157   0.667  0.00  0.00     0.335 C 
ATOM     10  N   UNL d   1       0.990  -3.705   1.901  0.00  0.00    -0.265 N 
ATOM     11  O   UNL d   1       1.493  -3.848  -0.254  0.00  0.00    -0.246 OA
ATOM     12  H   UNL d   1       1.280  -4.682   1.937  0.00  0.00     0.186 HD
ATOM     13  H   UNL d   1       1.169  -1.593  -0.481  0.00  0.00     0.171 HD
BRANCH  10  14
ATOM     14  N   UNL d   1       0.571  -3.161   3.143  0.00  0.00    -0.180 NA
ATOM     15  C   UNL d   1       1.533  -2.167   3.644  0.00  0.00     0.144 C 
BRANCH  14  16
ATOM     16  C   UNL d   1       0.084  -4.128   4.059  0.00  0.00     0.133 C 
ATOM     17  S   UNL d   1       0.332  -5.791   3.870  0.00  0.00    -0.057 SA
BRANCH  16  18
ATOM     18  S   UNL d   1      -0.788  -3.433   5.427  0.00  0.00    -0.109 SA
ATOM     19  C   UNL d   1      -2.135  -4.622   5.639  0.00  0.00     0.097 C 
ENDBRANCH  16  18
ENDBRANCH  14  16
ENDBRANCH  10  14
ENDBRANCH   2   8
BRANCH   1  20
ATOM     20  C   UNL d   1      -2.574  -2.203   0.655  0.00  0.00     0.038 A 
ATOM     21  C   UNL d   1      -3.668  -2.517   1.491  0.00  0.00     0.048 A 
ATOM     22 CL   UNL d   1      -3.773  -2.001   3.146  0.00  0.00    -0.083 Cl
ATOM     23  C   UNL d   1      -4.760  -3.260   1.015  0.00  0.00     0.025 A 
ATOM     24  C   UNL d   1      -4.767  -3.747  -0.286  0.00  0.00     0.003 A 
ATOM     25  C   UNL d   1      -3.675  -3.502  -1.111  0.00  0.00     0.025 A 
ATOM     26  C   UNL d   1      -2.598  -2.723  -0.658  0.00  0.00     0.048 A 
ATOM     27 CL   UNL d   1      -1.401  -2.360  -1.859  0.00  0.00    -0.083 Cl
ENDBRANCH   1  20
TORSDOF 5
