REMARK  6 active torsions:
REMARK  status: ('A' for Active; 'I' for Inactive)
REMARK    1  A    between atoms: C_9  and  N_1 
REMARK    2  A    between atoms: C_10  and  C_2 
REMARK    3  A    between atoms: S_12  and  C_5 
REMARK    4  A    between atoms: C_8  and  O_11 
REMARK    5  A    between atoms: O_11  and  C_20 
REMARK    6  A    between atoms: O_26  and  C_21 
ROOT
ATOM      1  N   UNL d   1      -0.269  -1.300  -0.002  0.00  0.00    -0.275 N 
ATOM      2  C   UNL d   1       0.993  -0.691   0.021  0.00  0.00     0.139 A 
ATOM      3  N   UNL d   1       0.828   0.623   0.088  0.00  0.00    -0.282 N 
ATOM      4  HN  UNL d   1       1.575   1.310   0.186  1.00  0.00     0.188 HD
ATOM      5  C   UNL d   1      -1.152  -0.233  -0.066  0.00  0.00     0.165 A 
ATOM      6  N   UNL d   1      -0.502   0.904   0.006  0.00  0.00    -0.278 N 
ATOM      7  HN  UNL d   1      -0.920   1.834   0.001  1.00  0.00     0.189 HD
ENDROOT
BRANCH   2   8
ATOM      8  C   UNL d   1       2.312  -1.319  -0.090  0.00  0.00     0.010 A 
ATOM      9  C   UNL d   1       2.559  -2.406  -0.945  0.00  0.00     0.018 A 
ATOM     10  C   UNL d   1       3.819  -3.013  -1.001  0.00  0.00     0.038 A 
ATOM     11  C   UNL d   1       4.859  -2.535  -0.210  0.00  0.00     0.078 A 
ATOM     12  C   UNL d   1       4.651  -1.394   0.570  0.00  0.00     0.038 A 
ATOM     13  C   UNL d   1       3.390  -0.796   0.634  0.00  0.00     0.018 A 
BRANCH  11  14
ATOM     14  O   UNL d   1       6.120  -3.043  -0.153  0.00  0.00    -0.255 OA
BRANCH  14  15
ATOM     15  C   UNL d   1       6.308  -4.440  -0.328  0.00  0.00     0.530 C 
ATOM     16  F   UNL d   1       5.169  -5.162  -0.254  0.00  0.00    -0.144 F 
ATOM     17  F   UNL d   1       6.896  -4.672  -1.521  0.00  0.00    -0.144 F 
ATOM     18  F   UNL d   1       7.136  -4.883   0.645  0.00  0.00    -0.144 F 
ENDBRANCH  14  15
ENDBRANCH  11  14
ENDBRANCH   2   8
BRANCH   1  19
ATOM     19  C   UNL d   1      -0.545  -2.703   0.042  0.00  0.00     0.043 A 
ATOM     20  C   UNL d   1       0.230  -3.545   0.854  0.00  0.00     0.033 A 
ATOM     21  C   UNL d   1       0.028  -4.931   0.840  0.00  0.00     0.039 A 
ATOM     22  C   UNL d   1      -0.967  -5.483   0.038  0.00  0.00     0.068 A 
ATOM     23  C   UNL d   1      -1.771  -4.642  -0.734  0.00  0.00     0.039 A 
ATOM     24  C   UNL d   1      -1.551  -3.261  -0.752  0.00  0.00     0.033 A 
BRANCH  22  25
ATOM     25  O   UNL d   1      -1.270  -6.814  -0.039  0.00  0.00    -0.356 OA
ATOM     26  C   UNL d   1      -0.172  -7.705   0.125  0.00  0.00     0.210 C 
ENDBRANCH  22  25
ENDBRANCH   1  19
BRANCH   5  27
ATOM     27  S   UNL d   1      -2.889  -0.296  -0.056  0.00  0.00    -0.105 SA
ATOM     28  H   UNL d   1      -3.080  -1.543   0.391  0.00  0.00     0.110 HD
ENDBRANCH   5  27
TORSDOF 6
