REMARK  2 active torsions:
REMARK  status: ('A' for Active; 'I' for Inactive)
REMARK    1  A    between atoms: N_8  and  C_2 
REMARK    2  A    between atoms: C_9  and  C_3 
ROOT
ATOM      1  C   UNL d   1      -0.751  -0.020  -0.022  0.00  0.00     0.089 A 
ATOM      2  C   UNL d   1       0.122   1.070  -0.010  0.00  0.00     0.093 A 
ATOM      3  C   UNL d   1      -0.095  -1.312  -0.029  0.00  0.00     0.004 A 
ATOM      4  S   UNL d   1       1.752   0.481  -0.026  0.00  0.00    -0.082 SA
ATOM      5  C   UNL d   1       1.276  -1.148  -0.020  0.00  0.00     0.065 A 
ATOM      6  C   UNL d   1      -2.174   0.129   0.018  0.00  0.00     0.103 C 
ATOM      7  N   UNL d   1      -3.333   0.228   0.060  0.00  0.00    -0.191 NA
ENDROOT
BRANCH   2   8
ATOM      8  N   UNL d   1      -0.153   2.422   0.019  0.00  0.00    -0.383 N 
ATOM      9  C   UNL d   1       0.774   3.397   0.588  0.00  0.00     0.149 C 
ATOM     10  C   UNL d   1      -1.306   3.013  -0.653  0.00  0.00     0.149 C 
ENDBRANCH   2   8
BRANCH   3  11
ATOM     11  C   UNL d   1      -0.690  -2.659  -0.002  0.00  0.00    -0.024 A 
ATOM     12  C   UNL d   1      -0.093  -3.729  -0.693  0.00  0.00     0.014 A 
ATOM     13  C   UNL d   1      -0.652  -5.013  -0.649  0.00  0.00     0.024 A 
ATOM     14  C   UNL d   1      -1.823  -5.237   0.067  0.00  0.00     0.034 A 
ATOM     15  C   UNL d   1      -2.436  -4.191   0.746  0.00  0.00     0.024 A 
ATOM     16 CL   UNL d   1      -2.508  -6.813   0.128  0.00  0.00    -0.084 Cl
ATOM     17  C   UNL d   1      -1.862  -2.915   0.724  0.00  0.00     0.014 A 
ENDBRANCH   3  11
TORSDOF 2
