REMARK  4 active torsions:
REMARK  status: ('A' for Active; 'I' for Inactive)
REMARK    1  A    between atoms: C_4  and  N_1 
REMARK    2  A    between atoms: N_5  and  C_2 
REMARK    3  A    between atoms: C_3  and  C_7 
REMARK       I    between atoms: C_6  and  N_5 
REMARK    4  A    between atoms: C_12  and  C_6 
ROOT
ATOM      1  C   UNL d   1       4.636   0.948   0.382  0.00  0.00     0.062 A 
ATOM      2  C   UNL d   1       3.385   1.429   0.832  0.00  0.00     0.057 A 
ATOM      3  C   UNL d   1       5.811   2.672   1.677  0.00  0.00     0.050 A 
ATOM      4  C   UNL d   1       5.825   1.560   0.826  0.00  0.00     0.048 A 
ATOM      5  C   UNL d   1       3.393   2.600   1.620  0.00  0.00     0.032 A 
ATOM      6  C   UNL d   1       4.579   3.212   2.039  0.00  0.00     0.018 A 
ENDROOT
BRANCH   1   7
ATOM      7  N   UNL d   1       4.705  -0.145  -0.525  0.00  0.00    -0.321 N 
ATOM      8  C   UNL d   1       5.776  -0.999  -0.643  0.00  0.00     0.256 C 
ATOM      9  O   UNL d   1       6.652  -1.132   0.213  0.00  0.00    -0.267 OA
ATOM     10  H   UNL d   1       3.859  -0.347  -1.023  0.00  0.00     0.169 HD
BRANCH   8  11
ATOM     11  C   UNL d   1       5.896  -1.801  -1.900  0.00  0.00     0.032 A 
ATOM     12  C   UNL d   1       7.005  -2.664  -1.998  0.00  0.00     0.020 A 
ATOM     13  C   UNL d   1       7.299  -3.322  -3.191  0.00  0.00     0.043 A 
ATOM     14  C   UNL d   1       6.477  -3.134  -4.291  0.00  0.00     0.116 A 
ATOM     15  C   UNL d   1       5.350  -2.323  -4.207  0.00  0.00     0.043 A 
ATOM     16  F   UNL d   1       6.784  -3.722  -5.453  0.00  0.00    -0.206 F 
ATOM     17  C   UNL d   1       5.058  -1.649  -3.011  0.00  0.00     0.020 A 
ENDBRANCH   8  11
ENDBRANCH   1   7
BRANCH   2  18
ATOM     18  N   UNL d   1       2.205   0.676   0.707  0.00  0.00    -0.374 N 
ATOM     19  C   UNL d   1       1.537   0.516  -0.592  0.00  0.00     0.162 C 
ATOM     20  C   UNL d   1       0.052   0.204  -0.482  0.00  0.00    -0.034 A 
ATOM     21  C   UNL d   1      -0.807   0.448  -1.560  0.00  0.00     0.009 A 
ATOM     22  C   UNL d   1      -0.469  -0.402   0.679  0.00  0.00    -0.049 A 
ATOM     23  C   UNL d   1      -2.160   0.111  -1.474  0.00  0.00     0.001 A 
ATOM     24  C   UNL d   1      -2.660  -0.507  -0.328  0.00  0.00     0.001 A 
ATOM     25  C   UNL d   1      -1.815  -0.773   0.745  0.00  0.00     0.008 A 
ATOM     26  C   UNL d   1       0.444  -0.595   1.856  0.00  0.00     0.059 C 
ATOM     27  C   UNL d   1       1.372   0.614   1.921  0.00  0.00     0.128 C 
ENDBRANCH   2  18
BRANCH   3  28
ATOM     28  C   UNL d   1       7.089   3.269   2.212  0.00  0.00     0.417 C 
ATOM     29  F   UNL d   1       8.221   2.704   1.710  0.00  0.00    -0.166 F 
ATOM     30  F   UNL d   1       7.190   4.602   1.944  0.00  0.00    -0.166 F 
ATOM     31  F   UNL d   1       7.185   3.159   3.567  0.00  0.00    -0.166 F 
ENDBRANCH   3  28
TORSDOF 4
