REMARK  6 active torsions:
REMARK  status: ('A' for Active; 'I' for Inactive)
REMARK    1  A    between atoms: S_8  and  C_2 
REMARK    2  A    between atoms: C_6  and  C_4 
REMARK    3  A    between atoms: O_13  and  C_6 
REMARK    4  A    between atoms: C_12  and  S_8 
REMARK    5  A    between atoms: C_15  and  C_12 
REMARK    6  A    between atoms: C_23  and  O_13 
ROOT
ATOM      1  C   UNL d   1       0.529   0.658  -0.079  0.00  0.00     0.041 A 
ATOM      2  C   UNL d   1       1.901   0.872  -0.137  0.00  0.00     0.057 A 
ATOM      3  C   UNL d   1       0.198  -0.756  -0.046  0.00  0.00    -0.019 A 
ATOM      4  C   UNL d   1       1.326  -1.561  -0.010  0.00  0.00     0.088 A 
ATOM      5  S   UNL d   1       2.747  -0.615  -0.124  0.00  0.00    -0.076 SA
ATOM      6  C   UNL d   1      -0.528   1.679  -0.029  0.00  0.00     0.162 C 
ATOM      7  O   UNL d   1      -0.326   2.884  -0.171  0.00  0.00    -0.292 OA
ATOM      8  C   UNL d   1      -1.230  -1.238   0.019  0.00  0.00     0.042 C 
ATOM      9  C   UNL d   1      -1.931   1.175   0.283  0.00  0.00     0.084 C 
ATOM     10  C   UNL d   1      -2.214  -0.150  -0.418  0.00  0.00     0.012 C 
ENDROOT
BRANCH   2  11
ATOM     11  S   UNL d   1       2.754   2.428  -0.114  0.00  0.00    -0.117 SA
BRANCH  11  12
ATOM     12  C   UNL d   1       4.300   2.104  -1.010  0.00  0.00     0.118 C 
BRANCH  12  13
ATOM     13  C   UNL d   1       5.140   3.353  -1.191  0.00  0.00    -0.049 A 
ATOM     14  C   UNL d   1       6.104   3.715  -0.237  0.00  0.00     0.009 A 
ATOM     15  C   UNL d   1       6.897   4.854  -0.419  0.00  0.00     0.024 A 
ATOM     16  C   UNL d   1       6.726   5.642  -1.556  0.00  0.00     0.034 A 
ATOM     17  C   UNL d   1       5.766   5.305  -2.506  0.00  0.00     0.024 A 
ATOM     18 CL   UNL d   1       7.708   7.037  -1.786  0.00  0.00    -0.084 Cl
ATOM     19  C   UNL d   1       4.972   4.169  -2.320  0.00  0.00     0.009 A 
ENDBRANCH  12  13
ENDBRANCH  11  12
ENDBRANCH   2  11
BRANCH   4  20
ATOM     20  C   UNL d   1       1.391  -3.007   0.176  0.00  0.00     0.300 C 
ATOM     21  O   UNL d   1       0.422  -3.736   0.363  0.00  0.00    -0.259 OA
BRANCH  20  22
ATOM     22  O   UNL d   1       2.686  -3.432   0.221  0.00  0.00    -0.317 OA
BRANCH  22  23
ATOM     23  C   UNL d   1       2.918  -4.671   0.902  0.00  0.00     0.174 C 
ATOM     24  C   UNL d   1       3.013  -4.381   2.390  0.00  0.00     0.034 C 
ENDBRANCH  22  23
ENDBRANCH  20  22
ENDBRANCH   4  20
TORSDOF 6
