REMARK  1 active torsions:
REMARK  status: ('A' for Active; 'I' for Inactive)
REMARK    1  A    between atoms: C_8  and  N_2 
ROOT
ATOM      1  C   UNL d   1       2.545   0.023  -0.044  0.00  0.00     0.150 A 
ATOM      2  N   UNL d   1       1.658  -1.062   0.049  0.00  0.00    -0.291 N 
ATOM      3  S   UNL d   1       1.712   1.595   0.046  0.00  0.00    -0.052 SA
ATOM      4  C   UNL d   1       0.294  -0.620   0.064  0.00  0.00     0.059 A 
ATOM      5  C   UNL d   1       0.143   0.778   0.029  0.00  0.00     0.035 A 
ATOM      6  N   UNL d   1       3.818   0.085  -0.234  0.00  0.00    -0.379 N 
ATOM      7  HN  UNL d   1       4.365   0.946  -0.258  1.00  0.00     0.158 HD
ATOM      8  C   UNL d   1      -0.858  -1.401   0.134  0.00  0.00     0.031 A 
ATOM      9  C   UNL d   1      -1.097   1.401  -0.002  0.00  0.00     0.021 A 
ATOM     10  C   UNL d   1      -2.119  -0.788   0.087  0.00  0.00     0.002 A 
ATOM     11  C   UNL d   1      -2.238   0.604   0.010  0.00  0.00     0.002 A 
ATOM     12  H   UNL d   1       4.199  -0.852  -0.358  0.00  0.00     0.158 HD
ENDROOT
BRANCH   2  13
ATOM     13  C   UNL d   1       2.127  -2.409   0.027  0.00  0.00     0.042 A 
ATOM     14  C   UNL d   1       3.264  -2.795   0.766  0.00  0.00     0.030 A 
ATOM     15  C   UNL d   1       3.784  -4.090   0.690  0.00  0.00     0.002 A 
ATOM     16  C   UNL d   1       3.149  -5.048  -0.092  0.00  0.00     0.000 A 
ATOM     17  C   UNL d   1       2.002  -4.708  -0.802  0.00  0.00     0.002 A 
ATOM     18  C   UNL d   1       1.508  -3.400  -0.755  0.00  0.00     0.030 A 
ENDBRANCH   2  13
TORSDOF 1
