REMARK  4 active torsions:
REMARK  status: ('A' for Active; 'I' for Inactive)
REMARK    1  A    between atoms: N_2  and  S_1 
REMARK    2  A    between atoms: C_9  and  S_1 
REMARK       I    between atoms: C_4  and  N_2 
REMARK    3  A    between atoms: C_8  and  C_4 
REMARK    4  A    between atoms: C_5  and  C_6 
ROOT
ATOM      1  N   UNL d   1       0.347   1.529   0.263  0.00  0.00    -0.279 N 
ATOM      2  HN  UNL d   1      -0.389   1.916  -0.328  1.00  0.00     0.179 HD
ATOM      3  C   UNL d   1       0.861   2.384   1.241  0.00  0.00     0.262 C 
ATOM      4  O   UNL d   1       1.803   2.080   1.971  0.00  0.00    -0.267 OA
ENDROOT
BRANCH   3   5
ATOM      5  C   UNL d   1       0.291   3.767   1.386  0.00  0.00     0.032 A 
ATOM      6  C   UNL d   1       0.656   4.582   2.468  0.00  0.00     0.018 A 
ATOM      7  C   UNL d   1       0.188   5.899   2.549  0.00  0.00     0.017 A 
ATOM      8  C   UNL d   1      -0.647   6.424   1.548  0.00  0.00     0.048 A 
ATOM      9  C   UNL d   1      -1.040   5.592   0.490  0.00  0.00     0.017 A 
ATOM     10  C   UNL d   1      -0.579   4.275   0.411  0.00  0.00     0.018 A 
BRANCH   8  11
ATOM     11  C   UNL d   1      -1.092   7.869   1.569  0.00  0.00     0.417 C 
ATOM     12  F   UNL d   1      -0.673   8.553   2.670  0.00  0.00    -0.166 F 
ATOM     13  F   UNL d   1      -0.623   8.565   0.497  0.00  0.00    -0.166 F 
ATOM     14  F   UNL d   1      -2.446   8.002   1.537  0.00  0.00    -0.166 F 
ENDBRANCH   8  11
ENDBRANCH   3   5
BRANCH   1  15
ATOM     15  S   UNL d   1       0.752   0.079  -0.030  0.00  0.00     0.055 S 
ATOM     16  O   UNL d   1       0.214  -0.648  -1.170  0.00  0.00    -0.245 OA
ATOM     17  C   UNL d   1       2.509  -0.068  -0.206  0.00  0.00     0.142 C 
BRANCH  15  18
ATOM     18  C   UNL d   1       0.333  -0.909   1.398  0.00  0.00     0.038 A 
ATOM     19  C   UNL d   1      -0.770  -1.764   1.315  0.00  0.00     0.022 A 
ATOM     20  C   UNL d   1      -1.083  -2.598   2.388  0.00  0.00     0.001 A 
ATOM     21  C   UNL d   1      -0.302  -2.572   3.544  0.00  0.00     0.000 A 
ATOM     22  C   UNL d   1       0.793  -1.713   3.628  0.00  0.00     0.001 A 
ATOM     23  C   UNL d   1       1.119  -0.885   2.553  0.00  0.00     0.022 A 
ENDBRANCH  15  18
ENDBRANCH   1  15
TORSDOF 4
