REMARK  3 active torsions:
REMARK  status: ('A' for Active; 'I' for Inactive)
REMARK    1  A    between atoms: C_6  and  C_1 
REMARK    2  A    between atoms: C_10  and  C_4 
REMARK    3  A    between atoms: O_19  and  C_10 
ROOT
ATOM      1  C   UNL d   1       2.441  -0.509  -0.080  0.00  0.00     0.045 A 
ATOM      2  N   UNL d   1       1.293  -1.221   0.021  0.00  0.00    -0.355 N 
ATOM      3  HN  UNL d   1       1.327  -2.238   0.084  1.00  0.00     0.166 HD
ATOM      4  C   UNL d   1       1.200   1.540  -0.081  0.00  0.00     0.052 A 
ATOM      5  C   UNL d   1       0.103  -0.582   0.037  0.00  0.00     0.044 A 
ATOM      6  C   UNL d   1      -0.010   0.821   0.003  0.00  0.00     0.008 A 
ATOM      7  C   UNL d   1       2.419   0.870  -0.181  0.00  0.00     0.049 A 
ATOM      8  C   UNL d   1      -1.301   1.405   0.037  0.00  0.00     0.015 A 
ATOM      9  C   UNL d   1      -1.061  -1.345   0.074  0.00  0.00     0.037 A 
ATOM     10  C   UNL d   1      -2.450   0.618   0.063  0.00  0.00     0.007 A 
ATOM     11  C   UNL d   1      -2.341  -0.769   0.078  0.00  0.00    -0.060 A 
ATOM     12  C   UNL d   1      -3.578  -1.618   0.050  0.00  0.00     0.048 C 
ENDROOT
BRANCH   1  13
ATOM     13  C   UNL d   1       3.695  -1.288  -0.173  0.00  0.00     0.012 A 
ATOM     14  C   UNL d   1       4.908  -0.917   0.451  0.00  0.00     0.048 A 
ATOM     15  C   UNL d   1       6.096  -1.618   0.206  0.00  0.00     0.048 A 
ATOM     16 CL   UNL d   1       5.019   0.386   1.594  0.00  0.00    -0.083 Cl
ATOM     17  C   UNL d   1       6.087  -2.727  -0.630  0.00  0.00     0.035 A 
ATOM     18  C   UNL d   1       4.898  -3.163  -1.201  0.00  0.00     0.025 A 
ATOM     19 CL   UNL d   1       7.553  -3.564  -0.955  0.00  0.00    -0.084 Cl
ATOM     20  C   UNL d   1       3.716  -2.451  -0.972  0.00  0.00     0.017 A 
ENDBRANCH   1  13
BRANCH   4  21
ATOM     21  C   UNL d   1       1.242   3.019  -0.133  0.00  0.00     0.177 C 
ATOM     22  O   UNL d   1       0.505   3.697  -0.830  0.00  0.00    -0.646 OA
BRANCH  21  23
ATOM     23  O   UNL d   1       2.189   3.546   0.674  0.00  0.00    -0.773 OA
ATOM     24  H   UNL d   1       2.646   2.918   1.266  0.00  0.00     0.167 HD
ENDBRANCH  21  23
ENDBRANCH   4  21
TORSDOF 3
