REMARK  6 active torsions:
REMARK  status: ('A' for Active; 'I' for Inactive)
REMARK    1  A    between atoms: S_11  and  C_2 
REMARK    2  A    between atoms: C_3  and  O_13 
REMARK    3  A    between atoms: C_6  and  C_3 
REMARK    4  A    between atoms: C_19  and  S_11 
REMARK    5  A    between atoms: O_13  and  C_21 
REMARK    6  A    between atoms: C_21  and  C_19 
ROOT
ATOM      1  C   UNL d   1       1.977   0.807  -2.205  0.00  0.00     0.078 A 
ATOM      2  C   UNL d   1       1.939  -0.174  -1.211  0.00  0.00     0.090 A 
ATOM      3  C   UNL d   1       2.653   0.619  -3.452  0.00  0.00     0.102 C 
ATOM      4  N   UNL d   1       3.184   0.515  -4.479  0.00  0.00    -0.191 NA
ATOM      5  N   UNL d   1       1.284   0.017  -0.037  0.00  0.00    -0.359 N 
ATOM      6  HN  UNL d   1       1.261  -0.714   0.675  1.00  0.00     0.166 HD
ATOM      7  C   UNL d   1       1.322   2.021  -1.966  0.00  0.00     0.027 A 
ATOM      8  C   UNL d   1       0.664   1.200   0.164  0.00  0.00     0.089 A 
ATOM      9  C   UNL d   1       0.655   2.224  -0.763  0.00  0.00     0.019 A 
ENDROOT
BRANCH   2  10
ATOM     10  S   UNL d   1       2.747  -1.759  -1.416  0.00  0.00    -0.109 SA
BRANCH  10  11
ATOM     11  C   UNL d   1       2.431  -2.524   0.219  0.00  0.00     0.108 C 
BRANCH  11  12
ATOM     12  C   UNL d   1       3.090  -3.900   0.312  0.00  0.00     0.189 C 
BRANCH  12  13
ATOM     13  O   UNL d   1       4.522  -3.829   0.190  0.00  0.00    -0.317 OA
BRANCH  13  14
ATOM     14  C   UNL d   1       5.191  -3.431   1.298  0.00  0.00     0.293 C 
ATOM     15  O   UNL d   1       4.688  -3.155   2.376  0.00  0.00    -0.259 OA
BRANCH  14  16
ATOM     16  C   UNL d   1       6.654  -3.375   1.036  0.00  0.00     0.041 A 
ATOM     17  C   UNL d   1       7.206  -3.687  -0.213  0.00  0.00     0.041 A 
ATOM     18  C   UNL d   1       8.590  -3.645  -0.386  0.00  0.00     0.035 A 
ATOM     19 CL   UNL d   1       9.272  -4.049  -1.913  0.00  0.00    -0.084 Cl
ATOM     20  C   UNL d   1       9.429  -3.287   0.669  0.00  0.00     0.024 A 
ATOM     21  C   UNL d   1       8.883  -2.961   1.910  0.00  0.00     0.003 A 
ATOM     22  C   UNL d   1       7.500  -3.006   2.093  0.00  0.00     0.018 A 
ENDBRANCH  14  16
ENDBRANCH  13  14
ENDBRANCH  12  13
ENDBRANCH  11  12
ENDBRANCH  10  11
ENDBRANCH   2  10
TORSDOF 6
