REMARK  7 active torsions:
REMARK  status: ('A' for Active; 'I' for Inactive)
REMARK    1  A    between atoms: N_8  and  C_1 
REMARK    2  A    between atoms: N_6  and  C_2 
REMARK    3  A    between atoms: C_13  and  C_3 
REMARK    4  A    between atoms: C_10  and  N_6 
REMARK    5  A    between atoms: N_11  and  C_10 
REMARK       I    between atoms: C_12  and  N_11 
REMARK    6  A    between atoms: C_21  and  C_12 
REMARK    7  A    between atoms: C_18  and  N_14 
ROOT
ATOM      1  C   UNL d   1       0.997   0.676  -0.633  0.00  0.00     0.118 C 
ATOM      2  C   UNL d   1       1.107  -0.680  -0.397  0.00  0.00     0.152 C 
ATOM      3  C   UNL d   1      -0.384   0.969  -0.493  0.00  0.00     0.062 C 
ATOM      4  N   UNL d   1      -1.100  -0.143  -0.283  0.00  0.00    -0.300 N 
ATOM      5  HN  UNL d   1      -2.106  -0.225  -0.133  1.00  0.00     0.186 HD
ATOM      6  N   UNL d   1      -0.188  -1.122  -0.317  0.00  0.00    -0.283 N 
ATOM      7  H   UNL d   1      -0.512  -2.076  -0.209  0.00  0.00     0.188 HD
ENDROOT
BRANCH   2   8
ATOM      8  N   UNL d   1       2.267  -1.432  -0.211  0.00  0.00    -0.316 N 
ATOM      9  H   UNL d   1       3.083  -0.946   0.173  0.00  0.00     0.170 HD
BRANCH   8  10
ATOM     10  C   UNL d   1       2.331  -2.849  -0.373  0.00  0.00     0.180 C 
ATOM     11  S   UNL d   1       1.372  -3.796  -1.358  0.00  0.00    -0.040 SA
BRANCH  10  12
ATOM     12  N   UNL d   1       3.290  -3.466   0.389  0.00  0.00    -0.299 N 
ATOM     13  C   UNL d   1       3.892  -2.943   1.519  0.00  0.00     0.257 C 
ATOM     14  O   UNL d   1       4.062  -1.735   1.654  0.00  0.00    -0.267 OA
ATOM     15  H   UNL d   1       3.304  -4.467   0.255  0.00  0.00     0.171 HD
BRANCH  13  16
ATOM     16  C   UNL d   1       4.371  -3.925   2.551  0.00  0.00     0.032 A 
ATOM     17  C   UNL d   1       3.975  -5.275   2.569  0.00  0.00     0.017 A 
ATOM     18  C   UNL d   1       4.437  -6.136   3.571  0.00  0.00     0.001 A 
ATOM     19  C   UNL d   1       5.280  -5.661   4.571  0.00  0.00     0.000 A 
ATOM     20  C   UNL d   1       5.661  -4.320   4.576  0.00  0.00     0.001 A 
ATOM     21  C   UNL d   1       5.208  -3.457   3.574  0.00  0.00     0.017 A 
ENDBRANCH  13  16
ENDBRANCH  10  12
ENDBRANCH   8  10
ENDBRANCH   2   8
BRANCH   1  22
ATOM     22  N   UNL d   1       2.037   1.547  -1.003  0.00  0.00    -0.295 N 
ATOM     23  N   UNL d   1       2.116   1.562  -2.252  0.00  0.00    -0.299 N 
ATOM     24  HN  UNL d   1       1.509   1.009  -2.857  1.00  0.00     0.187 HD
ATOM     25  HN  UNL d   1       2.627   2.076  -0.361  1.00  0.00     0.187 HD
BRANCH  23  26
ATOM     26  C   UNL d   1       3.123   2.416  -2.746  0.00  0.00     0.069 A 
ATOM     27  C   UNL d   1       4.265   1.889  -3.371  0.00  0.00     0.062 A 
ATOM     28 CL   UNL d   1       4.565   0.185  -3.379  0.00  0.00    -0.082 Cl
ATOM     29  C   UNL d   1       5.178   2.725  -4.024  0.00  0.00     0.026 A 
ATOM     30  C   UNL d   1       4.959   4.102  -4.065  0.00  0.00     0.002 A 
ATOM     31  C   UNL d   1       3.838   4.644  -3.442  0.00  0.00     0.002 A 
ATOM     32  C   UNL d   1       2.928   3.807  -2.786  0.00  0.00     0.033 A 
ENDBRANCH  23  26
ENDBRANCH   1  22
BRANCH   3  33
ATOM     33  C   UNL d   1      -1.115   2.305  -0.517  0.00  0.00     0.040 A 
ATOM     34  C   UNL d   1      -0.739   3.414  -1.465  0.00  0.00     0.011 A 
ATOM     35  C   UNL d   1      -0.412   3.548  -0.016  0.00  0.00     0.011 A 
ENDBRANCH   3  33
TORSDOF 7
