REMARK  7 active torsions:
REMARK  status: ('A' for Active; 'I' for Inactive)
REMARK    1  A    between atoms: C_2  and  C_1 
REMARK    2  A    between atoms: N_6  and  C_1 
REMARK    3  A    between atoms: C_7  and  N_3 
REMARK    4  A    between atoms: C_19  and  N_6 
REMARK    5  A    between atoms: C_8  and  S_9 
REMARK    6  A    between atoms: S_9  and  C_23 
REMARK    7  A    between atoms: C_23  and  C_19 
ROOT
ATOM      1  C   UNL d   1       0.939  -0.208  -0.004  0.00  0.00     0.113 C 
ATOM      2  N   UNL d   1       0.249   0.348  -0.963  0.00  0.00    -0.342 N 
ATOM      3  HN  UNL d   1       0.764   0.731  -1.756  1.00  0.00     0.167 HD
ENDROOT
BRANCH   1   4
ATOM      4  C   UNL d   1       2.444  -0.157  -0.156  0.00  0.00     0.029 A 
ATOM      5  C   UNL d   1       3.314  -1.151   0.335  0.00  0.00     0.048 A 
ATOM      6 CL   UNL d   1       2.805  -2.731   0.830  0.00  0.00    -0.083 Cl
ATOM      7  C   UNL d   1       4.694  -0.918   0.378  0.00  0.00     0.025 A 
ATOM      8  C   UNL d   1       5.232   0.246  -0.165  0.00  0.00     0.002 A 
ATOM      9  C   UNL d   1       4.391   1.177  -0.768  0.00  0.00     0.001 A 
ATOM     10  C   UNL d   1       3.006   0.986  -0.748  0.00  0.00     0.017 A 
ENDBRANCH   1   4
BRANCH   1  11
ATOM     11  N   UNL d   1       0.403  -0.813   1.120  0.00  0.00    -0.375 N 
ATOM     12  H   UNL d   1      -0.577  -1.050   1.082  0.00  0.00     0.161 HD
BRANCH  11  13
ATOM     13  C   UNL d   1       0.925  -0.698   2.479  0.00  0.00     0.131 C 
BRANCH  13  14
ATOM     14  C   UNL d   1      -0.020   0.058   3.416  0.00  0.00     0.094 C 
BRANCH  14  15
ATOM     15  S   UNL d   1      -1.650  -0.770   3.550  0.00  0.00    -0.159 SA
BRANCH  15  16
ATOM     16  C   UNL d   1      -2.495   0.265   4.828  0.00  0.00    -0.003 C 
ATOM     17  C   UNL d   1      -2.660   1.709   4.340  0.00  0.00     0.026 C 
ATOM     18  C   UNL d   1      -3.886  -0.353   5.043  0.00  0.00     0.026 C 
ATOM     19  C   UNL d   1      -1.718   0.218   6.149  0.00  0.00     0.026 C 
ENDBRANCH  15  16
ENDBRANCH  14  15
ENDBRANCH  13  14
ENDBRANCH  11  13
ENDBRANCH   1  11
BRANCH   2  20
ATOM     20  C   UNL d   1      -1.158   0.458  -0.982  0.00  0.00     0.033 A 
ATOM     21  C   UNL d   1      -1.925   0.770   0.144  0.00  0.00     0.031 A 
ATOM     22  C   UNL d   1      -3.322   0.816   0.093  0.00  0.00     0.026 A 
ATOM     23  C   UNL d   1      -3.965   0.666  -1.127  0.00  0.00     0.034 A 
ATOM     24  C   UNL d   1      -3.222   0.462  -2.286  0.00  0.00     0.026 A 
ATOM     25 CL   UNL d   1      -5.681   0.762  -1.200  0.00  0.00    -0.084 Cl
ATOM     26  C   UNL d   1      -1.825   0.347  -2.207  0.00  0.00     0.031 A 
ENDBRANCH   2  20
TORSDOF 7
