REMARK  4 active torsions:
REMARK  status: ('A' for Active; 'I' for Inactive)
REMARK    1  A    between atoms: N_4  and  C_1 
REMARK    2  A    between atoms: N_5  and  C_2 
REMARK    3  A    between atoms: N_7  and  C_3 
REMARK    4  A    between atoms: C_6  and  C_8 
ROOT
ATOM      1  N   UNL d   1       1.230  -2.605  -0.183  0.00  0.00    -0.377 N 
ATOM      2  N   UNL d   1       2.182  -7.037   0.203  0.00  0.00    -0.197 NA
ATOM      3  C   UNL d   1       2.504  -6.055  -0.329  0.00  0.00     0.064 C 
ATOM      4  C   UNL d   1       0.641  -3.640  -1.044  0.00  0.00     0.124 C 
ATOM      5  C   UNL d   1       2.196  -3.128   0.796  0.00  0.00     0.124 C 
ATOM      6  C   UNL d   1       2.900  -4.807  -0.996  0.00  0.00     0.096 C 
ATOM      7  C   UNL d   1       3.365  -3.770   0.039  0.00  0.00     0.039 C 
ATOM      8  C   UNL d   1       1.759  -4.274  -1.870  0.00  0.00     0.039 C 
ENDROOT
BRANCH   1   9
ATOM      9  C   UNL d   1       0.630  -1.361  -0.000  0.00  0.00     0.097 A 
ATOM     10  C   UNL d   1      -0.767  -1.134   0.047  0.00  0.00     0.132 A 
ATOM     11  C   UNL d   1      -1.363   0.148   0.132  0.00  0.00     0.054 A 
ATOM     12  C   UNL d   1      -0.571   1.295   0.205  0.00  0.00     0.052 A 
ATOM     13  C   UNL d   1       0.814   1.128   0.191  0.00  0.00     0.054 A 
ATOM     14  C   UNL d   1       1.384  -0.163   0.092  0.00  0.00     0.132 A 
BRANCH  10  15
ATOM     15  N   UNL d   1      -1.708  -2.238   0.111  0.00  0.00    -0.113 N 
ATOM     16  O   UNL d   1      -1.678  -2.953   1.121  0.00  0.00    -0.532 OA
ATOM     17  O   UNL d   1      -2.501  -2.349  -0.833  0.00  0.00    -0.532 OA
ENDBRANCH  10  15
BRANCH  12  18
ATOM     18  C   UNL d   1      -1.169   2.678   0.314  0.00  0.00     0.417 C 
ATOM     19  F   UNL d   1      -2.526   2.676   0.372  0.00  0.00    -0.166 F 
ATOM     20  F   UNL d   1      -0.741   3.330   1.428  0.00  0.00    -0.166 F 
ATOM     21  F   UNL d   1      -0.833   3.467  -0.740  0.00  0.00    -0.166 F 
ENDBRANCH  12  18
BRANCH  14  22
ATOM     22  N   UNL d   1       2.836  -0.172   0.036  0.00  0.00    -0.113 N 
ATOM     23  O   UNL d   1       3.371  -0.539  -1.017  0.00  0.00    -0.532 OA
ATOM     24  O   UNL d   1       3.430   0.252   1.038  0.00  0.00    -0.532 OA
ENDBRANCH  14  22
ENDBRANCH   1   9
TORSDOF 4
