REMARK  6 active torsions:
REMARK  status: ('A' for Active; 'I' for Inactive)
REMARK    1  A    between atoms: N_2  and  C_15 
REMARK    2  A    between atoms: S_18  and  C_5 
REMARK    3  A    between atoms: S_20  and  C_6 
REMARK    4  A    between atoms: C_17  and  C_11 
REMARK    5  A    between atoms: C_12  and  C_25 
REMARK    6  A    between atoms: C_25  and  S_18 
ROOT
ATOM      1  N   UNL d   1       3.506   5.253  -0.386  0.00  0.00    -0.352 N 
ATOM      2  HN  UNL d   1       4.323   4.684  -0.610  1.00  0.00     0.166 HD
ATOM      3  C   UNL d   1       3.512   6.633  -0.274  0.00  0.00     0.049 A 
ATOM      4  C   UNL d   1       2.297   4.776  -0.162  0.00  0.00     0.060 A 
ATOM      5  S   UNL d   1       1.105   5.967   0.205  0.00  0.00    -0.086 SA
ATOM      6  C   UNL d   1       2.280   7.194   0.003  0.00  0.00     0.081 A 
ENDROOT
BRANCH   4   7
ATOM      7  C   UNL d   1       1.956   3.313  -0.143  0.00  0.00     0.146 C 
BRANCH   7   8
ATOM      8  S   UNL d   1       0.638   2.840  -1.302  0.00  0.00    -0.097 SA
BRANCH   8   9
ATOM      9  C   UNL d   1       1.420   3.138  -2.833  0.00  0.00     0.129 A 
ATOM     10  S   UNL d   1       0.548   3.537  -4.253  0.00  0.00    -0.038 SA
ATOM     11  C   UNL d   1       2.056   3.589  -5.064  0.00  0.00     0.128 A 
ATOM     12  N   UNL d   1       3.093   3.317  -4.302  0.00  0.00    -0.287 N 
ATOM     13  N   UNL d   1       2.721   3.046  -2.999  0.00  0.00    -0.287 N 
ATOM     14  HN  UNL d   1       4.058   3.308  -4.633  1.00  0.00     0.188 HD
ATOM     15  HN  UNL d   1       3.376   2.805  -2.256  1.00  0.00     0.188 HD
BRANCH  11  16
ATOM     16  S   UNL d   1       2.200   3.967  -6.765  0.00  0.00    -0.108 SA
ATOM     17  C   UNL d   1       3.991   3.862  -6.978  0.00  0.00     0.097 C 
ENDBRANCH  11  16
ENDBRANCH   8   9
ENDBRANCH   7   8
ENDBRANCH   4   7
BRANCH   3  18
ATOM     18  C   UNL d   1       4.741   7.402  -0.434  0.00  0.00    -0.009 A 
ATOM     19  C   UNL d   1       5.754   6.933  -1.285  0.00  0.00     0.016 A 
ATOM     20  C   UNL d   1       6.952   7.643  -1.433  0.00  0.00     0.037 A 
ATOM     21  C   UNL d   1       7.144   8.830  -0.714  0.00  0.00     0.102 A 
ATOM     22  C   UNL d   1       6.146   9.310   0.142  0.00  0.00     0.037 A 
ATOM     23  C   UNL d   1       4.952   8.595   0.279  0.00  0.00     0.016 A 
BRANCH  21  24
ATOM     24  N   UNL d   1       8.403   9.574  -0.847  0.00  0.00    -0.116 N 
ATOM     25  O   UNL d   1       9.265   9.117  -1.611  0.00  0.00    -0.532 OA
ATOM     26  O   UNL d   1       8.528  10.617  -0.189  0.00  0.00    -0.532 OA
ENDBRANCH  21  24
ENDBRANCH   3  18
TORSDOF 6
