REMARK  6 active torsions:
REMARK  status: ('A' for Active; 'I' for Inactive)
REMARK       I    between atoms: N_2  and  C_1 
REMARK       I    between atoms: N_9  and  C_1 
REMARK    1  A    between atoms: C_3  and  N_2 
REMARK    2  A    between atoms: C_11  and  N_4 
REMARK    3  A    between atoms: N_6  and  C_22 
REMARK    4  A    between atoms: C_21  and  N_9 
REMARK    5  A    between atoms: C_20  and  C_11 
REMARK    6  A    between atoms: C_22  and  C_21 
ROOT
ATOM      1  C   UNL d   1       4.923  -1.155   1.073  0.00  0.00     0.154 C 
ENDROOT
BRANCH   1   2
ATOM      2  N   UNL d   1       4.108  -2.119   0.366  0.00  0.00    -0.341 N 
ATOM      3  C   UNL d   1       4.194  -2.588  -0.908  0.00  0.00     0.320 C 
ATOM      4  N   UNL d   1       4.942  -1.856  -1.790  0.00  0.00    -0.306 N 
ATOM      5  O   UNL d   1       3.609  -3.640  -1.146  0.00  0.00    -0.247 OA
ATOM      6  H   UNL d   1       5.676  -1.299  -1.385  0.00  0.00     0.171 HD
ATOM      7  H   UNL d   1       3.592  -2.779   0.937  0.00  0.00     0.164 HD
BRANCH   4   8
ATOM      8  C   UNL d   1       5.030  -2.088  -3.186  0.00  0.00     0.075 A 
ATOM      9  C   UNL d   1       4.090  -2.817  -3.934  0.00  0.00     0.146 A 
ATOM     10  C   UNL d   1       4.308  -3.117  -5.276  0.00  0.00     0.086 A 
ATOM     11  F   UNL d   1       2.914  -3.192  -3.417  0.00  0.00    -0.204 F 
ATOM     12  C   UNL d   1       5.451  -2.643  -5.897  0.00  0.00     0.119 A 
ATOM     13  C   UNL d   1       6.351  -1.836  -5.212  0.00  0.00     0.044 A 
ATOM     14  F   UNL d   1       5.682  -2.953  -7.179  0.00  0.00    -0.206 F 
ATOM     15  C   UNL d   1       6.138  -1.550  -3.859  0.00  0.00     0.036 A 
ENDBRANCH   4   8
ENDBRANCH   1   2
BRANCH   1  16
ATOM     16  C   UNL d   1       4.751   0.304   0.617  0.00  0.00     0.292 C 
BRANCH  16  17
ATOM     17  N   UNL d   1       5.593   1.241   1.387  0.00  0.00     0.093 N 
ATOM     18  C   UNL d   1       7.042   0.983   1.236  0.00  0.00     0.302 C 
ATOM     19  C   UNL d   1       7.625   1.379  -0.143  0.00  0.00     0.303 C 
ATOM     20  N   UNL d   1       7.363   2.785  -0.523  0.00  0.00     0.096 N 
ATOM     21  C   UNL d   1       5.911   3.041  -0.389  0.00  0.00     0.303 C 
ATOM     22  C   UNL d   1       5.314   2.642   0.984  0.00  0.00     0.302 C 
BRANCH  20  23
ATOM     23  C   UNL d   1       8.181   3.679   0.325  0.00  0.00     0.311 C 
BRANCH  23  24
ATOM     24  C   UNL d   1       8.016   5.152   0.035  0.00  0.00    -0.030 A 
ATOM     25  C   UNL d   1       7.503   6.014   1.019  0.00  0.00     0.009 A 
ATOM     26  C   UNL d   1       7.377   7.375   0.770  0.00  0.00     0.001 A 
ATOM     27  C   UNL d   1       7.763   7.898  -0.464  0.00  0.00     0.000 A 
ATOM     28  C   UNL d   1       8.274   7.051  -1.451  0.00  0.00     0.001 A 
ATOM     29  C   UNL d   1       8.396   5.685  -1.201  0.00  0.00     0.009 A 
ENDBRANCH  23  24
ENDBRANCH  20  23
ENDBRANCH  16  17
ENDBRANCH   1  16
TORSDOF 6
