REMARK  2 active torsions:
REMARK  status: ('A' for Active; 'I' for Inactive)
REMARK    1  A    between atoms: C_6  and  C_1 
REMARK    2  A    between atoms: O_9  and  C_6 
ROOT
ATOM      1  C   UNL d   1      -0.740   1.951   0.083  0.00  0.00     0.124 A 
ATOM      2  C   UNL d   1       0.369   0.939   0.006  0.00  0.00    -0.030 A 
ATOM      3  C   UNL d   1      -1.567  -0.321   0.018  0.00  0.00     0.161 A 
ATOM      4  C   UNL d   1      -0.113  -0.365  -0.018  0.00  0.00     0.017 A 
ATOM      5  C   UNL d   1      -2.033   1.113   0.046  0.00  0.00     0.104 A 
ATOM      6  O   UNL d   1      -2.276  -1.311   0.031  0.00  0.00    -0.292 OA
ATOM      7  C   UNL d   1       1.736   1.171  -0.015  0.00  0.00     0.009 A 
ATOM      8  C   UNL d   1       0.716  -1.470  -0.043  0.00  0.00     0.016 A 
ATOM      9  C   UNL d   1       2.598   0.070  -0.038  0.00  0.00     0.001 A 
ATOM     10  C   UNL d   1       2.092  -1.242  -0.048  0.00  0.00     0.001 A 
ENDROOT
BRANCH   1  11
ATOM     11  C   UNL d   1      -0.725   2.828   1.317  0.00  0.00     0.148 C 
ATOM     12  O   UNL d   1      -1.182   3.964   1.321  0.00  0.00    -0.649 OA
BRANCH  11  13
ATOM     13  O   UNL d   1      -0.236   2.263   2.443  0.00  0.00    -0.776 OA
ATOM     14  H   UNL d   1       0.105   1.352   2.356  0.00  0.00     0.167 HD
ENDBRANCH  11  13
ENDBRANCH   1  11
TORSDOF 2
