REMARK  7 active torsions:
REMARK  status: ('A' for Active; 'I' for Inactive)
REMARK       I    between atoms: N_2  and  C_1 
REMARK    1  A    between atoms: O_3  and  C_1 
REMARK    2  A    between atoms: C_5  and  N_2 
REMARK    3  A    between atoms: C_6  and  O_3 
REMARK    4  A    between atoms: C_15  and  C_6 
REMARK    5  A    between atoms: C_16  and  C_6 
REMARK    6  A    between atoms: S_9  and  C_15 
REMARK    7  A    between atoms: S_10  and  C_16 
ROOT
ATOM      1  C   UNL d   1       0.919   0.207   0.887  0.00  0.00     0.365 C 
ATOM      2  N   UNL d   1       1.972   0.115   1.753  0.00  0.00    -0.303 N 
ATOM      3  O   UNL d   1       0.531   1.177   0.259  0.00  0.00    -0.238 OA
ATOM      4  H   UNL d   1       2.046  -0.789   2.197  0.00  0.00     0.171 HD
ENDROOT
BRANCH   1   5
ATOM      5  O   UNL d   1       0.269  -0.990   0.888  0.00  0.00    -0.297 OA
BRANCH   5   6
ATOM      6  C   UNL d   1      -1.174  -0.875   0.807  0.00  0.00     0.152 C 
BRANCH   6   7
ATOM      7  C   UNL d   1      -1.638  -1.364  -0.573  0.00  0.00     0.107 C 
BRANCH   7   8
ATOM      8  S   UNL d   1      -3.429  -1.087  -0.821  0.00  0.00    -0.171 SA
ATOM      9  C   UNL d   1      -3.643  -1.931  -2.404  0.00  0.00     0.089 C 
ENDBRANCH   7   8
ENDBRANCH   6   7
BRANCH   6  10
ATOM     10  C   UNL d   1      -1.742  -1.724   1.959  0.00  0.00     0.107 C 
BRANCH  10  11
ATOM     11  S   UNL d   1      -1.193  -1.067   3.586  0.00  0.00    -0.171 SA
ATOM     12  C   UNL d   1      -1.900  -2.343   4.649  0.00  0.00     0.089 C 
ENDBRANCH  10  11
ENDBRANCH   6  10
ENDBRANCH   5   6
ENDBRANCH   1   5
BRANCH   2  13
ATOM     13  C   UNL d   1       2.748   1.168   2.269  0.00  0.00     0.036 A 
ATOM     14  C   UNL d   1       2.661   2.487   1.818  0.00  0.00     0.031 A 
ATOM     15  C   UNL d   1       3.426   3.495   2.415  0.00  0.00     0.026 A 
ATOM     16  C   UNL d   1       4.285   3.184   3.465  0.00  0.00     0.034 A 
ATOM     17  C   UNL d   1       4.387   1.874   3.922  0.00  0.00     0.026 A 
ATOM     18 CL   UNL d   1       5.218   4.426   4.205  0.00  0.00    -0.084 Cl
ATOM     19  C   UNL d   1       3.622   0.867   3.322  0.00  0.00     0.031 A 
ENDBRANCH   2  13
TORSDOF 7
