REMARK  6 active torsions:
REMARK  status: ('A' for Active; 'I' for Inactive)
REMARK    1  A    between atoms: C_7  and  C_1 
REMARK    2  A    between atoms: C_8  and  N_2 
REMARK    3  A    between atoms: C_10  and  C_3 
REMARK    4  A    between atoms: C_11  and  C_5 
REMARK    5  A    between atoms: O_14  and  C_6 
REMARK    6  A    between atoms: C_13  and  C_7 
ROOT
ATOM      1  C   UNL d   1      -0.734   1.166  -0.084  0.00  0.00     0.077 C 
ATOM      2  N   UNL d   1      -0.699  -1.238  -0.063  0.00  0.00    -0.277 N 
ATOM      3  C   UNL d   1       1.431  -0.009  -0.049  0.00  0.00     0.077 C 
ATOM      4  C   UNL d   1       0.697  -1.301   0.042  0.00  0.00     0.266 C 
ATOM      5  C   UNL d   1      -1.405  -0.016  -0.092  0.00  0.00     0.070 C 
ATOM      6  C   UNL d   1       0.730   1.133  -0.174  0.00  0.00     0.098 C 
ATOM      7  O   UNL d   1       1.344  -2.342   0.172  0.00  0.00    -0.267 OA
ENDROOT
BRANCH   1   8
ATOM      8  C   UNL d   1      -1.462   2.502  -0.034  0.00  0.00     0.197 C 
ATOM      9  O   UNL d   1      -2.527   2.686  -0.617  0.00  0.00    -0.286 OA
BRANCH   8  10
ATOM     10  C   UNL d   1      -0.844   3.672   0.664  0.00  0.00     0.015 A 
ATOM     11  C   UNL d   1      -1.046   4.945   0.107  0.00  0.00     0.015 A 
ATOM     12  C   UNL d   1      -0.376   6.058   0.621  0.00  0.00     0.001 A 
ATOM     13  C   UNL d   1       0.492   5.909   1.700  0.00  0.00     0.000 A 
ATOM     14  C   UNL d   1       0.657   4.659   2.297  0.00  0.00     0.001 A 
ATOM     15  C   UNL d   1      -0.029   3.546   1.800  0.00  0.00     0.015 A 
ENDBRANCH   8  10
ENDBRANCH   1   8
BRANCH   5  16
ATOM     16  C   UNL d   1      -2.890  -0.096  -0.133  0.00  0.00    -0.008 A 
ATOM     17  C   UNL d   1      -3.558  -0.079  -1.368  0.00  0.00     0.014 A 
ATOM     18  C   UNL d   1      -4.948  -0.202  -1.424  0.00  0.00     0.001 A 
ATOM     19  C   UNL d   1      -5.682  -0.354  -0.250  0.00  0.00     0.000 A 
ATOM     20  C   UNL d   1      -5.029  -0.372   0.982  0.00  0.00     0.001 A 
ATOM     21  C   UNL d   1      -3.639  -0.236   1.043  0.00  0.00     0.014 A 
ENDBRANCH   5  16
BRANCH   6  22
ATOM     22  O   UNL d   1       1.334   2.351  -0.429  0.00  0.00    -0.359 OA
ATOM     23  H   UNL d   1       2.302   2.263  -0.385  0.00  0.00     0.217 HD
ENDBRANCH   6  22
BRANCH   2  24
ATOM     24  C   UNL d   1      -1.344  -2.514  -0.100  0.00  0.00     0.043 A 
ATOM     25  C   UNL d   1      -1.749  -3.130   1.090  0.00  0.00     0.030 A 
ATOM     26  C   UNL d   1      -2.236  -4.438   1.066  0.00  0.00     0.002 A 
ATOM     27  C   UNL d   1      -2.313  -5.133  -0.141  0.00  0.00     0.000 A 
ATOM     28  C   UNL d   1      -1.911  -4.521  -1.329  0.00  0.00     0.002 A 
ATOM     29  C   UNL d   1      -1.423  -3.214  -1.311  0.00  0.00     0.030 A 
ENDBRANCH   2  24
BRANCH   3  30
ATOM     30  C   UNL d   1       2.903  -0.002  -0.040  0.00  0.00    -0.018 A 
ATOM     31  C   UNL d   1       3.591   0.029   1.182  0.00  0.00     0.012 A 
ATOM     32  C   UNL d   1       4.984   0.097   1.199  0.00  0.00     0.001 A 
ATOM     33  C   UNL d   1       5.695   0.135  -0.000  0.00  0.00     0.000 A 
ATOM     34  C   UNL d   1       5.015   0.099  -1.218  0.00  0.00     0.001 A 
ATOM     35  C   UNL d   1       3.622   0.029  -1.240  0.00  0.00     0.012 A 
ENDBRANCH   3  30
TORSDOF 6
