REMARK  2 active torsions:
REMARK  status: ('A' for Active; 'I' for Inactive)
REMARK       I    between atoms: N_2  and  C_1 
REMARK    1  A    between atoms: C_5  and  C_1 
REMARK       I    between atoms: C_4  and  N_3 
REMARK    2  A    between atoms: C_15  and  C_4 
ROOT
ATOM      1  C   UNL d   1       1.060   0.343  -0.355  0.00  0.00     0.277 C 
ATOM      2  N   UNL d   1       0.436  -0.849  -0.744  0.00  0.00    -0.343 N 
ATOM      3  N   UNL d   1      -0.048  -3.226  -2.268  0.00  0.00    -0.349 N 
ATOM      4  C   UNL d   1      -0.623  -4.441  -2.589  0.00  0.00     0.224 C 
ATOM      5  C   UNL d   1       1.264  -2.991  -1.662  0.00  0.00     0.145 C 
ATOM      6  C   UNL d   1       1.088  -2.125  -0.409  0.00  0.00     0.146 C 
ATOM      7  C   UNL d   1      -0.833  -0.978  -1.480  0.00  0.00     0.146 C 
ATOM      8  C   UNL d   1      -0.737  -1.984  -2.647  0.00  0.00     0.145 C 
ATOM      9  O   UNL d   1       2.209   0.307   0.089  0.00  0.00    -0.265 OA
ATOM     10  O   UNL d   1      -1.693  -4.462  -3.205  0.00  0.00    -0.273 OA
ENDROOT
BRANCH   4  11
ATOM     11  C   UNL d   1       0.096  -5.765  -2.237  0.00  0.00     0.078 C 
ATOM     12  C   UNL d   1      -0.672  -6.973  -2.816  0.00  0.00     0.014 C 
ATOM     13  C   UNL d   1      -1.988  -7.251  -2.083  0.00  0.00     0.001 C 
ATOM     14  C   UNL d   1      -1.823  -7.377  -0.573  0.00  0.00     0.000 C 
ATOM     15  C   UNL d   1      -0.923  -6.317   0.049  0.00  0.00     0.001 C 
ATOM     16  C   UNL d   1       0.346  -6.042  -0.749  0.00  0.00     0.014 C 
ENDBRANCH   4  11
BRANCH   1  17
ATOM     17  C   UNL d   1       0.380   1.621  -0.497  0.00  0.00     0.142 A 
ATOM     18  O   UNL d   1      -0.987   1.721  -0.491  0.00  0.00    -0.317 OA
ATOM     19  C   UNL d   1      -1.298   3.040  -0.584  0.00  0.00     0.143 A 
ATOM     20  C   UNL d   1      -0.159   3.804  -0.633  0.00  0.00     0.027 A 
ATOM     21  C   UNL d   1       0.922   2.893  -0.559  0.00  0.00     0.045 A 
ENDBRANCH   1  17
TORSDOF 2
