REMARK  6 active torsions:
REMARK  status: ('A' for Active; 'I' for Inactive)
REMARK    1  A    between atoms: C_2  and  N_1 
REMARK    2  A    between atoms: N_5  and  C_10 
REMARK    3  A    between atoms: C_9  and  N_5 
REMARK    4  A    between atoms: C_13  and  C_6 
REMARK    5  A    between atoms: C_10  and  C_13 
REMARK    6  A    between atoms: O_14  and  C_13 
ROOT
ATOM      1  C   UNL d   1      -1.558  -4.233  -3.004  0.00  0.00     0.179 C 
ENDROOT
BRANCH   1   2
ATOM      2  C   UNL d   1      -1.402  -3.873  -4.509  0.00  0.00     0.306 C 
BRANCH   2   3
ATOM      3  N   UNL d   1      -2.173  -2.678  -4.905  0.00  0.00     0.094 N 
ATOM      4  H   UNL d   1      -1.867  -1.888  -4.332  0.00  0.00     0.317 HD
BRANCH   3   5
ATOM      5  C   UNL d   1      -2.024  -2.313  -6.335  0.00  0.00     0.147 C 
ATOM      6  C   UNL d   1      -2.725  -3.343  -7.239  0.00  0.00     0.048 C 
ATOM      7  C   UNL d   1      -2.709  -0.950  -6.535  0.00  0.00     0.048 C 
ATOM      8  C   UNL d   1      -0.549  -2.167  -6.770  0.00  0.00     0.048 C 
ENDBRANCH   3   5
ENDBRANCH   2   3
ENDBRANCH   1   2
BRANCH   1   9
ATOM      9  C   UNL d   1      -0.865  -5.538  -2.623  0.00  0.00    -0.028 A 
ATOM     10  C   UNL d   1       0.277  -5.999  -3.308  0.00  0.00     0.012 A 
ATOM     11  C   UNL d   1       0.866  -7.223  -2.991  0.00  0.00     0.037 A 
ATOM     12  C   UNL d   1       0.335  -7.999  -1.958  0.00  0.00     0.102 A 
ATOM     13  C   UNL d   1      -0.763  -7.540  -1.224  0.00  0.00     0.037 A 
ATOM     14  C   UNL d   1      -1.349  -6.314  -1.554  0.00  0.00     0.012 A 
BRANCH  12  15
ATOM     15  N   UNL d   1       0.928  -9.306  -1.657  0.00  0.00    -0.116 N 
ATOM     16  O   UNL d   1       0.458  -9.950  -0.709  0.00  0.00    -0.532 OA
ATOM     17  O   UNL d   1       1.865  -9.692  -2.374  0.00  0.00    -0.532 OA
ENDBRANCH  12  15
ENDBRANCH   1   9
BRANCH   1  18
ATOM     18  O   UNL d   1      -2.957  -4.335  -2.709  0.00  0.00    -0.389 OA
ATOM     19  H   UNL d   1      -3.410  -3.825  -3.408  0.00  0.00     0.210 HD
ENDBRANCH   1  18
TORSDOF 6
