REMARK  3 active torsions:
REMARK  status: ('A' for Active; 'I' for Inactive)
REMARK    1  A    between atoms: C_8  and  C_4 
REMARK    2  A    between atoms: C_9  and  C_8 
REMARK       I    between atoms: N_12  and  C_9 
REMARK    3  A    between atoms: N_14  and  N_12 
ROOT
ATOM      1  N   UNL d   1       2.414  -0.661   0.031  0.00  0.00    -0.299 N 
ATOM      2  HN  UNL d   1       3.315  -1.139   0.053  1.00  0.00     0.187 HD
ATOM      3  N   UNL d   1       2.356   0.708   0.039  0.00  0.00    -0.261 N 
ATOM      4  C   UNL d   1       1.310  -1.343  -0.005  0.00  0.00     0.046 A 
ATOM      5  C   UNL d   1       1.179   1.449   0.039  0.00  0.00     0.272 A 
ATOM      6  C   UNL d   1      -0.076   0.679   0.013  0.00  0.00     0.046 A 
ATOM      7  C   UNL d   1      -0.031  -0.712  -0.023  0.00  0.00     0.004 A 
ATOM      8  O   UNL d   1       1.141   2.678   0.050  0.00  0.00    -0.266 OA
ATOM      9  C   UNL d   1       3.621   1.416  -0.013  0.00  0.00     0.181 C 
ATOM     10  C   UNL d   1      -1.307   1.351   0.002  0.00  0.00     0.018 A 
ATOM     11  C   UNL d   1      -1.228  -1.435  -0.079  0.00  0.00     0.014 A 
ATOM     12  C   UNL d   1      -2.496   0.626  -0.040  0.00  0.00     0.001 A 
ATOM     13  C   UNL d   1      -2.456  -0.765  -0.079  0.00  0.00     0.001 A 
ENDROOT
BRANCH   4  14
ATOM     14  C   UNL d   1       1.448  -2.850  -0.054  0.00  0.00     0.163 C 
BRANCH  14  15
ATOM     15  C   UNL d   1       0.874  -3.578   1.131  0.00  0.00     0.237 C 
ATOM     16  O   UNL d   1      -0.039  -4.397   1.019  0.00  0.00    -0.272 OA
ATOM     17  N   UNL d   1       1.454  -3.258   2.348  0.00  0.00    -0.294 N 
ATOM     18  H   UNL d   1       2.314  -2.711   2.384  0.00  0.00     0.183 HD
BRANCH  17  19
ATOM     19  N   UNL d   1       1.032  -3.947   3.507  0.00  0.00    -0.247 NA
ATOM     20  H   UNL d   1       0.537  -4.794   3.191  0.00  0.00     0.143 HD
ATOM     21  H   UNL d   1       0.294  -3.392   3.951  0.00  0.00     0.143 HD
ENDBRANCH  17  19
ENDBRANCH  14  15
ENDBRANCH   4  14
TORSDOF 3
