REMARK  4 active torsions:
REMARK  status: ('A' for Active; 'I' for Inactive)
REMARK    1  A    between atoms: C_7  and  C_1 
REMARK    2  A    between atoms: O_14  and  C_7 
REMARK    3  A    between atoms: N_12  and  C_8 
REMARK    4  A    between atoms: C_16  and  O_14 
ROOT
ATOM      1  C   UNL d   1       0.968   0.114   0.001  0.00  0.00     0.135 C 
ATOM      2  C   UNL d   1       0.304   0.010  -1.163  0.00  0.00     0.119 C 
ATOM      3  C   UNL d   1       0.302   0.275   1.243  0.00  0.00     0.107 C 
ATOM      4  N   UNL d   1      -0.290   0.392   2.233  0.00  0.00    -0.191 NA
ENDROOT
BRANCH   1   5
ATOM      5  C   UNL d   1       2.443  -0.038  -0.051  0.00  0.00     0.305 C 
ATOM      6  O   UNL d   1       3.074  -0.276  -1.071  0.00  0.00    -0.258 OA
BRANCH   5   7
ATOM      7  O   UNL d   1       2.969   0.039   1.198  0.00  0.00    -0.317 OA
BRANCH   7   8
ATOM      8  C   UNL d   1       4.303  -0.468   1.342  0.00  0.00     0.174 C 
ATOM      9  C   UNL d   1       4.207  -1.956   1.629  0.00  0.00     0.034 C 
ENDBRANCH   7   8
ENDBRANCH   5   7
ENDBRANCH   1   5
BRANCH   2  10
ATOM     10  N   UNL d   1      -1.053   0.052  -1.404  0.00  0.00    -0.343 N 
ATOM     11  C   UNL d   1      -1.687  -0.111  -2.584  0.00  0.00     0.172 A 
ATOM     12  C   UNL d   1      -1.282  -0.374  -3.869  0.00  0.00     0.084 A 
ATOM     13  O   UNL d   1      -3.044  -0.006  -2.564  0.00  0.00    -0.220 OA
ATOM     14  C   UNL d   1      -2.480  -0.410  -4.617  0.00  0.00     0.033 A 
ATOM     15  C   UNL d   1      -2.651  -0.644  -6.068  0.00  0.00     0.070 C 
ATOM     16  N   UNL d   1      -3.547  -0.189  -3.840  0.00  0.00    -0.264 N 
ATOM     17  HN  UNL d   1      -4.525  -0.161  -4.128  1.00  0.00     0.194 HD
ATOM     18  H   UNL d   1      -1.653   0.202  -0.592  0.00  0.00     0.167 HD
ENDBRANCH   2  10
TORSDOF 4
