REMARK  4 active torsions:
REMARK  status: ('A' for Active; 'I' for Inactive)
REMARK    1  A    between atoms: C_14  and  C_4 
REMARK    2  A    between atoms: O_15  and  C_9 
REMARK    3  A    between atoms: C_13  and  O_15 
REMARK    4  A    between atoms: C_16  and  C_19 
ROOT
ATOM      1  N   UNL d   1       1.230   0.086   0.017  0.00  0.00    -0.317 N 
ATOM      2  HN  UNL d   1       2.238   0.235   0.067  1.00  0.00     0.169 HD
ATOM      3  C   UNL d   1       0.571  -1.056   0.012  0.00  0.00     0.206 A 
ATOM      4  C   UNL d   1       0.230   1.027  -0.061  0.00  0.00     0.138 A 
ATOM      5  N   UNL d   1      -1.005   0.501  -0.114  0.00  0.00    -0.242 N 
ATOM      6  HN  UNL d   1      -1.897   0.993  -0.171  1.00  0.00     0.196 HD
ATOM      7  C   UNL d   1       1.214  -2.331   0.091  0.00  0.00     0.131 A 
ATOM      8  O   UNL d   1      -0.781  -0.877  -0.071  0.00  0.00    -0.215 OA
ATOM      9  C   UNL d   1       1.492  -4.519   0.069  0.00  0.00     0.191 A 
ATOM     10  O   UNL d   1       0.557  -3.533  -0.007  0.00  0.00    -0.283 OA
ATOM     11  C   UNL d   1       2.566  -2.576   0.265  0.00  0.00     0.047 A 
ATOM     12  C   UNL d   1       2.739  -3.977   0.285  0.00  0.00     0.067 A 
ENDROOT
BRANCH   4  13
ATOM     13  C   UNL d   1       0.520   2.456  -0.074  0.00  0.00     0.010 A 
ATOM     14  C   UNL d   1       1.842   2.914  -0.104  0.00  0.00     0.016 A 
ATOM     15  C   UNL d   1       2.127   4.286  -0.104  0.00  0.00     0.009 A 
ATOM     16  C   UNL d   1       1.101   5.250  -0.070  0.00  0.00    -0.051 A 
ATOM     17  C   UNL d   1      -0.220   4.774  -0.046  0.00  0.00     0.009 A 
ATOM     18  C   UNL d   1      -0.507   3.402  -0.048  0.00  0.00     0.016 A 
BRANCH  16  19
ATOM     19  C   UNL d   1       1.441   6.750  -0.048  0.00  0.00    -0.024 C 
ATOM     20  C   UNL d   1       0.195   7.664   0.004  0.00  0.00     0.019 C 
ATOM     21  C   UNL d   1       2.296   7.072   1.197  0.00  0.00     0.019 C 
ATOM     22  C   UNL d   1       2.235   7.134  -1.315  0.00  0.00     0.019 C 
ENDBRANCH  16  19
ENDBRANCH   4  13
BRANCH   9  23
ATOM     23  O   UNL d   1       1.005  -5.748  -0.094  0.00  0.00    -0.288 OA
BRANCH  23  24
ATOM     24  C   UNL d   1       1.797  -6.745  -0.619  0.00  0.00     0.081 A 
ATOM     25  C   UNL d   1       1.610  -8.038  -0.131  0.00  0.00     0.061 A 
ATOM     26  C   UNL d   1       2.368  -9.086  -0.654  0.00  0.00     0.038 A 
ATOM     27 CL   UNL d   1       2.142 -10.685  -0.057  0.00  0.00    -0.084 Cl
ATOM     28  C   UNL d   1       3.307  -8.858  -1.658  0.00  0.00     0.048 A 
ATOM     29  C   UNL d   1       3.471  -7.568  -2.154  0.00  0.00     0.038 A 
ATOM     30  C   UNL d   1       2.709  -6.514  -1.654  0.00  0.00     0.061 A 
ATOM     31 CL   UNL d   1       4.626  -7.264  -3.392  0.00  0.00    -0.084 Cl
ENDBRANCH  23  24
ENDBRANCH   9  23
TORSDOF 4
