REMARK  6 active torsions:
REMARK  status: ('A' for Active; 'I' for Inactive)
REMARK    1  A    between atoms: C_5  and  C_1 
REMARK    2  A    between atoms: N_9  and  C_2 
REMARK    3  A    between atoms: O_12  and  C_5 
REMARK    4  A    between atoms: N_7  and  N_9 
REMARK    5  A    between atoms: C_14  and  C_11 
REMARK    6  A    between atoms: O_17  and  C_15 
ROOT
ATOM      1  N   UNL d   1       1.403   2.428  -0.187  0.00  0.00    -0.299 N 
ATOM      2  H   UNL d   1       0.928   3.337  -0.112  0.00  0.00     0.187 HD
ENDROOT
BRANCH   1   3
ATOM      3  N   UNL d   1       2.753   2.423  -0.213  0.00  0.00    -0.311 N 
ATOM      4  C   UNL d   1       3.330   3.487  -0.673  0.00  0.00     0.118 C 
ATOM      5  HN  UNL d   1       3.292   1.620   0.112  1.00  0.00     0.186 HD
BRANCH   4   6
ATOM      6  C   UNL d   1       4.804   3.552  -0.763  0.00  0.00    -0.017 A 
ATOM      7  C   UNL d   1       5.582   2.494  -0.269  0.00  0.00     0.049 A 
ATOM      8  C   UNL d   1       6.968   2.527  -0.387  0.00  0.00     0.069 A 
ATOM      9  C   UNL d   1       7.573   3.637  -0.981  0.00  0.00     0.037 A 
ATOM     10  C   UNL d   1       6.801   4.699  -1.466  0.00  0.00     0.004 A 
ATOM     11  C   UNL d   1       5.411   4.656  -1.362  0.00  0.00     0.013 A 
BRANCH   8  12
ATOM     12  O   UNL d   1       7.829   1.548   0.029  0.00  0.00    -0.356 OA
ATOM     13  C   UNL d   1       7.243   0.373   0.580  0.00  0.00     0.210 C 
ENDBRANCH   8  12
ENDBRANCH   4   6
ENDBRANCH   1   3
BRANCH   1  14
ATOM     14  C   UNL d   1       0.643   1.297  -0.075  0.00  0.00     0.077 A 
ATOM     15  C   UNL d   1      -0.733   1.367   0.114  0.00  0.00     0.108 A 
ATOM     16  S   UNL d   1      -1.441  -0.191   0.174  0.00  0.00    -0.093 SA
ATOM     17  C   UNL d   1       0.060  -0.955  -0.039  0.00  0.00     0.059 A 
ATOM     18  C   UNL d   1       1.116  -0.069  -0.150  0.00  0.00    -0.026 A 
ATOM     19  C   UNL d   1       2.514  -0.569  -0.339  0.00  0.00     0.051 C 
BRANCH  15  20
ATOM     20  C   UNL d   1      -1.538   2.571   0.251  0.00  0.00     0.302 C 
ATOM     21  O   UNL d   1      -1.090   3.715   0.206  0.00  0.00    -0.259 OA
BRANCH  20  22
ATOM     22  O   UNL d   1      -2.859   2.280   0.444  0.00  0.00    -0.322 OA
ATOM     23  C   UNL d   1      -3.704   3.418   0.603  0.00  0.00     0.213 C 
ENDBRANCH  20  22
ENDBRANCH  15  20
ENDBRANCH   1  14
TORSDOF 6
