REMARK  6 active torsions:
REMARK  status: ('A' for Active; 'I' for Inactive)
REMARK    1  A    between atoms: C_10  and  N_3 
REMARK    2  A    between atoms: C_9  and  N_4 
REMARK    3  A    between atoms: C_15  and  C_7 
REMARK    4  A    between atoms: N_14  and  C_13 
REMARK    5  A    between atoms: C_20  and  N_14 
REMARK    6  A    between atoms: C_21  and  N_14 
ROOT
ATOM      1  C   UNL d   1      -1.697  -0.143   0.031  0.00  0.00     0.344 C 
ATOM      2  C   UNL d   1       1.144   0.095   0.026  0.00  0.00     0.102 C 
ATOM      3  N   UNL d   1      -1.058   1.104  -0.054  0.00  0.00    -0.229 N 
ATOM      4  N   UNL d   1      -0.862  -1.272   0.040  0.00  0.00    -0.229 N 
ATOM      5  C   UNL d   1       0.525  -1.248   0.099  0.00  0.00     0.272 C 
ATOM      6  C   UNL d   1       0.313   1.295  -0.199  0.00  0.00     0.272 C 
ATOM      7  C   UNL d   1       2.483   0.139   0.191  0.00  0.00     0.034 C 
ATOM      8  O   UNL d   1      -2.928  -0.244   0.094  0.00  0.00    -0.245 OA
ATOM      9  O   UNL d   1       1.239  -2.250   0.177  0.00  0.00    -0.266 OA
ATOM     10  O   UNL d   1       0.833   2.377  -0.473  0.00  0.00    -0.266 OA
ENDROOT
BRANCH   7  11
ATOM     11  C   UNL d   1       3.334   1.329   0.258  0.00  0.00    -0.035 A 
ATOM     12  C   UNL d   1       3.562   1.954   1.483  0.00  0.00     0.013 A 
ATOM     13  C   UNL d   1       4.412   3.065   1.562  0.00  0.00     0.030 A 
ATOM     14  C   UNL d   1       5.077   3.568   0.435  0.00  0.00     0.030 A 
ATOM     15  C   UNL d   1       4.805   2.937  -0.790  0.00  0.00     0.030 A 
ATOM     16  C   UNL d   1       3.947   1.835  -0.885  0.00  0.00     0.013 A 
BRANCH  14  17
ATOM     17  N   UNL d   1       5.989   4.611   0.536  0.00  0.00    -0.382 N 
BRANCH  17  18
ATOM     18  C   UNL d   1       5.735   5.743   1.430  0.00  0.00     0.118 C 
ATOM     19  C   UNL d   1       6.594   5.673   2.684  0.00  0.00     0.026 C 
ENDBRANCH  17  18
BRANCH  17  20
ATOM     20  C   UNL d   1       7.171   4.664  -0.329  0.00  0.00     0.118 C 
ATOM     21  C   UNL d   1       8.126   3.517  -0.022  0.00  0.00     0.026 C 
ENDBRANCH  17  20
ENDBRANCH  14  17
ENDBRANCH   7  11
BRANCH   4  22
ATOM     22  C   UNL d   1      -1.491  -2.563   0.032  0.00  0.00     0.047 A 
ATOM     23  C   UNL d   1      -2.362  -2.918  -1.007  0.00  0.00     0.030 A 
ATOM     24  C   UNL d   1      -2.912  -4.201  -1.061  0.00  0.00     0.002 A 
ATOM     25  C   UNL d   1      -2.625  -5.128  -0.060  0.00  0.00     0.000 A 
ATOM     26  C   UNL d   1      -1.782  -4.778   0.992  0.00  0.00     0.002 A 
ATOM     27  C   UNL d   1      -1.205  -3.507   1.032  0.00  0.00     0.030 A 
ENDBRANCH   4  22
BRANCH   3  28
ATOM     28  C   UNL d   1      -1.880   2.283  -0.021  0.00  0.00     0.047 A 
ATOM     29  C   UNL d   1      -2.744   2.509   1.059  0.00  0.00     0.030 A 
ATOM     30  C   UNL d   1      -3.459   3.705   1.156  0.00  0.00     0.002 A 
ATOM     31  C   UNL d   1      -3.344   4.672   0.159  0.00  0.00     0.000 A 
ATOM     32  C   UNL d   1      -2.515   4.446  -0.937  0.00  0.00     0.002 A 
ATOM     33  C   UNL d   1      -1.778   3.262  -1.022  0.00  0.00     0.030 A 
ENDBRANCH   3  28
TORSDOF 6
