REMARK  4 active torsions:
REMARK  status: ('A' for Active; 'I' for Inactive)
REMARK    1  A    between atoms: N_5  and  C_1 
REMARK    2  A    between atoms: C_11  and  N_5 
REMARK    3  A    between atoms: C_12  and  N_8 
REMARK    4  A    between atoms: C_9  and  C_12 
ROOT
ATOM      1  C   UNL d   1       1.489  -0.938   0.188  0.00  0.00     0.172 C 
ATOM      2  S   UNL d   1       0.356  -0.380   1.286  0.00  0.00    -0.041 SA
ATOM      3  N   UNL d   1       2.227   0.041  -0.415  0.00  0.00    -0.364 N 
ATOM      4  H   UNL d   1       2.009   0.962  -0.049  0.00  0.00     0.162 HD
ENDROOT
BRANCH   3   5
ATOM      5  C   UNL d   1       3.301  -0.024  -1.407  0.00  0.00     0.156 C 
BRANCH   5   6
ATOM      6  C   UNL d   1       4.710   0.024  -0.780  0.00  0.00     0.171 C 
ATOM      7  O   UNL d   1       5.015  -1.201  -0.095  0.00  0.00    -0.339 OA
ATOM      8  C   UNL d   1       5.441  -2.188  -0.945  0.00  0.00     0.102 A 
ATOM      9  C   UNL d   1       5.472  -3.482  -0.430  0.00  0.00     0.039 A 
ATOM     10  C   UNL d   1       5.800  -1.954  -2.275  0.00  0.00     0.102 A 
ATOM     11  C   UNL d   1       5.820  -4.548  -1.258  0.00  0.00     0.003 A 
ATOM     12  C   UNL d   1       6.137  -4.320  -2.597  0.00  0.00     0.003 A 
ATOM     13  C   UNL d   1       6.131  -3.021  -3.108  0.00  0.00     0.039 A 
ATOM     14  O   UNL d   1       5.811  -0.703  -2.838  0.00  0.00    -0.346 OA
ATOM     15  C   UNL d   1       5.784   0.313  -1.830  0.00  0.00     0.209 C 
ENDBRANCH   5   6
ENDBRANCH   3   5
BRANCH   1  16
ATOM     16  N   UNL d   1       1.731  -2.223  -0.219  0.00  0.00    -0.333 N 
ATOM     17  H   UNL d   1       2.171  -2.311  -1.121  0.00  0.00     0.168 HD
BRANCH  16  18
ATOM     18  C   UNL d   1       1.326  -3.463   0.339  0.00  0.00     0.034 A 
ATOM     19  C   UNL d   1       1.353  -4.587  -0.498  0.00  0.00     0.030 A 
ATOM     20  C   UNL d   1       0.997  -5.853  -0.015  0.00  0.00     0.009 A 
ATOM     21  C   UNL d   1       0.640  -6.026   1.325  0.00  0.00    -0.062 A 
ATOM     22  C   UNL d   1       0.616  -4.908   2.162  0.00  0.00     0.009 A 
ATOM     23  C   UNL d   1       0.261  -7.379   1.846  0.00  0.00     0.048 C 
ATOM     24  C   UNL d   1       0.967  -3.644   1.675  0.00  0.00     0.030 A 
ENDBRANCH  16  18
ENDBRANCH   1  16
TORSDOF 4
