REMARK  10 active torsions:
REMARK  status: ('A' for Active; 'I' for Inactive)
REMARK    1  A    between atoms: C_3  and  C_1 
REMARK    2  A    between atoms: C_4  and  C_1 
REMARK    3  A    between atoms: N_9  and  C_2 
REMARK    4  A    between atoms: O_18  and  C_3 
REMARK    5  A    between atoms: O_19  and  C_4 
REMARK    6  A    between atoms: C_6  and  C_5 
REMARK    7  A    between atoms: O_17  and  C_6 
REMARK    8  A    between atoms: C_10  and  N_9 
REMARK    9  A    between atoms: C_20  and  O_18 
REMARK   10  A    between atoms: C_21  and  O_19 
ROOT
ATOM      1  N   UNL d   1       0.894  -0.660   2.425  0.00  0.00    -0.351 N 
ATOM      2  H   UNL d   1       1.799  -0.232   2.642  0.00  0.00     0.166 HD
ENDROOT
BRANCH   1   3
ATOM      3  C   UNL d   1       0.404  -0.418   1.159  0.00  0.00     0.113 C 
ATOM      4  C   UNL d   1       1.063  -0.033   0.049  0.00  0.00     0.129 C 
BRANCH   4   5
ATOM      5  C   UNL d   1       0.309   0.350  -1.173  0.00  0.00     0.300 C 
ATOM      6  O   UNL d   1       0.752   1.079  -2.049  0.00  0.00    -0.259 OA
BRANCH   5   7
ATOM      7  O   UNL d   1      -0.973  -0.105  -1.125  0.00  0.00    -0.318 OA
BRANCH   7   8
ATOM      8  C   UNL d   1      -1.894   0.562  -2.001  0.00  0.00     0.174 C 
ATOM      9  C   UNL d   1      -2.419   1.801  -1.294  0.00  0.00     0.034 C 
ENDBRANCH   7   8
ENDBRANCH   5   7
ENDBRANCH   4   5
BRANCH   4  10
ATOM     10  C   UNL d   1       2.526   0.164   0.121  0.00  0.00     0.300 C 
ATOM     11  O   UNL d   1       3.133   0.405   1.157  0.00  0.00    -0.259 OA
BRANCH  10  12
ATOM     12  O   UNL d   1       3.080   0.064  -1.111  0.00  0.00    -0.318 OA
BRANCH  12  13
ATOM     13  C   UNL d   1       4.390   0.633  -1.241  0.00  0.00     0.174 C 
ATOM     14  C   UNL d   1       4.247   2.128  -1.473  0.00  0.00     0.034 C 
ENDBRANCH  12  13
ENDBRANCH  10  12
ENDBRANCH   4  10
ENDBRANCH   1   3
BRANCH   1  15
ATOM     15  C   UNL d   1       0.173  -0.955   3.582  0.00  0.00     0.104 A 
ATOM     16  N   UNL d   1       0.724  -0.560   4.750  0.00  0.00    -0.351 N 
ATOM     17  C   UNL d   1       0.043  -0.819   5.898  0.00  0.00     0.108 A 
ATOM     18  HN  UNL d   1       1.624  -0.082   4.770  1.00  0.00     0.166 HD
ATOM     19  C   UNL d   1      -1.157  -1.503   5.944  0.00  0.00     0.053 A 
ATOM     20  C   UNL d   1      -1.719  -1.912   4.738  0.00  0.00     0.023 A 
ATOM     21  C   UNL d   1      -1.044  -1.634   3.549  0.00  0.00     0.050 A 
BRANCH  19  22
ATOM     22  C   UNL d   1      -1.799  -1.726   7.255  0.00  0.00     0.177 C 
ATOM     23  O   UNL d   1      -1.643  -0.969   8.198  0.00  0.00    -0.646 OA
BRANCH  22  24
ATOM     24  O   UNL d   1      -2.536  -2.851   7.324  0.00  0.00    -0.773 OA
ATOM     25  H   UNL d   1      -2.441  -3.472   6.580  0.00  0.00     0.167 HD
ENDBRANCH  22  24
ENDBRANCH  19  22
ENDBRANCH   1  15
TORSDOF 10
