REMARK  6 active torsions:
REMARK  status: ('A' for Active; 'I' for Inactive)
REMARK    1  A    between atoms: C_3  and  C_1 
REMARK    2  A    between atoms: C_4  and  C_1 
REMARK    3  A    between atoms: C_8  and  C_2 
REMARK    4  A    between atoms: O_11  and  C_3 
REMARK    5  A    between atoms: N_5  and  C_4 
REMARK    6  A    between atoms: C_15  and  O_11 
ROOT
ATOM      1  C   UNL d   1       1.039  -0.068  -0.062  0.00  0.00     0.102 C 
ATOM      2  C   UNL d   1       0.347  -0.411  -1.166  0.00  0.00     0.040 C 
ENDROOT
BRANCH   1   3
ATOM      3  C   UNL d   1       0.311   0.449   1.117  0.00  0.00     0.302 C 
ATOM      4  O   UNL d   1      -0.901   0.575   1.174  0.00  0.00    -0.259 OA
BRANCH   3   5
ATOM      5  O   UNL d   1       1.198   0.849   2.062  0.00  0.00    -0.317 OA
BRANCH   5   6
ATOM      6  C   UNL d   1       0.670   1.658   3.122  0.00  0.00     0.174 C 
ATOM      7  C   UNL d   1       0.712   3.112   2.688  0.00  0.00     0.034 C 
ENDBRANCH   5   6
ENDBRANCH   3   5
ENDBRANCH   1   3
BRANCH   1   8
ATOM      8  C   UNL d   1       2.559  -0.068  -0.062  0.00  0.00    -0.031 C 
BRANCH   8   9
ATOM      9  N   UNL d   1       3.820  -0.068  -0.062  0.00  0.00    -0.365 N 
ATOM     10  HN2 UNL d   1       2.800  -0.068  -0.062  1.00  0.00     0.165 HD
ATOM     11  HN1 UNL d   1       4.840  -0.068  -0.062  1.00  0.00     0.165 HD
ENDBRANCH   8   9
ENDBRANCH   1   8
BRANCH   2  12
ATOM     12  C   UNL d   1       1.003  -0.789  -2.429  0.00  0.00    -0.013 A 
ATOM     13  C   UNL d   1       1.407  -2.101  -2.722  0.00  0.00     0.044 A 
ATOM     14 CL   UNL d   1       1.084  -3.410  -1.641  0.00  0.00    -0.083 Cl
ATOM     15  C   UNL d   1       2.104  -2.377  -3.902  0.00  0.00     0.024 A 
ATOM     16  C   UNL d   1       2.401  -1.349  -4.798  0.00  0.00     0.002 A 
ATOM     17  C   UNL d   1       1.996  -0.046  -4.521  0.00  0.00     0.001 A 
ATOM     18  C   UNL d   1       1.299   0.234  -3.345  0.00  0.00     0.013 A 
ENDBRANCH   2  12
TORSDOF 6
