REMARK  2 active torsions:
REMARK  status: ('A' for Active; 'I' for Inactive)
REMARK    1  A    between atoms: C_2  and  C_1 
REMARK    2  A    between atoms: C_13  and  N_3 
ROOT
ATOM      1  C   UNL d   1      -0.288  -1.331  -0.154  0.00  0.00     0.154 A 
ATOM      2  N   UNL d   1      -1.040  -0.509   0.688  0.00  0.00    -0.224 N 
ATOM      3  N   UNL d   1      -0.652   0.773   0.440  0.00  0.00     0.001 NA
ATOM      4  N   UNL d   1       0.237   0.721  -0.536  0.00  0.00    -0.007 NA
ATOM      5  N   UNL d   1       0.461  -0.565  -0.926  0.00  0.00    -0.269 N 
ATOM      6  HN  UNL d   1       1.086  -0.876  -1.670  1.00  0.00     0.185 HD
ENDROOT
BRANCH   1   7
ATOM      7  C   UNL d   1      -0.383  -2.735  -0.142  0.00  0.00     0.077 A 
ATOM      8  C   UNL d   1       0.159  -3.550   0.989  0.00  0.00     0.199 A 
ATOM      9  C   UNL d   1      -0.039  -5.026   0.916  0.00  0.00     0.042 A 
ATOM     10  O   UNL d   1       0.706  -3.030   1.953  0.00  0.00    -0.286 OA
ATOM     11  C   UNL d   1       0.457  -5.857   1.926  0.00  0.00     0.018 A 
ATOM     12  C   UNL d   1      -0.749  -5.564  -0.173  0.00  0.00     0.046 A 
ATOM     13  C   UNL d   1       0.247  -7.234   1.849  0.00  0.00     0.001 A 
ATOM     14  C   UNL d   1      -0.461  -7.775   0.775  0.00  0.00     0.002 A 
ATOM     15  C   UNL d   1      -0.960  -6.944  -0.231  0.00  0.00     0.030 A 
ATOM     16  N   UNL d   1      -1.225  -4.723  -1.187  0.00  0.00    -0.364 N 
ATOM     17  C   UNL d   1      -1.006  -3.374  -1.145  0.00  0.00     0.107 A 
ATOM     18  H   UNL d   1      -1.747  -5.117  -1.961  0.00  0.00     0.165 HD
ENDBRANCH   1   7
BRANCH   2  19
ATOM     19  C   UNL d   1      -2.087  -0.765   1.627  0.00  0.00     0.056 A 
ATOM     20  C   UNL d   1      -2.501   0.279   2.473  0.00  0.00     0.031 A 
ATOM     21  C   UNL d   1      -3.474   0.059   3.453  0.00  0.00     0.002 A 
ATOM     22  C   UNL d   1      -4.056  -1.197   3.592  0.00  0.00     0.000 A 
ATOM     23  C   UNL d   1      -3.690  -2.225   2.730  0.00  0.00     0.002 A 
ATOM     24  C   UNL d   1      -2.722  -2.008   1.744  0.00  0.00     0.031 A 
ENDBRANCH   2  19
TORSDOF 2
