REMARK  2 active torsions:
REMARK  status: ('A' for Active; 'I' for Inactive)
REMARK    1  A    between atoms: N_14  and  C_10 
REMARK    2  A    between atoms: C_18  and  N_14 
ROOT
ATOM      1  S   UNL d   1      -1.039  -1.453   0.049  0.00  0.00     0.270 S 
ATOM      2  C   UNL d   1      -1.725  -0.210   2.285  0.00  0.00     0.101 A 
ATOM      3  N   UNL d   1      -1.446  -1.487   1.686  0.00  0.00    -0.269 N 
ATOM      4  C   UNL d   1      -2.032   0.945   1.571  0.00  0.00     0.057 A 
ATOM      5  C   UNL d   1      -2.134  -0.296  -0.559  0.00  0.00     0.146 C 
ATOM      6  C   UNL d   1      -2.111   1.005   0.108  0.00  0.00     0.210 C 
ATOM      7  S   UNL d   1      -1.775   0.042   3.966  0.00  0.00    -0.075 SA
ATOM      8  C   UNL d   1      -2.345   2.050   2.468  0.00  0.00    -0.032 A 
ATOM      9  C   UNL d   1      -2.221   1.672   3.796  0.00  0.00    -0.012 A 
ATOM     10  C   UNL d   1      -3.086  -0.604  -1.446  0.00  0.00     0.118 C 
ATOM     11  O   UNL d   1      -1.349  -2.763  -0.497  0.00  0.00    -0.200 OA
ATOM     12  O   UNL d   1       0.312  -0.939  -0.052  0.00  0.00    -0.200 OA
ATOM     13  O   UNL d   1      -2.281   2.036  -0.538  0.00  0.00    -0.286 OA
ATOM     14  C   UNL d   1      -1.149  -2.724   2.411  0.00  0.00     0.170 C 
ATOM     15  C   UNL d   1      -2.789   3.429   2.070  0.00  0.00     0.050 C 
ATOM     16  C   UNL d   1      -2.459   2.514   5.009  0.00  0.00     0.057 C 
ENDROOT
BRANCH  10  17
ATOM     17  N   UNL d   1      -4.060   0.240  -1.928  0.00  0.00    -0.364 N 
ATOM     18  H   UNL d   1      -3.924   1.234  -1.730  0.00  0.00     0.165 HD
BRANCH  17  19
ATOM     19  C   UNL d   1      -5.133  -0.071  -2.773  0.00  0.00     0.034 A 
ATOM     20  C   UNL d   1      -5.684  -1.348  -2.872  0.00  0.00     0.046 A 
ATOM     21  C   UNL d   1      -6.693  -1.570  -3.796  0.00  0.00     0.090 A 
ATOM     22  N   UNL d   1      -7.174  -0.623  -4.627  0.00  0.00    -0.375 N 
ATOM     23  C   UNL d   1      -6.624   0.604  -4.522  0.00  0.00     0.090 A 
ATOM     24  HN  UNL d   1      -7.914  -0.824  -5.300  1.00  0.00     0.164 HD
ATOM     25  C   UNL d   1      -5.625   0.924  -3.620  0.00  0.00     0.046 A 
ENDBRANCH  17  19
ENDBRANCH  10  17
TORSDOF 2
