REMARK  5 active torsions:
REMARK  status: ('A' for Active; 'I' for Inactive)
REMARK    1  A    between atoms: C_2  and  S_1 
REMARK    2  A    between atoms: O_8  and  S_1 
REMARK    3  A    between atoms: C_4  and  C_10 
REMARK    4  A    between atoms: C_20  and  C_4 
REMARK    5  A    between atoms: C_17  and  O_8 
ROOT
ATOM      1  C   UNL d   1       2.334   1.850  -4.064  0.00  0.00    -0.038 A 
ATOM      2  C   UNL d   1       2.036   1.259  -2.813  0.00  0.00     0.046 A 
ATOM      3  C   UNL d   1       0.769   0.717  -2.537  0.00  0.00     0.090 A 
ATOM      4  C   UNL d   1       1.313   1.826  -5.035  0.00  0.00     0.008 A 
ATOM      5  C   UNL d   1       0.059   1.274  -4.769  0.00  0.00     0.003 A 
ATOM      6  C   UNL d   1      -0.212   0.715  -3.526  0.00  0.00     0.038 A 
ENDROOT
BRANCH   3   7
ATOM      7  O   UNL d   1       0.586   0.222  -1.266  0.00  0.00    -0.229 OA
BRANCH   7   8
ATOM      8  S   UNL d   1      -0.896  -0.169  -0.699  0.00  0.00     0.304 S 
ATOM      9  O   UNL d   1      -1.724   1.028  -0.737  0.00  0.00    -0.193 OA
ATOM     10  O   UNL d   1      -1.355  -1.393  -1.321  0.00  0.00    -0.193 OA
BRANCH   8  11
ATOM     11  C   UNL d   1      -0.674  -0.553   1.020  0.00  0.00     0.109 A 
ATOM     12  C   UNL d   1       0.386  -1.334   1.469  0.00  0.00     0.059 A 
ATOM     13  C   UNL d   1       0.509  -1.588   2.840  0.00  0.00     0.050 A 
ATOM     14 CL   UNL d   1       1.555  -2.065   0.434  0.00  0.00    -0.083 Cl
ATOM     15  C   UNL d   1      -0.429  -1.090   3.752  0.00  0.00     0.041 A 
ATOM     16  C   UNL d   1      -1.519  -0.330   3.308  0.00  0.00    -0.039 A 
ATOM     17 CL   UNL d   1      -0.185  -1.462   5.420  0.00  0.00    -0.084 Cl
ATOM     18  C   UNL d   1      -1.623  -0.060   1.932  0.00  0.00     0.036 A 
ATOM     19  C   UNL d   1      -2.608   0.187   4.208  0.00  0.00     0.050 C 
ENDBRANCH   8  11
ENDBRANCH   7   8
ENDBRANCH   3   7
BRANCH   1  20
ATOM     20  C   UNL d   1       3.769   2.506  -4.341  0.00  0.00     0.068 C 
ATOM     21  C   UNL d   1       4.064   3.518  -3.186  0.00  0.00     0.232 C 
ATOM     22  N   UNL d   1       5.360   3.737  -2.709  0.00  0.00    -0.356 N 
ATOM     23  O   UNL d   1       3.124   4.154  -2.688  0.00  0.00    -0.272 OA
ATOM     24  C   UNL d   1       5.458   4.672  -1.591  0.00  0.00     0.152 C 
ATOM     25  C   UNL d   1       6.587   3.603  -3.489  0.00  0.00     0.125 C 
ATOM     26  C   UNL d   1       7.023   2.185  -3.804  0.00  0.00     0.020 C 
ATOM     27  C   UNL d   1       6.152   1.448  -4.804  0.00  0.00     0.003 C 
ATOM     28  C   UNL d   1       4.714   1.274  -4.347  0.00  0.00     0.024 C 
BRANCH  20  29
ATOM     29  C   UNL d   1       3.690   3.278  -5.702  0.00  0.00     0.020 C 
ATOM     30  C   UNL d   1       4.750   4.275  -6.136  0.00  0.00     0.006 C 
ENDBRANCH  20  29
ENDBRANCH   1  20
TORSDOF 5
