REMARK  11 active torsions:
REMARK  status: ('A' for Active; 'I' for Inactive)
REMARK    1  A    between atoms: C_2  and  N_1 
REMARK    2  A    between atoms: C_5  and  C_24 
REMARK    3  A    between atoms: O_23  and  C_5 
REMARK    4  A    between atoms: C_6  and  C_7 
REMARK    5  A    between atoms: C_25  and  C_6 
REMARK    6  A    between atoms: S_14  and  C_25 
REMARK    7  A    between atoms: C_24  and  S_14 
REMARK    8  A    between atoms: O_15  and  C_18 
REMARK    9  A    between atoms: C_16  and  O_15 
REMARK   10  A    between atoms: C_18  and  C_17 
REMARK   11  A    between atoms: C_26  and  O_23 
ROOT
ATOM      1  C   UNL d   1      -3.059  -4.107   8.792  0.00  0.00     0.011 A 
ATOM      2  C   UNL d   1      -2.547  -2.807   8.798  0.00  0.00     0.018 A 
ATOM      3  C   UNL d   1      -2.989  -4.875   7.624  0.00  0.00     0.018 A 
ATOM      4  C   UNL d   1      -1.875  -3.051   6.487  0.00  0.00     0.069 A 
ATOM      5  C   UNL d   1      -1.984  -2.274   7.641  0.00  0.00     0.037 A 
ATOM      6  C   UNL d   1      -2.406  -4.342   6.470  0.00  0.00     0.037 A 
ENDROOT
BRANCH   4   7
ATOM      7  O   UNL d   1      -1.252  -2.640   5.339  0.00  0.00    -0.347 OA
BRANCH   7   8
ATOM      8  C   UNL d   1      -0.246  -1.645   5.546  0.00  0.00     0.214 C 
BRANCH   8   9
ATOM      9  C   UNL d   1       0.727  -1.664   4.397  0.00  0.00    -0.034 A 
ATOM     10  C   UNL d   1       0.316  -1.290   3.110  0.00  0.00     0.012 A 
ATOM     11  C   UNL d   1       1.224  -1.287   2.051  0.00  0.00     0.037 A 
ATOM     12  C   UNL d   1       2.553  -1.665   2.282  0.00  0.00     0.102 A 
ATOM     13  C   UNL d   1       2.978  -2.046   3.561  0.00  0.00     0.037 A 
ATOM     14  C   UNL d   1       2.061  -2.047   4.615  0.00  0.00     0.012 A 
BRANCH  12  15
ATOM     15  N   UNL d   1       3.514  -1.662   1.174  0.00  0.00    -0.116 N 
ATOM     16  O   UNL d   1       4.682  -1.994   1.422  0.00  0.00    -0.532 OA
ATOM     17  O   UNL d   1       3.102  -1.324   0.053  0.00  0.00    -0.532 OA
ENDBRANCH  12  15
ENDBRANCH   8   9
ENDBRANCH   7   8
ENDBRANCH   4   7
BRANCH   1  18
ATOM     18  C   UNL d   1      -3.661  -4.703  10.014  0.00  0.00     0.168 C 
ATOM     19  O   UNL d   1      -3.570  -5.918  10.185  0.00  0.00    -0.292 OA
BRANCH  18  20
ATOM     20  C   UNL d   1      -4.341  -3.779  11.007  0.00  0.00     0.158 C 
BRANCH  20  21
ATOM     21  S   UNL d   1      -6.096  -4.206  11.255  0.00  0.00    -0.151 SA
BRANCH  21  22
ATOM     22  C   UNL d   1      -5.954  -5.820  12.094  0.00  0.00     0.185 C 
BRANCH  22  23
ATOM     23  C   UNL d   1      -5.086  -5.791  13.331  0.00  0.00     0.268 C 
ATOM     24  O   UNL d   1      -4.627  -4.799  13.883  0.00  0.00    -0.264 OA
BRANCH  23  25
ATOM     25  O   UNL d   1      -4.851  -7.076  13.734  0.00  0.00    -0.321 OA
BRANCH  25  26
ATOM     26  C   UNL d   1      -3.739  -7.246  14.621  0.00  0.00     0.174 C 
ATOM     27  C   UNL d   1      -2.514  -7.537  13.774  0.00  0.00     0.034 C 
ENDBRANCH  25  26
ENDBRANCH  23  25
ENDBRANCH  22  23
ENDBRANCH  21  22
ENDBRANCH  20  21
ENDBRANCH  18  20
ENDBRANCH   1  18
TORSDOF 11
