REMARK  5 active torsions:
REMARK  status: ('A' for Active; 'I' for Inactive)
REMARK    1  A    between atoms: N_8  and  C_1 
REMARK    2  A    between atoms: C_6  and  C_5 
REMARK    3  A    between atoms: C_7  and  C_6 
REMARK       I    between atoms: N_11  and  C_7 
REMARK    4  A    between atoms: C_18  and  N_8 
REMARK    5  A    between atoms: C_10  and  N_11 
ROOT
ATOM      1  C   UNL d   1       0.979   0.887   0.293  0.00  0.00     0.148 C 
ATOM      2  N   UNL d   1       1.160  -0.279   0.967  0.00  0.00    -0.306 N 
ATOM      3  C   UNL d   1       0.079  -1.078   1.154  0.00  0.00     0.238 C 
ATOM      4  S   UNL d   1      -0.736   1.239   0.214  0.00  0.00    -0.079 SA
ATOM      5  C   UNL d   1      -1.161  -0.527   0.477  0.00  0.00     0.156 C 
ATOM      6  O   UNL d   1       0.151  -2.149   1.748  0.00  0.00    -0.272 OA
ATOM      7  H   UNL d   1       2.068  -0.586   1.272  0.00  0.00     0.171 HD
ENDROOT
BRANCH   5   8
ATOM      8  C   UNL d   1      -2.378  -0.862   1.317  0.00  0.00     0.128 C 
BRANCH   8   9
ATOM      9  C   UNL d   1      -3.719  -0.672   0.648  0.00  0.00     0.223 C 
ATOM     10  N   UNL d   1      -4.138   0.638   0.574  0.00  0.00    -0.326 N 
ATOM     11  H   UNL d   1      -3.433   1.371   0.618  0.00  0.00     0.169 HD
ATOM     12  O   UNL d   1      -4.367  -1.646   0.275  0.00  0.00    -0.273 OA
BRANCH  10  13
ATOM     13  C   UNL d   1      -5.476   1.085   0.414  0.00  0.00     0.058 A 
ATOM     14  C   UNL d   1      -6.579   0.230   0.549  0.00  0.00     0.055 A 
ATOM     15  C   UNL d   1      -7.880   0.740   0.503  0.00  0.00     0.036 A 
ATOM     16 CL   UNL d   1      -9.223  -0.324   0.681  0.00  0.00    -0.084 Cl
ATOM     17  C   UNL d   1      -8.105   2.103   0.332  0.00  0.00     0.026 A 
ATOM     18  C   UNL d   1      -7.019   2.963   0.167  0.00  0.00     0.028 A 
ATOM     19  C   UNL d   1      -5.716   2.455   0.199  0.00  0.00     0.060 A 
ATOM     20 CL   UNL d   1      -4.407   3.559  -0.050  0.00  0.00    -0.082 Cl
ENDBRANCH  10  13
ENDBRANCH   8   9
ENDBRANCH   5   8
BRANCH   1  21
ATOM     21  N   UNL d   1       1.892   1.625  -0.232  0.00  0.00    -0.337 N 
ATOM     22  HN  UNL d   1       1.640   2.516  -0.660  1.00  0.00     0.168 HD
BRANCH  21  23
ATOM     23  C   UNL d   1       3.244   1.208  -0.220  0.00  0.00     0.034 A 
ATOM     24  C   UNL d   1       3.631  -0.077  -0.635  0.00  0.00     0.029 A 
ATOM     25  C   UNL d   1       4.958  -0.503  -0.529  0.00  0.00     0.002 A 
ATOM     26  C   UNL d   1       5.934   0.382  -0.086  0.00  0.00     0.000 A 
ATOM     27  C   UNL d   1       5.584   1.691   0.239  0.00  0.00     0.002 A 
ATOM     28  C   UNL d   1       4.244   2.099   0.177  0.00  0.00     0.029 A 
ENDBRANCH  21  23
ENDBRANCH   1  21
TORSDOF 5
