REMARK  3 active torsions:
REMARK  status: ('A' for Active; 'I' for Inactive)
REMARK    1  A    between atoms: C_2  and  C_8 
REMARK    2  A    between atoms: O_7  and  C_5 
REMARK    3  A    between atoms: C_8  and  O_7 
ROOT
ATOM      1  C   UNL d   1      -0.030   0.697  -0.010  0.00  0.00     0.099 A 
ATOM      2  C   UNL d   1      -1.338   1.274   0.042  0.00  0.00     0.104 C 
ATOM      3  N   UNL d   1      -2.387   1.775   0.053  0.00  0.00    -0.191 NA
ATOM      4  C   UNL d   1       1.136   1.484  -0.022  0.00  0.00     0.091 A 
ATOM      5  C   UNL d   1       0.096  -0.705  -0.014  0.00  0.00     0.057 A 
ATOM      6 CL   UNL d   1      -1.283  -1.755  -0.003  0.00  0.00    -0.083 Cl
ATOM      7  C   UNL d   1       2.503  -0.536  -0.008  0.00  0.00     0.005 A 
ATOM      8  C   UNL d   1       2.390   0.853  -0.005  0.00  0.00     0.038 A 
ATOM      9  C   UNL d   1       1.354  -1.317  -0.015  0.00  0.00     0.025 A 
ENDROOT
BRANCH   4  10
ATOM     10  O   UNL d   1       1.245   2.850   0.028  0.00  0.00    -0.341 OA
BRANCH  10  11
ATOM     11  C   UNL d   1       0.263   3.659  -0.635  0.00  0.00     0.293 C 
BRANCH  11  12
ATOM     12  C   UNL d   1       0.866   4.969  -1.146  0.00  0.00     0.408 C 
ATOM     13  F   UNL d   1       2.200   5.044  -0.947  0.00  0.00    -0.169 F 
ATOM     14  F   UNL d   1       0.651   5.106  -2.476  0.00  0.00    -0.169 F 
ATOM     15  F   UNL d   1       0.303   6.038  -0.536  0.00  0.00    -0.169 F 
ENDBRANCH  11  12
ENDBRANCH  10  11
ENDBRANCH   4  10
TORSDOF 3
