REMARK  9 active torsions:
REMARK  status: ('A' for Active; 'I' for Inactive)
REMARK    1  A    between atoms: C_2  and  C_1 
REMARK    2  A    between atoms: N_3  and  C_1 
REMARK    3  A    between atoms: C_4  and  C_1 
REMARK    4  A    between atoms: N_6  and  C_1 
REMARK       I    between atoms: C_5  and  N_3 
REMARK    5  A    between atoms: O_12  and  C_4 
REMARK    6  A    between atoms: C_13  and  N_6 
REMARK    7  A    between atoms: C_17  and  O_12 
REMARK    8  A    between atoms: C_16  and  C_13 
REMARK    9  A    between atoms: C_14  and  C_16 
ROOT
ATOM      1  C   UNL d   1       0.859  -0.049   0.011  0.00  0.00     0.415 C 
ENDROOT
BRANCH   1   2
ATOM      2  C   UNL d   1       0.283   1.388   0.361  0.00  0.00     0.452 C 
ATOM      3  F   UNL d   1      -0.378   1.950  -0.685  0.00  0.00    -0.166 F 
ATOM      4  F   UNL d   1      -0.534   1.443   1.429  0.00  0.00    -0.166 F 
ATOM      5  F   UNL d   1       1.312   2.253   0.611  0.00  0.00    -0.166 F 
ENDBRANCH   1   2
BRANCH   1   6
ATOM      6  N   UNL d   1       0.510  -0.510  -1.340  0.00  0.00    -0.311 N 
ATOM      7  C   UNL d   1      -0.810  -0.621  -1.697  0.00  0.00     0.216 C 
ATOM      8  O   UNL d   1      -1.723  -0.320  -0.935  0.00  0.00    -0.274 OA
ATOM      9  C   UNL d   1      -1.055  -1.131  -3.088  0.00  0.00     0.117 C 
ATOM     10  H   UNL d   1       1.212  -1.064  -1.808  0.00  0.00     0.165 HD
ENDBRANCH   1   6
BRANCH   1  11
ATOM     11  C   UNL d   1       0.349  -1.060   1.090  0.00  0.00     0.329 C 
ATOM     12  O   UNL d   1       0.300  -0.832   2.296  0.00  0.00    -0.260 OA
BRANCH  11  13
ATOM     13  O   UNL d   1       0.147  -2.310   0.557  0.00  0.00    -0.318 OA
BRANCH  13  14
ATOM     14  C   UNL d   1      -0.220  -3.334   1.493  0.00  0.00     0.174 C 
ATOM     15  C   UNL d   1      -1.710  -3.278   1.767  0.00  0.00     0.034 C 
ENDBRANCH  13  14
ENDBRANCH  11  13
ENDBRANCH   1  11
BRANCH   1  16
ATOM     16  N   UNL d   1       2.371  -0.151  -0.092  0.00  0.00     0.133 N 
ATOM     17  H   UNL d   1       2.669   0.662  -0.636  0.00  0.00     0.320 HD
BRANCH  16  18
ATOM     18  C   UNL d   1       3.014  -0.058   1.234  0.00  0.00     0.278 C 
BRANCH  18  19
ATOM     19  C   UNL d   1       4.549  -0.079   1.176  0.00  0.00     0.068 C 
BRANCH  19  20
ATOM     20  C   UNL d   1       5.086   0.041   2.586  0.00  0.00    -0.057 A 
ATOM     21  C   UNL d   1       5.212  -1.097   3.396  0.00  0.00     0.007 A 
ATOM     22  C   UNL d   1       5.568  -0.973   4.740  0.00  0.00     0.001 A 
ATOM     23  C   UNL d   1       5.806   0.287   5.285  0.00  0.00     0.000 A 
ATOM     24  C   UNL d   1       5.699   1.424   4.485  0.00  0.00     0.001 A 
ATOM     25  C   UNL d   1       5.341   1.303   3.142  0.00  0.00     0.007 A 
ENDBRANCH  19  20
ENDBRANCH  18  19
ENDBRANCH  16  18
ENDBRANCH   1  16
TORSDOF 9
