REMARK  7 active torsions:
REMARK  status: ('A' for Active; 'I' for Inactive)
REMARK    1  A    between atoms: N_2  and  C_1 
REMARK    2  A    between atoms: N_5  and  O_16 
REMARK    3  A    between atoms: C_15  and  C_7 
REMARK    4  A    between atoms: N_20  and  C_7 
REMARK    5  A    between atoms: C_11  and  C_8 
REMARK    6  A    between atoms: C_10  and  C_12 
REMARK    7  A    between atoms: O_16  and  C_10 
ROOT
ATOM      1  N   UNL d   1       3.803  -3.855   0.086  0.00  0.00    -0.246 N 
ATOM      2  HN  UNL d   1       4.713  -3.421   0.237  1.00  0.00     0.196 HD
ATOM      3  C   UNL d   1       3.585  -5.130   0.195  0.00  0.00     0.109 C 
ENDROOT
BRANCH   1   4
ATOM      4  O   UNL d   1       2.638  -3.137  -0.263  0.00  0.00    -0.194 OA
BRANCH   4   5
ATOM      5  C   UNL d   1       2.847  -1.815   0.002  0.00  0.00     0.304 C 
ATOM      6  O   UNL d   1       3.390  -1.349   0.998  0.00  0.00    -0.258 OA
BRANCH   5   7
ATOM      7  C   UNL d   1       2.372  -0.928  -1.087  0.00  0.00     0.085 C 
ATOM      8  C   UNL d   1       1.842  -1.324  -2.256  0.00  0.00     0.018 C 
BRANCH   8   9
ATOM      9  C   UNL d   1       1.481  -0.458  -3.348  0.00  0.00    -0.027 A 
ATOM     10  C   UNL d   1       1.657   0.966  -3.421  0.00  0.00     0.055 A 
ATOM     11  C   UNL d   1       1.220   1.476  -4.628  0.00  0.00     0.144 A 
ATOM     12  S   UNL d   1       0.611   0.280  -5.666  0.00  0.00    -0.077 SA
ATOM     13  C   UNL d   1       0.923  -0.950  -4.511  0.00  0.00     0.063 A 
BRANCH  11  14
ATOM     14  N   UNL d   1       1.253   2.856  -5.040  0.00  0.00    -0.108 N 
ATOM     15  O   UNL d   1       1.719   3.662  -4.219  0.00  0.00    -0.531 OA
ATOM     16  O   UNL d   1       0.822   3.150  -6.161  0.00  0.00    -0.531 OA
ENDBRANCH  11  14
ENDBRANCH   8   9
ENDBRANCH   5   7
ENDBRANCH   4   5
ENDBRANCH   1   4
BRANCH   3  17
ATOM     17  C   UNL d   1       4.780  -6.022   0.357  0.00  0.00     0.004 A 
ATOM     18  C   UNL d   1       5.950  -5.536   0.953  0.00  0.00     0.016 A 
ATOM     19  C   UNL d   1       7.080  -6.354   1.047  0.00  0.00     0.024 A 
ATOM     20  C   UNL d   1       7.043  -7.651   0.537  0.00  0.00     0.034 A 
ATOM     21  C   UNL d   1       5.883  -8.141  -0.063  0.00  0.00     0.024 A 
ATOM     22 CL   UNL d   1       8.439  -8.652   0.634  0.00  0.00    -0.084 Cl
ATOM     23  C   UNL d   1       4.750  -7.328  -0.152  0.00  0.00     0.016 A 
ENDBRANCH   3  17
BRANCH   3  24
ATOM     24  N   UNL d   1       2.335  -5.707   0.168  0.00  0.00    -0.286 NA
ATOM     25  H   UNL d   1       1.603  -5.038   0.384  0.00  0.00     0.125 HD
ATOM     26  H   UNL d   1       2.240  -6.550   0.725  0.00  0.00     0.125 HD
ENDBRANCH   3  24
TORSDOF 7
