REMARK  2 active torsions:
REMARK  status: ('A' for Active; 'I' for Inactive)
REMARK    1  A    between atoms: C_8  and  C_2 
REMARK    2  A    between atoms: S_9  and  C_5 
ROOT
ATOM      1  N   UNL d   1      -0.086  -0.772  -0.869  0.00  0.00    -0.319 N 
ATOM      2  C   UNL d   1       0.949  -0.699   0.046  0.00  0.00     0.107 A 
ATOM      3  N   UNL d   1       0.548   0.063   1.050  0.00  0.00    -0.286 N 
ATOM      4  HN  UNL d   1       1.098   0.285   1.880  1.00  0.00     0.188 HD
ATOM      5  C   UNL d   1      -1.091   0.007  -0.352  0.00  0.00     0.159 A 
ATOM      6  N   UNL d   1      -0.720   0.506   0.800  0.00  0.00    -0.279 N 
ATOM      7  HN  UNL d   1      -1.276   1.114   1.401  1.00  0.00     0.189 HD
ATOM      8  C   UNL d   1      -0.150  -1.493  -2.113  0.00  0.00     0.159 C 
ENDROOT
BRANCH   2   9
ATOM      9  C   UNL d   1       2.330  -1.335  -0.024  0.00  0.00     0.009 C 
ATOM     10  C   UNL d   1       3.114  -0.846  -1.254  0.00  0.00     0.023 C 
ATOM     11  C   UNL d   1       3.142  -0.906   1.227  0.00  0.00     0.023 C 
ATOM     12  C   UNL d   1       2.250  -2.870   0.001  0.00  0.00     0.023 C 
ENDBRANCH   2   9
BRANCH   5  13
ATOM     13  S   UNL d   1      -2.625   0.314  -1.091  0.00  0.00    -0.105 SA
ATOM     14  H   UNL d   1      -2.514  -0.406  -2.211  0.00  0.00     0.110 HD
ENDBRANCH   5  13
TORSDOF 2
