REMARK  4 active torsions:
REMARK  status: ('A' for Active; 'I' for Inactive)
REMARK    1  A    between atoms: C_28  and  C_13 
REMARK    2  A    between atoms: C_27  and  C_14 
REMARK    3  A    between atoms: C_29  and  C_15 
REMARK    4  A    between atoms: C_30  and  C_16 
ROOT
ATOM      1  C   UNL d   1      -2.873   1.029  -0.033  0.00  0.00     0.046 A 
ATOM      2  C   UNL d   1       2.788   1.240  -0.022  0.00  0.00     0.046 A 
ATOM      3  C   UNL d   1       1.022   2.972   0.025  0.00  0.00     0.046 A 
ATOM      4  C   UNL d   1      -1.242   2.887   0.039  0.00  0.00     0.046 A 
ATOM      5  C   UNL d   1      -1.039  -2.889   0.014  0.00  0.00     0.046 A 
ATOM      6  C   UNL d   1       1.258  -2.804   0.015  0.00  0.00     0.046 A 
ATOM      7  N   UNL d   1       2.002   0.098  -0.015  0.00  0.00    -0.355 N 
ATOM      8  HN  UNL d   1       0.983   0.052   0.001  1.00  0.00     0.166 HD
ATOM      9  N   UNL d   1      -2.003  -0.051  -0.009  0.00  0.00    -0.355 N 
ATOM     10  HN  UNL d   1      -0.983  -0.019   0.012  1.00  0.00     0.166 HD
ATOM     11  C   UNL d   1       2.838  -0.910  -0.034  0.00  0.00     0.046 A 
ATOM     12  C   UNL d   1      -2.759  -1.119  -0.021  0.00  0.00     0.046 A 
ATOM     13  C   UNL d   1       2.390   2.534   0.001  0.00  0.00     0.028 A 
ATOM     14  C   UNL d   1      -2.576   2.349  -0.002  0.00  0.00     0.028 A 
ATOM     15  C   UNL d   1      -2.345  -2.562   0.003  0.00  0.00     0.028 A 
ATOM     16  C   UNL d   1       2.536  -2.380  -0.004  0.00  0.00     0.028 A 
ATOM     17  N   UNL d   1       0.082  -2.094   0.000  0.00  0.00    -0.355 N 
ATOM     18  N   UNL d   1      -0.081   2.135   0.010  0.00  0.00    -0.355 N 
ATOM     19  C   UNL d   1      -4.217   0.491  -0.084  0.00  0.00     0.033 A 
ATOM     20  C   UNL d   1       4.170   0.807  -0.053  0.00  0.00     0.033 A 
ATOM     21  C   UNL d   1      -0.858   4.216   0.099  0.00  0.00     0.033 A 
ATOM     22  C   UNL d   1       0.538   4.269   0.061  0.00  0.00     0.033 A 
ATOM     23  C   UNL d   1       0.832  -4.200   0.053  0.00  0.00     0.033 A 
ATOM     24  C   UNL d   1      -0.509  -4.250   0.045  0.00  0.00     0.033 A 
ATOM     25  C   UNL d   1       4.256  -0.519  -0.080  0.00  0.00     0.033 A 
ATOM     26  C   UNL d   1      -4.203  -0.836  -0.062  0.00  0.00     0.033 A 
ATOM     27  H   UNL d   1       0.045  -1.079  -0.018  0.00  0.00     0.166 HD
ATOM     28  H   UNL d   1      -0.043   1.119  -0.022  0.00  0.00     0.166 HD
ENDROOT
BRANCH  13  29
ATOM     29  C   UNL d   1       3.453   3.591   0.029  0.00  0.00    -0.021 A 
ATOM     30  C   UNL d   1       3.984   4.103  -1.164  0.00  0.00     0.014 A 
ATOM     31  C   UNL d   1       4.898   5.160  -1.129  0.00  0.00     0.024 A 
ATOM     32  C   UNL d   1       5.273   5.714   0.095  0.00  0.00     0.034 A 
ATOM     33  C   UNL d   1       4.752   5.214   1.287  0.00  0.00     0.024 A 
ATOM     34 CL   UNL d   1       6.372   7.037   0.134  0.00  0.00    -0.084 Cl
ATOM     35  C   UNL d   1       3.846   4.151   1.255  0.00  0.00     0.014 A 
ENDBRANCH  13  29
BRANCH  16  36
ATOM     36  C   UNL d   1       3.640  -3.369   0.012  0.00  0.00    -0.021 A 
ATOM     37  C   UNL d   1       4.135  -3.896  -1.190  0.00  0.00     0.014 A 
ATOM     38  C   UNL d   1       5.185  -4.819  -1.176  0.00  0.00     0.024 A 
ATOM     39  C   UNL d   1       5.742  -5.217   0.037  0.00  0.00     0.034 A 
ATOM     40  C   UNL d   1       5.255  -4.706   1.240  0.00  0.00     0.024 A 
ATOM     41 CL   UNL d   1       7.044  -6.341   0.052  0.00  0.00    -0.084 Cl
ATOM     42  C   UNL d   1       4.202  -3.786   1.228  0.00  0.00     0.014 A 
ENDBRANCH  16  36
BRANCH  14  43
ATOM     43  C   UNL d   1      -3.713   3.324  -0.020  0.00  0.00    -0.021 A 
ATOM     44  C   UNL d   1      -4.307   3.747   1.179  0.00  0.00     0.014 A 
ATOM     45  C   UNL d   1      -5.297   4.734   1.166  0.00  0.00     0.024 A 
ATOM     46  C   UNL d   1      -5.688   5.306  -0.044  0.00  0.00     0.034 A 
ATOM     47  C   UNL d   1      -5.107   4.894  -1.243  0.00  0.00     0.024 A 
ATOM     48 CL   UNL d   1      -6.885   6.543  -0.058  0.00  0.00    -0.084 Cl
ATOM     49  C   UNL d   1      -4.123   3.902  -1.232  0.00  0.00     0.014 A 
ENDBRANCH  14  43
BRANCH  15  50
ATOM     50  C   UNL d   1      -3.367  -3.635   0.017  0.00  0.00    -0.021 A 
ATOM     51  C   UNL d   1      -3.841  -4.145   1.236  0.00  0.00     0.014 A 
ATOM     52  C   UNL d   1      -4.793  -5.168   1.250  0.00  0.00     0.024 A 
ATOM     53  C   UNL d   1      -5.276  -5.682   0.049  0.00  0.00     0.034 A 
ATOM     54  C   UNL d   1      -4.814  -5.186  -1.169  0.00  0.00     0.024 A 
ATOM     55 CL   UNL d   1      -6.449  -6.941   0.068  0.00  0.00    -0.084 Cl
ATOM     56  C   UNL d   1      -3.857  -4.167  -1.186  0.00  0.00     0.014 A 
ENDBRANCH  15  50
TORSDOF 4
