REMARK  5 active torsions:
REMARK  status: ('A' for Active; 'I' for Inactive)
REMARK    1  A    between atoms: S_2  and  C_1 
REMARK    2  A    between atoms: C_16  and  S_2 
REMARK    3  A    between atoms: N_6  and  C_4 
REMARK    4  A    between atoms: N_5  and  C_10 
REMARK       I    between atoms: C_7  and  N_6 
REMARK       I    between atoms: N_13  and  C_7 
REMARK    5  A    between atoms: C_20  and  N_13 
ROOT
ATOM      1  N   UNL d   1      -0.219   2.089  -0.018  0.00  0.00    -0.303 N 
ATOM      2  C   UNL d   1       0.493   3.151  -0.521  0.00  0.00     0.325 C 
ATOM      3  N   UNL d   1       1.729   2.852  -1.043  0.00  0.00    -0.309 N 
ATOM      4  O   UNL d   1      -0.057   4.248  -0.574  0.00  0.00    -0.247 OA
ATOM      5  H   UNL d   1      -1.219   2.243   0.025  0.00  0.00     0.171 HD
ATOM      6  H   UNL d   1       1.891   1.870  -1.215  0.00  0.00     0.170 HD
ENDROOT
BRANCH   1   7
ATOM      7  C   UNL d   1       0.259   0.882   0.425  0.00  0.00     0.079 A 
ATOM      8  C   UNL d   1       1.490   0.467   0.872  0.00  0.00     0.061 A 
ATOM      9  C   UNL d   1       1.512  -0.945   1.111  0.00  0.00     0.068 A 
ATOM     10  C   UNL d   1       0.290  -1.533   0.858  0.00  0.00     0.075 A 
ATOM     11  S   UNL d   1      -0.899  -0.363   0.454  0.00  0.00    -0.083 SA
BRANCH   9  12
ATOM     12  S   UNL d   1       2.960  -1.816   1.514  0.00  0.00     0.179 S 
ATOM     13  O   UNL d   1       3.175  -2.633   0.336  0.00  0.00    -0.222 OA
ATOM     14  O   UNL d   1       3.893  -0.786   1.919  0.00  0.00    -0.222 OA
BRANCH  12  15
ATOM     15  C   UNL d   1       2.593  -2.882   2.913  0.00  0.00     0.105 C 
ATOM     16  C   UNL d   1       3.853  -3.676   3.272  0.00  0.00     0.026 C 
ATOM     17  C   UNL d   1       2.100  -2.115   4.137  0.00  0.00     0.026 C 
ENDBRANCH  12  15
ENDBRANCH   9  12
ENDBRANCH   1   7
BRANCH   3  18
ATOM     18  C   UNL d   1       2.658   3.741  -1.619  0.00  0.00     0.036 A 
ATOM     19  C   UNL d   1       2.585   5.131  -1.488  0.00  0.00     0.032 A 
ATOM     20  C   UNL d   1       3.569   5.955  -2.050  0.00  0.00     0.038 A 
ATOM     21  C   UNL d   1       4.633   5.381  -2.755  0.00  0.00     0.103 A 
ATOM     22  C   UNL d   1       4.708   3.993  -2.915  0.00  0.00     0.038 A 
ATOM     23  C   UNL d   1       3.722   3.181  -2.343  0.00  0.00     0.032 A 
BRANCH  21  24
ATOM     24  N   UNL d   1       5.688   6.241  -3.308  0.00  0.00    -0.116 N 
ATOM     25  O   UNL d   1       5.655   7.447  -3.034  0.00  0.00    -0.532 OA
ATOM     26  O   UNL d   1       6.559   5.700  -4.008  0.00  0.00    -0.532 OA
ENDBRANCH  21  24
ENDBRANCH   3  18
TORSDOF 5
