REMARK  8 active torsions:
REMARK  status: ('A' for Active; 'I' for Inactive)
REMARK    1  A    between atoms: C_8  and  N_1 
REMARK    2  A    between atoms: C_10  and  C_2 
REMARK    3  A    between atoms: S_9  and  C_5 
REMARK    4  A    between atoms: C_11  and  C_8 
REMARK    5  A    between atoms: C_14  and  S_9 
REMARK    6  A    between atoms: O_20  and  C_11 
REMARK    7  A    between atoms: O_21  and  C_11 
REMARK    8  A    between atoms: C_19  and  C_14 
ROOT
ATOM      1  N   UNL d   1      -0.242  -1.089  -0.375  0.00  0.00    -0.306 N 
ATOM      2  C   UNL d   1       0.959  -0.394  -0.521  0.00  0.00     0.134 A 
ATOM      3  N   UNL d   1       0.665   0.888  -0.692  0.00  0.00    -0.283 N 
ATOM      4  HN  UNL d   1       1.341   1.629  -0.878  1.00  0.00     0.188 HD
ATOM      5  C   UNL d   1      -1.215  -0.117  -0.364  0.00  0.00     0.163 A 
ATOM      6  N   UNL d   1      -0.679   1.058  -0.580  0.00  0.00    -0.278 N 
ATOM      7  HN  UNL d   1      -1.181   1.943  -0.651  1.00  0.00     0.189 HD
ENDROOT
BRANCH   5   8
ATOM      8  S   UNL d   1      -2.898  -0.340  -0.035  0.00  0.00    -0.088 SA
BRANCH   8   9
ATOM      9  C   UNL d   1      -3.587   1.161  -0.804  0.00  0.00     0.121 C 
BRANCH   9  10
ATOM     10  C   UNL d   1      -5.095   1.189  -0.717  0.00  0.00    -0.049 A 
ATOM     11  C   UNL d   1      -5.731   1.734   0.408  0.00  0.00     0.008 A 
ATOM     12  C   UNL d   1      -7.126   1.768   0.490  0.00  0.00     0.001 A 
ATOM     13  C   UNL d   1      -7.898   1.256  -0.549  0.00  0.00     0.000 A 
ATOM     14  C   UNL d   1      -7.279   0.705  -1.670  0.00  0.00     0.001 A 
ATOM     15  C   UNL d   1      -5.885   0.671  -1.754  0.00  0.00     0.008 A 
ENDBRANCH   9  10
ENDBRANCH   8   9
ENDBRANCH   5   8
BRANCH   1  16
ATOM     16  C   UNL d   1      -0.352  -2.522  -0.193  0.00  0.00     0.193 C 
BRANCH  16  17
ATOM     17  C   UNL d   1      -1.609  -3.281  -0.662  0.00  0.00     0.276 C 
BRANCH  17  18
ATOM     18  O   UNL d   1      -1.735  -3.104  -2.076  0.00  0.00    -0.364 OA
ATOM     19  C   UNL d   1      -2.974  -3.606  -2.568  0.00  0.00     0.204 C 
ENDBRANCH  17  18
BRANCH  17  20
ATOM     20  O   UNL d   1      -1.476  -4.682  -0.376  0.00  0.00    -0.364 OA
ATOM     21  C   UNL d   1      -1.541  -4.991   1.010  0.00  0.00     0.204 C 
ENDBRANCH  17  20
ENDBRANCH  16  17
ENDBRANCH   1  16
BRANCH   2  22
ATOM     22  C   UNL d   1       2.353  -0.876  -0.496  0.00  0.00     0.010 A 
ATOM     23  C   UNL d   1       3.314  -0.141  -1.218  0.00  0.00     0.017 A 
ATOM     24  C   UNL d   1       4.678  -0.446  -1.149  0.00  0.00     0.025 A 
ATOM     25  C   UNL d   1       5.104  -1.504  -0.357  0.00  0.00     0.034 A 
ATOM     26  C   UNL d   1       4.175  -2.261   0.353  0.00  0.00     0.025 A 
ATOM     27 CL   UNL d   1       6.781  -1.855  -0.222  0.00  0.00    -0.084 Cl
ATOM     28  C   UNL d   1       2.809  -1.943   0.291  0.00  0.00     0.017 A 
ENDBRANCH   2  22
TORSDOF 8
