REMARK  4 active torsions:
REMARK  status: ('A' for Active; 'I' for Inactive)
REMARK    1  A    between atoms: N_8  and  C_3 
REMARK    2  A    between atoms: O_10  and  C_4 
REMARK    3  A    between atoms: O_13  and  C_5 
REMARK       I    between atoms: C_11  and  N_8 
REMARK    4  A    between atoms: C_14  and  O_10 
ROOT
ATOM      1  N   UNL d   1      -0.597   1.292  -0.070  0.00  0.00    -0.167 N 
ATOM      2  HN  UNL d   1      -1.009   2.223  -0.142  1.00  0.00     0.186 HD
ATOM      3  C   UNL d   1      -1.339   0.203   0.085  0.00  0.00     0.687 A 
ATOM      4  C   UNL d   1       1.363  -0.131  -0.034  0.00  0.00     0.149 A 
ATOM      5  C   UNL d   1       0.727   1.096  -0.125  0.00  0.00     0.191 A 
ATOM      6  N   UNL d   1      -0.841  -1.038   0.207  0.00  0.00    -0.193 N 
ATOM      7  HN  UNL d   1      -1.461  -1.844   0.293  1.00  0.00     0.184 HD
ATOM      8  C   UNL d   1       0.511  -1.193   0.213  0.00  0.00     0.061 A 
ATOM      9  C   UNL d   1       0.941  -2.599   0.504  0.00  0.00     0.072 C 
ENDROOT
BRANCH   4  10
ATOM     10  O   UNL d   1       2.732  -0.096  -0.090  0.00  0.00    -0.304 OA
BRANCH  10  11
ATOM     11  C   UNL d   1       3.443  -1.144  -0.611  0.00  0.00     0.076 C 
ATOM     12  C   UNL d   1       3.029  -1.919  -1.690  0.00  0.00     0.038 C 
ATOM     13  C   UNL d   1       3.737  -3.077  -2.019  0.00  0.00     0.009 C 
ATOM     14  C   UNL d   1       4.900  -3.425  -1.319  0.00  0.00    -0.062 C 
ATOM     15  C   UNL d   1       5.383  -2.559  -0.330  0.00  0.00     0.009 C 
ATOM     16  C   UNL d   1       5.558  -4.749  -1.559  0.00  0.00     0.048 C 
ATOM     17  C   UNL d   1       4.658  -1.421   0.020  0.00  0.00     0.038 C 
ENDBRANCH  10  11
ENDBRANCH   4  10
BRANCH   5  18
ATOM     18  O   UNL d   1       1.463   2.246  -0.262  0.00  0.00    -0.344 OA
ATOM     19  H   UNL d   1       2.396   1.984  -0.207  0.00  0.00     0.219 HD
ENDBRANCH   5  18
BRANCH   3  20
ATOM     20  N   UNL d   1      -2.724   0.248   0.125  0.00  0.00    -0.160 N 
ATOM     21  C   UNL d   1      -3.497   1.375   0.246  0.00  0.00     0.231 C 
ATOM     22  O   UNL d   1      -3.100   2.526   0.405  0.00  0.00    -0.273 OA
ATOM     23  C   UNL d   1      -4.971   1.080   0.212  0.00  0.00     0.118 C 
ATOM     24  H   UNL d   1      -3.142  -0.667   0.163  0.00  0.00     0.187 HD
ENDBRANCH   3  20
TORSDOF 4
