REMARK  2 active torsions:
REMARK  status: ('A' for Active; 'I' for Inactive)
REMARK    1  A    between atoms: C_2  and  C_1 
REMARK       I    between atoms: N_3  and  C_2 
REMARK    2  A    between atoms: C_10  and  N_3 
ROOT
ATOM      1  C   UNL d   1      -2.975   0.191   0.190  0.00  0.00     0.231 C 
ATOM      2  N   UNL d   1      -3.621   1.405   0.036  0.00  0.00    -0.326 N 
ATOM      3  O   UNL d   1      -3.554  -0.870   0.431  0.00  0.00    -0.272 OA
ATOM      4  H   UNL d   1      -3.071   2.196  -0.273  0.00  0.00     0.169 HD
ENDROOT
BRANCH   1   5
ATOM      5  C   UNL d   1      -1.442   0.199   0.030  0.00  0.00     0.042 C 
ATOM      6  C   UNL d   1      -0.758   0.978   1.174  0.00  0.00     0.024 C 
ATOM      7  C   UNL d   1       0.777   0.877   1.050  0.00  0.00    -0.013 C 
ATOM      8  C   UNL d   1       1.206  -0.599   1.108  0.00  0.00     0.009 C 
ATOM      9  C   UNL d   1       1.218   1.470  -0.300  0.00  0.00     0.009 C 
ATOM     10  C   UNL d   1       0.563  -1.379  -0.048  0.00  0.00    -0.013 C 
ATOM     11  C   UNL d   1      -0.957  -1.281   0.086  0.00  0.00     0.024 C 
ATOM     12  C   UNL d   1       0.982  -0.770  -1.393  0.00  0.00     0.009 C 
ATOM     13  C   UNL d   1       0.552   0.704  -1.457  0.00  0.00    -0.013 C 
ATOM     14  C   UNL d   1      -0.982   0.801  -1.319  0.00  0.00     0.024 C 
ENDBRANCH   1   5
BRANCH   2  15
ATOM     15  C   UNL d   1      -5.031   1.578   0.037  0.00  0.00     0.036 A 
ATOM     16  C   UNL d   1      -5.925   0.612   0.516  0.00  0.00     0.053 A 
ATOM     17  C   UNL d   1      -7.302   0.778   0.366  0.00  0.00     0.036 A 
ATOM     18 CL   UNL d   1      -8.375  -0.456   0.909  0.00  0.00    -0.084 Cl
ATOM     19  C   UNL d   1      -7.814   1.920  -0.237  0.00  0.00     0.024 A 
ATOM     20  C   UNL d   1      -6.938   2.921  -0.656  0.00  0.00     0.004 A 
ATOM     21  C   UNL d   1      -5.556   2.756  -0.511  0.00  0.00     0.029 A 
ENDBRANCH   2  15
TORSDOF 2
