REMARK  2 active torsions:
REMARK  status: ('A' for Active; 'I' for Inactive)
REMARK    1  A    between atoms: C_4  and  C_1 
REMARK    2  A    between atoms: C_14  and  C_7 
ROOT
ATOM      1  C   UNL d   1       0.273   1.111  -0.032  0.00  0.00     0.156 A 
ATOM      2  N   UNL d   1       1.283   0.172  -0.030  0.00  0.00    -0.317 N 
ATOM      3  HN  UNL d   1       2.292   0.316  -0.042  1.00  0.00     0.169 HD
ATOM      4  N   UNL d   1      -0.966   0.601  -0.026  0.00  0.00    -0.241 N 
ATOM      5  HN  UNL d   1      -1.856   1.100  -0.031  1.00  0.00     0.196 HD
ATOM      6  C   UNL d   1       0.609  -0.958  -0.009  0.00  0.00     0.182 A 
ATOM      7  O   UNL d   1      -0.746  -0.775  -0.011  0.00  0.00    -0.217 OA
ENDROOT
BRANCH   1   8
ATOM      8  C   UNL d   1       0.589   2.542  -0.031  0.00  0.00     0.103 A 
ATOM      9  N   UNL d   1      -0.325   3.521   0.014  0.00  0.00    -0.257 N 
ATOM     10  O   UNL d   1       0.396   4.703   0.001  0.00  0.00    -0.242 OA
ATOM     11  HN  UNL d   1      -1.339   3.416   0.051  1.00  0.00     0.195 HD
ATOM     12  C   UNL d   1       1.726   4.423  -0.055  0.00  0.00     0.074 A 
ATOM     13  C   UNL d   1       1.902   3.062  -0.074  0.00  0.00     0.070 A 
ATOM     14  C   UNL d   1       2.638   5.580  -0.081  0.00  0.00     0.079 C 
ENDBRANCH   1   8
BRANCH   6  15
ATOM     15  C   UNL d   1       1.090  -2.335   0.048  0.00  0.00     0.017 A 
ATOM     16  C   UNL d   1       2.468  -2.591   0.083  0.00  0.00     0.016 A 
ATOM     17  C   UNL d   1       2.952  -3.899   0.185  0.00  0.00     0.007 A 
ATOM     18  C   UNL d   1       2.065  -4.979   0.253  0.00  0.00    -0.062 A 
ATOM     19  C   UNL d   1       0.690  -4.733   0.199  0.00  0.00     0.007 A 
ATOM     20  C   UNL d   1       2.591  -6.376   0.404  0.00  0.00     0.048 C 
ATOM     21  C   UNL d   1       0.208  -3.424   0.095  0.00  0.00     0.016 A 
ENDBRANCH   6  15
TORSDOF 2
