REMARK  8 active torsions:
REMARK  status: ('A' for Active; 'I' for Inactive)
REMARK    1  A    between atoms: C_14  and  C_2 
REMARK    2  A    between atoms: N_18  and  C_6 
REMARK       I    between atoms: C_12  and  N_13 
REMARK    3  A    between atoms: N_13  and  C_15 
REMARK    4  A    between atoms: C_23  and  N_18 
REMARK    5  A    between atoms: C_19  and  O_21 
REMARK    6  A    between atoms: C_20  and  C_23 
REMARK    7  A    between atoms: C_28  and  C_20 
REMARK    8  A    between atoms: O_21  and  C_28 
ROOT
ATOM      1  C   UNL d   1       0.239   1.399  -1.163  0.00  0.00     0.053 A 
ATOM      2  C   UNL d   1      -0.905   2.304  -1.269  0.00  0.00    -0.003 A 
ATOM      3  C   UNL d   1      -1.979   1.681  -1.882  0.00  0.00     0.065 A 
ATOM      4  C   UNL d   1      -0.071   0.155  -1.695  0.00  0.00     0.089 A 
ATOM      5  S   UNL d   1      -1.662   0.056  -2.290  0.00  0.00    -0.082 SA
ATOM      6  C   UNL d   1       1.563   1.529  -0.674  0.00  0.00     0.116 A 
ATOM      7  N   UNL d   1       0.738  -0.914  -1.779  0.00  0.00    -0.346 N 
ATOM      8  HN  UNL d   1       0.452  -1.815  -2.161  1.00  0.00     0.167 HD
ATOM      9  N   UNL d   1       2.411   0.485  -0.782  0.00  0.00    -0.338 N 
ATOM     10  HN  UNL d   1       3.379   0.568  -0.471  1.00  0.00     0.168 HD
ATOM     11  C   UNL d   1       1.959  -0.662  -1.306  0.00  0.00     0.182 A 
ENDROOT
BRANCH   6  12
ATOM     12  N   UNL d   1       2.002   2.710  -0.113  0.00  0.00    -0.375 N 
ATOM     13  H   UNL d   1       1.384   3.024   0.629  0.00  0.00     0.161 HD
BRANCH  12  14
ATOM     14  C   UNL d   1       3.413   3.010   0.023  0.00  0.00     0.123 C 
BRANCH  14  15
ATOM     15  C   UNL d   1       3.588   4.537   0.050  0.00  0.00     0.046 C 
BRANCH  15  16
ATOM     16  C   UNL d   1       3.068   5.120   1.358  0.00  0.00     0.177 C 
BRANCH  16  17
ATOM     17  O   UNL d   1       3.050   6.556   1.321  0.00  0.00    -0.351 OA
BRANCH  17  18
ATOM     18  C   UNL d   1       2.402   7.109   2.404  0.00  0.00     0.070 A 
ATOM     19  C   UNL d   1       2.281   6.469   3.643  0.00  0.00     0.066 A 
ATOM     20  C   UNL d   1       1.554   7.029   4.690  0.00  0.00     0.037 A 
ATOM     21  C   UNL d   1       0.990   8.294   4.507  0.00  0.00     0.029 A 
ATOM     22  C   UNL d   1       1.141   8.967   3.287  0.00  0.00     0.005 A 
ATOM     23  C   UNL d   1       1.845   8.373   2.236  0.00  0.00     0.037 A 
BRANCH  20  24
ATOM     24  N   UNL d   1       1.357   6.362   5.921  0.00  0.00    -0.327 N 
ATOM     25  C   UNL d   1       1.730   5.067   6.231  0.00  0.00     0.218 C 
ATOM     26  O   UNL d   1       2.302   4.264   5.497  0.00  0.00    -0.274 OA
ATOM     27  C   UNL d   1       1.367   4.651   7.633  0.00  0.00     0.117 C 
ATOM     28  H   UNL d   1       0.835   6.878   6.623  0.00  0.00     0.169 HD
ENDBRANCH  20  24
ENDBRANCH  17  18
ENDBRANCH  16  17
ENDBRANCH  15  16
ENDBRANCH  14  15
ENDBRANCH  12  14
ENDBRANCH   6  12
BRANCH   2  29
ATOM     29  C   UNL d   1      -1.022   3.707  -0.845  0.00  0.00    -0.024 A 
ATOM     30  C   UNL d   1       0.001   4.627  -1.103  0.00  0.00     0.012 A 
ATOM     31  C   UNL d   1      -0.052   5.926  -0.592  0.00  0.00     0.001 A 
ATOM     32  C   UNL d   1      -1.167   6.348   0.124  0.00  0.00     0.000 A 
ATOM     33  C   UNL d   1      -2.232   5.473   0.318  0.00  0.00     0.001 A 
ATOM     34  C   UNL d   1      -2.157   4.158  -0.153  0.00  0.00     0.012 A 
ENDBRANCH   2  29
TORSDOF 8
