REMARK  5 active torsions:
REMARK  status: ('A' for Active; 'I' for Inactive)
REMARK    1  A    between atoms: C_8  and  C_1 
REMARK    2  A    between atoms: C_14  and  C_7 
REMARK    3  A    between atoms: C_9  and  C_13 
REMARK    4  A    between atoms: C_10  and  O_12 
REMARK    5  A    between atoms: O_12  and  C_11 
ROOT
ATOM      1  C   UNL d   1      -0.010  -1.059   0.249  0.00  0.00     0.177 A 
ATOM      2  O   UNL d   1      -0.889  -0.008   0.297  0.00  0.00    -0.273 OA
ATOM      3  N   UNL d   1       1.244  -0.671   0.184  0.00  0.00    -0.277 N 
ATOM      4  HN  UNL d   1       2.069  -1.270   0.146  1.00  0.00     0.189 HD
ATOM      5  N   UNL d   1       1.224   0.710   0.177  0.00  0.00    -0.277 N 
ATOM      6  HN  UNL d   1       2.031   1.332   0.141  1.00  0.00     0.189 HD
ATOM      7  C   UNL d   1      -0.044   1.068   0.226  0.00  0.00     0.174 A 
ENDROOT
BRANCH   1   8
ATOM      8  C   UNL d   1      -0.603  -2.383   0.167  0.00  0.00     0.050 A 
ATOM      9  C   UNL d   1      -0.076  -3.410  -0.636  0.00  0.00     0.092 A 
ATOM     10  C   UNL d   1      -0.671  -4.684  -0.611  0.00  0.00     0.038 A 
ATOM     11  C   UNL d   1      -1.785  -4.941   0.186  0.00  0.00     0.003 A 
ATOM     12  C   UNL d   1      -2.315  -3.928   0.974  0.00  0.00     0.001 A 
ATOM     13  C   UNL d   1      -1.740  -2.658   0.954  0.00  0.00     0.018 A 
BRANCH   9  14
ATOM     14  O   UNL d   1       1.085  -3.341  -1.354  0.00  0.00    -0.254 OA
BRANCH  14  15
ATOM     15  C   UNL d   1       1.165  -2.380  -2.402  0.00  0.00     0.530 C 
ATOM     16  F   UNL d   1       0.151  -1.490  -2.411  0.00  0.00    -0.144 F 
ATOM     17  F   UNL d   1       2.339  -1.719  -2.306  0.00  0.00    -0.144 F 
ATOM     18  F   UNL d   1       1.156  -3.027  -3.591  0.00  0.00    -0.144 F 
ENDBRANCH  14  15
ENDBRANCH   9  14
ENDBRANCH   1   8
BRANCH   7  19
ATOM     19  C   UNL d   1      -0.653   2.391   0.180  0.00  0.00     0.017 A 
ATOM     20  C   UNL d   1      -2.042   2.575   0.286  0.00  0.00     0.032 A 
ATOM     21  C   UNL d   1      -2.615   3.858   0.223  0.00  0.00     0.048 A 
ATOM     22  C   UNL d   1      -1.776   4.968   0.054  0.00  0.00     0.016 A 
ATOM     23  C   UNL d   1      -0.397   4.800  -0.053  0.00  0.00     0.002 A 
ATOM     24  C   UNL d   1       0.160   3.521   0.009  0.00  0.00     0.016 A 
BRANCH  21  25
ATOM     25  C   UNL d   1      -4.107   4.055   0.340  0.00  0.00     0.417 C 
ATOM     26  F   UNL d   1      -4.798   2.890   0.497  0.00  0.00    -0.166 F 
ATOM     27  F   UNL d   1      -4.448   4.835   1.402  0.00  0.00    -0.166 F 
ATOM     28  F   UNL d   1      -4.640   4.660  -0.757  0.00  0.00    -0.166 F 
ENDBRANCH  21  25
ENDBRANCH   7  19
TORSDOF 5
