REMARK  6 active torsions:
REMARK  status: ('A' for Active; 'I' for Inactive)
REMARK    1  A    between atoms: C_6  and  C_1 
REMARK    2  A    between atoms: C_9  and  C_2 
REMARK    3  A    between atoms: C_12  and  N_3 
REMARK       I    between atoms: N_18  and  C_9 
REMARK    4  A    between atoms: N_10  and  C_23 
REMARK    5  A    between atoms: C_28  and  N_18 
REMARK    6  A    between atoms: C_23  and  C_28 
ROOT
ATOM      1  C   UNL d   1       0.883  -0.848   0.514  0.00  0.00     0.157 C 
ATOM      2  C   UNL d   1      -0.337  -1.258  -0.015  0.00  0.00     0.082 C 
ATOM      3  N   UNL d   1       0.925   0.527   0.412  0.00  0.00    -0.251 N 
ATOM      4  N   UNL d   1      -0.302   1.016   0.073  0.00  0.00    -0.303 N 
ATOM      5  HN  UNL d   1      -0.607   1.989   0.079  1.00  0.00     0.186 HD
ATOM      6  C   UNL d   1      -1.015  -0.054  -0.267  0.00  0.00     0.127 C 
ENDROOT
BRANCH   2   7
ATOM      7  C   UNL d   1      -0.756  -2.632  -0.211  0.00  0.00     0.255 C 
ATOM      8  O   UNL d   1       0.057  -3.534  -0.371  0.00  0.00    -0.268 OA
ATOM      9  N   UNL d   1      -2.115  -2.843  -0.182  0.00  0.00    -0.355 N 
ATOM     10  H   UNL d   1      -2.733  -2.115   0.149  0.00  0.00     0.162 HD
BRANCH   9  11
ATOM     11  C   UNL d   1      -2.671  -4.188  -0.237  0.00  0.00     0.143 C 
BRANCH  11  12
ATOM     12  C   UNL d   1      -2.771  -4.833   1.154  0.00  0.00     0.147 C 
BRANCH  12  13
ATOM     13  N   UNL d   1      -3.626  -4.084   2.065  0.00  0.00    -0.331 N 
ATOM     14  C   UNL d   1      -4.995  -3.908   1.845  0.00  0.00     0.318 C 
ATOM     15  N   UNL d   1      -5.551  -3.441   3.026  0.00  0.00    -0.341 N 
ATOM     16  O   UNL d   1      -5.614  -4.113   0.817  0.00  0.00    -0.247 OA
ATOM     17  C   UNL d   1      -4.529  -3.186   4.003  0.00  0.00     0.144 C 
ATOM     18  H   UNL d   1      -6.508  -3.114   3.047  0.00  0.00     0.164 HD
ATOM     19  C   UNL d   1      -3.359  -4.012   3.487  0.00  0.00     0.147 C 
ENDBRANCH  12  13
ENDBRANCH  11  12
ENDBRANCH   9  11
ENDBRANCH   2   7
BRANCH   1  20
ATOM     20  C   UNL d   1       1.926  -1.651   1.173  0.00  0.00     0.435 C 
ATOM     21  F   UNL d   1       1.430  -2.777   1.745  0.00  0.00    -0.165 F 
ATOM     22  F   UNL d   1       2.903  -2.029   0.316  0.00  0.00    -0.165 F 
ATOM     23  F   UNL d   1       2.525  -0.975   2.188  0.00  0.00    -0.165 F 
ENDBRANCH   1  20
BRANCH   3  24
ATOM     24  C   UNL d   1       2.001   1.450   0.591  0.00  0.00     0.057 A 
ATOM     25  C   UNL d   1       3.341   1.076   0.422  0.00  0.00     0.033 A 
ATOM     26  C   UNL d   1       4.365   2.012   0.620  0.00  0.00     0.026 A 
ATOM     27  C   UNL d   1       4.055   3.322   0.974  0.00  0.00     0.034 A 
ATOM     28  C   UNL d   1       2.728   3.715   1.113  0.00  0.00     0.026 A 
ATOM     29 CL   UNL d   1       5.318   4.462   1.226  0.00  0.00    -0.084 Cl
ATOM     30  C   UNL d   1       1.702   2.787   0.909  0.00  0.00     0.033 A 
ENDBRANCH   3  24
TORSDOF 6
