REMARK  3 active torsions:
REMARK  status: ('A' for Active; 'I' for Inactive)
REMARK    1  A    between atoms: N_5  and  C_1 
REMARK       I    between atoms: C_7  and  N_5 
REMARK    2  A    between atoms: C_10  and  C_7 
REMARK    3  A    between atoms: N_9  and  C_10 
ROOT
ATOM      1  N   UNL d   1      -2.439  -2.184  -2.020  0.00  0.00    -0.310 N 
ATOM      2  C   UNL d   1      -2.402  -2.334  -0.647  0.00  0.00     0.251 C 
ATOM      3  O   UNL d   1      -3.187  -1.791   0.133  0.00  0.00    -0.271 OA
ATOM      4  H   UNL d   1      -1.992  -2.861  -2.620  0.00  0.00     0.170 HD
ENDROOT
BRANCH   1   5
ATOM      5  C   UNL d   1      -3.392  -1.406  -2.646  0.00  0.00     0.130 C 
ATOM      6  N   UNL d   1      -3.761  -1.664  -3.904  0.00  0.00    -0.245 N 
ATOM      7  O   UNL d   1      -4.848  -0.837  -4.150  0.00  0.00    -0.241 OA
ATOM      8  HN  UNL d   1      -3.333  -2.329  -4.548  1.00  0.00     0.196 HD
ATOM      9  C   UNL d   1      -5.063  -0.041  -3.059  0.00  0.00     0.076 C 
ATOM     10  C   UNL d   1      -4.108  -0.313  -2.116  0.00  0.00     0.084 C 
ATOM     11  C   UNL d   1      -6.232   0.852  -3.095  0.00  0.00     0.079 C 
ENDBRANCH   1   5
BRANCH   2  12
ATOM     12  C   UNL d   1      -1.306  -3.267  -0.154  0.00  0.00     0.375 C 
BRANCH  12  13
ATOM     13  N   UNL d   1      -0.212  -2.568   0.552  0.00  0.00     0.098 N 
ATOM     14  C   UNL d   1      -0.703  -1.815   1.726  0.00  0.00     0.283 C 
ATOM     15  C   UNL d   1       0.428  -1.344   2.645  0.00  0.00     0.104 C 
ATOM     16  S   UNL d   1       1.550  -0.182   1.801  0.00  0.00    -0.166 SA
ATOM     17  C   UNL d   1       1.858  -1.176   0.306  0.00  0.00     0.104 C 
ATOM     18  C   UNL d   1       0.567  -1.695  -0.343  0.00  0.00     0.283 C 
ENDBRANCH  12  13
ENDBRANCH   2  12
TORSDOF 3
