REMARK  3 active torsions:
REMARK  status: ('A' for Active; 'I' for Inactive)
REMARK    1  A    between atoms: S_2  and  N_1 
REMARK    2  A    between atoms: C_8  and  S_2 
REMARK    3  A    between atoms: S_23  and  C_13 
ROOT
ATOM      1  C   UNL d   1      -1.916  -5.542   4.478  0.00  0.00     0.141 A 
ATOM      2  N   UNL d   1      -2.970  -6.130   5.143  0.00  0.00    -0.315 N 
ATOM      3  C   UNL d   1      -1.393  -3.387   1.268  0.00  0.00     0.123 A 
ATOM      4  N   UNL d   1      -0.797  -5.891   5.089  0.00  0.00    -0.282 N 
ATOM      5  HN  UNL d   1       0.146  -5.640   4.791  1.00  0.00     0.188 HD
ATOM      6  C   UNL d   1      -1.962  -4.668   3.329  0.00  0.00     0.052 A 
ATOM      7  C   UNL d   1      -2.419  -6.769   6.226  0.00  0.00     0.162 A 
ATOM      8  N   UNL d   1      -1.114  -6.648   6.195  0.00  0.00    -0.278 N 
ATOM      9  HN  UNL d   1      -0.455  -7.042   6.867  1.00  0.00     0.189 HD
ATOM     10  S   UNL d   1      -0.641  -4.587   2.225  0.00  0.00    -0.073 SA
ATOM     11  C   UNL d   1      -2.637  -3.058   1.768  0.00  0.00     0.034 A 
ATOM     12  C   UNL d   1      -2.951  -3.773   2.962  0.00  0.00     0.025 A 
ATOM     13  C   UNL d   1      -4.364  -6.141   4.785  0.00  0.00     0.160 C 
ENDROOT
BRANCH   3  14
ATOM     14  S   UNL d   1      -0.493  -2.775  -0.145  0.00  0.00     0.289 S 
ATOM     15  O   UNL d   1      -1.483  -2.116  -0.977  0.00  0.00    -0.198 OA
ATOM     16  O   UNL d   1       0.338  -3.859  -0.640  0.00  0.00    -0.198 OA
BRANCH  14  17
ATOM     17  N   UNL d   1       0.594  -1.520   0.348  0.00  0.00    -0.180 N 
ATOM     18  C   UNL d   1       1.453  -0.865  -0.524  0.00  0.00     0.062 A 
ATOM     19  C   UNL d   1       2.003   0.148   0.227  0.00  0.00     0.059 A 
ATOM     20  C   UNL d   1       1.681  -1.203  -1.953  0.00  0.00     0.072 C 
ATOM     21 BR   UNL d   1       3.240   1.441  -0.332  0.00  0.00    -0.047 Br
ATOM     22  C   UNL d   1       1.438   0.064   1.511  0.00  0.00     0.042 A 
ATOM     23  N   UNL d   1       0.565  -0.948   1.591  0.00  0.00    -0.287 N 
ATOM     24  C   UNL d   1       1.683   0.944   2.682  0.00  0.00     0.071 C 
ATOM     25  HN  UNL d   1       0.005  -1.228   2.396  1.00  0.00     0.188 HD
ENDBRANCH  14  17
ENDBRANCH   3  14
BRANCH   7  26
ATOM     26  S   UNL d   1      -3.359  -7.581   7.433  0.00  0.00    -0.097 SA
ATOM     27  C   UNL d   1      -2.077  -8.193   8.550  0.00  0.00     0.099 C 
ENDBRANCH   7  26
TORSDOF 3
