REMARK  5 active torsions:
REMARK  status: ('A' for Active; 'I' for Inactive)
REMARK    1  A    between atoms: C_3  and  C_1 
REMARK    2  A    between atoms: O_7  and  C_2 
REMARK    3  A    between atoms: O_10  and  C_3 
REMARK    4  A    between atoms: C_9  and  O_7 
REMARK    5  A    between atoms: C_12  and  C_9 
ROOT
ATOM      1  C   UNL d   1       0.066   1.330   0.054  0.00  0.00     0.113 A 
ATOM      2  C   UNL d   1       1.371   0.835   0.031  0.00  0.00     0.092 A 
ATOM      3  S   UNL d   1      -1.071   0.011  -0.030  0.00  0.00    -0.093 SA
ATOM      4  C   UNL d   1       1.395  -0.598  -0.017  0.00  0.00     0.045 A 
ATOM      5  C   UNL d   1       0.147  -1.166  -0.047  0.00  0.00     0.053 A 
ENDROOT
BRANCH   2   6
ATOM      6  O   UNL d   1       2.581   1.462   0.096  0.00  0.00    -0.345 OA
BRANCH   6   7
ATOM      7  C   UNL d   1       2.616   2.875  -0.030  0.00  0.00     0.214 C 
BRANCH   7   8
ATOM      8  C   UNL d   1       4.038   3.404  -0.052  0.00  0.00    -0.034 A 
ATOM      9  C   UNL d   1       4.278   4.654  -0.650  0.00  0.00     0.011 A 
ATOM     10  C   UNL d   1       5.558   5.213  -0.658  0.00  0.00     0.024 A 
ATOM     11  C   UNL d   1       6.609   4.529  -0.057  0.00  0.00     0.034 A 
ATOM     12  C   UNL d   1       6.392   3.294   0.551  0.00  0.00     0.024 A 
ATOM     13 CL   UNL d   1       8.187   5.219  -0.057  0.00  0.00    -0.084 Cl
ATOM     14  C   UNL d   1       5.109   2.735   0.558  0.00  0.00     0.011 A 
ENDBRANCH   7   8
ENDBRANCH   6   7
ENDBRANCH   2   6
BRANCH   1  15
ATOM     15  C   UNL d   1      -0.503   2.676   0.088  0.00  0.00     0.302 C 
ATOM     16  O   UNL d   1       0.006   3.696  -0.364  0.00  0.00    -0.259 OA
BRANCH  15  17
ATOM     17  O   UNL d   1      -1.724   2.671   0.705  0.00  0.00    -0.322 OA
ATOM     18  C   UNL d   1      -2.397   3.932   0.717  0.00  0.00     0.213 C 
ENDBRANCH  15  17
ENDBRANCH   1  15
TORSDOF 5
