REMARK  6 active torsions:
REMARK  status: ('A' for Active; 'I' for Inactive)
REMARK    1  A    between atoms: S_17  and  C_1 
REMARK    2  A    between atoms: N_4  and  C_2 
REMARK    3  A    between atoms: N_5  and  C_3 
REMARK    4  A    between atoms: C_6  and  S_17 
REMARK    5  A    between atoms: N_25  and  C_10 
REMARK    6  A    between atoms: C_13  and  C_14 
ROOT
ATOM      1  C   UNL d   1       1.494  -0.347   0.018  0.00  0.00     0.073 A 
ATOM      2  C   UNL d   1       0.515  -1.360   0.021  0.00  0.00     0.123 A 
ATOM      3  C   UNL d   1       1.005   0.960  -0.167  0.00  0.00     0.123 A 
ATOM      4  C   UNL d   1      -1.320   0.232  -0.244  0.00  0.00     0.052 A 
ATOM      5  C   UNL d   1      -0.368   1.258  -0.294  0.00  0.00     0.053 A 
ATOM      6  C   UNL d   1      -0.864  -1.087  -0.109  0.00  0.00     0.053 A 
ENDROOT
BRANCH   1   7
ATOM      7  S   UNL d   1       3.197  -0.659   0.491  0.00  0.00    -0.059 SA
BRANCH   7   8
ATOM      8  C   UNL d   1       3.936  -0.942  -1.073  0.00  0.00     0.135 A 
ATOM      9  S   UNL d   1       5.617  -1.242  -1.226  0.00  0.00    -0.026 SA
ATOM     10  C   UNL d   1       5.361  -1.401  -2.916  0.00  0.00     0.159 A 
ATOM     11  N   UNL d   1       4.110  -1.228  -3.281  0.00  0.00    -0.279 N 
ATOM     12  N   UNL d   1       3.274  -0.957  -2.208  0.00  0.00    -0.286 N 
ATOM     13  HN  UNL d   1       3.789  -1.287  -4.248  1.00  0.00     0.189 HD
ATOM     14  HN  UNL d   1       2.271  -0.790  -2.290  1.00  0.00     0.188 HD
BRANCH  10  15
ATOM     15  N   UNL d   1       6.380  -1.691  -3.748  0.00  0.00    -0.379 N 
ATOM     16  H   UNL d   1       7.218  -2.107  -3.362  0.00  0.00     0.158 HD
ATOM     17  H   UNL d   1       6.129  -2.034  -4.670  0.00  0.00     0.158 HD
ENDBRANCH  10  15
ENDBRANCH   7   8
ENDBRANCH   1   7
BRANCH   2  18
ATOM     18  N   UNL d   1       0.874  -2.752   0.244  0.00  0.00    -0.114 N 
ATOM     19  O   UNL d   1       1.642  -3.284  -0.564  0.00  0.00    -0.532 OA
ATOM     20  O   UNL d   1       0.344  -3.311   1.213  0.00  0.00    -0.532 OA
ENDBRANCH   2  18
BRANCH   3  21
ATOM     21  N   UNL d   1       1.907   2.098  -0.156  0.00  0.00    -0.114 N 
ATOM     22  O   UNL d   1       2.701   2.203  -1.096  0.00  0.00    -0.532 OA
ATOM     23  O   UNL d   1       1.779   2.896   0.782  0.00  0.00    -0.532 OA
ENDBRANCH   3  21
BRANCH   4  24
ATOM     24  C   UNL d   1      -2.804   0.524  -0.294  0.00  0.00     0.417 C 
ATOM     25  F   UNL d   1      -3.089   1.853  -0.339  0.00  0.00    -0.166 F 
ATOM     26  F   UNL d   1      -3.404  -0.033  -1.378  0.00  0.00    -0.166 F 
ATOM     27  F   UNL d   1      -3.456   0.036   0.795  0.00  0.00    -0.166 F 
ENDBRANCH   4  24
TORSDOF 6
