REMARK  1 active torsions:
REMARK  status: ('A' for Active; 'I' for Inactive)
REMARK    1  A    between atoms: N_3  and  C_1 
ROOT
ATOM      1  C   UNL d   1      -0.201   1.885   0.024  0.00  0.00     0.011 C 
ATOM      2  C   UNL d   1      -1.319   1.144   0.156  0.00  0.00     0.075 C 
ATOM      3  C   UNL d   1      -1.344  -0.313  -0.106  0.00  0.00     0.151 C 
ATOM      4  C   UNL d   1       1.191  -0.268  -0.002  0.00  0.00    -0.036 C 
ATOM      5  C   UNL d   1       1.091   1.216  -0.418  0.00  0.00     0.066 C 
ATOM      6  O   UNL d   1      -2.416  -0.915  -0.044  0.00  0.00    -0.293 OA
ATOM      7  C   UNL d   1      -0.062  -1.013  -0.489  0.00  0.00     0.092 C 
ATOM      8  C   UNL d   1       2.439  -0.893  -0.649  0.00  0.00     0.015 C 
ATOM      9  C   UNL d   1       1.338  -0.389   1.531  0.00  0.00     0.015 C 
ENDROOT
BRANCH   1  10
ATOM     10  N   UNL d   1      -0.162   3.255   0.304  0.00  0.00    -0.380 N 
ATOM     11  C   UNL d   1       0.807   4.204  -0.288  0.00  0.00     0.149 C 
ATOM     12  C   UNL d   1       1.722   4.782   0.801  0.00  0.00     0.187 C 
ATOM     13  O   UNL d   1       0.961   5.412   1.845  0.00  0.00    -0.388 OA
ATOM     14  C   UNL d   1       0.064   4.463   2.447  0.00  0.00     0.187 C 
ATOM     15  C   UNL d   1      -0.917   3.875   1.419  0.00  0.00     0.149 C 
ENDBRANCH   1  10
TORSDOF 1
