REMARK  5 active torsions:
REMARK  status: ('A' for Active; 'I' for Inactive)
REMARK    1  A    between atoms: C_8  and  C_1 
REMARK    2  A    between atoms: N_9  and  C_1 
REMARK    3  A    between atoms: O_10  and  N_2 
REMARK    4  A    between atoms: C_4  and  S_7 
REMARK    5  A    between atoms: S_7  and  C_8 
ROOT
ATOM      1  C   UNL d   1       0.037   1.336   0.273  0.00  0.00     0.152 C 
ENDROOT
BRANCH   1   2
ATOM      2  S   UNL d   1      -1.724   0.858   0.279  0.00  0.00    -0.105 SA
BRANCH   2   3
ATOM      3  C   UNL d   1      -2.472   2.433   0.639  0.00  0.00     0.069 A 
ATOM      4  N   UNL d   1      -1.796   3.558   0.318  0.00  0.00    -0.361 N 
ATOM      5  C   UNL d   1      -2.406   4.739   0.567  0.00  0.00     0.089 A 
ATOM      6  HN  UNL d   1      -0.864   3.519  -0.095  1.00  0.00     0.165 HD
ATOM      7  C   UNL d   1      -3.668   4.853   1.127  0.00  0.00     0.017 A 
ATOM      8  C   UNL d   1      -4.349   3.687   1.449  0.00  0.00     0.004 A 
ATOM      9  C   UNL d   1      -3.746   2.456   1.198  0.00  0.00     0.037 A 
ENDBRANCH   2   3
ENDBRANCH   1   2
BRANCH   1  10
ATOM     10  C   UNL d   1       0.870   0.102  -0.053  0.00  0.00     0.084 C 
ATOM     11  N   UNL d   1       1.692  -0.349   0.850  0.00  0.00    -0.262 N 
ATOM     12  HN  UNL d   1       1.838   0.076   1.766  1.00  0.00     0.195 HD
BRANCH  11  13
ATOM     13  O   UNL d   1       2.350  -1.503   0.390  0.00  0.00    -0.289 OA
ATOM     14  H   UNL d   1       2.964  -1.693   1.124  0.00  0.00     0.244 HD
ENDBRANCH  11  13
BRANCH  10  15
ATOM     15  N   UNL d   1       0.709  -0.490  -1.288  0.00  0.00    -0.290 NA
ATOM     16  H   UNL d   1       1.106  -1.425  -1.282  0.00  0.00     0.125 HD
ATOM     17  H   UNL d   1      -0.240  -0.459  -1.645  0.00  0.00     0.125 HD
ENDBRANCH  10  15
ENDBRANCH   1  10
TORSDOF 5
