REMARK  3 active torsions:
REMARK  status: ('A' for Active; 'I' for Inactive)
REMARK    1  A    between atoms: C_12  and  C_2 
REMARK    2  A    between atoms: C_13  and  C_9 
REMARK    3  A    between atoms: C_14  and  C_11 
ROOT
ATOM      1  N   UNL d   1       0.306   0.655   0.049  0.00  0.00    -0.235 N 
ATOM      2  C   UNL d   1      -0.801   1.491   0.072  0.00  0.00     0.144 A 
ATOM      3  C   UNL d   1       0.135  -0.734  -0.039  0.00  0.00     0.130 A 
ATOM      4  N   UNL d   1       1.615   0.978   0.092  0.00  0.00    -0.291 N 
ATOM      5  HN  UNL d   1       2.016   1.911   0.188  1.00  0.00     0.187 HD
ATOM      6  N   UNL d   1      -1.098  -1.326  -0.060  0.00  0.00    -0.340 N 
ATOM      7  HN  UNL d   1      -1.198  -2.338  -0.127  1.00  0.00     0.167 HD
ATOM      8  C   UNL d   1       1.400  -1.273  -0.098  0.00  0.00     0.082 A 
ATOM      9  C   UNL d   1       2.278  -0.177  -0.017  0.00  0.00     0.069 A 
ATOM     10  C   UNL d   1      -2.036   0.953   0.051  0.00  0.00     0.067 A 
ATOM     11  C   UNL d   1      -2.141  -0.543   0.009  0.00  0.00     0.053 A 
ENDROOT
BRANCH   9  12
ATOM     12  C   UNL d   1       3.778  -0.212  -0.049  0.00  0.00     0.033 A 
ATOM     13  S   UNL d   1       4.714  -1.621  -0.287  0.00  0.00    -0.100 SA
ATOM     14  C   UNL d   1       6.179  -0.738  -0.218  0.00  0.00     0.050 A 
ATOM     15  C   UNL d   1       5.963   0.605   0.004  0.00  0.00     0.008 A 
ATOM     16  C   UNL d   1       4.573   0.907   0.101  0.00  0.00     0.021 A 
ENDBRANCH   9  12
BRANCH   2  17
ATOM     17  C   UNL d   1      -0.608   2.961   0.089  0.00  0.00     0.434 C 
ATOM     18  F   UNL d   1       0.666   3.411   0.048  0.00  0.00    -0.165 F 
ATOM     19  F   UNL d   1      -1.247   3.533  -0.969  0.00  0.00    -0.165 F 
ATOM     20  F   UNL d   1      -1.175   3.506   1.200  0.00  0.00    -0.165 F 
ENDBRANCH   2  17
BRANCH  11  21
ATOM     21  C   UNL d   1      -3.462  -1.163   0.018  0.00  0.00     0.031 A 
ATOM     22  S   UNL d   1      -4.819  -0.393   0.737  0.00  0.00    -0.100 SA
ATOM     23  C   UNL d   1      -5.859  -1.689   0.349  0.00  0.00     0.050 A 
ATOM     24  C   UNL d   1      -5.196  -2.704  -0.301  0.00  0.00     0.008 A 
ATOM     25  C   UNL d   1      -3.812  -2.408  -0.475  0.00  0.00     0.021 A 
ENDBRANCH  11  21
TORSDOF 3
