REMARK  3 active torsions:
REMARK  status: ('A' for Active; 'I' for Inactive)
REMARK    1  A    between atoms: C_5  and  CA_1 
REMARK    2  A    between atoms: S_11  and  C_4 
REMARK    3  A    between atoms: OXT_13  and  C_5 
ROOT
ATOM      1  CA  UNL d   1      -0.245   1.168  -0.016  0.00  0.00     0.131 A 
ATOM      2  N   UNL d   1      -1.615   1.207  -0.011  0.00  0.00    -0.330 N 
ATOM      3  HN  UNL d   1      -2.130   2.088  -0.022  1.00  0.00     0.168 HD
ATOM      4  C   UNL d   1      -2.241   0.021   0.009  0.00  0.00     0.144 A 
ATOM      5  C   UNL d   1       0.496   0.004  -0.001  0.00  0.00     0.083 A 
ATOM      6  N   UNL d   1      -1.613  -1.162   0.025  0.00  0.00    -0.345 N 
ATOM      7  HN  UNL d   1      -2.132  -2.040   0.040  1.00  0.00     0.167 HD
ATOM      8  C   UNL d   1      -0.262  -1.142   0.019  0.00  0.00     0.116 A 
ATOM      9 CL   UNL d   1       2.203  -0.125  -0.006  0.00  0.00    -0.080 Cl
ENDROOT
BRANCH   1  10
ATOM     10  C   UNL d   1       0.381   2.529  -0.040  0.00  0.00     0.195 C 
ATOM     11  O   UNL d   1       1.569   2.782  -0.049  0.00  0.00    -0.645 OA
BRANCH  10  12
ATOM     12  OXT UNL d   1      -0.581   3.490  -0.051  0.00  0.00    -0.772 OA
ATOM     13  HXT UNL d   1      -1.475   3.075  -0.041  0.00  0.00     0.167 HD
ENDBRANCH  10  12
ENDBRANCH   1  10
BRANCH   4  14
ATOM     14  S   UNL d   1      -4.013   0.057   0.014  0.00  0.00    -0.098 SA
ATOM     15  C   UNL d   1      -4.374  -1.720   0.039  0.00  0.00     0.099 C 
ENDBRANCH   4  14
TORSDOF 3
