REMARK  7 active torsions:
REMARK  status: ('A' for Active; 'I' for Inactive)
REMARK    1  A    between atoms: S_9  and  C_2 
REMARK    2  A    between atoms: C_12  and  C_3 
REMARK    3  A    between atoms: C_8  and  S_11 
REMARK    4  A    between atoms: C_15  and  S_9 
REMARK    5  A    between atoms: S_11  and  C_12 
REMARK    6  A    between atoms: C_13  and  C_15 
REMARK    7  A    between atoms: C_19  and  C_13 
ROOT
ATOM      1  N   UNL d   1       0.902   0.040   0.046  0.00  0.00    -0.319 N 
ATOM      2  C   UNL d   1       0.048   1.108   0.057  0.00  0.00     0.162 A 
ATOM      3  C   UNL d   1       0.094  -1.083   0.030  0.00  0.00     0.109 A 
ATOM      4  N   UNL d   1      -1.195   0.687   0.043  0.00  0.00    -0.278 N 
ATOM      5  HN  UNL d   1      -2.030   1.273   0.051  1.00  0.00     0.189 HD
ATOM      6  N   UNL d   1      -1.167  -0.689   0.015  0.00  0.00    -0.286 N 
ATOM      7  HN  UNL d   1      -1.982  -1.301  -0.012  1.00  0.00     0.188 HD
ATOM      8  C   UNL d   1       2.341   0.052   0.070  0.00  0.00     0.159 C 
ENDROOT
BRANCH   2   9
ATOM      9  S   UNL d   1       0.556   2.760   0.006  0.00  0.00    -0.085 SA
BRANCH   9  10
ATOM     10  C   UNL d   1      -0.410   3.472   1.369  0.00  0.00     0.166 C 
BRANCH  10  11
ATOM     11  C   UNL d   1       0.084   3.029   2.739  0.00  0.00     0.169 C 
ATOM     12  O   UNL d   1       0.990   2.215   2.905  0.00  0.00    -0.291 OA
BRANCH  11  13
ATOM     13  C   UNL d   1      -0.556   3.641   3.952  0.00  0.00     0.010 A 
ATOM     14  C   UNL d   1      -1.481   4.692   3.873  0.00  0.00     0.015 A 
ATOM     15  C   UNL d   1      -2.024   5.240   5.040  0.00  0.00     0.001 A 
ATOM     16  C   UNL d   1      -1.659   4.743   6.289  0.00  0.00     0.000 A 
ATOM     17  C   UNL d   1      -0.745   3.697   6.377  0.00  0.00     0.001 A 
ATOM     18  C   UNL d   1      -0.194   3.150   5.215  0.00  0.00     0.015 A 
ENDBRANCH  11  13
ENDBRANCH  10  11
ENDBRANCH   9  10
ENDBRANCH   2   9
BRANCH   3  19
ATOM     19  C   UNL d   1       0.573  -2.503   0.019  0.00  0.00     0.158 C 
BRANCH  19  20
ATOM     20  S   UNL d   1       1.296  -2.939   1.626  0.00  0.00    -0.115 SA
BRANCH  20  21
ATOM     21  C   UNL d   1       1.866  -4.595   1.474  0.00  0.00     0.041 A 
ATOM     22  S   UNL d   1       1.534  -5.669   0.188  0.00  0.00    -0.095 SA
ATOM     23  C   UNL d   1       2.381  -6.953   0.945  0.00  0.00     0.051 A 
ATOM     24  C   UNL d   1       2.929  -6.567   2.146  0.00  0.00     0.009 A 
ATOM     25  C   UNL d   1       2.638  -5.205   2.444  0.00  0.00     0.026 A 
ENDBRANCH  20  21
ENDBRANCH  19  20
ENDBRANCH   3  19
TORSDOF 7
