REMARK  7 active torsions:
REMARK  status: ('A' for Active; 'I' for Inactive)
REMARK    1  A    between atoms: C_3  and  C_1 
REMARK    2  A    between atoms: S_7  and  C_2 
REMARK    3  A    between atoms: N_15  and  C_3 
REMARK    4  A    between atoms: O_8  and  N_4 
REMARK    5  A    between atoms: C_6  and  O_8 
REMARK    6  A    between atoms: C_13  and  C_6 
REMARK    7  A    between atoms: C_18  and  S_7 
ROOT
ATOM      1  C   UNL d   1      -2.959  -2.196  -0.207  0.00  0.00     0.106 A 
ATOM      2  C   UNL d   1      -3.669  -3.397  -0.368  0.00  0.00     0.105 A 
ATOM      3  N   UNL d   1      -3.591  -0.972  -0.113  0.00  0.00    -0.360 N 
ATOM      4  HN  UNL d   1      -3.070  -0.096  -0.066  1.00  0.00     0.165 HD
ATOM      5  N   UNL d   1      -5.038  -3.384  -0.375  0.00  0.00    -0.357 N 
ATOM      6  HN  UNL d   1      -5.578  -4.239  -0.507  1.00  0.00     0.166 HD
ATOM      7  C   UNL d   1      -4.939  -1.008  -0.087  0.00  0.00     0.105 A 
ATOM      8  C   UNL d   1      -5.645  -2.189  -0.198  0.00  0.00     0.106 A 
ENDROOT
BRANCH   1   9
ATOM      9  C   UNL d   1      -1.473  -2.068   0.066  0.00  0.00     0.128 C 
ATOM     10  N   UNL d   1      -0.714  -3.126   0.109  0.00  0.00    -0.244 N 
ATOM     11  HN  UNL d   1      -0.980  -4.041  -0.254  1.00  0.00     0.196 HD
BRANCH  10  12
ATOM     12  O   UNL d   1       0.528  -2.842   0.724  0.00  0.00    -0.193 OA
BRANCH  12  13
ATOM     13  C   UNL d   1       0.518  -3.401   1.980  0.00  0.00     0.315 C 
ATOM     14  O   UNL d   1      -0.354  -4.081   2.492  0.00  0.00    -0.257 OA
BRANCH  13  15
ATOM     15  C   UNL d   1       1.693  -2.937   2.753  0.00  0.00     0.041 A 
ATOM     16  C   UNL d   1       2.953  -2.753   2.175  0.00  0.00     0.019 A 
ATOM     17  C   UNL d   1       4.017  -2.301   2.964  0.00  0.00     0.025 A 
ATOM     18  C   UNL d   1       3.818  -2.033   4.321  0.00  0.00     0.034 A 
ATOM     19  C   UNL d   1       2.570  -2.235   4.906  0.00  0.00     0.025 A 
ATOM     20 CL   UNL d   1       5.120  -1.444   5.278  0.00  0.00    -0.084 Cl
ATOM     21  C   UNL d   1       1.509  -2.695   4.124  0.00  0.00     0.019 A 
ENDBRANCH  13  15
ENDBRANCH  12  13
ENDBRANCH  10  12
BRANCH   9  22
ATOM     22  N   UNL d   1      -0.984  -0.795   0.310  0.00  0.00    -0.285 NA
ATOM     23  H   UNL d   1      -1.608  -0.054  -0.007  0.00  0.00     0.125 HD
ATOM     24  H   UNL d   1      -0.015  -0.667   0.044  0.00  0.00     0.125 HD
ENDBRANCH   9  22
ENDBRANCH   1   9
BRANCH   2  25
ATOM     25  S   UNL d   1      -2.984  -5.036  -0.403  0.00  0.00    -0.070 SA
BRANCH  25  26
ATOM     26  C   UNL d   1      -3.005  -5.491  -2.127  0.00  0.00     0.007 A 
ATOM     27  C   UNL d   1      -1.791  -5.796  -2.758  0.00  0.00     0.020 A 
ATOM     28  C   UNL d   1      -1.772  -6.330  -4.053  0.00  0.00     0.025 A 
ATOM     29  C   UNL d   1      -2.972  -6.562  -4.720  0.00  0.00     0.034 A 
ATOM     30  C   UNL d   1      -4.186  -6.249  -4.112  0.00  0.00     0.025 A 
ATOM     31 CL   UNL d   1      -2.954  -7.268  -6.291  0.00  0.00    -0.084 Cl
ATOM     32  C   UNL d   1      -4.202  -5.714  -2.817  0.00  0.00     0.020 A 
ENDBRANCH  25  26
ENDBRANCH   2  25
TORSDOF 7
