REMARK  5 active torsions:
REMARK  status: ('A' for Active; 'I' for Inactive)
REMARK    1  A    between atoms: S_7  and  C_1 
REMARK    2  A    between atoms: C_11  and  N_4 
REMARK    3  A    between atoms: C_13  and  S_7 
REMARK    4  A    between atoms: C_10  and  C_13 
REMARK    5  A    between atoms: O_16  and  C_10 
ROOT
ATOM      1  C   UNL d   1       2.387   0.160  -0.020  0.00  0.00     0.148 A 
ATOM      2  N   UNL d   1       1.732  -0.980  -0.049  0.00  0.00    -0.335 N 
ATOM      3  HN  UNL d   1       2.124  -1.921  -0.096  1.00  0.00     0.168 HD
ATOM      4  N   UNL d   1       1.547   1.250  -0.061  0.00  0.00    -0.321 N 
ATOM      5  C   UNL d   1       0.405  -0.628  -0.003  0.00  0.00     0.062 A 
ATOM      6  C   UNL d   1       0.253   0.759  -0.009  0.00  0.00     0.063 A 
ATOM      7  C   UNL d   1      -0.724  -1.460   0.021  0.00  0.00     0.055 A 
ATOM      8  C   UNL d   1      -1.012   1.365   0.005  0.00  0.00     0.034 A 
ATOM      9  C   UNL d   1      -1.986  -0.863   0.029  0.00  0.00     0.036 A 
ATOM     10  C   UNL d   1      -2.131   0.524   0.021  0.00  0.00     0.026 A 
ATOM     11 CL   UNL d   1      -3.390  -1.858   0.038  0.00  0.00    -0.084 Cl
ENDROOT
BRANCH   1  12
ATOM     12  S   UNL d   1       4.117   0.262  -0.040  0.00  0.00    -0.083 SA
BRANCH  12  13
ATOM     13  C   UNL d   1       4.576  -1.384  -0.644  0.00  0.00     0.192 C 
BRANCH  13  14
ATOM     14  C   UNL d   1       4.220  -1.557  -2.103  0.00  0.00     0.149 C 
ATOM     15  O   UNL d   1       5.042  -1.507  -3.011  0.00  0.00    -0.649 OA
BRANCH  14  16
ATOM     16  O   UNL d   1       2.909  -1.787  -2.338  0.00  0.00    -0.776 OA
ATOM     17  H   UNL d   1       2.361  -1.736  -1.517  0.00  0.00     0.167 HD
ENDBRANCH  14  16
ENDBRANCH  13  14
ENDBRANCH  12  13
ENDBRANCH   1  12
BRANCH   4  18
ATOM     18  C   UNL d   1       1.940   2.645  -0.254  0.00  0.00     0.084 C 
ATOM     19  C   UNL d   1       1.403   3.214  -1.568  0.00  0.00     0.032 C 
ATOM     20  C   UNL d   1       1.598   3.531   0.943  0.00  0.00     0.032 C 
ENDBRANCH   4  18
TORSDOF 5
