REMARK  4 active torsions:
REMARK  status: ('A' for Active; 'I' for Inactive)
REMARK    1  A    between atoms: C_12  and  C_3 
REMARK    2  A    between atoms: C_10  and  C_7 
REMARK    3  A    between atoms: O_17  and  C_8 
REMARK    4  A    between atoms: O_18  and  C_11 
ROOT
ATOM      1  N   UNL d   1       1.595  -0.074   0.184  0.00  0.00    -0.331 N 
ATOM      2  HN  UNL d   1       2.542  -0.449   0.242  1.00  0.00     0.168 HD
ATOM      3  C   UNL d   1       1.219   1.162   0.097  0.00  0.00     0.162 A 
ATOM      4  C   UNL d   1       0.402  -0.753   0.179  0.00  0.00     0.111 A 
ATOM      5  O   UNL d   1      -0.109   1.417   0.075  0.00  0.00    -0.256 OA
ATOM      6  C   UNL d   1      -0.738   0.211   0.135  0.00  0.00     0.316 A 
ATOM      7  C   UNL d   1       0.308  -2.090   0.147  0.00  0.00     0.049 C 
ATOM      8  O   UNL d   1      -1.934   0.018   0.147  0.00  0.00    -0.257 OA
ENDROOT
BRANCH   7   9
ATOM      9  C   UNL d   1      -0.958  -2.823   0.005  0.00  0.00    -0.009 A 
ATOM     10  C   UNL d   1      -1.461  -3.221  -1.255  0.00  0.00     0.080 A 
ATOM     11  C   UNL d   1      -2.723  -3.855  -1.362  0.00  0.00     0.124 A 
ATOM     12 CL   UNL d   1      -0.441  -2.988  -2.650  0.00  0.00    -0.080 Cl
ATOM     13  C   UNL d   1      -3.444  -4.134  -0.185  0.00  0.00     0.103 A 
ATOM     14  C   UNL d   1      -2.910  -3.765   1.059  0.00  0.00     0.040 A 
ATOM     15  C   UNL d   1      -1.686  -3.110   1.159  0.00  0.00     0.016 A 
BRANCH  11  16
ATOM     16  O   UNL d   1      -3.213  -4.333  -2.553  0.00  0.00    -0.351 OA
ATOM     17  C   UNL d   1      -3.335  -3.373  -3.603  0.00  0.00     0.210 C 
ENDBRANCH  11  16
BRANCH  13  18
ATOM     18  O   UNL d   1      -4.651  -4.768  -0.042  0.00  0.00    -0.353 OA
ATOM     19  C   UNL d   1      -5.449  -5.011  -1.188  0.00  0.00     0.210 C 
ENDBRANCH  13  18
ENDBRANCH   7   9
BRANCH   3  20
ATOM     20  C   UNL d   1       2.084   2.346  -0.015  0.00  0.00     0.015 A 
ATOM     21  C   UNL d   1       3.472   2.166  -0.077  0.00  0.00     0.016 A 
ATOM     22  C   UNL d   1       4.314   3.267  -0.232  0.00  0.00     0.001 A 
ATOM     23  C   UNL d   1       3.776   4.550  -0.326  0.00  0.00     0.000 A 
ATOM     24  C   UNL d   1       2.395   4.736  -0.257  0.00  0.00     0.001 A 
ATOM     25  C   UNL d   1       1.548   3.637  -0.100  0.00  0.00     0.016 A 
ENDBRANCH   3  20
TORSDOF 4
