REMARK  6 active torsions:
REMARK  status: ('A' for Active; 'I' for Inactive)
REMARK    1  A    between atoms: N_6  and  C_1 
REMARK    2  A    between atoms: N_7  and  C_1 
REMARK    3  A    between atoms: N_2  and  N_6 
REMARK    4  A    between atoms: C_4  and  C_5 
REMARK    5  A    between atoms: C_16  and  N_7 
REMARK    6  A    between atoms: C_17  and  C_11 
ROOT
ATOM      1  C   UNL d   1       3.594  -0.639  -0.871  0.00  0.00     0.191 C 
ATOM      2  S   UNL d   1       3.836  -0.155  -2.454  0.00  0.00    -0.039 SA
ENDROOT
BRANCH   1   3
ATOM      3  N   UNL d   1       2.537  -0.081  -0.176  0.00  0.00    -0.276 N 
ATOM      4  H   UNL d   1       1.953   0.551  -0.716  0.00  0.00     0.189 HD
BRANCH   3   5
ATOM      5  N   UNL d   1       2.005  -0.726   0.909  0.00  0.00    -0.300 N 
ATOM      6  C   UNL d   1       0.913  -0.244   1.442  0.00  0.00     0.055 C 
ATOM      7  C   UNL d   1       0.292   1.076   1.034  0.00  0.00     0.072 C 
ATOM      8  HN  UNL d   1       2.449  -1.561   1.291  1.00  0.00     0.186 HD
BRANCH   6   9
ATOM      9  C   UNL d   1       0.255  -1.028   2.468  0.00  0.00     0.098 A 
ATOM     10  O   UNL d   1      -0.870  -0.533   3.075  0.00  0.00    -0.321 OA
ATOM     11  C   UNL d   1      -1.295  -1.463   3.966  0.00  0.00     0.142 A 
ATOM     12  C   UNL d   1      -0.464  -2.560   3.948  0.00  0.00     0.027 A 
ATOM     13  C   UNL d   1       0.531  -2.282   2.982  0.00  0.00     0.041 A 
ENDBRANCH   6   9
ENDBRANCH   3   5
ENDBRANCH   1   3
BRANCH   1  14
ATOM     14  N   UNL d   1       4.361  -1.498  -0.123  0.00  0.00    -0.332 N 
ATOM     15  H   UNL d   1       4.337  -1.290   0.868  0.00  0.00     0.168 HD
BRANCH  14  16
ATOM     16  C   UNL d   1       5.225  -2.526  -0.546  0.00  0.00     0.034 A 
ATOM     17  C   UNL d   1       6.326  -2.842   0.249  0.00  0.00     0.030 A 
ATOM     18  C   UNL d   1       7.143  -3.932  -0.071  0.00  0.00     0.010 A 
ATOM     19  C   UNL d   1       6.842  -4.758  -1.163  0.00  0.00    -0.055 A 
ATOM     20  C   UNL d   1       5.737  -4.429  -1.960  0.00  0.00     0.010 A 
ATOM     21  C   UNL d   1       4.942  -3.317  -1.661  0.00  0.00     0.030 A 
BRANCH  19  22
ATOM     22  C   UNL d   1       7.651  -6.007  -1.469  0.00  0.00     0.010 C 
ATOM     23  C   UNL d   1       9.097  -5.676  -1.839  0.00  0.00     0.015 C 
ATOM     24  C   UNL d   1       7.601  -7.003  -0.305  0.00  0.00     0.015 C 
ENDBRANCH  19  22
ENDBRANCH  14  16
ENDBRANCH   1  14
TORSDOF 6
