REMARK  3 active torsions:
REMARK  status: ('A' for Active; 'I' for Inactive)
REMARK    1  A    between atoms: N_5  and  C_1 
REMARK    2  A    between atoms: C_6  and  C_2 
REMARK    3  A    between atoms: O_12  and  C_6 
ROOT
ATOM      1  C   UNL d   1      -0.554  -1.233   0.018  0.00  0.00     0.103 A 
ATOM      2  C   UNL d   1       0.728   1.241   0.084  0.00  0.00     0.055 A 
ATOM      3  N   UNL d   1      -1.288  -0.097  -0.025  0.00  0.00    -0.351 N 
ATOM      4  HN  UNL d   1      -2.306  -0.140  -0.085  1.00  0.00     0.166 HD
ATOM      5  C   UNL d   1      -0.648   1.101   0.013  0.00  0.00     0.107 A 
ATOM      6  C   UNL d   1       1.485   0.078   0.137  0.00  0.00     0.022 A 
ATOM      7  C   UNL d   1       0.837  -1.156   0.104  0.00  0.00     0.049 A 
ENDROOT
BRANCH   1   8
ATOM      8  N   UNL d   1      -1.186  -2.446  -0.140  0.00  0.00    -0.363 N 
ATOM      9  C   UNL d   1      -2.622  -2.475  -0.451  0.00  0.00     0.150 C 
ATOM     10  C   UNL d   1      -2.881  -3.710  -1.333  0.00  0.00     0.187 C 
ATOM     11  O   UNL d   1      -2.458  -4.925  -0.683  0.00  0.00    -0.388 OA
ATOM     12  C   UNL d   1      -1.057  -4.867  -0.361  0.00  0.00     0.187 C 
ATOM     13  C   UNL d   1      -0.728  -3.664   0.537  0.00  0.00     0.150 C 
ENDBRANCH   1   8
BRANCH   2  14
ATOM     14  C   UNL d   1       1.314   2.595   0.074  0.00  0.00     0.294 C 
ATOM     15  O   UNL d   1       0.645   3.617   0.025  0.00  0.00    -0.259 OA
BRANCH  14  16
ATOM     16  O   UNL d   1       2.667   2.528   0.116  0.00  0.00    -0.322 OA
ATOM     17  C   UNL d   1       3.312   3.803   0.094  0.00  0.00     0.213 C 
ENDBRANCH  14  16
ENDBRANCH   2  14
TORSDOF 3
