REMARK  6 active torsions:
REMARK  status: ('A' for Active; 'I' for Inactive)
REMARK    1  A    between atoms: N_5  and  C_1 
REMARK    2  A    between atoms: C_4  and  C_6 
REMARK    3  A    between atoms: C_7  and  C_8 
REMARK       I    between atoms: C_8  and  N_19 
REMARK    4  A    between atoms: C_28  and  N_12 
REMARK    5  A    between atoms: N_19  and  C_27 
REMARK    6  A    between atoms: C_27  and  C_28 
ROOT
ATOM      1  N   UNL d   1       0.112   2.655  -0.158  0.00  0.00    -0.214 N 
ATOM      2  N   UNL d   1       0.715   5.534   0.088  0.00  0.00     0.093 N 
ATOM      3  C   UNL d   1      -0.514   3.430   0.919  0.00  0.00     0.171 C 
ATOM      4  C   UNL d   1       1.390   3.180  -0.651  0.00  0.00     0.171 C 
ATOM      5  C   UNL d   1       1.237   4.676  -1.006  0.00  0.00     0.293 C 
ATOM      6  C   UNL d   1      -0.561   4.936   0.555  0.00  0.00     0.293 C 
ENDROOT
BRANCH   1   7
ATOM      7  C   UNL d   1       0.044   1.277  -0.007  0.00  0.00     0.680 A 
ATOM      8  N   UNL d   1       1.034   0.516  -0.498  0.00  0.00    -0.186 N 
ATOM      9  C   UNL d   1       0.929  -0.835  -0.412  0.00  0.00     0.133 A 
ATOM     10  HN  UNL d   1       1.853   0.945  -0.928  1.00  0.00     0.184 HD
ATOM     11  C   UNL d   1      -0.179  -1.442   0.143  0.00  0.00     0.052 A 
ATOM     12  C   UNL d   1      -1.143  -0.595   0.622  0.00  0.00     0.108 A 
ATOM     13  N   UNL d   1      -1.045   0.745   0.569  0.00  0.00    -0.202 N 
ATOM     14  HN  UNL d   1      -1.778   1.340   0.956  1.00  0.00     0.183 HD
BRANCH   9  15
ATOM     15  C   UNL d   1       2.053  -1.703  -0.946  0.00  0.00     0.433 C 
ATOM     16  F   UNL d   1       3.124  -1.012  -1.427  0.00  0.00    -0.165 F 
ATOM     17  F   UNL d   1       2.553  -2.545   0.007  0.00  0.00    -0.165 F 
ATOM     18  F   UNL d   1       1.645  -2.515  -1.965  0.00  0.00    -0.165 F 
ENDBRANCH   9  15
ENDBRANCH   1   7
BRANCH   2  19
ATOM     19  C   UNL d   1       1.674   5.686   1.198  0.00  0.00     0.292 C 
BRANCH  19  20
ATOM     20  C   UNL d   1       2.933   6.483   0.805  0.00  0.00     0.153 C 
BRANCH  20  21
ATOM     21  N   UNL d   1       3.839   6.677   1.917  0.00  0.00    -0.355 N 
ATOM     22  C   UNL d   1       4.810   5.754   2.250  0.00  0.00     0.258 C 
ATOM     23  O   UNL d   1       4.910   4.686   1.652  0.00  0.00    -0.267 OA
ATOM     24  H   UNL d   1       3.782   7.530   2.461  0.00  0.00     0.162 HD
BRANCH  22  25
ATOM     25  C   UNL d   1       5.700   6.139   3.340  0.00  0.00     0.072 A 
ATOM     26  S   UNL d   1       5.533   7.628   4.178  0.00  0.00    -0.097 SA
ATOM     27  C   UNL d   1       6.867   7.292   5.190  0.00  0.00     0.050 A 
ATOM     28  C   UNL d   1       7.438   6.072   4.904  0.00  0.00     0.009 A 
ATOM     29  C   UNL d   1       6.766   5.409   3.837  0.00  0.00     0.025 A 
ENDBRANCH  22  25
ENDBRANCH  20  21
ENDBRANCH  19  20
ENDBRANCH   2  19
TORSDOF 6
