REMARK  7 active torsions:
REMARK  status: ('A' for Active; 'I' for Inactive)
REMARK    1  A    between atoms: N_2  and  C_1 
REMARK    2  A    between atoms: C_3  and  C_1 
REMARK    3  A    between atoms: C_4  and  C_1 
REMARK    4  A    between atoms: N_6  and  C_1 
REMARK       I    between atoms: C_5  and  N_2 
REMARK    5  A    between atoms: C_7  and  C_5 
REMARK    6  A    between atoms: C_15  and  N_6 
REMARK    7  A    between atoms: O_27  and  C_19 
ROOT
ATOM      1  C   UNL d   1       0.919   0.094   0.008  0.00  0.00     0.306 C 
ENDROOT
BRANCH   1   2
ATOM      2  N   UNL d   1       0.467  -0.654   1.216  0.00  0.00    -0.315 N 
ATOM      3  C   UNL d   1       0.676  -1.986   1.447  0.00  0.00     0.254 C 
ATOM      4  O   UNL d   1       1.134  -2.762   0.626  0.00  0.00    -0.268 OA
ATOM      5  H   UNL d   1       0.027  -0.096   1.939  0.00  0.00     0.165 HD
BRANCH   3   6
ATOM      6  C   UNL d   1       0.219  -2.446   2.791  0.00  0.00     0.032 A 
ATOM      7  C   UNL d   1      -0.524  -3.624   2.889  0.00  0.00     0.020 A 
ATOM      8  C   UNL d   1      -1.036  -4.024   4.136  0.00  0.00     0.038 A 
ATOM      9  C   UNL d   1      -0.789  -3.257   5.277  0.00  0.00     0.068 A 
ATOM     10  C   UNL d   1       0.009  -2.114   5.180  0.00  0.00     0.038 A 
ATOM     11  C   UNL d   1       0.509  -1.704   3.939  0.00  0.00     0.020 A 
BRANCH   9  12
ATOM     12  O   UNL d   1      -1.227  -3.559   6.535  0.00  0.00    -0.356 OA
ATOM     13  C   UNL d   1      -2.502  -4.190   6.603  0.00  0.00     0.210 C 
ENDBRANCH   9  12
ENDBRANCH   3   6
ENDBRANCH   1   2
BRANCH   1  14
ATOM     14  C   UNL d   1       0.179   1.470  -0.074  0.00  0.00     0.441 C 
ATOM     15  F   UNL d   1      -0.251   1.839   1.173  0.00  0.00    -0.166 F 
ATOM     16  F   UNL d   1       0.984   2.470  -0.505  0.00  0.00    -0.166 F 
ATOM     17  F   UNL d   1      -0.931   1.478  -0.840  0.00  0.00    -0.166 F 
ENDBRANCH   1  14
BRANCH   1  18
ATOM     18  C   UNL d   1       0.594  -0.614  -1.363  0.00  0.00     0.441 C 
ATOM     19  F   UNL d   1      -0.429  -1.492  -1.271  0.00  0.00    -0.166 F 
ATOM     20  F   UNL d   1       0.275   0.256  -2.352  0.00  0.00    -0.166 F 
ATOM     21  F   UNL d   1       1.678  -1.291  -1.832  0.00  0.00    -0.166 F 
ENDBRANCH   1  18
BRANCH   1  22
ATOM     22  N   UNL d   1       2.403   0.238   0.178  0.00  0.00    -0.349 N 
ATOM     23  H   UNL d   1       2.919  -0.002  -0.655  0.00  0.00     0.162 HD
BRANCH  22  24
ATOM     24  C   UNL d   1       3.131   0.851   1.174  0.00  0.00     0.030 A 
ATOM     25  C   UNL d   1       2.587   1.452   2.309  0.00  0.00     0.032 A 
ATOM     26  C   UNL d   1       3.401   1.991   3.315  0.00  0.00     0.044 A 
ATOM     27  C   UNL d   1       4.775   1.925   3.193  0.00  0.00     0.116 A 
ATOM     28  C   UNL d   1       5.357   1.328   2.087  0.00  0.00     0.044 A 
ATOM     29  F   UNL d   1       5.548   2.430   4.162  0.00  0.00    -0.206 F 
ATOM     30  C   UNL d   1       4.538   0.792   1.089  0.00  0.00     0.032 A 
ENDBRANCH  22  24
ENDBRANCH   1  22
TORSDOF 7
