REMARK  5 active torsions:
REMARK  status: ('A' for Active; 'I' for Inactive)
REMARK    1  A    between atoms: C_2  and  S_1 
REMARK    2  A    between atoms: N_5  and  S_1 
REMARK    3  A    between atoms: C_12  and  C_4 
REMARK    4  A    between atoms: N_8  and  N_5 
REMARK    5  A    between atoms: C_13  and  C_17 
ROOT
ATOM      1  S   UNL d   1       0.972   0.075  -0.047  0.00  0.00     0.282 S 
ATOM      2  O   UNL d   1       0.171   0.607   1.038  0.00  0.00    -0.198 OA
ATOM      3  O   UNL d   1       2.419   0.114  -0.027  0.00  0.00    -0.198 OA
ENDROOT
BRANCH   1   4
ATOM      4  C   UNL d   1       0.456   1.041  -1.456  0.00  0.00     0.122 A 
ATOM      5  S   UNL d   1       1.486   1.058  -2.817  0.00  0.00    -0.074 SA
ATOM      6  C   UNL d   1       0.461   2.132  -3.679  0.00  0.00     0.033 A 
ATOM      7  C   UNL d   1      -0.691   2.394  -2.957  0.00  0.00     0.023 A 
ATOM      8  C   UNL d   1      -0.685   1.785  -1.673  0.00  0.00     0.034 A 
BRANCH   6   9
ATOM      9  C   UNL d   1       0.820   2.653  -5.004  0.00  0.00     0.049 A 
ATOM     10  N   UNL d   1      -0.246   2.892  -5.808  0.00  0.00    -0.365 N 
ATOM     11  C   UNL d   1      -0.001   3.453  -7.012  0.00  0.00     0.088 A 
ATOM     12  HN  UNL d   1      -1.195   2.658  -5.516  1.00  0.00     0.165 HD
ATOM     13  C   UNL d   1       1.262   3.807  -7.455  0.00  0.00     0.017 A 
ATOM     14  C   UNL d   1       2.343   3.556  -6.619  0.00  0.00     0.004 A 
ATOM     15  C   UNL d   1       2.124   2.966  -5.375  0.00  0.00     0.031 A 
ENDBRANCH   6   9
ENDBRANCH   1   4
BRANCH   1  16
ATOM     16  N   UNL d   1       0.428  -1.521  -0.366  0.00  0.00    -0.223 N 
ATOM     17  H   UNL d   1      -0.507  -1.526  -0.778  0.00  0.00     0.200 HD
BRANCH  16  18
ATOM     18  N   UNL d   1       0.700  -2.500   0.662  0.00  0.00    -0.301 N 
ATOM     19  C   UNL d   1       0.131  -3.652   0.494  0.00  0.00     0.120 C 
ATOM     20  HN  UNL d   1       1.298  -2.299   1.464  1.00  0.00     0.186 HD
BRANCH  19  21
ATOM     21  C   UNL d   1       0.300  -4.734   1.489  0.00  0.00     0.002 A 
ATOM     22  C   UNL d   1      -0.220  -6.017   1.285  0.00  0.00     0.045 A 
ATOM     23 CL   UNL d   1      -1.103  -6.459  -0.133  0.00  0.00    -0.083 Cl
ATOM     24  C   UNL d   1      -0.025  -7.008   2.255  0.00  0.00     0.024 A 
ATOM     25  C   UNL d   1       0.680  -6.723   3.426  0.00  0.00     0.002 A 
ATOM     26  C   UNL d   1       1.193  -5.446   3.635  0.00  0.00     0.001 A 
ATOM     27  C   UNL d   1       1.006  -4.455   2.671  0.00  0.00     0.014 A 
ENDBRANCH  19  21
ENDBRANCH  16  18
ENDBRANCH   1  16
TORSDOF 5
