REMARK  5 active torsions:
REMARK  status: ('A' for Active; 'I' for Inactive)
REMARK    1  A    between atoms: N_3  and  N_1 
REMARK    2  A    between atoms: C_9  and  C_2 
REMARK       I    between atoms: C_6  and  N_3 
REMARK    3  A    between atoms: C_15  and  N_3 
REMARK    4  A    between atoms: N_5  and  C_10 
REMARK    5  A    between atoms: C_17  and  C_6 
ROOT
ATOM      1  N   UNL d   1       1.018  -0.672  -0.253  0.00  0.00    -0.227 N 
ATOM      2  C   UNL d   1      -0.014  -0.684  -1.198  0.00  0.00     0.076 A 
ATOM      3  C   UNL d   1       0.742   0.032   0.932  0.00  0.00     0.165 A 
ATOM      4  C   UNL d   1      -1.052   0.088  -0.830  0.00  0.00     0.085 A 
ATOM      5  S   UNL d   1      -0.826   0.835   0.716  0.00  0.00    -0.068 SA
ATOM      6  S   UNL d   1       1.610   0.128   2.352  0.00  0.00    -0.050 SA
ENDROOT
BRANCH   1   7
ATOM      7  N   UNL d   1       2.200  -1.450  -0.390  0.00  0.00    -0.211 N 
ATOM      8  C   UNL d   1       3.466  -0.819  -0.481  0.00  0.00     0.277 C 
ATOM      9  O   UNL d   1       4.545  -1.411  -0.362  0.00  0.00    -0.265 OA
BRANCH   8  10
ATOM     10  C   UNL d   1       3.599   0.647  -0.704  0.00  0.00     0.034 A 
ATOM     11  C   UNL d   1       4.552   1.334   0.066  0.00  0.00     0.017 A 
ATOM     12  C   UNL d   1       4.864   2.666  -0.211  0.00  0.00     0.001 A 
ATOM     13  C   UNL d   1       4.238   3.317  -1.271  0.00  0.00     0.000 A 
ATOM     14  C   UNL d   1       3.287   2.644  -2.038  0.00  0.00     0.001 A 
ATOM     15  C   UNL d   1       2.965   1.314  -1.755  0.00  0.00     0.017 A 
ENDBRANCH   8  10
BRANCH   7  16
ATOM     16  C   UNL d   1       2.095  -2.881  -0.271  0.00  0.00     0.060 A 
ATOM     17  C   UNL d   1       1.033  -3.482   0.423  0.00  0.00     0.031 A 
ATOM     18  C   UNL d   1       0.933  -4.877   0.512  0.00  0.00     0.002 A 
ATOM     19  C   UNL d   1       1.873  -5.688  -0.118  0.00  0.00     0.000 A 
ATOM     20  C   UNL d   1       2.917  -5.111  -0.829  0.00  0.00     0.002 A 
ATOM     21  C   UNL d   1       3.028  -3.721  -0.899  0.00  0.00     0.031 A 
ENDBRANCH   7  16
ENDBRANCH   1   7
BRANCH   2  22
ATOM     22  C   UNL d   1      -0.051  -1.471  -2.459  0.00  0.00    -0.004 A 
ATOM     23  C   UNL d   1      -1.256  -2.072  -2.876  0.00  0.00     0.050 A 
ATOM     24  C   UNL d   1      -1.331  -2.770  -4.095  0.00  0.00     0.103 A 
ATOM     25  C   UNL d   1      -0.206  -2.907  -4.910  0.00  0.00     0.036 A 
ATOM     26  C   UNL d   1       0.997  -2.346  -4.495  0.00  0.00     0.003 A 
ATOM     27  C   UNL d   1       1.068  -1.639  -3.286  0.00  0.00     0.014 A 
BRANCH  24  28
ATOM     28  N   UNL d   1      -2.611  -3.346  -4.528  0.00  0.00    -0.116 N 
ATOM     29  O   UNL d   1      -3.594  -3.182  -3.791  0.00  0.00    -0.532 OA
ATOM     30  O   UNL d   1      -2.637  -3.949  -5.611  0.00  0.00    -0.532 OA
ENDBRANCH  24  28
ENDBRANCH   2  22
TORSDOF 5
