REMARK  4 active torsions:
REMARK  status: ('A' for Active; 'I' for Inactive)
REMARK    1  A    between atoms: N_2  and  C_1 
REMARK       I    between atoms: C_3  and  N_2 
REMARK    2  A    between atoms: C_14  and  C_3 
REMARK    3  A    between atoms: C_5  and  S_8 
REMARK    4  A    between atoms: S_8  and  C_14 
ROOT
ATOM      1  N   UNL d   1       2.312  -2.013  -0.757  0.00  0.00    -0.319 N 
ATOM      2  C   UNL d   1       2.673  -2.954   0.231  0.00  0.00     0.233 C 
ATOM      3  O   UNL d   1       2.034  -3.118   1.275  0.00  0.00    -0.272 OA
ATOM      4  C   UNL d   1       3.306  -1.475  -1.683  0.00  0.00     0.159 C 
ENDROOT
BRANCH   2   5
ATOM      5  C   UNL d   1       3.924  -3.810  -0.006  0.00  0.00     0.182 C 
BRANCH   5   6
ATOM      6  S   UNL d   1       5.441  -2.870   0.396  0.00  0.00    -0.120 SA
BRANCH   6   7
ATOM      7  C   UNL d   1       6.675  -4.164   0.494  0.00  0.00     0.007 A 
ATOM      8  C   UNL d   1       7.332  -4.270   1.736  0.00  0.00     0.027 A 
ATOM      9  C   UNL d   1       8.379  -5.181   1.955  0.00  0.00    -0.039 A 
ATOM     10  C   UNL d   1       9.081  -5.200   3.283  0.00  0.00     0.050 C 
ATOM     11  C   UNL d   1       8.754  -6.023   0.906  0.00  0.00     0.040 A 
ATOM     12  C   UNL d   1       8.119  -5.922  -0.337  0.00  0.00     0.032 A 
ATOM     13 CL   UNL d   1      10.021  -7.183   1.082  0.00  0.00    -0.084 Cl
ATOM     14  C   UNL d   1       7.101  -4.978  -0.570  0.00  0.00    -0.044 A 
ATOM     15  C   UNL d   1       6.568  -4.904  -1.974  0.00  0.00     0.049 C 
ENDBRANCH   6   7
ENDBRANCH   5   6
ENDBRANCH   2   5
BRANCH   1  16
ATOM     16  C   UNL d   1       1.024  -1.358  -0.707  0.00  0.00     0.075 A 
ATOM     17  C   UNL d   1      -0.147  -2.044  -0.328  0.00  0.00     0.146 A 
ATOM     18  C   UNL d   1      -1.397  -1.423  -0.320  0.00  0.00     0.086 A 
ATOM     19  F   UNL d   1      -0.120  -3.362  -0.073  0.00  0.00    -0.204 F 
ATOM     20  C   UNL d   1      -1.500  -0.099  -0.715  0.00  0.00     0.119 A 
ATOM     21  C   UNL d   1      -0.373   0.609  -1.113  0.00  0.00     0.044 A 
ATOM     22  F   UNL d   1      -2.697   0.500  -0.731  0.00  0.00    -0.206 F 
ATOM     23  C   UNL d   1       0.880  -0.015  -1.106  0.00  0.00     0.036 A 
ENDBRANCH   1  16
TORSDOF 4
