REMARK  3 active torsions:
REMARK  status: ('A' for Active; 'I' for Inactive)
REMARK    1  A    between atoms: C_8  and  C_1 
REMARK    2  A    between atoms: C_9  and  C_2 
REMARK    3  A    between atoms: O_11  and  C_8 
ROOT
ATOM      1  C   UNL d   1       0.001  -1.276  -0.533  0.00  0.00     0.125 A 
ATOM      2  C   UNL d   1       1.250  -0.917  -0.041  0.00  0.00     0.084 A 
ATOM      3  N   UNL d   1       0.114   0.937   0.559  0.00  0.00    -0.269 N 
ATOM      4  HN  UNL d   1      -0.058   1.851   0.977  1.00  0.00     0.195 HD
ATOM      5  N   UNL d   1       1.281   0.323   0.600  0.00  0.00    -0.292 N 
ATOM      6  HN  UNL d   1       2.111   0.709   1.048  1.00  0.00     0.187 HD
ATOM      7  S   UNL d   1      -1.050   0.059  -0.249  0.00  0.00     0.011 SA
ENDROOT
BRANCH   2   8
ATOM      8  C   UNL d   1       2.477  -1.704  -0.115  0.00  0.00    -0.006 A 
ATOM      9  C   UNL d   1       2.794  -2.499  -1.226  0.00  0.00     0.014 A 
ATOM     10  C   UNL d   1       3.965  -3.263  -1.242  0.00  0.00     0.001 A 
ATOM     11  C   UNL d   1       4.847  -3.216  -0.164  0.00  0.00     0.000 A 
ATOM     12  C   UNL d   1       4.564  -2.401   0.928  0.00  0.00     0.001 A 
ATOM     13  C   UNL d   1       3.386  -1.651   0.953  0.00  0.00     0.014 A 
ENDBRANCH   2   8
BRANCH   1  14
ATOM     14  C   UNL d   1      -0.549  -2.434  -1.182  0.00  0.00     0.187 C 
ATOM     15  O   UNL d   1      -1.435  -2.425  -2.024  0.00  0.00    -0.645 OA
BRANCH  14  16
ATOM     16  O   UNL d   1      -0.015  -3.602  -0.746  0.00  0.00    -0.772 OA
ATOM     17  H   UNL d   1       0.623  -3.527  -0.010  0.00  0.00     0.167 HD
ENDBRANCH  14  16
ENDBRANCH   1  14
TORSDOF 3
