REMARK  4 active torsions:
REMARK  status: ('A' for Active; 'I' for Inactive)
REMARK    1  A    between atoms: C_2  and  C_1 
REMARK    2  A    between atoms: O_8  and  C_2 
REMARK    3  A    between atoms: C_5  and  C_7 
REMARK    4  A    between atoms: C_12  and  O_8 
ROOT
ATOM      1  C   UNL d   1      -1.814   0.107   0.093  0.00  0.00     0.062 A 
ATOM      2  N   UNL d   1       0.461   0.831   0.500  0.00  0.00    -0.355 N 
ATOM      3  HN  UNL d   1       1.111   1.570   0.770  1.00  0.00     0.166 HD
ATOM      4  C   UNL d   1      -0.881   1.073   0.488  0.00  0.00     0.022 A 
ATOM      5  C   UNL d   1       0.931  -0.396   0.154  0.00  0.00     0.117 A 
ATOM      6  C   UNL d   1      -1.317  -1.173  -0.210  0.00  0.00     0.022 A 
ATOM      7  C   UNL d   1       0.060  -1.428  -0.177  0.00  0.00     0.035 A 
ATOM      8  C   UNL d   1      -1.224   2.459   0.941  0.00  0.00     0.069 C 
ENDROOT
BRANCH   1   9
ATOM      9  C   UNL d   1      -3.298   0.302   0.007  0.00  0.00     0.300 C 
ATOM     10  O   UNL d   1      -4.098  -0.616  -0.051  0.00  0.00    -0.259 OA
BRANCH   9  11
ATOM     11  O   UNL d   1      -3.595   1.658  -0.004  0.00  0.00    -0.275 OA
BRANCH  11  12
ATOM     12  C   UNL d   1      -4.840   2.260   0.321  0.00  0.00     0.081 A 
ATOM     13  C   UNL d   1      -4.739   3.584   0.763  0.00  0.00     0.063 A 
ATOM     14  C   UNL d   1      -5.868   4.251   1.240  0.00  0.00     0.058 A 
ATOM     15 CL   UNL d   1      -5.655   5.859   1.838  0.00  0.00    -0.082 Cl
ATOM     16  C   UNL d   1      -7.104   3.600   1.246  0.00  0.00     0.056 A 
ATOM     17  C   UNL d   1      -7.205   2.294   0.745  0.00  0.00     0.028 A 
ATOM     18 CL   UNL d   1      -8.532   4.338   1.879  0.00  0.00    -0.083 Cl
ATOM     19  C   UNL d   1      -6.070   1.618   0.280  0.00  0.00     0.039 A 
ENDBRANCH  11  12
ENDBRANCH   9  11
ENDBRANCH   1   9
BRANCH   5  20
ATOM     20  C   UNL d   1       2.438  -0.618   0.093  0.00  0.00     0.432 C 
ATOM     21  F   UNL d   1       3.178   0.489   0.388  0.00  0.00    -0.165 F 
ATOM     22  F   UNL d   1       2.865  -1.590   0.950  0.00  0.00    -0.165 F 
ATOM     23  F   UNL d   1       2.849  -1.016  -1.147  0.00  0.00    -0.165 F 
ENDBRANCH   5  20
TORSDOF 4
