REMARK  5 active torsions:
REMARK  status: ('A' for Active; 'I' for Inactive)
REMARK    1  A    between atoms: C_5  and  N_1 
REMARK    2  A    between atoms: C_2  and  C_7 
REMARK       I    between atoms: N_3  and  C_2 
REMARK       I    between atoms: C_4  and  N_9 
REMARK    3  A    between atoms: C_20  and  C_4 
REMARK    4  A    between atoms: N_9  and  C_21 
REMARK    5  A    between atoms: C_22  and  C_20 
ROOT
ATOM      1  C   UNL d   1      -2.319   3.521   2.769  0.00  0.00     0.253 C 
ATOM      2  N   UNL d   1      -3.465   3.143   3.479  0.00  0.00    -0.348 N 
ATOM      3  C   UNL d   1      -4.730   3.793   3.134  0.00  0.00     0.128 C 
ATOM      4  C   UNL d   1      -3.541   2.129   4.531  0.00  0.00     0.128 C 
ATOM      5  O   UNL d   1      -2.286   4.509   2.041  0.00  0.00    -0.267 OA
ATOM      6  C   UNL d   1      -5.425   4.357   4.366  0.00  0.00     0.045 C 
ATOM      7  C   UNL d   1      -4.245   2.644   5.780  0.00  0.00     0.045 C 
ATOM      8  C   UNL d   1      -5.586   3.305   5.466  0.00  0.00     0.087 C 
ENDROOT
BRANCH   1   9
ATOM      9  C   UNL d   1      -1.071   2.710   2.852  0.00  0.00     0.032 A 
ATOM     10  C   UNL d   1      -1.094   1.310   2.874  0.00  0.00     0.019 A 
ATOM     11  C   UNL d   1       0.096   0.581   2.938  0.00  0.00     0.037 A 
ATOM     12  C   UNL d   1       1.322   1.255   2.901  0.00  0.00     0.102 A 
ATOM     13  C   UNL d   1       1.363   2.653   2.818  0.00  0.00     0.037 A 
ATOM     14  C   UNL d   1       0.165   3.376   2.800  0.00  0.00     0.019 A 
BRANCH  12  15
ATOM     15  N   UNL d   1       2.569   0.480   2.917  0.00  0.00    -0.116 N 
ATOM     16  O   UNL d   1       3.635   1.103   2.807  0.00  0.00    -0.532 OA
ATOM     17  O   UNL d   1       2.481  -0.750   3.033  0.00  0.00    -0.532 OA
ENDBRANCH  12  15
ENDBRANCH   1   9
BRANCH   8  18
ATOM     18  N   UNL d   1      -6.597   2.312   5.109  0.00  0.00    -0.356 N 
ATOM     19  C   UNL d   1      -7.745   2.131   5.848  0.00  0.00     0.222 C 
ATOM     20  O   UNL d   1      -7.992   2.752   6.879  0.00  0.00    -0.273 OA
ATOM     21  H   UNL d   1      -6.437   1.701   4.319  0.00  0.00     0.162 HD
BRANCH  19  22
ATOM     22  C   UNL d   1      -8.710   1.107   5.277  0.00  0.00     0.141 C 
BRANCH  22  23
ATOM     23  C   UNL d   1      -8.540  -0.284   5.836  0.00  0.00    -0.050 A 
ATOM     24  C   UNL d   1      -8.642  -0.518   7.215  0.00  0.00     0.007 A 
ATOM     25  C   UNL d   1      -8.580  -1.818   7.721  0.00  0.00     0.001 A 
ATOM     26  C   UNL d   1      -8.417  -2.897   6.856  0.00  0.00     0.000 A 
ATOM     27  C   UNL d   1      -8.302  -2.677   5.485  0.00  0.00     0.001 A 
ATOM     28  C   UNL d   1      -8.362  -1.377   4.977  0.00  0.00     0.007 A 
ENDBRANCH  22  23
ENDBRANCH  19  22
ENDBRANCH   8  18
TORSDOF 5
