REMARK  9 active torsions:
REMARK  status: ('A' for Active; 'I' for Inactive)
REMARK       I    between atoms: C2_3  and  N1_1 
REMARK    1  A    between atoms: C3_4  and  C1_2 
REMARK       I    between atoms: N_18  and  C1_2 
REMARK    2  A    between atoms: O1_5  and  C2_3 
REMARK    3  A    between atoms: C8_9  and  O1_5 
REMARK    4  A    between atoms: C10_11  and  C8_9 
REMARK    5  A    between atoms: CA_19  and  N_18 
REMARK    6  A    between atoms: CB_22  and  CA_19 
REMARK    7  A    between atoms: CA_19  and  C_20 
REMARK    8  A    between atoms: OXT_23  and  C_20 
REMARK    9  A    between atoms: CG_24  and  CB_22 
ROOT
ATOM      1  N1  <1> d   1      -2.571  -2.312   0.281  0.00  0.00    -0.315 N 
ATOM      2  C2  <1> d   1      -1.498  -2.151   1.129  0.00  0.00     0.363 C 
ATOM      3  C3  <1> d   1      -2.794  -1.475  -0.905  0.00  0.00     0.181 C 
ATOM      4  O3  <1> d   1      -0.746  -1.187   1.071  0.00  0.00    -0.238 OA
ATOM      5  C7  <1> d   1      -3.346  -3.539   0.238  0.00  0.00     0.129 C 
ATOM      6  C9  <1> d   1      -4.026  -2.102  -1.578  0.00  0.00     0.037 C 
ATOM      7  C11 <1> d   1      -4.089  -3.537  -1.085  0.00  0.00     0.022 C 
ENDROOT
BRANCH   3   8
ATOM      8  C1  <1> d   1      -3.033   0.058  -0.727  0.00  0.00     0.241 C 
ATOM      9  N   LEU d   1      -2.132   0.728   0.071  0.00  0.00    -0.345 N 
ATOM     10  H   LEU d   1      -1.548   0.170   0.697  0.00  0.00     0.163 HD
ATOM     11  O2  <1> d   1      -3.849   0.675  -1.411  0.00  0.00    -0.271 OA
BRANCH   9  12
ATOM     12  CA  LEU d   1      -2.146   2.185   0.275  0.00  0.00     0.182 C 
BRANCH  12  13
ATOM     13  CB  LEU d   1      -2.651   2.555   1.676  0.00  0.00     0.040 C 
BRANCH  13  14
ATOM     14  CG  LEU d   1      -4.138   2.279   1.971  0.00  0.00    -0.020 C 
ATOM     15  CD1 LEU d   1      -4.428   2.690   3.421  0.00  0.00     0.009 C 
ATOM     16  CD2 LEU d   1      -5.080   3.033   1.032  0.00  0.00     0.009 C 
ENDBRANCH  13  14
ENDBRANCH  12  13
BRANCH  12  17
ATOM     17  C   LEU d   1      -0.725   2.766   0.098  0.00  0.00     0.163 C 
ATOM     18  O   LEU d   1      -0.405   3.912   0.377  0.00  0.00    -0.648 OA
BRANCH  17  19
ATOM     19  OXT LEU d   1       0.156   1.892  -0.446  0.00  0.00    -0.775 OA
ATOM     20  HXT LEU d   1      -0.286   1.039  -0.632  0.00  0.00     0.167 HD
ENDBRANCH  17  19
ENDBRANCH  12  17
ENDBRANCH   9  12
ENDBRANCH   3   8
BRANCH   2  21
ATOM     21  O1  <1> d   1      -1.439  -3.110   2.090  0.00  0.00    -0.299 OA
BRANCH  21  22
ATOM     22  C8  <1> d   1      -0.630  -2.784   3.231  0.00  0.00     0.219 C 
BRANCH  22  23
ATOM     23  C10 <1> d   1       0.814  -3.216   3.135  0.00  0.00    -0.034 A 
ATOM     24  C13 <1> d   1       1.795  -2.480   3.820  0.00  0.00     0.009 A 
ATOM     25  C17 <1> d   1       3.126  -2.901   3.837  0.00  0.00     0.001 A 
ATOM     26  C19 <1> d   1       3.493  -4.068   3.173  0.00  0.00     0.000 A 
ATOM     27  C18 <1> d   1       2.530  -4.808   2.487  0.00  0.00     0.001 A 
ATOM     28  C14 <1> d   1       1.197  -4.388   2.471  0.00  0.00     0.009 A 
ENDBRANCH  22  23
ENDBRANCH  21  22
ENDBRANCH   2  21
TORSDOF 9
