REMARK  3 active torsions:
REMARK  status: ('A' for Active; 'I' for Inactive)
REMARK    1  A    between atoms: O_5  and  C_1 
REMARK    2  A    between atoms: O_15  and  C_2 
REMARK    3  A    between atoms: C_10  and  O_5 
ROOT
ATOM      1  C   UNL d   1      -0.794   1.197  -0.281  0.00  0.00     0.149 A 
ATOM      2  C   UNL d   1      -1.291  -0.078  -0.504  0.00  0.00     0.180 A 
ATOM      3  N   UNL d   1      -0.553  -1.198  -0.390  0.00  0.00    -0.325 N 
ATOM      4  HN  UNL d   1      -0.953  -2.122  -0.551  1.00  0.00     0.169 HD
ATOM      5  N   UNL d   1       1.327   0.152   0.168  0.00  0.00    -0.347 N 
ATOM      6  HN  UNL d   1       2.311   0.218   0.430  1.00  0.00     0.167 HD
ATOM      7  C   UNL d   1       0.558   1.257   0.026  0.00  0.00     0.045 A 
ATOM      8  C   UNL d   1       0.738  -1.036  -0.053  0.00  0.00     0.079 A 
ATOM      9  C   UNL d   1       1.253   2.576   0.203  0.00  0.00     0.071 C 
ATOM     10  C   UNL d   1       1.575  -2.268   0.098  0.00  0.00     0.089 C 
ENDROOT
BRANCH   1  11
ATOM     11  O   UNL d   1      -1.466   2.368  -0.466  0.00  0.00    -0.303 OA
BRANCH  11  12
ATOM     12  C   UNL d   1      -2.686   2.618   0.125  0.00  0.00     0.098 A 
ATOM     13  C   UNL d   1      -3.392   3.735  -0.357  0.00  0.00     0.069 A 
ATOM     14  C   UNL d   1      -4.636   4.085   0.175  0.00  0.00     0.050 A 
ATOM     15 CL   UNL d   1      -2.743   4.732  -1.613  0.00  0.00    -0.081 Cl
ATOM     16  C   UNL d   1      -5.183   3.314   1.193  0.00  0.00     0.035 A 
ATOM     17  C   UNL d   1      -4.489   2.216   1.700  0.00  0.00     0.026 A 
ATOM     18 CL   UNL d   1      -6.722   3.725   1.844  0.00  0.00    -0.084 Cl
ATOM     19  C   UNL d   1      -3.232   1.880   1.182  0.00  0.00     0.041 A 
ENDBRANCH  11  12
ENDBRANCH   1  11
BRANCH   2  20
ATOM     20  O   UNL d   1      -2.599  -0.192  -0.924  0.00  0.00    -0.339 OA
ATOM     21  C   UNL d   1      -3.187  -1.480  -0.774  0.00  0.00     0.211 C 
ENDBRANCH   2  20
TORSDOF 3
