REMARK  0 active torsions:
REMARK  status: ('A' for Active; 'I' for Inactive)
ROOT
ATOM      1  C   UNL d   1      -1.069   0.722   0.004  0.00  0.00     0.138 A 
ATOM      2  C   UNL d   1      -1.274  -0.639  -0.003  0.00  0.00     0.084 A 
ATOM      3  C   UNL d   1      -0.151  -1.558  -0.008  0.00  0.00     0.197 A 
ATOM      4  C   UNL d   1       1.177  -0.856  -0.004  0.00  0.00     0.026 A 
ATOM      5  N   UNL d   1       0.144   1.312   0.009  0.00  0.00    -0.343 N 
ATOM      6  N   UNL d   1      -2.294   1.313   0.004  0.00  0.00    -0.280 N 
ATOM      7  N   UNL d   1      -3.302   0.412   0.001  0.00  0.00    -0.301 N 
ATOM      8  HN  UNL d   1      -4.305   0.596   0.001  1.00  0.00     0.187 HD
ATOM      9  C   UNL d   1      -2.682  -0.784  -0.003  0.00  0.00     0.040 A 
ATOM     10  C   UNL d   1       1.257   0.490   0.005  0.00  0.00     0.031 A 
ATOM     11  S   UNL d   1       3.769  -0.365   0.005  0.00  0.00    -0.158 SA
ATOM     12  O   UNL d   1      -0.237  -2.781  -0.014  0.00  0.00    -0.287 OA
ATOM     13  C   UNL d   1       2.443  -1.626  -0.010  0.00  0.00     0.119 A 
ATOM     14  C   UNL d   1       2.640   1.063   0.010  0.00  0.00     0.132 A 
ATOM     15  C   UNL d   1      -2.603   2.720   0.003  0.00  0.00     0.179 C 
ATOM     16  C   UNL d   1      -3.496  -2.024  -0.006  0.00  0.00     0.071 C 
ATOM     17  H   UNL d   1       0.299   2.316   0.015  0.00  0.00     0.167 HD
ENDROOT
TORSDOF 0
