REMARK  15 active torsions:
REMARK  status: ('A' for Active; 'I' for Inactive)
REMARK    1  A    between atoms: C_2  and  C_1 
REMARK    2  A    between atoms: C_2  and  O_11 
REMARK    3  A    between atoms: C_3  and  C_2 
REMARK    4  A    between atoms: C_3  and  O_12 
REMARK    5  A    between atoms: C_3  and  C_7 
REMARK    6  A    between atoms: C_7  and  O_13 
REMARK    7  A    between atoms: C_10  and  C_7 
REMARK    8  A    between atoms: C_20  and  C_10 
REMARK    9  A    between atoms: C_10  and  O_14 
REMARK   10  A    between atoms: C_16  and  O_11 
REMARK   11  A    between atoms: C_15  and  O_12 
REMARK   12  A    between atoms: C_17  and  O_13 
REMARK   13  A    between atoms: C_18  and  O_14 
REMARK   14  A    between atoms: C_19  and  O_21 
REMARK   15  A    between atoms: O_21  and  C_20 
ROOT
ATOM      1  C   UNL d   1      -0.253   5.156  -0.515  0.00  0.00     0.201 C 
ENDROOT
BRANCH   1   2
ATOM      2  O   UNL d   1      -0.174   6.597  -0.721  0.00  0.00    -0.310 OA
BRANCH   2   3
ATOM      3  C   UNL d   1       0.823   7.261  -0.081  0.00  0.00     0.255 C 
ATOM      4  O   UNL d   1       1.708   6.712   0.567  0.00  0.00    -0.266 OA
ATOM      5  C   UNL d   1       0.769   8.735  -0.315  0.00  0.00     0.126 C 
ENDBRANCH   2   3
ENDBRANCH   1   2
BRANCH   1   6
ATOM      6  C   UNL d   1      -1.734   4.865  -0.074  0.00  0.00     0.196 C 
BRANCH   6   7
ATOM      7  O   UNL d   1      -2.772   5.553  -0.820  0.00  0.00    -0.311 OA
BRANCH   7   8
ATOM      8  C   UNL d   1      -3.052   5.299  -2.113  0.00  0.00     0.255 C 
ATOM      9  O   UNL d   1      -2.608   4.373  -2.770  0.00  0.00    -0.266 OA
ATOM     10  C   UNL d   1      -3.957   6.348  -2.679  0.00  0.00     0.126 C 
ENDBRANCH   7   8
ENDBRANCH   6   7
BRANCH   6  11
ATOM     11  C   UNL d   1      -2.065   3.467   0.541  0.00  0.00     0.188 C 
BRANCH  11  12
ATOM     12  C   UNL d   1      -2.407   2.259  -0.350  0.00  0.00     0.213 C 
BRANCH  12  13
ATOM     13  O   UNL d   1      -3.414   2.396  -1.348  0.00  0.00    -0.319 OA
BRANCH  13  14
ATOM     14  C   UNL d   1      -4.688   2.641  -0.963  0.00  0.00     0.254 C 
ATOM     15  O   UNL d   1      -5.045   2.909   0.173  0.00  0.00    -0.266 OA
ATOM     16  C   UNL d   1      -5.608   2.553  -2.145  0.00  0.00     0.126 C 
ENDBRANCH  13  14
ENDBRANCH  12  13
ENDBRANCH  11  12
BRANCH  11  17
ATOM     17  O   UNL d   1      -0.888   3.110   1.339  0.00  0.00    -0.311 OA
BRANCH  17  18
ATOM     18  C   UNL d   1      -1.037   2.207   2.347  0.00  0.00     0.255 C 
ATOM     19  O   UNL d   1      -2.081   1.652   2.646  0.00  0.00    -0.266 OA
ATOM     20  C   UNL d   1       0.288   1.934   2.994  0.00  0.00     0.126 C 
ENDBRANCH  17  18
ENDBRANCH  11  17
ENDBRANCH   6  11
ENDBRANCH   1   6
BRANCH   1  21
ATOM     21  C   UNL d   1       0.337   4.333  -1.688  0.00  0.00     0.233 C 
BRANCH  21  22
ATOM     22  C   UNL d   1       1.826   4.173  -1.771  0.00  0.00     0.140 A 
ATOM     23  N   UNL d   1       2.466   3.266  -2.486  0.00  0.00    -0.272 N 
ATOM     24  N   UNL d   1       3.805   3.508  -2.317  0.00  0.00    -0.007 NA
ATOM     25  HN  UNL d   1       2.046   2.530  -3.054  1.00  0.00     0.185 HD
ATOM     26  N   UNL d   1       4.000   4.530  -1.499  0.00  0.00    -0.007 NA
ATOM     27  N   UNL d   1       2.772   4.946  -1.159  0.00  0.00    -0.272 N 
ATOM     28  H   UNL d   1       2.678   5.726  -0.514  0.00  0.00     0.185 HD
ENDBRANCH  21  22
BRANCH  21  29
ATOM     29  O   UNL d   1      -0.142   4.648  -3.003  0.00  0.00    -0.306 OA
BRANCH  29  30
ATOM     30  C   UNL d   1       0.219   5.788  -3.633  0.00  0.00     0.255 C 
ATOM     31  O   UNL d   1       0.946   6.659  -3.170  0.00  0.00    -0.266 OA
ATOM     32  C   UNL d   1      -0.382   5.819  -5.004  0.00  0.00     0.126 C 
ENDBRANCH  29  30
ENDBRANCH  21  29
ENDBRANCH   1  21
TORSDOF 15
