REMARK  6 active torsions:
REMARK  status: ('A' for Active; 'I' for Inactive)
REMARK    1  A    between atoms: C_4  and  C_1 
REMARK    2  A    between atoms: C_5  and  C_1 
REMARK    3  A    between atoms: N_6  and  N_2 
REMARK    4  A    between atoms: O_10  and  C_4 
REMARK    5  A    between atoms: C_9  and  N_6 
REMARK    6  A    between atoms: C_18  and  O_10 
ROOT
ATOM      1  C   UNL d   1       1.060   0.060   0.025  0.00  0.00     0.169 C 
ATOM      2  N   UNL d   1       0.366   1.171   0.048  0.00  0.00    -0.292 N 
ATOM      3  HN  UNL d   1      -0.640   1.162   0.215  1.00  0.00     0.187 HD
ENDROOT
BRANCH   2   4
ATOM      4  N   UNL d   1       1.036   2.342  -0.158  0.00  0.00    -0.300 N 
ATOM      5  H   UNL d   1       1.917   2.318  -0.690  0.00  0.00     0.187 HD
BRANCH   4   6
ATOM      6  C   UNL d   1       0.294   3.522  -0.396  0.00  0.00     0.048 A 
ATOM      7  C   UNL d   1      -1.095   3.589  -0.233  0.00  0.00     0.032 A 
ATOM      8  C   UNL d   1      -1.780   4.803  -0.367  0.00  0.00     0.021 A 
ATOM      9  C   UNL d   1      -1.071   5.969  -0.642  0.00  0.00     0.011 A 
ATOM     10  C   UNL d   1       0.311   5.930  -0.799  0.00  0.00     0.021 A 
ATOM     11 BR   UNL d   1      -1.986   7.619  -0.776  0.00  0.00    -0.051 Br
ATOM     12  C   UNL d   1       0.987   4.712  -0.671  0.00  0.00     0.032 A 
ENDBRANCH   4   6
ENDBRANCH   2   4
BRANCH   1  13
ATOM     13  C   UNL d   1       0.283  -1.240   0.154  0.00  0.00     0.315 C 
ATOM     14  O   UNL d   1       0.707  -2.191   0.791  0.00  0.00    -0.257 OA
BRANCH  13  15
ATOM     15  O   UNL d   1      -0.805  -1.209  -0.632  0.00  0.00    -0.317 OA
BRANCH  15  16
ATOM     16  C   UNL d   1      -1.388  -2.485  -0.927  0.00  0.00     0.175 C 
ATOM     17  C   UNL d   1      -0.799  -2.958  -2.242  0.00  0.00     0.034 C 
ENDBRANCH  15  16
ENDBRANCH  13  15
ENDBRANCH   1  13
BRANCH   1  18
ATOM     18  C   UNL d   1       2.568   0.040  -0.194  0.00  0.00     0.179 C 
ATOM     19  O   UNL d   1       3.059   0.821  -1.007  0.00  0.00    -0.291 OA
ATOM     20  C   UNL d   1       3.419  -0.890   0.622  0.00  0.00     0.099 C 
ENDBRANCH   1  18
TORSDOF 6
