REMARK  6 active torsions:
REMARK  status: ('A' for Active; 'I' for Inactive)
REMARK    1  A    between atoms: C_3  and  S_1 
REMARK    2  A    between atoms: C_7  and  S_1 
REMARK    3  A    between atoms: C_8  and  C_7 
REMARK    4  A    between atoms: C_11  and  C_8 
REMARK    5  A    between atoms: C_9  and  C_10 
REMARK    6  A    between atoms: C_10  and  C_11 
ROOT
ATOM      1  N   UNL d   1       1.715   0.245  -3.621  0.00  0.00    -0.196 NA
ATOM      2  C   UNL d   1       0.536   1.079  -1.443  0.00  0.00     0.263 C 
ATOM      3  C   UNL d   1       1.178   0.586  -2.650  0.00  0.00     0.074 C 
ENDROOT
BRANCH   2   4
ATOM      4  S   UNL d   1       1.002   0.020  -0.096  0.00  0.00     0.156 S 
ATOM      5  O   UNL d   1       0.575  -1.332  -0.405  0.00  0.00    -0.227 OA
ATOM      6  O   UNL d   1       0.532   0.667   1.117  0.00  0.00    -0.227 OA
BRANCH   4   7
ATOM      7  C   UNL d   1       2.795   0.056  -0.054  0.00  0.00     0.141 C 
BRANCH   7   8
ATOM      8  C   UNL d   1       3.338  -0.818   1.073  0.00  0.00     0.015 C 
BRANCH   8   9
ATOM      9  C   UNL d   1       4.868  -0.816   1.093  0.00  0.00     0.001 C 
BRANCH   9  10
ATOM     10  C   UNL d   1       5.402  -1.697   2.223  0.00  0.00    -0.000 C 
BRANCH  10  11
ATOM     11  C   UNL d   1       6.930  -1.704   2.259  0.00  0.00    -0.005 C 
ATOM     12  C   UNL d   1       7.447  -2.583   3.387  0.00  0.00     0.005 C 
ENDBRANCH  10  11
ENDBRANCH   9  10
ENDBRANCH   8   9
ENDBRANCH   7   8
ENDBRANCH   4   7
ENDBRANCH   2   4
TORSDOF 6
