REMARK  5 active torsions:
REMARK  status: ('A' for Active; 'I' for Inactive)
REMARK    1  A    between atoms: C_4  and  C_1 
REMARK       I    between atoms: C_2  and  N_8 
REMARK    2  A    between atoms: C_5  and  C_2 
REMARK       I    between atoms: C_3  and  N_7 
REMARK    3  A    between atoms: C_6  and  C_3 
REMARK    4  A    between atoms: N_7  and  C_10 
REMARK    5  A    between atoms: N_8  and  C_9 
ROOT
ATOM      1  C   UNL d   1       0.835   0.949  -1.054  0.00  0.00     0.052 A 
ATOM      2  C   UNL d   1       0.533   3.062  -2.227  0.00  0.00     0.037 A 
ATOM      3  C   UNL d   1      -0.372   0.993  -3.163  0.00  0.00     0.037 A 
ATOM      4  C   UNL d   1       0.151   0.284  -2.083  0.00  0.00     0.046 A 
ATOM      5  C   UNL d   1       1.014   2.339  -1.135  0.00  0.00     0.046 A 
ATOM      6  C   UNL d   1      -0.146   2.375  -3.244  0.00  0.00     0.059 A 
ENDROOT
BRANCH   2   7
ATOM      7  N   UNL d   1       0.613   4.466  -2.331  0.00  0.00    -0.322 N 
ATOM      8  C   UNL d   1       1.269   5.339  -1.479  0.00  0.00     0.263 C 
ATOM      9  O   UNL d   1       2.079   4.987  -0.625  0.00  0.00    -0.267 OA
ATOM     10  H   UNL d   1       0.089   4.903  -3.079  0.00  0.00     0.169 HD
BRANCH   8  11
ATOM     11  C   UNL d   1       0.925   6.752  -1.652  0.00  0.00     0.072 A 
ATOM     12  S   UNL d   1      -0.237   7.290  -2.794  0.00  0.00    -0.097 SA
ATOM     13  C   UNL d   1      -0.119   8.909  -2.257  0.00  0.00     0.050 A 
ATOM     14  C   UNL d   1       0.813   9.054  -1.255  0.00  0.00     0.009 A 
ATOM     15  C   UNL d   1       1.427   7.814  -0.920  0.00  0.00     0.025 A 
ENDBRANCH   8  11
ENDBRANCH   2   7
BRANCH   1  16
ATOM     16  C   UNL d   1       1.320   0.204   0.165  0.00  0.00     0.417 C 
ATOM     17  F   UNL d   1       1.125  -1.143   0.100  0.00  0.00    -0.166 F 
ATOM     18  F   UNL d   1       0.690   0.614   1.301  0.00  0.00    -0.166 F 
ATOM     19  F   UNL d   1       2.651   0.376   0.391  0.00  0.00    -0.166 F 
ENDBRANCH   1  16
BRANCH   3  20
ATOM     20  N   UNL d   1      -1.172   0.412  -4.167  0.00  0.00    -0.322 N 
ATOM     21  C   UNL d   1      -1.700  -0.872  -4.206  0.00  0.00     0.263 C 
ATOM     22  O   UNL d   1      -1.485  -1.735  -3.365  0.00  0.00    -0.267 OA
ATOM     23  H   UNL d   1      -1.486   1.023  -4.911  0.00  0.00     0.169 HD
BRANCH  21  24
ATOM     24  C   UNL d   1      -2.578  -1.132  -5.350  0.00  0.00     0.072 A 
ATOM     25  S   UNL d   1      -2.926   0.058  -6.537  0.00  0.00    -0.097 SA
ATOM     26  C   UNL d   1      -3.876  -1.029  -7.452  0.00  0.00     0.050 A 
ATOM     27  C   UNL d   1      -3.964  -2.266  -6.854  0.00  0.00     0.009 A 
ATOM     28  C   UNL d   1      -3.232  -2.318  -5.632  0.00  0.00     0.025 A 
ENDBRANCH  21  24
ENDBRANCH   3  20
TORSDOF 5
