REMARK  5 active torsions:
REMARK  status: ('A' for Active; 'I' for Inactive)
REMARK    1  A    between atoms: C_7  and  C_1 
REMARK    2  A    between atoms: C_6  and  C_2 
REMARK    3  A    between atoms: C_11  and  C_5 
REMARK       I    between atoms: N_8  and  C_7 
REMARK    4  A    between atoms: C_19  and  N_8 
REMARK    5  A    between atoms: C_10  and  C_19 
ROOT
ATOM      1  C   UNL d   1       1.185   0.637   0.012  0.00  0.00     0.073 A 
ATOM      2  C   UNL d   1      -0.116   1.119  -0.031  0.00  0.00     0.175 A 
ATOM      3  O   UNL d   1      -0.998   0.067   0.008  0.00  0.00    -0.304 OA
ATOM      4  C   UNL d   1       1.067  -0.786   0.043  0.00  0.00     0.058 A 
ATOM      5  C   UNL d   1      -0.277  -1.088   0.056  0.00  0.00     0.087 A 
ENDROOT
BRANCH   1   6
ATOM      6  C   UNL d   1       2.395   1.442   0.011  0.00  0.00     0.254 C 
ATOM      7  N   UNL d   1       3.462   0.857   0.652  0.00  0.00    -0.352 N 
ATOM      8  H   UNL d   1       3.351  -0.019   1.137  0.00  0.00     0.163 HD
ATOM      9  O   UNL d   1       2.454   2.545  -0.511  0.00  0.00    -0.268 OA
BRANCH   7  10
ATOM     10  C   UNL d   1       4.731   1.537   0.738  0.00  0.00     0.169 C 
BRANCH  10  11
ATOM     11  C   UNL d   1       5.719   0.677   1.466  0.00  0.00     0.000 A 
ATOM     12  S   UNL d   1       6.175  -0.854   0.836  0.00  0.00    -0.105 SA
ATOM     13  C   UNL d   1       7.259  -1.137   2.127  0.00  0.00     0.050 A 
ATOM     14  C   UNL d   1       7.287  -0.088   3.018  0.00  0.00     0.008 A 
ATOM     15  C   UNL d   1       6.397   0.958   2.638  0.00  0.00     0.017 A 
ENDBRANCH  10  11
ENDBRANCH   7  10
ENDBRANCH   1   6
BRANCH   2  16
ATOM     16  C   UNL d   1      -0.732   2.474  -0.060  0.00  0.00     0.440 C 
ATOM     17  F   UNL d   1       0.149   3.490   0.099  0.00  0.00    -0.164 F 
ATOM     18  F   UNL d   1      -1.395   2.703  -1.224  0.00  0.00    -0.164 F 
ATOM     19  F   UNL d   1      -1.647   2.618   0.939  0.00  0.00    -0.164 F 
ENDBRANCH   2  16
BRANCH   5  20
ATOM     20  C   UNL d   1      -1.029  -2.336   0.130  0.00  0.00    -0.002 A 
ATOM     21  C   UNL d   1      -2.334  -2.370   0.641  0.00  0.00     0.014 A 
ATOM     22  C   UNL d   1      -3.011  -3.585   0.790  0.00  0.00     0.001 A 
ATOM     23  C   UNL d   1      -2.396  -4.778   0.419  0.00  0.00     0.000 A 
ATOM     24  C   UNL d   1      -1.110  -4.758  -0.116  0.00  0.00     0.001 A 
ATOM     25  C   UNL d   1      -0.432  -3.545  -0.259  0.00  0.00     0.014 A 
ENDBRANCH   5  20
TORSDOF 5
