REMARK  9 active torsions:
REMARK  status: ('A' for Active; 'I' for Inactive)
REMARK    1  A    between atoms: C_14  and  C_2 
REMARK    2  A    between atoms: N_17  and  C_6 
REMARK       I    between atoms: C_12  and  N_18 
REMARK    3  A    between atoms: C_19  and  C_12 
REMARK    4  A    between atoms: C_13  and  C_20 
REMARK    5  A    between atoms: O_21  and  C_13 
REMARK    6  A    between atoms: C_24  and  N_17 
REMARK    7  A    between atoms: N_18  and  C_25 
REMARK    8  A    between atoms: C_20  and  C_19 
REMARK    9  A    between atoms: C_25  and  C_24 
ROOT
ATOM      1  C   UNL d   1       0.425   0.937  -0.554  0.00  0.00     0.053 A 
ATOM      2  C   UNL d   1      -0.628   1.640  -1.291  0.00  0.00    -0.003 A 
ATOM      3  C   UNL d   1      -1.605   0.760  -1.730  0.00  0.00     0.065 A 
ATOM      4  C   UNL d   1       0.155  -0.428  -0.522  0.00  0.00     0.089 A 
ATOM      5  S   UNL d   1      -1.306  -0.853  -1.280  0.00  0.00    -0.082 SA
ATOM      6  C   UNL d   1       1.633   1.318   0.090  0.00  0.00     0.116 A 
ATOM      7  N   UNL d   1       0.909  -1.395   0.026  0.00  0.00    -0.346 N 
ATOM      8  HN  UNL d   1       0.647  -2.381   0.036  1.00  0.00     0.167 HD
ATOM      9  N   UNL d   1       2.438   0.352   0.589  0.00  0.00    -0.338 N 
ATOM     10  HN  UNL d   1       3.345   0.593   0.987  1.00  0.00     0.168 HD
ATOM     11  C   UNL d   1       2.034  -0.922   0.554  0.00  0.00     0.182 A 
ENDROOT
BRANCH   6  12
ATOM     12  N   UNL d   1       2.051   2.623   0.253  0.00  0.00    -0.374 N 
ATOM     13  H   UNL d   1       1.378   3.360   0.093  0.00  0.00     0.161 HD
BRANCH  12  14
ATOM     14  C   UNL d   1       3.466   2.964   0.140  0.00  0.00     0.141 C 
BRANCH  14  15
ATOM     15  C   UNL d   1       4.103   2.518  -1.197  0.00  0.00     0.142 C 
BRANCH  15  16
ATOM     16  N   UNL d   1       5.511   2.858  -1.328  0.00  0.00    -0.360 N 
ATOM     17  C   UNL d   1       5.957   4.146  -1.407  0.00  0.00     0.218 C 
ATOM     18  O   UNL d   1       5.218   5.133  -1.394  0.00  0.00    -0.274 OA
ATOM     19  H   UNL d   1       6.183   2.094  -1.294  0.00  0.00     0.162 HD
BRANCH  17  20
ATOM     20  C   UNL d   1       7.463   4.279  -1.497  0.00  0.00     0.113 C 
BRANCH  20  21
ATOM     21  C   UNL d   1       7.915   5.617  -0.932  0.00  0.00     0.119 C 
BRANCH  21  22
ATOM     22  C   UNL d   1       7.585   5.705   0.536  0.00  0.00     0.139 C 
ATOM     23  O   UNL d   1       8.335   5.323   1.420  0.00  0.00    -0.650 OA
BRANCH  22  24
ATOM     24  O   UNL d   1       6.351   6.195   0.788  0.00  0.00    -0.776 OA
ATOM     25  H   UNL d   1       5.796   6.298  -0.021  0.00  0.00     0.167 HD
ENDBRANCH  22  24
ENDBRANCH  21  22
ENDBRANCH  20  21
ENDBRANCH  17  20
ENDBRANCH  15  16
ENDBRANCH  14  15
ENDBRANCH  12  14
ENDBRANCH   6  12
BRANCH   2  26
ATOM     26  C   UNL d   1      -0.744   3.068  -1.621  0.00  0.00    -0.024 A 
ATOM     27  C   UNL d   1       0.377   3.808  -2.012  0.00  0.00     0.012 A 
ATOM     28  C   UNL d   1       0.308   5.193  -2.176  0.00  0.00     0.001 A 
ATOM     29  C   UNL d   1      -0.915   5.845  -2.054  0.00  0.00     0.000 A 
ATOM     30  C   UNL d   1      -2.064   5.110  -1.776  0.00  0.00     0.001 A 
ATOM     31  C   UNL d   1      -1.978   3.733  -1.545  0.00  0.00     0.012 A 
ENDBRANCH   2  26
TORSDOF 9
