REMARK  5 active torsions:
REMARK  status: ('A' for Active; 'I' for Inactive)
REMARK    1  A    between atoms: C_2  and  S_1 
REMARK    2  A    between atoms: C_6  and  S_1 
REMARK    3  A    between atoms: N_18  and  C_5 
REMARK    4  A    between atoms: C_11  and  C_6 
REMARK    5  A    between atoms: S_19  and  C_7 
ROOT
ATOM      1  C   UNL d   1       0.496   0.316   1.829  0.00  0.00     0.113 A 
ATOM      2  N   UNL d   1      -0.130  -0.550   3.946  0.00  0.00    -0.326 N 
ATOM      3  HN  UNL d   1      -0.280  -1.340   4.574  1.00  0.00     0.169 HD
ATOM      4  C   UNL d   1       0.269  -0.742   2.676  0.00  0.00     0.102 A 
ATOM      5  C   UNL d   1      -0.325   0.712   4.367  0.00  0.00     0.144 A 
ATOM      6  N   UNL d   1      -0.158   1.799   3.598  0.00  0.00    -0.345 N 
ATOM      7  HN  UNL d   1      -0.320   2.741   3.953  1.00  0.00     0.167 HD
ATOM      8  C   UNL d   1       0.238   1.571   2.331  0.00  0.00     0.117 A 
ENDROOT
BRANCH   1   9
ATOM      9  S   UNL d   1       0.924   0.164   0.143  0.00  0.00     0.184 S 
ATOM     10  O   UNL d   1      -0.066   0.948  -0.577  0.00  0.00    -0.222 OA
ATOM     11  O   UNL d   1       1.078  -1.243  -0.196  0.00  0.00    -0.222 OA
BRANCH   9  12
ATOM     12  C   UNL d   1       2.485   0.989  -0.082  0.00  0.00     0.192 C 
BRANCH  12  13
ATOM     13  C   UNL d   1       3.579   0.441   0.773  0.00  0.00    -0.003 A 
ATOM     14  S   UNL d   1       4.055   1.273   2.196  0.00  0.00    -0.106 SA
ATOM     15  C   UNL d   1       5.368   0.213   2.458  0.00  0.00     0.050 A 
ATOM     16  C   UNL d   1       5.436  -0.770   1.498  0.00  0.00     0.008 A 
ATOM     17  C   UNL d   1       4.396  -0.647   0.531  0.00  0.00     0.016 A 
ENDBRANCH  12  13
ENDBRANCH   9  12
ENDBRANCH   1   9
BRANCH   4  18
ATOM     18  N   UNL d   1       0.513  -2.067   2.358  0.00  0.00    -0.287 NA
ATOM     19  H   UNL d   1       0.157  -2.671   3.094  0.00  0.00     0.125 HD
ATOM     20  H   UNL d   1       0.219  -2.343   1.423  0.00  0.00     0.125 HD
ENDBRANCH   4  18
BRANCH   5  21
ATOM     21  S   UNL d   1      -0.835   0.908   6.056  0.00  0.00    -0.098 SA
ATOM     22  C   UNL d   1      -0.816   2.711   6.200  0.00  0.00     0.099 C 
ENDBRANCH   5  21
TORSDOF 5
