REMARK  5 active torsions:
REMARK  status: ('A' for Active; 'I' for Inactive)
REMARK    1  A    between atoms: C_1  and  O_7 
REMARK    2  A    between atoms: C_4  and  C_10 
REMARK    3  A    between atoms: C_8  and  O_7 
REMARK    4  A    between atoms: C_14  and  C_8 
REMARK    5  A    between atoms: C_17  and  C_14 
ROOT
ATOM      1  C   UNL d   1      -2.340   0.222  -0.242  0.00  0.00     0.240 C 
ATOM      2  C   UNL d   1      -1.333  -0.912  -0.118  0.00  0.00     0.194 C 
ATOM      3  O   UNL d   1      -0.506   1.839  -0.345  0.00  0.00    -0.337 OA
ATOM      4  C   UNL d   1      -1.725   1.506   0.346  0.00  0.00     0.199 C 
ATOM      5  C   UNL d   1       0.089  -0.517  -0.108  0.00  0.00     0.046 A 
ATOM      6  C   UNL d   1       0.425   0.836  -0.215  0.00  0.00     0.083 A 
ATOM      7  O   UNL d   1      -1.654  -2.097  -0.067  0.00  0.00    -0.289 OA
ATOM      8  C   UNL d   1       1.088  -1.490   0.005  0.00  0.00     0.018 A 
ATOM      9  C   UNL d   1       1.766   1.216  -0.210  0.00  0.00     0.038 A 
ATOM     10  C   UNL d   1       2.427  -1.104   0.021  0.00  0.00     0.001 A 
ATOM     11  C   UNL d   1       2.765   0.247  -0.080  0.00  0.00     0.003 A 
ENDROOT
BRANCH   1  12
ATOM     12  O   UNL d   1      -3.621  -0.132   0.305  0.00  0.00    -0.305 OA
BRANCH  12  13
ATOM     13  C   UNL d   1      -3.665  -0.368   1.642  0.00  0.00     0.259 C 
ATOM     14  O   UNL d   1      -2.721  -0.272   2.411  0.00  0.00    -0.265 OA
BRANCH  13  15
ATOM     15  C   UNL d   1      -5.047  -0.781   2.062  0.00  0.00     0.111 C 
BRANCH  15  16
ATOM     16  C   UNL d   1      -5.143  -2.297   2.071  0.00  0.00     0.005 C 
ATOM     17  C   UNL d   1      -6.495  -2.760   2.579  0.00  0.00     0.005 C 
ENDBRANCH  15  16
ENDBRANCH  13  15
ENDBRANCH  12  13
ENDBRANCH   1  12
BRANCH   4  18
ATOM     18  C   UNL d   1      -2.703   2.669   0.267  0.00  0.00    -0.026 A 
ATOM     19  C   UNL d   1      -3.081   3.248  -0.952  0.00  0.00     0.010 A 
ATOM     20  C   UNL d   1      -4.059   4.247  -0.988  0.00  0.00     0.001 A 
ATOM     21  C   UNL d   1      -4.666   4.679   0.191  0.00  0.00     0.000 A 
ATOM     22  C   UNL d   1      -4.291   4.122   1.410  0.00  0.00     0.001 A 
ATOM     23  C   UNL d   1      -3.315   3.126   1.448  0.00  0.00     0.010 A 
ENDBRANCH   4  18
TORSDOF 5
