REMARK  2 active torsions:
REMARK  status: ('A' for Active; 'I' for Inactive)
REMARK    1  A    between atoms: C_3  and  N_1 
REMARK       I    between atoms: C_4  and  N_1 
REMARK    2  A    between atoms: C_7  and  C_4 
ROOT
ATOM      1  N   UNL d   1       3.384   2.737   0.580  0.00  0.00    -0.197 NA
ATOM      2  C   UNL d   1       2.534   2.440  -0.154  0.00  0.00     0.068 C 
ATOM      3  C   UNL d   1       1.493   2.014  -1.086  0.00  0.00     0.226 C 
ENDROOT
BRANCH   3   4
ATOM      4  C   UNL d   1       0.515   1.052  -0.448  0.00  0.00     0.235 C 
ATOM      5  N   UNL d   1       1.083  -0.054   0.158  0.00  0.00    -0.326 N 
ATOM      6  H   UNL d   1       2.035   0.030   0.497  0.00  0.00     0.169 HD
ATOM      7  O   UNL d   1      -0.698   1.262  -0.528  0.00  0.00    -0.272 OA
BRANCH   5   8
ATOM      8  C   UNL d   1       0.315  -1.090   0.736  0.00  0.00     0.040 A 
ATOM      9  C   UNL d   1       0.638  -1.586   2.009  0.00  0.00    -0.035 A 
ATOM     10  C   UNL d   1      -0.089  -2.679   2.515  0.00  0.00     0.015 A 
ATOM     11  C   UNL d   1       1.661  -0.953   2.912  0.00  0.00     0.050 C 
ATOM     12  C   UNL d   1      -1.125  -3.271   1.782  0.00  0.00    -0.061 A 
ATOM     13  C   UNL d   1      -1.453  -2.746   0.530  0.00  0.00     0.009 A 
ATOM     14  C   UNL d   1      -1.879  -4.434   2.356  0.00  0.00     0.048 C 
ATOM     15  C   UNL d   1      -0.741  -1.661   0.014  0.00  0.00     0.030 A 
ENDBRANCH   5   8
ENDBRANCH   3   4
TORSDOF 2
