REMARK  5 active torsions:
REMARK  status: ('A' for Active; 'I' for Inactive)
REMARK    1  A    between atoms: C_9  and  C_1 
REMARK    2  A    between atoms: S_2  and  C_3 
REMARK    3  A    between atoms: C_17  and  S_2 
REMARK    4  A    between atoms: C_10  and  C_8 
REMARK    5  A    between atoms: C_11  and  C_13 
ROOT
ATOM      1  C   UNL d   1       5.794   5.154  -0.206  0.00  0.00     0.145 C 
ATOM      2  C   UNL d   1       5.274   4.481   0.842  0.00  0.00     0.054 C 
ATOM      3  C   UNL d   1       6.109   6.536  -0.211  0.00  0.00     0.112 C 
ATOM      4  N   UNL d   1       6.405   7.657  -0.174  0.00  0.00    -0.191 NA
ENDROOT
BRANCH   1   5
ATOM      5  S   UNL d   1       6.101   4.306  -1.693  0.00  0.00     0.216 S 
ATOM      6  O   UNL d   1       5.912   2.879  -1.514  0.00  0.00    -0.216 OA
ATOM      7  O   UNL d   1       5.440   4.989  -2.790  0.00  0.00    -0.216 OA
BRANCH   5   8
ATOM      8  C   UNL d   1       7.862   4.552  -1.922  0.00  0.00     0.065 A 
ATOM      9  C   UNL d   1       8.764   3.595  -1.444  0.00  0.00     0.025 A 
ATOM     10  C   UNL d   1      10.136   3.808  -1.601  0.00  0.00     0.025 A 
ATOM     11  C   UNL d   1      10.595   4.963  -2.240  0.00  0.00     0.034 A 
ATOM     12  C   UNL d   1       9.692   5.901  -2.741  0.00  0.00     0.025 A 
ATOM     13 CL   UNL d   1      12.285   5.229  -2.411  0.00  0.00    -0.084 Cl
ATOM     14  C   UNL d   1       8.319   5.691  -2.595  0.00  0.00     0.025 A 
ENDBRANCH   5   8
ENDBRANCH   1   5
BRANCH   2  15
ATOM     15  C   UNL d   1       5.025   5.094   2.111  0.00  0.00     0.007 C 
ATOM     16  S   UNL d   1       3.695   4.592   3.094  0.00  0.00    -0.088 SA
ATOM     17  C   UNL d   1       3.951   5.840   4.232  0.00  0.00     0.033 C 
ATOM     18  C   UNL d   1       5.084   6.561   3.940  0.00  0.00     0.023 C 
ATOM     19  C   UNL d   1       5.739   6.085   2.773  0.00  0.00     0.020 C 
BRANCH  17  20
ATOM     20  C   UNL d   1       3.076   6.157   5.410  0.00  0.00     0.067 A 
ATOM     21  C   UNL d   1       2.013   5.395   5.926  0.00  0.00     0.068 A 
ATOM     22  C   UNL d   1       1.513   6.120   6.997  0.00  0.00     0.136 A 
ATOM     23  N   UNL d   1       2.246   7.275   7.024  0.00  0.00    -0.292 N 
ATOM     24  N   UNL d   1       3.243   7.281   6.116  0.00  0.00    -0.297 N 
ATOM     25  C   UNL d   1       2.082   8.483   7.803  0.00  0.00     0.178 C 
ATOM     26  HN  UNL d   1       3.968   7.988   5.995  1.00  0.00     0.187 HD
BRANCH  22  27
ATOM     27  C   UNL d   1       0.413   5.770   7.918  0.00  0.00     0.434 C 
ATOM     28  F   UNL d   1       0.206   6.664   8.913  0.00  0.00    -0.165 F 
ATOM     29  F   UNL d   1      -0.763   5.652   7.252  0.00  0.00    -0.165 F 
ATOM     30  F   UNL d   1       0.643   4.575   8.520  0.00  0.00    -0.165 F 
ENDBRANCH  22  27
ENDBRANCH  17  20
ENDBRANCH   2  15
TORSDOF 5
