REMARK  7 active torsions:
REMARK  status: ('A' for Active; 'I' for Inactive)
REMARK    1  A    between atoms: C_13  and  N_1 
REMARK    2  A    between atoms: N_14  and  C_11 
REMARK    3  A    between atoms: C_19  and  C_13 
REMARK    4  A    between atoms: C_18  and  N_14 
REMARK    5  A    between atoms: C_20  and  C_18 
REMARK    6  A    between atoms: C_22  and  C_19 
REMARK    7  A    between atoms: C_21  and  C_20 
ROOT
ATOM      1  N   UNL d   1       2.267  -0.096   0.149  0.00  0.00    -0.280 N 
ATOM      2  C   UNL d   1       1.579  -1.294   0.037  0.00  0.00     0.261 C 
ATOM      3  C   UNL d   1       1.665   1.158   0.014  0.00  0.00     0.261 C 
ATOM      4  C   UNL d   1       0.097  -1.226   0.034  0.00  0.00     0.044 A 
ATOM      5  C   UNL d   1      -0.555   0.007   0.001  0.00  0.00     0.008 A 
ATOM      6  C   UNL d   1       0.188   1.193  -0.022  0.00  0.00     0.044 A 
ATOM      7  C   UNL d   1      -1.985   0.046  -0.012  0.00  0.00     0.003 A 
ATOM      8  C   UNL d   1      -0.623  -2.418   0.068  0.00  0.00     0.020 A 
ATOM      9  O   UNL d   1       2.121  -2.393  -0.069  0.00  0.00    -0.267 OA
ATOM     10  O   UNL d   1       2.296   2.211  -0.087  0.00  0.00    -0.267 OA
ATOM     11  C   UNL d   1      -2.724  -1.179   0.039  0.00  0.00     0.039 A 
ATOM     12  C   UNL d   1      -2.015  -2.389   0.072  0.00  0.00     0.031 A 
ATOM     13  C   UNL d   1      -0.448   2.442  -0.066  0.00  0.00     0.018 A 
ATOM     14  C   UNL d   1      -2.586   1.332  -0.054  0.00  0.00     0.014 A 
ATOM     15  C   UNL d   1      -1.833   2.504  -0.087  0.00  0.00     0.002 A 
ENDROOT
BRANCH  11  16
ATOM     16  N   UNL d   1      -4.133  -1.204  -0.053  0.00  0.00    -0.389 N 
ATOM     17  H   UNL d   1      -4.569  -0.291  -0.000  0.00  0.00     0.159 HD
BRANCH  16  18
ATOM     18  C   UNL d   1      -4.863  -2.220   0.711  0.00  0.00     0.119 C 
BRANCH  18  19
ATOM     19  C   UNL d   1      -6.367  -1.953   0.617  0.00  0.00     0.019 C 
BRANCH  19  20
ATOM     20  C   UNL d   1      -7.169  -3.047   1.322  0.00  0.00    -0.003 C 
ATOM     21  C   UNL d   1      -8.666  -2.813   1.197  0.00  0.00     0.005 C 
ENDBRANCH  19  20
ENDBRANCH  18  19
ENDBRANCH  16  18
ENDBRANCH  11  16
BRANCH   1  22
ATOM     22  C   UNL d   1       3.726  -0.142   0.232  0.00  0.00     0.135 C 
BRANCH  22  23
ATOM     23  C   UNL d   1       4.294   0.459   1.526  0.00  0.00     0.020 C 
BRANCH  23  24
ATOM     24  C   UNL d   1       3.810  -0.243   2.796  0.00  0.00    -0.003 C 
ATOM     25  C   UNL d   1       4.411   0.407   4.034  0.00  0.00     0.005 C 
ENDBRANCH  23  24
ENDBRANCH  22  23
ENDBRANCH   1  22
TORSDOF 7
