REMARK  2 active torsions:
REMARK  status: ('A' for Active; 'I' for Inactive)
REMARK    1  A    between atoms: S_12  and  C_2 
REMARK    2  A    between atoms: C_7  and  C_3 
ROOT
ATOM      1  C   UNL d   1      -1.054  -1.264   0.048  0.00  0.00     0.135 C 
ATOM      2  C   UNL d   1      -1.844  -0.207   0.327  0.00  0.00     0.065 C 
ATOM      3  C   UNL d   1       0.441   1.362   0.101  0.00  0.00     0.186 C 
ATOM      4  S   UNL d   1      -1.220   1.352   0.778  0.00  0.00    -0.091 SA
ATOM      5  N   UNL d   1       1.024   0.055  -0.020  0.00  0.00    -0.339 N 
ATOM      6  C   UNL d   1       0.424  -1.156  -0.026  0.00  0.00     0.265 C 
ATOM      7  C   UNL d   1      -1.580  -2.569  -0.186  0.00  0.00     0.107 C 
ATOM      8  N   UNL d   1      -2.034  -3.631  -0.324  0.00  0.00    -0.191 NA
ATOM      9  O   UNL d   1       1.133  -2.155  -0.129  0.00  0.00    -0.267 OA
ATOM     10  H   UNL d   1       2.028   0.010  -0.148  0.00  0.00     0.164 HD
ENDROOT
BRANCH   2  11
ATOM     11  S   UNL d   1      -3.601  -0.276   0.237  0.00  0.00    -0.126 SA
ATOM     12  C   UNL d   1      -4.043  -1.245   1.697  0.00  0.00     0.096 C 
ENDBRANCH   2  11
BRANCH   3  13
ATOM     13  C   UNL d   1       0.586   2.237  -1.143  0.00  0.00    -0.014 A 
ATOM     14  C   UNL d   1       0.706   3.662  -1.036  0.00  0.00    -0.017 A 
ATOM     15  C   UNL d   1       0.835   4.433  -2.224  0.00  0.00    -0.025 A 
ATOM     16  C   UNL d   1       0.705   4.380   0.187  0.00  0.00     0.013 A 
ATOM     17  C   UNL d   1       0.947   5.832  -2.156  0.00  0.00     0.012 A 
ATOM     18  C   UNL d   1       0.847   3.798  -3.475  0.00  0.00     0.012 A 
ATOM     19  C   UNL d   1       0.936   6.501  -0.933  0.00  0.00     0.001 A 
ATOM     20  C   UNL d   1       0.817   5.771   0.238  0.00  0.00     0.001 A 
ATOM     21  C   UNL d   1       0.726   2.419  -3.572  0.00  0.00     0.002 A 
ATOM     22  C   UNL d   1       0.590   1.643  -2.424  0.00  0.00     0.011 A 
ENDBRANCH   3  13
TORSDOF 2
