REMARK  12 active torsions:
REMARK  status: ('A' for Active; 'I' for Inactive)
REMARK    1  A    between atoms: C_3  and  C_1 
REMARK    2  A    between atoms: N_4  and  C_2 
REMARK    3  A    between atoms: O_7  and  C_3 
REMARK    4  A    between atoms: C_6  and  N_4 
REMARK    5  A    between atoms: C_15  and  C_8 
REMARK    6  A    between atoms: C_16  and  C_15 
REMARK    7  A    between atoms: C_21  and  C_16 
REMARK    8  A    between atoms: C_17  and  C_18 
REMARK    9  A    between atoms: C_18  and  C_20 
REMARK   10  A    between atoms: C_19  and  C_22 
REMARK   11  A    between atoms: C_20  and  C_19 
REMARK   12  A    between atoms: C_22  and  C_21 
ROOT
ATOM      1  C   UNL d   1       2.281  -3.447   0.736  0.00  0.00     0.012 A 
ATOM      2  C   UNL d   1       5.054  -3.650   0.208  0.00  0.00    -0.058 A 
ATOM      3  C   UNL d   1       2.898  -4.697   0.574  0.00  0.00     0.024 A 
ATOM      4  C   UNL d   1       3.045  -2.297   0.509  0.00  0.00     0.024 A 
ATOM      5  C   UNL d   1       4.271  -4.799   0.333  0.00  0.00     0.009 A 
ATOM      6  C   UNL d   1       4.421  -2.400   0.244  0.00  0.00     0.009 A 
ENDROOT
BRANCH   1   7
ATOM      7  N   UNL d   1       0.928  -3.364   1.191  0.00  0.00    -0.259 NA
ATOM      8  H   UNL d   1       0.646  -2.385   1.280  0.00  0.00     0.134 HD
BRANCH   7   9
ATOM      9  C   UNL d   1       0.432  -4.101   2.320  0.00  0.00     0.029 A 
ATOM     10  C   UNL d   1      -0.942  -4.331   2.538  0.00  0.00     0.059 A 
ATOM     11  C   UNL d   1      -1.361  -5.085   3.652  0.00  0.00     0.020 A 
ATOM     12  C   UNL d   1      -0.436  -5.600   4.562  0.00  0.00     0.001 A 
ATOM     13  C   UNL d   1       0.913  -5.336   4.387  0.00  0.00     0.002 A 
ATOM     14  C   UNL d   1       1.337  -4.580   3.294  0.00  0.00     0.025 A 
BRANCH  10  15
ATOM     15  C   UNL d   1      -2.041  -3.838   1.665  0.00  0.00     0.177 C 
ATOM     16  O   UNL d   1      -3.150  -3.558   2.088  0.00  0.00    -0.646 OA
BRANCH  15  17
ATOM     17  O   UNL d   1      -1.719  -3.797   0.349  0.00  0.00    -0.773 OA
ATOM     18  H   UNL d   1      -0.792  -4.052   0.172  0.00  0.00     0.167 HD
ENDBRANCH  15  17
ENDBRANCH  10  15
ENDBRANCH   7   9
ENDBRANCH   1   7
BRANCH   2  19
ATOM     19  C   UNL d   1       6.557  -3.765   0.098  0.00  0.00     0.038 C 
BRANCH  19  20
ATOM     20  C   UNL d   1       7.305  -3.079   1.250  0.00  0.00     0.005 C 
BRANCH  20  21
ATOM     21  C   UNL d   1       6.972  -3.662   2.627  0.00  0.00     0.000 C 
BRANCH  21  22
ATOM     22  C   UNL d   1       7.739  -2.917   3.719  0.00  0.00     0.000 C 
BRANCH  22  23
ATOM     23  C   UNL d   1       7.406  -3.464   5.104  0.00  0.00     0.000 C 
BRANCH  23  24
ATOM     24  C   UNL d   1       8.182  -2.715   6.186  0.00  0.00     0.000 C 
BRANCH  24  25
ATOM     25  C   UNL d   1       7.849  -3.265   7.570  0.00  0.00    -0.000 C 
BRANCH  25  26
ATOM     26  C   UNL d   1       8.618  -2.529   8.664  0.00  0.00    -0.005 C 
ATOM     27  C   UNL d   1       8.279  -3.086  10.036  0.00  0.00     0.005 C 
ENDBRANCH  25  26
ENDBRANCH  24  25
ENDBRANCH  23  24
ENDBRANCH  22  23
ENDBRANCH  21  22
ENDBRANCH  20  21
ENDBRANCH  19  20
ENDBRANCH   2  19
TORSDOF 12
