REMARK  6 active torsions:
REMARK  status: ('A' for Active; 'I' for Inactive)
REMARK    1  A    between atoms: S_2  and  C_1 
REMARK    2  A    between atoms: C_9  and  S_2 
REMARK    3  A    between atoms: C_5  and  C_4 
REMARK       I    between atoms: N_8  and  C_5 
REMARK    4  A    between atoms: C_10  and  C_16 
REMARK    5  A    between atoms: O_24  and  C_10 
REMARK    6  A    between atoms: C_28  and  O_24 
ROOT
ATOM      1  C   UNL d   1       0.644   1.172  -0.517  0.00  0.00     0.078 A 
ATOM      2  C   UNL d   1       1.066  -0.193  -0.750  0.00  0.00    -0.017 A 
ATOM      3  C   UNL d   1       0.263  -1.089  -0.037  0.00  0.00     0.080 A 
ATOM      4  S   UNL d   1      -0.851  -0.278   0.983  0.00  0.00    -0.094 SA
ATOM      5  C   UNL d   1      -0.418   1.241   0.366  0.00  0.00     0.075 A 
ATOM      6  C   UNL d   1       2.204  -0.657  -1.613  0.00  0.00     0.051 C 
ENDROOT
BRANCH   3   7
ATOM      7  C   UNL d   1       0.424  -2.544   0.058  0.00  0.00     0.261 C 
ATOM      8  N   UNL d   1      -0.697  -3.386   0.035  0.00  0.00    -0.347 N 
ATOM      9  C   UNL d   1      -0.534  -4.784   0.428  0.00  0.00     0.127 C 
ATOM     10  C   UNL d   1      -2.049  -3.000  -0.374  0.00  0.00     0.127 C 
ATOM     11  C   UNL d   1      -1.019  -5.725  -0.672  0.00  0.00     0.034 C 
ATOM     12  C   UNL d   1      -2.472  -5.422  -1.069  0.00  0.00     0.088 C 
ATOM     13  C   UNL d   1      -2.591  -3.940  -1.455  0.00  0.00     0.034 C 
ATOM     14  O   UNL d   1       1.554  -3.034   0.152  0.00  0.00    -0.267 OA
BRANCH  12  15
ATOM     15  C   UNL d   1      -3.445  -5.780   0.053  0.00  0.00     0.263 C 
ATOM     16  O   UNL d   1      -4.267  -5.014   0.527  0.00  0.00    -0.265 OA
BRANCH  15  17
ATOM     17  O   UNL d   1      -3.241  -7.061   0.470  0.00  0.00    -0.322 OA
BRANCH  17  18
ATOM     18  C   UNL d   1      -3.779  -7.393   1.759  0.00  0.00     0.174 C 
ATOM     19  C   UNL d   1      -4.981  -8.306   1.642  0.00  0.00     0.034 C 
ENDBRANCH  17  18
ENDBRANCH  15  17
ENDBRANCH  12  15
ENDBRANCH   3   7
BRANCH   1  20
ATOM     20  S   UNL d   1       1.364   2.647  -1.127  0.00  0.00     0.207 S 
ATOM     21  O   UNL d   1       2.052   2.302  -2.355  0.00  0.00    -0.217 OA
ATOM     22  O   UNL d   1       0.289   3.616  -1.105  0.00  0.00    -0.217 OA
BRANCH  20  23
ATOM     23  C   UNL d   1       2.545   3.090   0.120  0.00  0.00     0.064 A 
ATOM     24  C   UNL d   1       3.876   2.690  -0.006  0.00  0.00     0.025 A 
ATOM     25  C   UNL d   1       4.794   3.039   0.985  0.00  0.00     0.025 A 
ATOM     26  C   UNL d   1       4.379   3.791   2.088  0.00  0.00     0.034 A 
ATOM     27  C   UNL d   1       3.054   4.211   2.199  0.00  0.00     0.025 A 
ATOM     28 CL   UNL d   1       5.511   4.207   3.315  0.00  0.00    -0.084 Cl
ATOM     29  C   UNL d   1       2.130   3.867   1.211  0.00  0.00     0.025 A 
ENDBRANCH  20  23
ENDBRANCH   1  20
TORSDOF 6
