REMARK  2 active torsions:
REMARK  status: ('A' for Active; 'I' for Inactive)
REMARK    1  A    between atoms: C_3  and  C_1 
REMARK       I    between atoms: N_4  and  C_1 
REMARK       I    between atoms: C_2  and  N_5 
REMARK       I    between atoms: N_10  and  C_2 
REMARK    2  A    between atoms: N_5  and  N_4 
ROOT
ATOM      1  C   UNL d   1       0.796  -0.002  -0.210  0.00  0.00     0.271 C 
ATOM      2  N   UNL d   1       0.030  -0.824  -1.012  0.00  0.00    -0.262 N 
ATOM      3  O   UNL d   1       2.017   0.065  -0.285  0.00  0.00    -0.266 OA
ATOM      4  H   UNL d   1      -0.908  -1.123  -0.743  0.00  0.00     0.190 HD
ENDROOT
BRANCH   1   5
ATOM      5  C   UNL d   1       0.042   0.792   0.787  0.00  0.00     0.049 A 
ATOM      6  C   UNL d   1       0.678   1.208   1.949  0.00  0.00     0.104 A 
ATOM      7  N   UNL d   1       0.066   1.924   2.927  0.00  0.00    -0.374 N 
ATOM      8  C   UNL d   1      -1.229   2.252   2.723  0.00  0.00     0.087 A 
ATOM      9  HN  UNL d   1       0.561   2.201   3.775  1.00  0.00     0.164 HD
ATOM     10  C   UNL d   1      -1.941   1.905   1.586  0.00  0.00     0.018 A 
ATOM     11  C   UNL d   1      -1.293   1.165   0.600  0.00  0.00     0.020 A 
ENDBRANCH   1   5
BRANCH   2  12
ATOM     12  N   UNL d   1       0.681  -1.669  -1.925  0.00  0.00    -0.249 N 
ATOM     13  C   UNL d   1       0.058  -2.873  -2.189  0.00  0.00     0.334 C 
ATOM     14  O   UNL d   1      -1.036  -3.173  -1.721  0.00  0.00    -0.246 OA
ATOM     15  N   UNL d   1       0.788  -3.655  -3.046  0.00  0.00    -0.346 N 
ATOM     16  C   UNL d   1       0.270  -4.905  -3.543  0.00  0.00     0.151 C 
ATOM     17  H   UNL d   1       1.459  -3.167  -3.622  0.00  0.00     0.163 HD
ATOM     18  H   UNL d   1       1.696  -1.656  -1.865  0.00  0.00     0.192 HD
ENDBRANCH   2  12
TORSDOF 2
