REMARK  4 active torsions:
REMARK  status: ('A' for Active; 'I' for Inactive)
REMARK    1  A    between atoms: O_6  and  C_1 
REMARK       I    between atoms: C_3  and  N_9 
REMARK    2  A    between atoms: C_4  and  C_3 
REMARK    3  A    between atoms: C_13  and  O_6 
REMARK    4  A    between atoms: N_9  and  C_23 
ROOT
ATOM      1  N   UNL d   1       3.277   3.046  -0.851  0.00  0.00    -0.344 N 
ATOM      2  HN  UNL d   1       2.961   2.441  -1.609  1.00  0.00     0.167 HD
ATOM      3  C   UNL d   1       2.502   3.305   0.224  0.00  0.00     0.149 A 
ATOM      4  C   UNL d   1       4.960   4.529   0.093  0.00  0.00     0.050 A 
ATOM      5  C   UNL d   1       4.495   3.632  -0.869  0.00  0.00     0.119 A 
ATOM      6  C   UNL d   1       2.855   4.202   1.220  0.00  0.00     0.059 A 
ATOM      7  C   UNL d   1       4.104   4.822   1.151  0.00  0.00     0.035 A 
ENDROOT
BRANCH   3   8
ATOM      8  O   UNL d   1       1.244   2.732   0.321  0.00  0.00    -0.276 OA
BRANCH   8   9
ATOM      9  C   UNL d   1       1.110   1.430  -0.146  0.00  0.00     0.163 A 
ATOM     10  C   UNL d   1      -0.153   1.044  -0.607  0.00  0.00     0.042 A 
ATOM     11  C   UNL d   1      -0.236  -0.289  -1.025  0.00  0.00     0.049 A 
ATOM     12  C   UNL d   1      -1.296   1.880  -0.660  0.00  0.00     0.020 A 
ATOM     13  C   UNL d   1      -1.458  -0.766  -1.484  0.00  0.00     0.054 A 
ATOM     14  N   UNL d   1       0.807  -1.124  -0.992  0.00  0.00    -0.351 N 
ATOM     15  C   UNL d   1      -2.587   0.051  -1.525  0.00  0.00     0.036 A 
ATOM     16  C   UNL d   1      -2.514   1.376  -1.116  0.00  0.00     0.025 A 
ATOM     17 CL   UNL d   1      -4.084  -0.590  -2.078  0.00  0.00    -0.084 Cl
ATOM     18  C   UNL d   1       1.957  -0.644  -0.498  0.00  0.00     0.182 A 
ATOM     19  HN  UNL d   1       0.732  -2.085  -1.327  1.00  0.00     0.166 HD
ATOM     20  N   UNL d   1       2.155   0.589  -0.030  0.00  0.00    -0.332 N 
ATOM     21  HN  UNL d   1       3.040   0.876   0.387  1.00  0.00     0.168 HD
ENDBRANCH   8   9
ENDBRANCH   3   8
BRANCH   4  22
ATOM     22  N   UNL d   1       6.247   5.078  -0.071  0.00  0.00    -0.321 N 
ATOM     23  C   UNL d   1       6.828   6.112   0.645  0.00  0.00     0.263 C 
ATOM     24  O   UNL d   1       6.277   6.704   1.569  0.00  0.00    -0.267 OA
ATOM     25  H   UNL d   1       6.799   4.725  -0.844  0.00  0.00     0.169 HD
BRANCH  23  26
ATOM     26  C   UNL d   1       8.159   6.500   0.181  0.00  0.00     0.072 A 
ATOM     27  S   UNL d   1       9.039   5.587  -0.978  0.00  0.00    -0.097 SA
ATOM     28  C   UNL d   1      10.350   6.684  -0.952  0.00  0.00     0.050 A 
ATOM     29  C   UNL d   1      10.135   7.724  -0.077  0.00  0.00     0.009 A 
ATOM     30  C   UNL d   1       8.878   7.610   0.583  0.00  0.00     0.025 A 
ENDBRANCH  23  26
ENDBRANCH   4  22
TORSDOF 4
