REMARK  4 active torsions:
REMARK  status: ('A' for Active; 'I' for Inactive)
REMARK    1  A    between atoms: C_4  and  C_1 
REMARK    2  A    between atoms: N_3  and  C_2 
REMARK    3  A    between atoms: C_5  and  N_3 
REMARK    4  A    between atoms: O_8  and  C_4 
ROOT
ATOM      1  C   UNL d   1       1.371  -0.045  -0.006  0.00  0.00     0.059 A 
ATOM      2  C   UNL d   1       0.617  -1.236  -0.078  0.00  0.00     0.029 A 
ATOM      3  C   UNL d   1       0.723   1.199   0.066  0.00  0.00     0.020 A 
ATOM      4  C   UNL d   1      -0.784  -1.139  -0.022  0.00  0.00     0.025 A 
ATOM      5  C   UNL d   1      -0.667   1.272   0.075  0.00  0.00     0.001 A 
ATOM      6  C   UNL d   1      -1.420   0.103   0.039  0.00  0.00     0.002 A 
ENDROOT
BRANCH   2   7
ATOM      7  N   UNL d   1       1.256  -2.507  -0.066  0.00  0.00    -0.256 NA
ATOM      8  H   UNL d   1       1.560  -2.719   0.893  0.00  0.00     0.134 HD
BRANCH   7   9
ATOM      9  C   UNL d   1       0.766  -3.704  -0.660  0.00  0.00     0.051 A 
ATOM     10  C   UNL d   1       0.998  -4.942  -0.038  0.00  0.00     0.137 A 
ATOM     11  F   UNL d   1       1.574  -4.969   1.174  0.00  0.00    -0.204 F 
ATOM     12  C   UNL d   1       0.634  -6.144  -0.639  0.00  0.00     0.044 A 
ATOM     13  C   UNL d   1       0.039  -6.128  -1.898  0.00  0.00     0.003 A 
ATOM     14  C   UNL d   1      -0.203  -4.910  -2.535  0.00  0.00     0.002 A 
ATOM     15  C   UNL d   1       0.161  -3.706  -1.922  0.00  0.00     0.027 A 
ENDBRANCH   7   9
ENDBRANCH   2   7
BRANCH   1  16
ATOM     16  C   UNL d   1       2.858  -0.013  -0.021  0.00  0.00     0.177 C 
ATOM     17  O   UNL d   1       3.506   0.861   0.525  0.00  0.00    -0.646 OA
BRANCH  16  18
ATOM     18  O   UNL d   1       3.421  -0.992  -0.764  0.00  0.00    -0.773 OA
ATOM     19  H   UNL d   1       2.765  -1.647  -1.091  0.00  0.00     0.167 HD
ENDBRANCH  16  18
ENDBRANCH   1  16
TORSDOF 4
