REMARK  8 active torsions:
REMARK  status: ('A' for Active; 'I' for Inactive)
REMARK    1  A    between atoms: C_6  and  N_1 
REMARK    2  A    between atoms: C_7  and  C_6 
REMARK    3  A    between atoms: O_12  and  C_7 
REMARK    4  A    between atoms: C_14  and  C_7 
REMARK    5  A    between atoms: O_13  and  C_14 
REMARK    6  A    between atoms: C_15  and  O_13 
REMARK    7  A    between atoms: C_17  and  C_15 
REMARK    8  A    between atoms: C_16  and  C_17 
ROOT
ATOM      1  N   UNL d   1       0.108  -1.557   0.038  0.00  0.00    -0.343 N 
ATOM      2  C   UNL d   1       0.016  -0.711   1.129  0.00  0.00     0.046 A 
ATOM      3  C   UNL d   1       0.178  -0.834  -1.139  0.00  0.00     0.046 A 
ATOM      4  C   UNL d   1       0.116   0.516  -0.792  0.00  0.00     0.003 A 
ATOM      5  C   UNL d   1       0.012   0.595   0.630  0.00  0.00     0.003 A 
ATOM      6  C   UNL d   1      -0.070  -0.973   2.508  0.00  0.00     0.030 A 
ATOM      7  C   UNL d   1       0.281  -1.250  -2.478  0.00  0.00     0.030 A 
ATOM      8  C   UNL d   1      -0.091   1.670   1.538  0.00  0.00     0.014 A 
ATOM      9  C   UNL d   1       0.157   1.486  -1.817  0.00  0.00     0.014 A 
ATOM     10  C   UNL d   1      -0.164   0.112   3.386  0.00  0.00     0.002 A 
ATOM     11  C   UNL d   1       0.317  -0.269  -3.474  0.00  0.00     0.002 A 
ATOM     12  C   UNL d   1       0.256   1.082  -3.151  0.00  0.00     0.001 A 
ATOM     13  C   UNL d   1      -0.178   1.417   2.910  0.00  0.00     0.001 A 
ENDROOT
BRANCH   1  14
ATOM     14  C   UNL d   1       0.044  -3.013   0.102  0.00  0.00     0.163 C 
BRANCH  14  15
ATOM     15  C   UNL d   1       1.427  -3.681   0.141  0.00  0.00     0.160 C 
BRANCH  15  16
ATOM     16  O   UNL d   1       2.105  -3.426   1.379  0.00  0.00    -0.392 OA
ATOM     17  H   UNL d   1       1.508  -3.639   2.114  0.00  0.00     0.210 HD
ENDBRANCH  15  16
BRANCH  15  18
ATOM     18  C   UNL d   1       1.299  -5.200  -0.026  0.00  0.00     0.200 C 
BRANCH  18  19
ATOM     19  O   UNL d   1       0.703  -5.520  -1.282  0.00  0.00    -0.389 OA
BRANCH  19  20
ATOM     20  C   UNL d   1       0.559  -6.933  -1.438  0.00  0.00     0.168 C 
BRANCH  20  21
ATOM     21  C   UNL d   1      -0.097  -7.214  -2.787  0.00  0.00     0.030 C 
BRANCH  21  22
ATOM     22  C   UNL d   1      -0.276  -8.714  -3.074  0.00  0.00    -0.021 C 
ATOM     23  C   UNL d   1      -1.185  -9.397  -2.050  0.00  0.00     0.009 C 
ATOM     24  C   UNL d   1      -0.843  -8.917  -4.481  0.00  0.00     0.009 C 
ENDBRANCH  21  22
ENDBRANCH  20  21
ENDBRANCH  19  20
ENDBRANCH  18  19
ENDBRANCH  15  18
ENDBRANCH  14  15
ENDBRANCH   1  14
TORSDOF 8
