REMARK  4 active torsions:
REMARK  status: ('A' for Active; 'I' for Inactive)
REMARK    1  A    between atoms: C_2  and  C_1 
REMARK    2  A    between atoms: O_8  and  C_2 
REMARK    3  A    between atoms: S_7  and  C_5 
REMARK    4  A    between atoms: C_10  and  S_7 
ROOT
ATOM      1  N   UNL d   1       0.374  -3.241   3.335  0.00  0.00    -0.197 NA
ATOM      2  C   UNL d   1       1.028  -3.372   2.383  0.00  0.00     0.069 C 
ATOM      3  C   UNL d   1       1.868  -3.541   1.194  0.00  0.00     0.203 C 
ENDROOT
BRANCH   3   4
ATOM      4  S   UNL d   1       1.040  -3.093  -0.370  0.00  0.00    -0.115 SA
BRANCH   4   5
ATOM      5  C   UNL d   1       0.589  -1.376  -0.093  0.00  0.00     0.017 A 
ATOM      6  C   UNL d   1       1.453  -0.281   0.104  0.00  0.00     0.056 A 
ATOM      7  C   UNL d   1       0.916   1.017   0.228  0.00  0.00     0.019 A 
ATOM      8  C   UNL d   1      -0.458   1.240   0.158  0.00  0.00     0.001 A 
ATOM      9  C   UNL d   1      -1.317   0.163  -0.017  0.00  0.00     0.001 A 
ATOM     10  C   UNL d   1      -0.798  -1.128  -0.145  0.00  0.00     0.019 A 
BRANCH   6  11
ATOM     11  C   UNL d   1       2.929  -0.350   0.242  0.00  0.00     0.294 C 
ATOM     12  O   UNL d   1       3.553   0.393   0.985  0.00  0.00    -0.259 OA
BRANCH  11  13
ATOM     13  O   UNL d   1       3.475  -1.285  -0.569  0.00  0.00    -0.322 OA
ATOM     14  C   UNL d   1       4.898  -1.382  -0.466  0.00  0.00     0.213 C 
ENDBRANCH  11  13
ENDBRANCH   6  11
ENDBRANCH   4   5
ENDBRANCH   3   4
TORSDOF 4
