REMARK  10 active torsions:
REMARK  status: ('A' for Active; 'I' for Inactive)
REMARK    1  A    between atoms: N_2  and  C_1 
REMARK    2  A    between atoms: N_4  and  C_1 
REMARK       I    between atoms: C_3  and  N_2 
REMARK    3  A    between atoms: C_7  and  C_3 
REMARK    4  A    between atoms: C_5  and  N_4 
REMARK    5  A    between atoms: C_18  and  C_15 
REMARK    6  A    between atoms: C_19  and  C_18 
REMARK    7  A    between atoms: C_22  and  C_19 
REMARK    8  A    between atoms: C_20  and  C_21 
REMARK    9  A    between atoms: C_21  and  C_23 
REMARK   10  A    between atoms: C_23  and  C_22 
ROOT
ATOM      1  N   UNL d   1       0.394  -2.744   0.317  0.00  0.00    -0.299 N 
ATOM      2  C   UNL d   1       0.834  -2.070   1.453  0.00  0.00     0.257 C 
ATOM      3  O   UNL d   1       0.155  -1.376   2.194  0.00  0.00    -0.267 OA
ATOM      4  H   UNL d   1       1.124  -3.065  -0.311  0.00  0.00     0.171 HD
ENDROOT
BRANCH   2   5
ATOM      5  C   UNL d   1       2.309  -2.118   1.652  0.00  0.00     0.032 A 
ATOM      6  C   UNL d   1       2.973  -0.952   2.043  0.00  0.00     0.017 A 
ATOM      7  C   UNL d   1       4.368  -0.938   2.133  0.00  0.00     0.008 A 
ATOM      8  C   UNL d   1       5.109  -2.093   1.847  0.00  0.00    -0.058 A 
ATOM      9  C   UNL d   1       4.428  -3.279   1.533  0.00  0.00     0.008 A 
ATOM     10  C   UNL d   1       3.036  -3.291   1.427  0.00  0.00     0.017 A 
BRANCH   8  11
ATOM     11  C   UNL d   1       6.619  -2.047   1.833  0.00  0.00     0.038 C 
BRANCH  11  12
ATOM     12  C   UNL d   1       7.224  -2.415   0.470  0.00  0.00     0.005 C 
BRANCH  12  13
ATOM     13  C   UNL d   1       6.793  -1.470  -0.657  0.00  0.00     0.000 C 
BRANCH  13  14
ATOM     14  C   UNL d   1       7.403  -1.895  -1.993  0.00  0.00     0.000 C 
BRANCH  14  15
ATOM     15  C   UNL d   1       6.962  -0.969  -3.126  0.00  0.00    -0.000 C 
BRANCH  15  16
ATOM     16  C   UNL d   1       7.571  -1.399  -4.459  0.00  0.00    -0.005 C 
ATOM     17  C   UNL d   1       7.140  -0.477  -5.588  0.00  0.00     0.005 C 
ENDBRANCH  15  16
ENDBRANCH  14  15
ENDBRANCH  13  14
ENDBRANCH  12  13
ENDBRANCH  11  12
ENDBRANCH   8  11
ENDBRANCH   2   5
BRANCH   1  18
ATOM     18  C   UNL d   1      -0.870  -2.981  -0.182  0.00  0.00     0.180 C 
ATOM     19  S   UNL d   1      -2.324  -2.750   0.607  0.00  0.00    -0.040 SA
BRANCH  18  20
ATOM     20  N   UNL d   1      -0.924  -3.455  -1.475  0.00  0.00    -0.319 N 
ATOM     21  H   UNL d   1      -1.864  -3.567  -1.836  0.00  0.00     0.169 HD
BRANCH  20  22
ATOM     22  C   UNL d   1       0.142  -3.757  -2.336  0.00  0.00     0.106 A 
ATOM     23  N   UNL d   1       1.409  -3.633  -1.878  0.00  0.00    -0.352 N 
ATOM     24  C   UNL d   1       2.417  -3.933  -2.729  0.00  0.00     0.089 A 
ATOM     25  HN  UNL d   1       1.598  -3.324  -0.924  1.00  0.00     0.166 HD
ATOM     26  C   UNL d   1       2.217  -4.367  -4.027  0.00  0.00     0.017 A 
ATOM     27  C   UNL d   1       0.911  -4.494  -4.479  0.00  0.00     0.005 A 
ATOM     28  C   UNL d   1      -0.148  -4.180  -3.628  0.00  0.00     0.048 A 
ENDBRANCH  20  22
ENDBRANCH  18  20
ENDBRANCH   1  18
TORSDOF 10
