REMARK  5 active torsions:
REMARK  status: ('A' for Active; 'I' for Inactive)
REMARK    1  A    between atoms: C_5  and  C_1 
REMARK    2  A    between atoms: C_10  and  N_4 
REMARK       I    between atoms: C_7  and  N_11 
REMARK       I    between atoms: N_9  and  C_7 
REMARK    3  A    between atoms: C_12  and  N_9 
REMARK    4  A    between atoms: N_11  and  C_20 
REMARK    5  A    between atoms: O_23  and  C_14 
ROOT
ATOM      1  C   UNL d   1       2.771   0.807   1.439  0.00  0.00     0.056 A 
ATOM      2  C   UNL d   1       3.027   1.981   2.161  0.00  0.00     0.034 A 
ATOM      3  C   UNL d   1       3.411   0.613   0.211  0.00  0.00     0.034 A 
ATOM      4  C   UNL d   1       4.670   2.676   0.508  0.00  0.00     0.036 A 
ATOM      5  C   UNL d   1       4.353   1.545  -0.247  0.00  0.00     0.032 A 
ATOM      6  C   UNL d   1       3.970   2.906   1.697  0.00  0.00     0.032 A 
ENDROOT
BRANCH   4   7
ATOM      7  N   UNL d   1       5.711   3.568   0.186  0.00  0.00    -0.309 N 
ATOM      8  C   UNL d   1       6.543   3.525  -0.915  0.00  0.00     0.325 C 
ATOM      9  N   UNL d   1       7.658   4.328  -0.717  0.00  0.00    -0.306 N 
ATOM     10  O   UNL d   1       6.368   2.836  -1.917  0.00  0.00    -0.247 OA
ATOM     11  H   UNL d   1       7.964   4.414   0.240  0.00  0.00     0.171 HD
ATOM     12  H   UNL d   1       5.846   4.357   0.804  0.00  0.00     0.170 HD
BRANCH   9  13
ATOM     13  C   UNL d   1       8.661   4.493  -1.696  0.00  0.00     0.069 A 
ATOM     14  C   UNL d   1      10.023   4.463  -1.352  0.00  0.00     0.095 A 
ATOM     15  C   UNL d   1      10.985   4.796  -2.314  0.00  0.00     0.039 A 
ATOM     16  C   UNL d   1      10.603   5.148  -3.611  0.00  0.00     0.003 A 
ATOM     17  C   UNL d   1       9.256   5.150  -3.959  0.00  0.00     0.002 A 
ATOM     18  C   UNL d   1       8.290   4.810  -3.011  0.00  0.00     0.032 A 
BRANCH  14  19
ATOM     19  O   UNL d   1      10.519   4.174  -0.106  0.00  0.00    -0.354 OA
ATOM     20  C   UNL d   1      10.023   2.974   0.490  0.00  0.00     0.210 C 
ENDBRANCH  14  19
ENDBRANCH   9  13
ENDBRANCH   4   7
BRANCH   1  21
ATOM     21  N   UNL d   1       1.908  -0.180   1.988  0.00  0.00    -0.267 N 
ATOM     22  N   UNL d   1       1.283   0.027   3.176  0.00  0.00    -0.290 N 
ATOM     23  C   UNL d   1       0.613  -1.111   3.439  0.00  0.00     0.134 A 
ATOM     24  HN  UNL d   1       1.314   0.870   3.750  1.00  0.00     0.187 HD
ATOM     25  C   UNL d   1       0.808  -2.058   2.406  0.00  0.00     0.055 A 
ATOM     26  C   UNL d   1       1.626  -1.436   1.494  0.00  0.00     0.119 A 
BRANCH  23  27
ATOM     27  C   UNL d   1      -0.218  -1.306   4.679  0.00  0.00     0.434 C 
ATOM     28  F   UNL d   1      -0.182  -0.251   5.535  0.00  0.00    -0.165 F 
ATOM     29  F   UNL d   1      -1.528  -1.517   4.374  0.00  0.00    -0.165 F 
ATOM     30  F   UNL d   1       0.189  -2.396   5.388  0.00  0.00    -0.165 F 
ENDBRANCH  23  27
ENDBRANCH   1  21
TORSDOF 5
