REMARK  10 active torsions:
REMARK  status: ('A' for Active; 'I' for Inactive)
REMARK    1  A    between atoms: C_2  and  S_1 
REMARK    2  A    between atoms: N_11  and  S_1 
REMARK       I    between atoms: C_5  and  N_8 
REMARK    3  A    between atoms: C_17  and  C_5 
REMARK    4  A    between atoms: C_19  and  C_6 
REMARK    5  A    between atoms: N_8  and  C_19 
REMARK    6  A    between atoms: C_20  and  N_11 
REMARK    7  A    between atoms: C_12  and  C_22 
REMARK    8  A    between atoms: C_23  and  C_20 
REMARK    9  A    between atoms: S_21  and  C_23 
REMARK   10  A    between atoms: C_22  and  S_21 
ROOT
ATOM      1  C   UNL d   1       0.289  -0.218   1.679  0.00  0.00     0.115 A 
ATOM      2  S   UNL d   1      -0.131   1.138   2.628  0.00  0.00    -0.080 SA
ATOM      3  C   UNL d   1       0.107  -1.397   2.379  0.00  0.00     0.033 A 
ATOM      4  C   UNL d   1      -0.561   0.165   3.974  0.00  0.00     0.002 A 
ATOM      5  C   UNL d   1      -0.386  -1.176   3.698  0.00  0.00     0.018 A 
ENDROOT
BRANCH   1   6
ATOM      6  S   UNL d   1       0.839   0.071   0.009  0.00  0.00     0.248 S 
ATOM      7  O   UNL d   1       0.878   1.498  -0.213  0.00  0.00    -0.205 OA
ATOM      8  O   UNL d   1       0.017  -0.808  -0.792  0.00  0.00    -0.205 OA
BRANCH   6   9
ATOM      9  N   UNL d   1       2.413  -0.533  -0.100  0.00  0.00    -0.214 NA
ATOM     10  H   UNL d   1       2.545  -0.937  -1.035  0.00  0.00     0.140 HD
BRANCH   9  11
ATOM     11  C   UNL d   1       3.508   0.403   0.251  0.00  0.00     0.114 C 
BRANCH  11  12
ATOM     12  C   UNL d   1       4.871  -0.263   0.009  0.00  0.00     0.089 C 
BRANCH  12  13
ATOM     13  S   UNL d   1       4.986  -0.769  -1.744  0.00  0.00    -0.161 SA
BRANCH  13  14
ATOM     14  C   UNL d   1       6.675  -1.455  -1.773  0.00  0.00     0.139 C 
BRANCH  14  15
ATOM     15  C   UNL d   1       6.999  -1.890  -3.157  0.00  0.00     0.061 A 
ATOM     16  O   UNL d   1       7.255  -3.217  -3.345  0.00  0.00    -0.326 OA
ATOM     17  C   UNL d   1       7.495  -3.390  -4.671  0.00  0.00     0.142 A 
ATOM     18  C   UNL d   1       7.409  -2.191  -5.339  0.00  0.00     0.027 A 
ATOM     19  C   UNL d   1       7.089  -1.220  -4.362  0.00  0.00     0.035 A 
ENDBRANCH  14  15
ENDBRANCH  13  14
ENDBRANCH  12  13
ENDBRANCH  11  12
ENDBRANCH   9  11
ENDBRANCH   6   9
ENDBRANCH   1   6
BRANCH   4  20
ATOM     20  C   UNL d   1      -1.039   0.802   5.241  0.00  0.00     0.169 C 
BRANCH  20  21
ATOM     21  N   UNL d   1      -2.481   0.905   5.214  0.00  0.00    -0.352 N 
ATOM     22  C   UNL d   1      -3.147   1.480   6.277  0.00  0.00     0.251 C 
ATOM     23  O   UNL d   1      -2.572   1.910   7.269  0.00  0.00    -0.268 OA
ATOM     24  H   UNL d   1      -2.955   0.805   4.326  0.00  0.00     0.163 HD
BRANCH  22  25
ATOM     25  C   UNL d   1      -4.632   1.572   6.169  0.00  0.00     0.032 A 
ATOM     26  C   UNL d   1      -5.373   0.649   5.419  0.00  0.00     0.017 A 
ATOM     27  C   UNL d   1      -6.770   0.728   5.393  0.00  0.00     0.001 A 
ATOM     28  C   UNL d   1      -7.429   1.723   6.114  0.00  0.00     0.000 A 
ATOM     29  C   UNL d   1      -6.698   2.645   6.862  0.00  0.00     0.001 A 
ATOM     30  C   UNL d   1      -5.301   2.568   6.892  0.00  0.00     0.017 A 
ENDBRANCH  22  25
ENDBRANCH  20  21
ENDBRANCH   4  20
TORSDOF 10
