REMARK  7 active torsions:
REMARK  status: ('A' for Active; 'I' for Inactive)
REMARK    1  A    between atoms: N_2  and  C_1 
REMARK    2  A    between atoms: N_3  and  C_1 
REMARK    3  A    between atoms: C_7  and  N_2 
REMARK    4  A    between atoms: C_12  and  N_2 
REMARK    5  A    between atoms: C_4  and  N_3 
REMARK    6  A    between atoms: C_15  and  C_7 
REMARK    7  A    between atoms: N_9  and  C_8 
ROOT
ATOM      1  N   UNL d   1       0.542  -1.306   0.734  0.00  0.00    -0.350 N 
ENDROOT
BRANCH   1   2
ATOM      2  C   UNL d   1       1.114  -0.422  -0.172  0.00  0.00     0.175 C 
ATOM      3  S   UNL d   1       2.615   0.321  -0.036  0.00  0.00    -0.041 SA
BRANCH   2   4
ATOM      4  N   UNL d   1       0.370  -0.011  -1.247  0.00  0.00    -0.332 N 
ATOM      5  H   UNL d   1       0.706   0.875  -1.624  0.00  0.00     0.168 HD
BRANCH   4   6
ATOM      6  C   UNL d   1      -0.245  -0.803  -2.256  0.00  0.00     0.056 A 
ATOM      7  C   UNL d   1      -0.629  -0.163  -3.452  0.00  0.00     0.061 A 
ATOM      8  C   UNL d   1      -1.137  -0.888  -4.535  0.00  0.00     0.033 A 
ATOM      9 CL   UNL d   1      -0.441   1.549  -3.648  0.00  0.00    -0.082 Cl
ATOM     10  C   UNL d   1      -1.275  -2.275  -4.450  0.00  0.00    -0.060 A 
ATOM     11  C   UNL d   1      -0.914  -2.915  -3.258  0.00  0.00     0.009 A 
ATOM     12  C   UNL d   1      -1.767  -3.048  -5.639  0.00  0.00     0.048 C 
ATOM     13  C   UNL d   1      -0.404  -2.187  -2.172  0.00  0.00     0.032 A 
ENDBRANCH   4   6
ENDBRANCH   2   4
ENDBRANCH   1   2
BRANCH   1  14
ATOM     14  C   UNL d   1      -0.878  -1.127   1.102  0.00  0.00     0.164 C 
BRANCH  14  15
ATOM     15  C   UNL d   1      -1.091  -0.255   2.324  0.00  0.00    -0.040 A 
ATOM     16  C   UNL d   1      -0.859   1.120   2.268  0.00  0.00     0.011 A 
ATOM     17  C   UNL d   1      -1.112   1.940   3.379  0.00  0.00     0.030 A 
ATOM     18  C   UNL d   1      -1.599   1.438   4.598  0.00  0.00     0.029 A 
ATOM     19  C   UNL d   1      -1.809   0.050   4.639  0.00  0.00     0.030 A 
ATOM     20  C   UNL d   1      -1.562  -0.783   3.531  0.00  0.00     0.011 A 
BRANCH  18  21
ATOM     21  N   UNL d   1      -1.912   2.284   5.654  0.00  0.00    -0.390 N 
ATOM     22  C   UNL d   1      -1.090   3.462   5.927  0.00  0.00     0.149 C 
ATOM     23  C   UNL d   1      -2.724   1.831   6.778  0.00  0.00     0.149 C 
ENDBRANCH  18  21
ENDBRANCH  14  15
ENDBRANCH   1  14
BRANCH   1  24
ATOM     24  C   UNL d   1       1.314  -2.244   1.595  0.00  0.00     0.079 C 
ATOM     25  C   UNL d   1       2.203  -3.185   0.770  0.00  0.00     0.032 C 
ATOM     26  C   UNL d   1       2.103  -1.608   2.741  0.00  0.00     0.032 C 
ENDBRANCH   1  24
TORSDOF 7
