REMARK  0 active torsions:
REMARK  status: ('A' for Active; 'I' for Inactive)
ROOT
ATOM      1  C   UNL d   1       0.275   0.741   0.001  0.00  0.00     0.067 A 
ATOM      2  C   UNL d   1       0.277  -0.755   0.001  0.00  0.00     0.067 A 
ATOM      3  S   UNL d   1       2.568  -0.004   0.001  0.00  0.00     0.068 SA
ATOM      4  C   UNL d   1      -0.944   1.457   0.001  0.00  0.00     0.039 A 
ATOM      5  C   UNL d   1      -0.941  -1.475   0.001  0.00  0.00     0.039 A 
ATOM      6  N   UNL d   1       1.510  -1.286   0.001  0.00  0.00    -0.310 N 
ATOM      7  HN  UNL d   1       1.750  -2.278   0.002  1.00  0.00     0.176 HD
ATOM      8  N   UNL d   1       1.506   1.275   0.001  0.00  0.00    -0.310 N 
ATOM      9  HN  UNL d   1       1.743   2.267   0.001  1.00  0.00     0.176 HD
ATOM     10  C   UNL d   1      -2.151  -0.727   0.001  0.00  0.00    -0.054 A 
ATOM     11  C   UNL d   1      -2.152   0.706   0.001  0.00  0.00    -0.054 A 
ATOM     12  C   UNL d   1      -3.410  -1.564  -0.000  0.00  0.00     0.049 C 
ATOM     13  C   UNL d   1      -3.412   1.542   0.001  0.00  0.00     0.049 C 
ENDROOT
TORSDOF 0
