REMARK  5 active torsions:
REMARK  status: ('A' for Active; 'I' for Inactive)
REMARK    1  A    between atoms: C_9  and  C_1 
REMARK    2  A    between atoms: C_8  and  N_4 
REMARK    3  A    between atoms: C_6  and  C_8 
REMARK    4  A    between atoms: O_13  and  C_9 
REMARK    5  A    between atoms: C_20  and  O_13 
ROOT
ATOM      1  C   UNL d   1      -0.404  -1.133   0.018  0.00  0.00     0.125 A 
ATOM      2  N   UNL d   1       0.872  -0.721  -0.022  0.00  0.00    -0.292 N 
ATOM      3  HN  UNL d   1       1.707  -1.302  -0.106  1.00  0.00     0.187 HD
ATOM      4  N   UNL d   1       0.817   0.620   0.072  0.00  0.00    -0.292 N 
ATOM      5  C   UNL d   1      -1.279  -0.019   0.003  0.00  0.00     0.063 A 
ATOM      6  C   UNL d   1      -0.470   1.099   0.025  0.00  0.00     0.027 A 
ATOM      7  C   UNL d   1      -0.820   2.538  -0.000  0.00  0.00     0.070 C 
ENDROOT
BRANCH   4   8
ATOM      8  C   UNL d   1       2.073   1.368  -0.002  0.00  0.00     0.191 C 
BRANCH   8   9
ATOM      9  C   UNL d   1       2.599   1.869   1.329  0.00  0.00     0.005 A 
ATOM     10  C   UNL d   1       3.038   0.993   2.345  0.00  0.00     0.043 A 
ATOM     11 CL   UNL d   1       2.986  -0.729   2.213  0.00  0.00    -0.084 Cl
ATOM     12  C   UNL d   1       3.612   1.476   3.531  0.00  0.00     0.024 A 
ATOM     13  C   UNL d   1       3.793   2.838   3.725  0.00  0.00     0.003 A 
ATOM     14  C   UNL d   1       3.376   3.724   2.741  0.00  0.00     0.024 A 
ATOM     15  C   UNL d   1       2.779   3.250   1.563  0.00  0.00     0.043 A 
ATOM     16 CL   UNL d   1       2.312   4.462   0.417  0.00  0.00    -0.084 Cl
ENDBRANCH   8   9
ENDBRANCH   4   8
BRANCH   1  17
ATOM     17  C   UNL d   1      -0.775  -2.551   0.104  0.00  0.00     0.311 C 
ATOM     18  O   UNL d   1      -1.942  -2.937   0.122  0.00  0.00    -0.258 OA
BRANCH  17  19
ATOM     19  O   UNL d   1       0.307  -3.365   0.277  0.00  0.00    -0.317 OA
BRANCH  19  20
ATOM     20  C   UNL d   1       0.038  -4.632   0.889  0.00  0.00     0.175 C 
ATOM     21  C   UNL d   1       0.016  -4.437   2.396  0.00  0.00     0.034 C 
ENDBRANCH  19  20
ENDBRANCH  17  19
ENDBRANCH   1  17
TORSDOF 5
