REMARK  4 active torsions:
REMARK  status: ('A' for Active; 'I' for Inactive)
REMARK    1  A    between atoms: C_6  and  C_1 
REMARK       I    between atoms: N_8  and  C_6 
REMARK    2  A    between atoms: C_13  and  N_8 
REMARK    3  A    between atoms: C_17  and  C_13 
REMARK    4  A    between atoms: O_15  and  C_17 
ROOT
ATOM      1  C   UNL d   1      -2.408  -0.111  -0.584  0.00  0.00     0.102 A 
ATOM      2  N   UNL d   1      -1.594   0.991  -0.437  0.00  0.00    -0.351 N 
ATOM      3  C   UNL d   1      -1.580  -1.215  -0.460  0.00  0.00     0.049 A 
ATOM      4  C   UNL d   1      -0.274   0.625  -0.314  0.00  0.00     0.044 A 
ATOM      5  C   UNL d   1      -0.234  -0.767  -0.296  0.00  0.00    -0.001 A 
ATOM      6  C   UNL d   1       1.012  -1.421  -0.148  0.00  0.00    -0.049 A 
ATOM      7  C   UNL d   1       0.874   1.423  -0.224  0.00  0.00     0.037 A 
ATOM      8  C   UNL d   1       2.173  -0.618  -0.087  0.00  0.00     0.014 A 
ATOM      9  C   UNL d   1       2.114   0.779  -0.131  0.00  0.00    -0.059 A 
ATOM     10  C   UNL d   1       1.172  -2.914  -0.096  0.00  0.00     0.049 C 
ATOM     11  C   UNL d   1       3.389   1.573  -0.114  0.00  0.00     0.048 C 
ATOM     12  H   UNL d   1      -1.937   1.943  -0.455  0.00  0.00     0.166 HD
ENDROOT
BRANCH   1  13
ATOM     13  C   UNL d   1      -3.834   0.029  -0.802  0.00  0.00     0.268 C 
ATOM     14  N   UNL d   1      -4.517  -1.150  -0.991  0.00  0.00    -0.349 N 
ATOM     15  H   UNL d   1      -3.990  -2.003  -1.090  0.00  0.00     0.163 HD
ATOM     16  O   UNL d   1      -4.384   1.124  -0.823  0.00  0.00    -0.266 OA
BRANCH  14  17
ATOM     17  C   UNL d   1      -5.963  -1.201  -1.204  0.00  0.00     0.104 C 
ATOM     18  C   UNL d   1      -6.521  -2.471  -0.559  0.00  0.00     0.034 C 
BRANCH  17  19
ATOM     19  C   UNL d   1      -6.327  -1.116  -2.701  0.00  0.00     0.191 C 
BRANCH  19  20
ATOM     20  O   UNL d   1      -7.729  -1.338  -2.876  0.00  0.00    -0.394 OA
ATOM     21  C   UNL d   1      -8.134  -1.195  -4.230  0.00  0.00     0.201 C 
ENDBRANCH  19  20
ENDBRANCH  17  19
ENDBRANCH  14  17
ENDBRANCH   1  13
TORSDOF 4
