REMARK  6 active torsions:
REMARK  status: ('A' for Active; 'I' for Inactive)
REMARK    1  A    between atoms: C_5  and  C_1 
REMARK       I    between atoms: N_8  and  C_1 
REMARK    2  A    between atoms: C_3  and  C_20 
REMARK    3  A    between atoms: C_21  and  N_8 
REMARK    4  A    between atoms: S_18  and  C_22 
REMARK    5  A    between atoms: C_20  and  S_18 
REMARK    6  A    between atoms: C_22  and  C_21 
ROOT
ATOM      1  C   UNL d   1       3.284   0.818   0.745  0.00  0.00     0.133 C 
ENDROOT
BRANCH   1   2
ATOM      2  N   UNL d   1       2.543   0.185  -0.332  0.00  0.00    -0.356 N 
ATOM      3  C   UNL d   1       2.365  -1.178  -0.406  0.00  0.00     0.251 C 
ATOM      4  O   UNL d   1       2.933  -1.984   0.322  0.00  0.00    -0.268 OA
ATOM      5  H   UNL d   1       2.125   0.785  -1.030  0.00  0.00     0.162 HD
BRANCH   3   6
ATOM      6  C   UNL d   1       1.430  -1.644  -1.467  0.00  0.00     0.032 A 
ATOM      7  C   UNL d   1       0.284  -0.907  -1.800  0.00  0.00     0.018 A 
ATOM      8  C   UNL d   1      -0.555  -1.346  -2.828  0.00  0.00     0.025 A 
ATOM      9  C   UNL d   1      -0.253  -2.522  -3.513  0.00  0.00     0.034 A 
ATOM     10  C   UNL d   1       0.863  -3.280  -3.163  0.00  0.00     0.025 A 
ATOM     11 CL   UNL d   1      -1.266  -3.037  -4.804  0.00  0.00    -0.084 Cl
ATOM     12  C   UNL d   1       1.702  -2.847  -2.129  0.00  0.00     0.018 A 
ENDBRANCH   3   6
ENDBRANCH   1   2
BRANCH   1  13
ATOM     13  C   UNL d   1       4.800   0.606   0.674  0.00  0.00     0.093 C 
BRANCH  13  14
ATOM     14  S   UNL d   1       5.569   1.570   2.015  0.00  0.00    -0.163 SA
BRANCH  14  15
ATOM     15  C   UNL d   1       7.322   1.132   1.755  0.00  0.00     0.114 C 
BRANCH  15  16
ATOM     16  C   UNL d   1       8.170   1.822   2.801  0.00  0.00    -0.027 A 
ATOM     17  C   UNL d   1       8.688   3.118   2.628  0.00  0.00     0.042 A 
ATOM     18  C   UNL d   1       9.358   3.765   3.671  0.00  0.00     0.048 A 
ATOM     19 CL   UNL d   1       8.515   3.981   1.140  0.00  0.00    -0.084 Cl
ATOM     20  C   UNL d   1       9.520   3.122   4.893  0.00  0.00     0.035 A 
ATOM     21  C   UNL d   1       9.037   1.830   5.082  0.00  0.00     0.024 A 
ATOM     22 CL   UNL d   1      10.310   3.934   6.189  0.00  0.00    -0.084 Cl
ATOM     23  C   UNL d   1       8.363   1.185   4.042  0.00  0.00     0.011 A 
ENDBRANCH  15  16
ENDBRANCH  14  15
ENDBRANCH  13  14
ENDBRANCH   1  13
TORSDOF 6
