REMARK  4 active torsions:
REMARK  status: ('A' for Active; 'I' for Inactive)
REMARK    1  A    between atoms: S_9  and  C_5 
REMARK    2  A    between atoms: C_23  and  S_9 
REMARK    3  A    between atoms: C_12  and  C_23 
REMARK       I    between atoms: N_15  and  C_12 
REMARK    4  A    between atoms: C_16  and  N_15 
ROOT
ATOM      1  C   UNL d   1       2.240  -2.786   0.060  0.00  0.00     0.185 C 
ENDROOT
BRANCH   1   2
ATOM      2  C   UNL d   1       2.742  -4.219   0.063  0.00  0.00     0.231 C 
ATOM      3  N   UNL d   1       1.842  -5.212  -0.269  0.00  0.00    -0.326 N 
ATOM      4  H   UNL d   1       0.920  -4.905  -0.557  0.00  0.00     0.169 HD
ATOM      5  O   UNL d   1       3.938  -4.405   0.300  0.00  0.00    -0.272 OA
BRANCH   3   6
ATOM      6  C   UNL d   1       2.129  -6.594  -0.397  0.00  0.00     0.037 A 
ATOM      7  C   UNL d   1       3.324  -7.174   0.043  0.00  0.00     0.069 A 
ATOM      8  C   UNL d   1       3.603  -8.515  -0.217  0.00  0.00     0.104 A 
ATOM      9  O   UNL d   1       4.830  -8.973   0.192  0.00  0.00    -0.346 OA
ATOM     10  C   UNL d   1       2.672  -9.315  -0.875  0.00  0.00     0.102 A 
ATOM     11  C   UNL d   1       5.204 -10.135  -0.553  0.00  0.00     0.202 C 
ATOM     12  C   UNL d   1       4.071 -11.148  -0.549  0.00  0.00     0.202 C 
ATOM     13  O   UNL d   1       2.896 -10.631  -1.188  0.00  0.00    -0.346 OA
ATOM     14  C   UNL d   1       1.455  -8.766  -1.272  0.00  0.00     0.042 A 
ATOM     15  C   UNL d   1       1.182  -7.412  -1.028  0.00  0.00     0.032 A 
ENDBRANCH   3   6
ENDBRANCH   1   2
BRANCH   1  16
ATOM     16  S   UNL d   1       0.443  -2.575  -0.057  0.00  0.00    -0.083 SA
BRANCH  16  17
ATOM     17  C   UNL d   1       0.379  -0.849  -0.230  0.00  0.00     0.163 A 
ATOM     18  N   UNL d   1      -0.781  -0.117  -0.279  0.00  0.00    -0.314 N 
ATOM     19  C   UNL d   1      -0.383   1.182  -0.491  0.00  0.00     0.158 A 
ATOM     20  C   UNL d   1      -2.122  -0.627  -0.166  0.00  0.00     0.160 C 
ATOM     21  N   UNL d   1       0.934   1.222  -0.544  0.00  0.00    -0.281 N 
ATOM     22  C   UNL d   1      -1.220   2.328  -0.679  0.00  0.00     0.120 A 
ATOM     23  N   UNL d   1       1.411  -0.052  -0.368  0.00  0.00    -0.278 N 
ATOM     24  HN  UNL d   1       1.501   2.058  -0.691  1.00  0.00     0.188 HD
ATOM     25  HN  UNL d   1       2.393  -0.330  -0.349  1.00  0.00     0.189 HD
ATOM     26  O   UNL d   1      -2.533   2.397  -0.284  0.00  0.00    -0.319 OA
ATOM     27  C   UNL d   1      -0.883   3.532  -1.279  0.00  0.00     0.043 A 
ATOM     28  C   UNL d   1      -3.015   3.612  -0.648  0.00  0.00     0.142 A 
ATOM     29  C   UNL d   1      -2.040   4.347  -1.275  0.00  0.00     0.027 A 
ENDBRANCH  16  17
ENDBRANCH   1  16
TORSDOF 4
