REMARK  7 active torsions:
REMARK  status: ('A' for Active; 'I' for Inactive)
REMARK    1  A    between atoms: C_2  and  C_1 
REMARK       I    between atoms: N_7  and  C_1 
REMARK    2  A    between atoms: C_3  and  N_8 
REMARK    3  A    between atoms: N_5  and  C_3 
REMARK    4  A    between atoms: C_6  and  N_5 
REMARK    5  A    between atoms: C_13  and  N_7 
REMARK    6  A    between atoms: N_8  and  C_15 
REMARK    7  A    between atoms: O_17  and  C_10 
ROOT
ATOM      1  C   UNL d   1      -1.187   1.181  -0.472  0.00  0.00     0.035 A 
ATOM      2  C   UNL d   1      -3.986   1.407  -0.142  0.00  0.00     0.034 A 
ATOM      3  C   UNL d   1      -1.967   0.063  -0.183  0.00  0.00     0.032 A 
ATOM      4  C   UNL d   1      -1.836   2.409  -0.668  0.00  0.00     0.032 A 
ATOM      5  C   UNL d   1      -3.228   2.520  -0.504  0.00  0.00     0.032 A 
ATOM      6  C   UNL d   1      -3.348   0.174  -0.008  0.00  0.00     0.032 A 
ENDROOT
BRANCH   2   7
ATOM      7  N   UNL d   1      -5.335   1.467   0.252  0.00  0.00    -0.333 N 
ATOM      8  H   UNL d   1      -5.683   0.666   0.768  0.00  0.00     0.168 HD
BRANCH   7   9
ATOM      9  C   UNL d   1      -6.308   2.380  -0.044  0.00  0.00     0.176 C 
ATOM     10  S   UNL d   1      -6.513   3.154  -1.512  0.00  0.00    -0.041 SA
BRANCH   9  11
ATOM     11  N   UNL d   1      -7.277   2.553   0.912  0.00  0.00    -0.332 N 
ATOM     12  H   UNL d   1      -8.136   2.962   0.550  0.00  0.00     0.168 HD
BRANCH  11  13
ATOM     13  C   UNL d   1      -7.146   2.653   2.329  0.00  0.00     0.058 A 
ATOM     14  C   UNL d   1      -8.286   3.020   3.082  0.00  0.00     0.082 A 
ATOM     15  C   UNL d   1      -8.169   3.296   4.454  0.00  0.00     0.058 A 
ATOM     16 CL   UNL d   1      -9.825   3.151   2.281  0.00  0.00    -0.080 Cl
ATOM     17 CL   UNL d   1      -9.507   3.819   5.418  0.00  0.00    -0.082 Cl
ATOM     18  C   UNL d   1      -6.931   3.184   5.088  0.00  0.00     0.026 A 
ATOM     19  C   UNL d   1      -5.813   2.787   4.361  0.00  0.00     0.004 A 
ATOM     20  C   UNL d   1      -5.919   2.529   2.991  0.00  0.00     0.031 A 
ENDBRANCH  11  13
ENDBRANCH   9  11
ENDBRANCH   7   9
ENDBRANCH   2   7
BRANCH   1  21
ATOM     21  N   UNL d   1       0.225   1.139  -0.571  0.00  0.00    -0.323 N 
ATOM     22  C   UNL d   1       1.029   0.039  -0.299  0.00  0.00     0.259 C 
ATOM     23  O   UNL d   1       0.652  -1.048   0.119  0.00  0.00    -0.267 OA
ATOM     24  H   UNL d   1       0.668   1.995  -0.878  0.00  0.00     0.169 HD
BRANCH  22  25
ATOM     25  C   UNL d   1       2.488   0.169  -0.583  0.00  0.00     0.065 A 
ATOM     26  C   UNL d   1       3.218  -0.990  -0.899  0.00  0.00     0.081 A 
ATOM     27  C   UNL d   1       4.567  -0.922  -1.238  0.00  0.00     0.037 A 
ATOM     28  C   UNL d   1       5.214   0.310  -1.244  0.00  0.00     0.003 A 
ATOM     29  C   UNL d   1       4.517   1.464  -0.880  0.00  0.00     0.001 A 
ATOM     30  C   UNL d   1       3.160   1.398  -0.545  0.00  0.00     0.020 A 
BRANCH  26  31
ATOM     31  O   UNL d   1       2.670  -2.249  -0.893  0.00  0.00    -0.360 OA
ATOM     32  H   UNL d   1       1.783  -2.186  -0.473  0.00  0.00     0.217 HD
ENDBRANCH  26  31
ENDBRANCH  22  25
ENDBRANCH   1  21
TORSDOF 7
