REMARK  4 active torsions:
REMARK  status: ('A' for Active; 'I' for Inactive)
REMARK    1  A    between atoms: S_11  and  C_1 
REMARK    2  A    between atoms: C_6  and  C_3 
REMARK    3  A    between atoms: C_9  and  C_7 
REMARK    4  A    between atoms: C_20  and  S_11 
ROOT
ATOM      1  C   UNL d   1      -0.182  -1.081  -0.095  0.00  0.00     0.097 A 
ATOM      2  C   UNL d   1       0.587   0.086  -0.137  0.00  0.00     0.093 A 
ATOM      3  C   UNL d   1      -0.085   1.319  -0.133  0.00  0.00     0.073 A 
ATOM      4  N   UNL d   1      -1.540  -1.072  -0.123  0.00  0.00    -0.348 N 
ATOM      5  HN  UNL d   1      -2.066  -1.946  -0.099  1.00  0.00     0.166 HD
ATOM      6  C   UNL d   1      -2.182   0.115  -0.184  0.00  0.00     0.051 A 
ATOM      7  C   UNL d   1      -1.492   1.318  -0.153  0.00  0.00     0.048 A 
ATOM      8  C   UNL d   1       2.015  -0.001  -0.198  0.00  0.00     0.103 C 
ATOM      9  N   UNL d   1       3.171  -0.080  -0.282  0.00  0.00    -0.191 NA
ENDROOT
BRANCH   1  10
ATOM     10  S   UNL d   1       0.538  -2.698   0.171  0.00  0.00    -0.071 SA
BRANCH  10  11
ATOM     11  C   UNL d   1       0.672  -3.349  -1.480  0.00  0.00     0.007 A 
ATOM     12  C   UNL d   1       1.932  -3.733  -1.958  0.00  0.00     0.020 A 
ATOM     13  C   UNL d   1       2.059  -4.352  -3.205  0.00  0.00     0.025 A 
ATOM     14  C   UNL d   1       0.924  -4.593  -3.975  0.00  0.00     0.034 A 
ATOM     15  C   UNL d   1      -0.334  -4.208  -3.515  0.00  0.00     0.025 A 
ATOM     16 CL   UNL d   1       1.073  -5.388  -5.494  0.00  0.00    -0.084 Cl
ATOM     17  C   UNL d   1      -0.459  -3.589  -2.266  0.00  0.00     0.020 A 
ENDBRANCH  10  11
ENDBRANCH   1  10
BRANCH   3  18
ATOM     18  C   UNL d   1       0.602   2.660  -0.088  0.00  0.00     0.419 C 
ATOM     19  F   UNL d   1       1.955   2.622  -0.050  0.00  0.00    -0.166 F 
ATOM     20  F   UNL d   1       0.277   3.429  -1.163  0.00  0.00    -0.166 F 
ATOM     21  F   UNL d   1       0.222   3.377   1.007  0.00  0.00    -0.166 F 
ENDBRANCH   3  18
BRANCH   6  22
ATOM     22  C   UNL d   1      -3.644   0.013  -0.289  0.00  0.00     0.031 A 
ATOM     23  S   UNL d   1      -4.575   1.268  -1.012  0.00  0.00    -0.100 SA
ATOM     24  C   UNL d   1      -6.036   0.407  -0.818  0.00  0.00     0.050 A 
ATOM     25  C   UNL d   1      -5.838  -0.811  -0.211  0.00  0.00     0.008 A 
ATOM     26  C   UNL d   1      -4.463  -1.038   0.090  0.00  0.00     0.021 A 
ENDBRANCH   6  22
TORSDOF 4
