REMARK  5 active torsions:
REMARK  status: ('A' for Active; 'I' for Inactive)
REMARK    1  A    between atoms: N_3  and  C_1 
REMARK    2  A    between atoms: N_5  and  C_1 
REMARK       I    between atoms: C_2  and  N_4 
REMARK    3  A    between atoms: O_7  and  C_2 
REMARK    4  A    between atoms: C_6  and  N_5 
REMARK    5  A    between atoms: C_14  and  O_7 
ROOT
ATOM      1  C   UNL d   1      -2.994   2.131   3.388  0.00  0.00     0.363 C 
ATOM      2  N   UNL d   1       0.061   0.331   1.359  0.00  0.00    -0.356 N 
ATOM      3  N   UNL d   1      -2.401   1.875   2.164  0.00  0.00    -0.326 N 
ATOM      4  O   UNL d   1      -3.377   1.247   4.145  0.00  0.00    -0.238 OA
ATOM      5  C   UNL d   1      -1.174  -0.288   1.857  0.00  0.00     0.145 C 
ATOM      6  C   UNL d   1      -2.449   0.519   1.623  0.00  0.00     0.148 C 
ATOM      7  C   UNL d   1      -0.165   2.828   1.476  0.00  0.00     0.040 C 
ATOM      8  C   UNL d   1       0.482   1.559   2.038  0.00  0.00     0.127 C 
ATOM      9  C   UNL d   1      -1.695   2.871   1.370  0.00  0.00     0.129 C 
ENDROOT
BRANCH   2  10
ATOM     10  C   UNL d   1       0.643  -0.020   0.150  0.00  0.00     0.174 C 
ATOM     11  S   UNL d   1      -0.195  -0.267  -1.277  0.00  0.00    -0.041 SA
BRANCH  10  12
ATOM     12  N   UNL d   1       2.014  -0.080   0.127  0.00  0.00    -0.332 N 
ATOM     13  H   UNL d   1       2.449   0.073  -0.777  0.00  0.00     0.168 HD
BRANCH  12  14
ATOM     14  C   UNL d   1       2.845  -0.719   1.092  0.00  0.00     0.056 A 
ATOM     15  C   UNL d   1       4.240  -0.570   1.015  0.00  0.00     0.062 A 
ATOM     16  C   UNL d   1       5.083  -1.224   1.921  0.00  0.00     0.050 A 
ATOM     17 CL   UNL d   1       4.968   0.444  -0.182  0.00  0.00    -0.082 Cl
ATOM     18  C   UNL d   1       4.533  -2.059   2.892  0.00  0.00     0.035 A 
ATOM     19  C   UNL d   1       3.157  -2.243   2.964  0.00  0.00     0.026 A 
ATOM     20 CL   UNL d   1       5.561  -2.884   3.998  0.00  0.00    -0.084 Cl
ATOM     21  C   UNL d   1       2.318  -1.572   2.070  0.00  0.00     0.033 A 
ENDBRANCH  12  14
ENDBRANCH  10  12
ENDBRANCH   2  10
BRANCH   1  22
ATOM     22  O   UNL d   1      -3.152   3.459   3.620  0.00  0.00    -0.294 OA
BRANCH  22  23
ATOM     23  C   UNL d   1      -3.902   3.942   4.768  0.00  0.00     0.061 C 
ATOM     24  C   UNL d   1      -3.116   3.703   6.058  0.00  0.00     0.046 C 
ATOM     25  C   UNL d   1      -4.040   5.455   4.536  0.00  0.00     0.046 C 
ATOM     26  C   UNL d   1      -5.316   3.346   4.843  0.00  0.00     0.046 C 
ENDBRANCH  22  23
ENDBRANCH   1  22
TORSDOF 5
