REMARK  7 active torsions:
REMARK  status: ('A' for Active; 'I' for Inactive)
REMARK    1  A    between atoms: C_13  and  N_1 
REMARK    2  A    between atoms: C_7  and  O_12 
REMARK    3  A    between atoms: C_15  and  C_7 
REMARK    4  A    between atoms: O_12  and  N_8 
REMARK    5  A    between atoms: C_10  and  C_11 
REMARK    6  A    between atoms: N_16  and  C_10 
REMARK    7  A    between atoms: C_11  and  C_13 
ROOT
ATOM      1  N   UNL d   1       4.108  -3.187  -0.557  0.00  0.00    -0.245 N 
ATOM      2  HN  UNL d   1       4.808  -3.738  -1.054  1.00  0.00     0.196 HD
ATOM      3  C   UNL d   1       3.075  -3.693   0.039  0.00  0.00     0.097 C 
ENDROOT
BRANCH   3   4
ATOM      4  C   UNL d   1       2.857  -5.197  -0.033  0.00  0.00     0.099 C 
BRANCH   4   5
ATOM      5  C   UNL d   1       4.148  -6.011  -0.064  0.00  0.00     0.156 C 
BRANCH   5   6
ATOM      6  N   UNL d   1       3.883  -7.445  -0.076  0.00  0.00    -0.296 N 
ATOM      7  N   UNL d   1       3.183  -7.964   0.959  0.00  0.00    -0.303 N 
ATOM      8  C   UNL d   1       3.085  -9.267   0.684  0.00  0.00     0.024 A 
ATOM      9  HN  UNL d   1       2.812  -7.469   1.770  1.00  0.00     0.186 HD
ATOM     10  C   UNL d   1       2.368 -10.190   1.595  0.00  0.00     0.070 C 
ATOM     11  C   UNL d   1       3.728  -9.589  -0.524  0.00  0.00     0.052 A 
ATOM     12  C   UNL d   1       4.247  -8.399  -0.999  0.00  0.00     0.026 A 
ATOM     13  C   UNL d   1       5.036  -8.178  -2.236  0.00  0.00     0.070 C 
ENDBRANCH   5   6
ENDBRANCH   4   5
ENDBRANCH   3   4
BRANCH   3  14
ATOM     14  N   UNL d   1       2.111  -2.960   0.687  0.00  0.00    -0.387 N 
ATOM     15  H   UNL d   1       2.110  -1.973   0.460  0.00  0.00     0.157 HD
ATOM     16  H   UNL d   1       1.190  -3.373   0.770  0.00  0.00     0.157 HD
ENDBRANCH   3  14
BRANCH   1  17
ATOM     17  O   UNL d   1       4.149  -1.778  -0.434  0.00  0.00    -0.193 OA
BRANCH  17  18
ATOM     18  C   UNL d   1       5.316  -1.304  -0.966  0.00  0.00     0.315 C 
ATOM     19  O   UNL d   1       6.232  -1.954  -1.451  0.00  0.00    -0.257 OA
BRANCH  18  20
ATOM     20  C   UNL d   1       5.384   0.175  -0.833  0.00  0.00     0.041 A 
ATOM     21  C   UNL d   1       4.241   0.985  -0.778  0.00  0.00     0.017 A 
ATOM     22  C   UNL d   1       4.374   2.375  -0.678  0.00  0.00     0.001 A 
ATOM     23  C   UNL d   1       5.641   2.959  -0.631  0.00  0.00     0.000 A 
ATOM     24  C   UNL d   1       6.780   2.159  -0.694  0.00  0.00     0.001 A 
ATOM     25  C   UNL d   1       6.653   0.773  -0.801  0.00  0.00     0.017 A 
ENDBRANCH  18  20
ENDBRANCH  17  18
ENDBRANCH   1  17
TORSDOF 7
