REMARK  8 active torsions:
REMARK  status: ('A' for Active; 'I' for Inactive)
REMARK    1  A    between atoms: C_1  and  O_8 
REMARK    2  A    between atoms: C_2  and  O_12 
REMARK    3  A    between atoms: C_3  and  O_15 
REMARK    4  A    between atoms: N_4  and  C_9 
REMARK    5  A    between atoms: C_6  and  O_17 
REMARK    6  A    between atoms: C_7  and  C_20 
REMARK    7  A    between atoms: C_16  and  O_8 
REMARK    8  A    between atoms: O_21  and  C_20 
ROOT
ATOM      1  C   UNL d   1       1.088   1.394  -0.282  0.00  0.00     0.298 C 
ATOM      2  C   UNL d   1       1.162  -0.025   0.322  0.00  0.00     0.205 C 
ATOM      3  C   UNL d   1      -0.065  -0.831  -0.126  0.00  0.00     0.183 C 
ATOM      4  O   UNL d   1      -0.101   2.053   0.168  0.00  0.00    -0.348 OA
ATOM      5  C   UNL d   1      -1.357  -0.077   0.238  0.00  0.00     0.180 C 
ATOM      6  C   UNL d   1      -1.305   1.380  -0.250  0.00  0.00     0.179 C 
ENDROOT
BRANCH   1   7
ATOM      7  O   UNL d   1       1.165   1.314  -1.714  0.00  0.00    -0.318 OA
BRANCH   7   8
ATOM      8  C   UNL d   1       1.725   2.374  -2.372  0.00  0.00     0.072 A 
ATOM      9  C   UNL d   1       2.180   2.101  -3.667  0.00  0.00     0.039 A 
ATOM     10  C   UNL d   1       2.804   3.096  -4.431  0.00  0.00     0.039 A 
ATOM     11  C   UNL d   1       2.963   4.375  -3.888  0.00  0.00     0.103 A 
ATOM     12  C   UNL d   1       2.478   4.666  -2.606  0.00  0.00     0.039 A 
ATOM     13  C   UNL d   1       1.850   3.665  -1.857  0.00  0.00     0.039 A 
BRANCH  11  14
ATOM     14  N   UNL d   1       3.644   5.420  -4.662  0.00  0.00    -0.116 N 
ATOM     15  O   UNL d   1       3.788   6.532  -4.124  0.00  0.00    -0.532 OA
ATOM     16  O   UNL d   1       4.043   5.134  -5.795  0.00  0.00    -0.532 OA
ENDBRANCH  11  14
ENDBRANCH   7   8
ENDBRANCH   1   7
BRANCH   2  17
ATOM     17  O   UNL d   1       2.361  -0.722  -0.042  0.00  0.00    -0.388 OA
ATOM     18  H   UNL d   1       3.100  -0.089  -0.063  0.00  0.00     0.210 HD
ENDBRANCH   2  17
BRANCH   3  19
ATOM     19  O   UNL d   1      -0.098  -2.139   0.468  0.00  0.00    -0.390 OA
ATOM     20  H   UNL d   1       0.239  -2.076   1.378  0.00  0.00     0.210 HD
ENDBRANCH   3  19
BRANCH   6  21
ATOM     21  C   UNL d   1      -2.499   2.187   0.285  0.00  0.00     0.198 C 
BRANCH  21  22
ATOM     22  O   UNL d   1      -2.453   2.291   1.710  0.00  0.00    -0.398 OA
ATOM     23  H   UNL d   1      -1.612   2.741   1.919  0.00  0.00     0.209 HD
ENDBRANCH  21  22
ENDBRANCH   6  21
BRANCH   5  24
ATOM     24  O   UNL d   1      -2.508  -0.723  -0.323  0.00  0.00    -0.390 OA
ATOM     25  H   UNL d   1      -2.213  -1.305  -1.046  0.00  0.00     0.210 HD
ENDBRANCH   5  24
TORSDOF 8
