REMARK  2 active torsions:
REMARK  status: ('A' for Active; 'I' for Inactive)
REMARK    1  A    between atoms: N_6  and  C_1 
REMARK    2  A    between atoms: N_5  and  C_2 
ROOT
ATOM      1  C   UNL d   1       0.642  -1.531   0.053  0.00  0.00     0.116 A 
ATOM      2  C   UNL d   1      -0.729  -1.508  -0.072  0.00  0.00     0.116 A 
ATOM      3  C   UNL d   1       0.709  -0.045   0.141  0.00  0.00     0.252 A 
ATOM      4  C   UNL d   1      -0.749  -0.022  -0.123  0.00  0.00     0.252 A 
ATOM      5  O   UNL d   1       1.532   0.825   0.273  0.00  0.00    -0.281 OA
ATOM      6  O   UNL d   1      -1.548   0.877  -0.229  0.00  0.00    -0.281 OA
ENDROOT
BRANCH   1   7
ATOM      7  N   UNL d   1       1.622  -2.415   0.099  0.00  0.00    -0.372 N 
ATOM      8  C   UNL d   1       1.556  -3.719  -0.585  0.00  0.00     0.149 C 
ATOM      9  C   UNL d   1       2.859  -3.966  -1.367  0.00  0.00     0.187 C 
ATOM     10  O   UNL d   1       4.012  -3.866  -0.516  0.00  0.00    -0.388 OA
ATOM     11  C   UNL d   1       4.093  -2.549   0.056  0.00  0.00     0.187 C 
ATOM     12  C   UNL d   1       2.849  -2.225   0.893  0.00  0.00     0.149 C 
ENDBRANCH   1   7
BRANCH   2  13
ATOM     13  N   UNL d   1      -1.730  -2.370  -0.143  0.00  0.00    -0.372 N 
ATOM     14  C   UNL d   1      -1.714  -3.670   0.552  0.00  0.00     0.149 C 
ATOM     15  C   UNL d   1      -2.946  -3.784   1.468  0.00  0.00     0.187 C 
ATOM     16  O   UNL d   1      -4.164  -3.611   0.726  0.00  0.00    -0.388 OA
ATOM     17  C   UNL d   1      -4.197  -2.307   0.121  0.00  0.00     0.187 C 
ATOM     18  C   UNL d   1      -3.007  -2.088  -0.823  0.00  0.00     0.149 C 
ENDBRANCH   2  13
TORSDOF 2
