REMARK  7 active torsions:
REMARK  status: ('A' for Active; 'I' for Inactive)
REMARK    1  A    between atoms: C_4  and  C_1 
REMARK    2  A    between atoms: C_2  and  N_7 
REMARK    3  A    between atoms: N_6  and  C_2 
REMARK       I    between atoms: C_3  and  N_5 
REMARK    4  A    between atoms: C_9  and  C_3 
REMARK    5  A    between atoms: N_5  and  N_6 
REMARK    6  A    between atoms: N_7  and  C_11 
REMARK    7  A    between atoms: O_21  and  C_18 
ROOT
ATOM      1  C   UNL d   1      -1.898  -0.489  -3.767  0.00  0.00     0.191 C 
ATOM      2  S   UNL d   1      -1.379   1.052  -3.350  0.00  0.00    -0.039 SA
ENDROOT
BRANCH   1   3
ATOM      3  N   UNL d   1      -2.349  -0.676  -5.043  0.00  0.00    -0.332 N 
ATOM      4  H   UNL d   1      -2.427   0.206  -5.540  0.00  0.00     0.168 HD
BRANCH   3   5
ATOM      5  C   UNL d   1      -2.554  -1.827  -5.837  0.00  0.00     0.035 A 
ATOM      6  C   UNL d   1      -2.307  -3.144  -5.439  0.00  0.00     0.045 A 
ATOM      7  C   UNL d   1      -2.452  -4.218  -6.339  0.00  0.00     0.050 A 
ATOM      8  C   UNL d   1      -2.853  -3.960  -7.656  0.00  0.00     0.016 A 
ATOM      9  C   UNL d   1      -3.107  -2.654  -8.064  0.00  0.00     0.003 A 
ATOM     10  C   UNL d   1      -2.961  -1.600  -7.159  0.00  0.00     0.029 A 
BRANCH   7  11
ATOM     11  C   UNL d   1      -2.116  -5.629  -5.915  0.00  0.00     0.417 C 
ATOM     12  F   UNL d   1      -1.856  -5.753  -4.584  0.00  0.00    -0.166 F 
ATOM     13  F   UNL d   1      -1.013  -6.106  -6.555  0.00  0.00    -0.166 F 
ATOM     14  F   UNL d   1      -3.116  -6.512  -6.185  0.00  0.00    -0.166 F 
ENDBRANCH   7  11
ENDBRANCH   3   5
ENDBRANCH   1   3
BRANCH   1  15
ATOM     15  N   UNL d   1      -1.878  -1.564  -2.924  0.00  0.00    -0.273 N 
ATOM     16  H   UNL d   1      -2.656  -2.218  -3.025  0.00  0.00     0.189 HD
BRANCH  15  17
ATOM     17  N   UNL d   1      -1.492  -1.427  -1.579  0.00  0.00    -0.264 N 
ATOM     18  C   UNL d   1      -2.104  -2.261  -0.671  0.00  0.00     0.270 C 
ATOM     19  O   UNL d   1      -2.906  -3.127  -1.022  0.00  0.00    -0.266 OA
ATOM     20  H   UNL d   1      -0.741  -0.776  -1.369  0.00  0.00     0.190 HD
BRANCH  18  21
ATOM     21  C   UNL d   1      -1.767  -2.084   0.761  0.00  0.00     0.033 A 
ATOM     22  C   UNL d   1      -1.363  -0.851   1.285  0.00  0.00     0.020 A 
ATOM     23  C   UNL d   1      -1.141  -0.714   2.661  0.00  0.00     0.038 A 
ATOM     24  C   UNL d   1      -1.318  -1.805   3.514  0.00  0.00     0.068 A 
ATOM     25  C   UNL d   1      -1.730  -3.032   2.989  0.00  0.00     0.038 A 
ATOM     26  C   UNL d   1      -1.950  -3.175   1.618  0.00  0.00     0.020 A 
BRANCH  24  27
ATOM     27  O   UNL d   1      -1.169  -1.785   4.873  0.00  0.00    -0.356 OA
ATOM     28  C   UNL d   1      -0.333  -0.758   5.393  0.00  0.00     0.210 C 
ENDBRANCH  24  27
ENDBRANCH  18  21
ENDBRANCH  15  17
ENDBRANCH   1  15
TORSDOF 7
