REMARK  3 active torsions:
REMARK  status: ('A' for Active; 'I' for Inactive)
REMARK    1  A    between atoms: C_9  and  C_1 
REMARK       I    between atoms: C_5  and  N_8 
REMARK       I    between atoms: N_7  and  C_5 
REMARK    2  A    between atoms: C_14  and  N_7 
REMARK    3  A    between atoms: N_8  and  C_9 
ROOT
ATOM      1  C   UNL d   1       4.055  -3.847  -0.124  0.00  0.00     0.320 C 
ATOM      2  N   UNL d   1       5.416  -3.922  -0.337  0.00  0.00    -0.309 N 
ATOM      3  N   UNL d   1       3.593  -2.556  -0.054  0.00  0.00    -0.339 N 
ATOM      4  O   UNL d   1       3.299  -4.798   0.011  0.00  0.00    -0.247 OA
ATOM      5  H   UNL d   1       5.945  -3.083  -0.174  0.00  0.00     0.170 HD
ATOM      6  H   UNL d   1       4.220  -1.779  -0.175  0.00  0.00     0.164 HD
ENDROOT
BRANCH   3   7
ATOM      7  C   UNL d   1       2.187  -2.293   0.172  0.00  0.00     0.164 C 
BRANCH   7   8
ATOM      8  C   UNL d   1       1.627  -1.516  -0.981  0.00  0.00    -0.022 A 
ATOM      9  C   UNL d   1       1.514  -2.010  -2.342  0.00  0.00    -0.009 A 
ATOM     10  C   UNL d   1       0.972  -1.048  -3.200  0.00  0.00     0.015 A 
ATOM     11  C   UNL d   1       1.871  -3.264  -2.904  0.00  0.00     0.037 A 
ATOM     12  C   UNL d   1       0.815  -1.287  -4.581  0.00  0.00     0.021 A 
ATOM     13  S   UNL d   1       0.546   0.384  -2.349  0.00  0.00    -0.101 SA
ATOM     14  C   UNL d   1       1.213  -2.519  -5.106  0.00  0.00     0.025 A 
ATOM     15  C   UNL d   1       1.728  -3.498  -4.272  0.00  0.00     0.035 A 
ATOM     16 CL   UNL d   1       2.210  -5.014  -4.928  0.00  0.00    -0.084 Cl
ATOM     17  C   UNL d   1       1.106  -0.241  -0.868  0.00  0.00     0.060 A 
ENDBRANCH   7   8
ENDBRANCH   3   7
BRANCH   2  18
ATOM     18  C   UNL d   1       6.149  -5.131  -0.423  0.00  0.00     0.036 A 
ATOM     19  C   UNL d   1       5.556  -6.362  -0.716  0.00  0.00     0.029 A 
ATOM     20  C   UNL d   1       6.296  -7.546  -0.655  0.00  0.00     0.002 A 
ATOM     21  C   UNL d   1       7.647  -7.505  -0.325  0.00  0.00     0.000 A 
ATOM     22  C   UNL d   1       8.265  -6.277  -0.104  0.00  0.00     0.002 A 
ATOM     23  C   UNL d   1       7.525  -5.090  -0.170  0.00  0.00     0.029 A 
ENDBRANCH   2  18
TORSDOF 3
