REMARK  5 active torsions:
REMARK  status: ('A' for Active; 'I' for Inactive)
REMARK    1  A    between atoms: C_2  and  C_1 
REMARK       I    between atoms: N_3  and  C_1 
REMARK       I    between atoms: N_4  and  C_2 
REMARK    2  A    between atoms: N_8  and  N_3 
REMARK    3  A    between atoms: N_7  and  N_4 
REMARK       I    between atoms: C_5  and  N_8 
REMARK    4  A    between atoms: C_9  and  C_5 
REMARK       I    between atoms: C_6  and  N_7 
REMARK    5  A    between atoms: C_10  and  C_6 
ROOT
ATOM      1  C   UNL d   1       0.861   0.029  -0.002  0.00  0.00     0.329 C 
ATOM      2  N   UNL d   1       2.234   0.059  -0.168  0.00  0.00    -0.259 N 
ATOM      3  O   UNL d   1       0.204   0.894   0.566  0.00  0.00    -0.261 OA
ATOM      4  H   UNL d   1       2.746  -0.685  -0.647  0.00  0.00     0.190 HD
ENDROOT
BRANCH   1   5
ATOM      5  C   UNL d   1       0.174  -1.234  -0.559  0.00  0.00     0.329 C 
ATOM      6  N   UNL d   1      -1.207  -1.164  -0.575  0.00  0.00    -0.259 N 
ATOM      7  H   UNL d   1      -1.707  -0.298  -0.365  0.00  0.00     0.190 HD
ATOM      8  O   UNL d   1       0.842  -2.200  -0.908  0.00  0.00    -0.261 OA
BRANCH   6   9
ATOM      9  N   UNL d   1      -1.957  -2.275  -0.990  0.00  0.00    -0.263 N 
ATOM     10  C   UNL d   1      -3.244  -2.080  -1.461  0.00  0.00     0.270 C 
ATOM     11  O   UNL d   1      -3.756  -0.970  -1.566  0.00  0.00    -0.266 OA
ATOM     12  H   UNL d   1      -1.611  -3.185  -0.698  0.00  0.00     0.190 HD
BRANCH  10  13
ATOM     13  C   UNL d   1      -4.019  -3.315  -1.796  0.00  0.00     0.033 A 
ATOM     14  C   UNL d   1      -5.422  -3.263  -1.771  0.00  0.00     0.019 A 
ATOM     15  C   UNL d   1      -6.179  -4.410  -2.040  0.00  0.00     0.025 A 
ATOM     16  C   UNL d   1      -5.536  -5.608  -2.345  0.00  0.00     0.034 A 
ATOM     17  C   UNL d   1      -4.145  -5.664  -2.406  0.00  0.00     0.025 A 
ATOM     18 CL   UNL d   1      -6.461  -7.026  -2.651  0.00  0.00    -0.084 Cl
ATOM     19  C   UNL d   1      -3.386  -4.519  -2.138  0.00  0.00     0.019 A 
ENDBRANCH  10  13
ENDBRANCH   6   9
ENDBRANCH   1   5
BRANCH   2  20
ATOM     20  N   UNL d   1       2.971   1.103   0.414  0.00  0.00    -0.263 N 
ATOM     21  C   UNL d   1       4.354   1.087   0.323  0.00  0.00     0.270 C 
ATOM     22  O   UNL d   1       4.977   0.214  -0.267  0.00  0.00    -0.266 OA
ATOM     23  H   UNL d   1       2.474   1.680   1.089  0.00  0.00     0.190 HD
BRANCH  21  24
ATOM     24  C   UNL d   1       5.069   2.200   1.024  0.00  0.00     0.033 A 
ATOM     25  C   UNL d   1       6.387   1.999   1.463  0.00  0.00     0.019 A 
ATOM     26  C   UNL d   1       7.074   3.022   2.130  0.00  0.00     0.025 A 
ATOM     27  C   UNL d   1       6.450   4.250   2.345  0.00  0.00     0.034 A 
ATOM     28  C   UNL d   1       5.152   4.469   1.889  0.00  0.00     0.025 A 
ATOM     29 CL   UNL d   1       7.284   5.506   3.174  0.00  0.00    -0.084 Cl
ATOM     30  C   UNL d   1       4.463   3.448   1.225  0.00  0.00     0.019 A 
ENDBRANCH  21  24
ENDBRANCH   2  20
TORSDOF 5
