REMARK  6 active torsions:
REMARK  status: ('A' for Active; 'I' for Inactive)
REMARK    1  A    between atoms: N_6  and  C_1 
REMARK    2  A    between atoms: C_2  and  C_3 
REMARK       I    between atoms: C_9  and  N_6 
REMARK       I    between atoms: N_14  and  C_9 
REMARK    3  A    between atoms: C_16  and  N_14 
REMARK    4  A    between atoms: O_17  and  C_18 
REMARK    5  A    between atoms: C_19  and  O_17 
REMARK    6  A    between atoms: C_24  and  C_19 
ROOT
ATOM      1  N   UNL d   1      -1.501   2.277  -0.024  0.00  0.00    -0.302 N 
ATOM      2  C   UNL d   1      -2.853   2.162   0.124  0.00  0.00     0.325 C 
ATOM      3  N   UNL d   1      -3.421   0.916   0.112  0.00  0.00    -0.309 N 
ATOM      4  O   UNL d   1      -3.653   3.094   0.246  0.00  0.00    -0.247 OA
ATOM      5  H   UNL d   1      -0.958   1.451  -0.191  0.00  0.00     0.171 HD
ATOM      6  H   UNL d   1      -4.428   1.025   0.108  0.00  0.00     0.170 HD
ENDROOT
BRANCH   1   7
ATOM      7  C   UNL d   1      -0.747   3.437  -0.133  0.00  0.00     0.091 C 
ATOM      8  C   UNL d   1       0.638   3.560  -0.131  0.00  0.00     0.038 C 
ATOM      9  C   UNL d   1       1.047   4.871  -0.599  0.00  0.00    -0.040 C 
ATOM     10  C   UNL d   1       2.401   5.296  -1.072  0.00  0.00     0.049 C 
ATOM     11  C   UNL d   1      -0.032   5.734  -0.619  0.00  0.00     0.059 C 
ATOM     12  S   UNL d   1      -1.500   4.957  -0.271  0.00  0.00    -0.083 SA
BRANCH   8  13
ATOM     13  C   UNL d   1       1.581   2.461   0.328  0.00  0.00     0.089 A 
ATOM     14  N   UNL d   1       1.316   1.167   0.251  0.00  0.00    -0.349 N 
ATOM     15  C   UNL d   1       2.389   0.433   0.775  0.00  0.00     0.050 A 
ATOM     16  HN  UNL d   1       0.461   0.764  -0.132  1.00  0.00     0.166 HD
ATOM     17  C   UNL d   1       2.525  -0.973   0.799  0.00  0.00     0.031 A 
ATOM     18  C   UNL d   1       3.418   1.189   1.333  0.00  0.00     0.033 A 
ATOM     19  C   UNL d   1       3.655  -1.569   1.379  0.00  0.00     0.002 A 
ATOM     20  C   UNL d   1       4.653  -0.787   1.940  0.00  0.00     0.002 A 
ATOM     21  C   UNL d   1       4.552   0.606   1.927  0.00  0.00     0.021 A 
ATOM     22  S   UNL d   1       3.048   2.846   1.154  0.00  0.00    -0.069 SA
ENDBRANCH   8  13
ENDBRANCH   1   7
BRANCH   3  23
ATOM     23  C   UNL d   1      -2.949  -0.396  -0.060  0.00  0.00     0.036 C 
ATOM     24  C   UNL d   1      -1.625  -0.793   0.060  0.00  0.00     0.032 C 
ATOM     25  C   UNL d   1      -1.221  -2.060  -0.363  0.00  0.00     0.039 C 
ATOM     26  C   UNL d   1      -2.147  -2.978  -0.838  0.00  0.00     0.069 C 
ATOM     27  C   UNL d   1      -3.498  -2.664  -0.775  0.00  0.00     0.039 C 
ATOM     28  C   UNL d   1      -3.897  -1.373  -0.399  0.00  0.00     0.032 C 
BRANCH  26  29
ATOM     29  O   UNL d   1      -1.809  -4.209  -1.328  0.00  0.00    -0.347 OA
BRANCH  29  30
ATOM     30  C   UNL d   1      -0.611  -4.200  -2.119  0.00  0.00     0.214 C 
BRANCH  30  31
ATOM     31  C   UNL d   1      -0.334  -5.564  -2.699  0.00  0.00    -0.034 A 
ATOM     32  C   UNL d   1       0.336  -5.681  -3.927  0.00  0.00     0.009 A 
ATOM     33  C   UNL d   1       0.680  -6.934  -4.431  0.00  0.00     0.001 A 
ATOM     34  C   UNL d   1       0.366  -8.085  -3.711  0.00  0.00     0.000 A 
ATOM     35  C   UNL d   1      -0.292  -7.983  -2.487  0.00  0.00     0.001 A 
ATOM     36  C   UNL d   1      -0.635  -6.729  -1.982  0.00  0.00     0.009 A 
ENDBRANCH  30  31
ENDBRANCH  29  30
ENDBRANCH  26  29
ENDBRANCH   3  23
TORSDOF 6
