REMARK  6 active torsions:
REMARK  status: ('A' for Active; 'I' for Inactive)
REMARK    1  A    between atoms: C_4  and  C_1 
REMARK       I    between atoms: N_9  and  C_4 
REMARK    2  A    between atoms: C_17  and  C_5 
REMARK    3  A    between atoms: C_8  and  N_10 
REMARK    4  A    between atoms: N_19  and  C_8 
REMARK    5  A    between atoms: N_10  and  N_9 
REMARK    6  A    between atoms: C_12  and  C_17 
ROOT
ATOM      1  C   UNL d   1       1.215   0.831  -0.014  0.00  0.00     0.109 A 
ATOM      2  N   UNL d   1       1.420  -0.552  -0.063  0.00  0.00    -0.349 N 
ATOM      3  HN  UNL d   1       2.332  -1.005  -0.132  1.00  0.00     0.166 HD
ATOM      4  C   UNL d   1       0.263  -1.186  -0.006  0.00  0.00     0.055 A 
ATOM      5  C   UNL d   1      -0.115   1.209   0.058  0.00  0.00     0.086 A 
ATOM      6  S   UNL d   1      -1.127  -0.170   0.070  0.00  0.00    -0.086 SA
ENDROOT
BRANCH   1   7
ATOM      7  C   UNL d   1       2.328   1.783  -0.028  0.00  0.00     0.287 C 
ATOM      8  N   UNL d   1       3.564   1.175  -0.103  0.00  0.00    -0.262 N 
ATOM      9  H   UNL d   1       3.646   0.164  -0.185  0.00  0.00     0.190 HD
ATOM     10  O   UNL d   1       2.182   3.002   0.031  0.00  0.00    -0.264 OA
BRANCH   8  11
ATOM     11  N   UNL d   1       4.726   1.959  -0.103  0.00  0.00    -0.274 N 
ATOM     12  H   UNL d   1       4.557   2.960  -0.021  0.00  0.00     0.189 HD
BRANCH  11  13
ATOM     13  C   UNL d   1       5.885   1.518  -0.731  0.00  0.00     0.186 C 
ATOM     14  S   UNL d   1       6.037   0.018  -1.457  0.00  0.00    -0.040 SA
BRANCH  13  15
ATOM     15  N   UNL d   1       6.885   2.467  -0.632  0.00  0.00    -0.370 N 
ATOM     16  C   UNL d   1       8.252   2.361  -1.111  0.00  0.00     0.148 C 
ATOM     17  H   UNL d   1       6.705   3.240  -0.005  0.00  0.00     0.161 HD
ENDBRANCH  13  15
ENDBRANCH  11  13
ENDBRANCH   8  11
ENDBRANCH   1   7
BRANCH   4  18
ATOM     18  C   UNL d   1       0.101  -2.680  -0.019  0.00  0.00     0.103 C 
BRANCH  18  19
ATOM     19  C   UNL d   1       0.068  -3.264   1.367  0.00  0.00    -0.045 A 
ATOM     20  C   UNL d   1      -1.079  -3.474   2.114  0.00  0.00     0.057 A 
ATOM     21  S   UNL d   1      -0.756  -4.142   3.655  0.00  0.00    -0.113 SA
ATOM     22  C   UNL d   1       0.924  -4.173   3.348  0.00  0.00     0.050 A 
ATOM     23  C   UNL d   1       1.229  -3.683   2.098  0.00  0.00     0.015 A 
ENDBRANCH  18  19
ENDBRANCH   4  18
TORSDOF 6
