REMARK  5 active torsions:
REMARK  status: ('A' for Active; 'I' for Inactive)
REMARK    1  A    between atoms: C_15  and  C_1 
REMARK    2  A    between atoms: C_2  and  N_8 
REMARK    3  A    between atoms: C_3  and  C_4 
REMARK    4  A    between atoms: C_20  and  C_5 
REMARK    5  A    between atoms: N_14  and  C_15 
ROOT
ATOM      1  N   UNL d   1       3.477  -1.947  -0.274  0.00  0.00    -0.363 N 
ATOM      2  N   UNL d   1       3.343   1.010  -0.274  0.00  0.00     0.096 N 
ATOM      3  C   UNL d   1       2.768  -1.241  -1.351  0.00  0.00     0.154 C 
ATOM      4  C   UNL d   1       3.684  -1.210   0.974  0.00  0.00     0.154 C 
ATOM      5  C   UNL d   1       4.130   0.252   0.720  0.00  0.00     0.292 C 
ATOM      6  C   UNL d   1       3.283   0.205  -1.516  0.00  0.00     0.292 C 
ENDROOT
BRANCH   2   7
ATOM      7  C   UNL d   1       2.028   1.383   0.259  0.00  0.00     0.315 C 
BRANCH   7   8
ATOM      8  C   UNL d   1       1.288   2.277  -0.686  0.00  0.00     0.016 A 
ATOM      9  C   UNL d   1       1.681   3.524  -1.283  0.00  0.00     0.067 A 
ATOM     10  N   UNL d   1       0.732   3.961  -2.133  0.00  0.00    -0.300 N 
ATOM     11  N   UNL d   1      -0.249   3.061  -2.043  0.00  0.00    -0.311 N 
ATOM     12  HN  UNL d   1       0.758   4.796  -2.717  1.00  0.00     0.187 HD
ATOM     13  C   UNL d   1       0.018   2.045  -1.183  0.00  0.00     0.118 A 
ATOM     14  H   UNL d   1      -1.082   3.205  -2.605  0.00  0.00     0.186 HD
BRANCH   9  15
ATOM     15  C   UNL d   1       2.905   4.310  -1.092  0.00  0.00    -0.007 A 
ATOM     16  C   UNL d   1       3.513   4.943  -2.188  0.00  0.00     0.014 A 
ATOM     17  C   UNL d   1       4.658   5.727  -2.015  0.00  0.00     0.001 A 
ATOM     18  C   UNL d   1       5.204   5.890  -0.744  0.00  0.00     0.000 A 
ATOM     19  C   UNL d   1       4.606   5.274   0.353  0.00  0.00     0.001 A 
ATOM     20  C   UNL d   1       3.460   4.492   0.180  0.00  0.00     0.014 A 
ENDBRANCH   9  15
ENDBRANCH   7   8
ENDBRANCH   2   7
BRANCH   1  21
ATOM     21  C   UNL d   1       3.838  -3.264  -0.460  0.00  0.00     0.125 A 
ATOM     22  N   UNL d   1       4.193  -3.604  -1.730  0.00  0.00    -0.350 N 
ATOM     23  C   UNL d   1       4.655  -4.849  -1.999  0.00  0.00     0.106 A 
ATOM     24  HN  UNL d   1       4.110  -2.919  -2.481  1.00  0.00     0.166 HD
ATOM     25  C   UNL d   1       4.793  -5.841  -1.050  0.00  0.00     0.065 A 
ATOM     26  C   UNL d   1       4.386  -5.528   0.245  0.00  0.00     0.045 A 
ATOM     27  C   UNL d   1       3.899  -4.248   0.545  0.00  0.00     0.078 A 
ATOM     28 CL   UNL d   1       3.299  -4.043   2.158  0.00  0.00    -0.080 Cl
BRANCH  25  29
ATOM     29  C   UNL d   1       5.343  -7.178  -1.431  0.00  0.00     0.418 C 
ATOM     30  F   UNL d   1       5.462  -8.033  -0.378  0.00  0.00    -0.166 F 
ATOM     31  F   UNL d   1       4.570  -7.819  -2.348  0.00  0.00    -0.166 F 
ATOM     32  F   UNL d   1       6.585  -7.092  -1.982  0.00  0.00    -0.166 F 
ENDBRANCH  25  29
ENDBRANCH   1  21
TORSDOF 5
