REMARK  4 active torsions:
REMARK  status: ('A' for Active; 'I' for Inactive)
REMARK    1  A    between atoms: N_2  and  C_1 
REMARK    2  A    between atoms: O_9  and  C_3 
REMARK    3  A    between atoms: N_12  and  C_4 
REMARK    4  A    between atoms: C_14  and  O_9 
ROOT
ATOM      1  C   UNL d   1      -0.210  -1.430   0.250  0.00  0.00     0.197 A 
ATOM      2  C   UNL d   1       1.006  -0.811   0.037  0.00  0.00     0.186 A 
ATOM      3  C   UNL d   1      -1.378  -0.706   0.079  0.00  0.00     0.141 A 
ATOM      4  N   UNL d   1       1.115   0.507  -0.230  0.00  0.00    -0.331 N 
ATOM      5  HN  UNL d   1       2.018   0.969  -0.345  1.00  0.00     0.168 HD
ATOM      6  N   UNL d   1      -1.258   0.613  -0.218  0.00  0.00    -0.337 N 
ATOM      7  HN  UNL d   1      -2.091   1.186  -0.352  1.00  0.00     0.168 HD
ATOM      8  C   UNL d   1      -0.038   1.159  -0.334  0.00  0.00     0.184 A 
ENDROOT
BRANCH   2   9
ATOM      9  O   UNL d   1       2.175  -1.550   0.147  0.00  0.00    -0.291 OA
BRANCH   9  10
ATOM     10  C   UNL d   1       3.225  -1.236  -0.693  0.00  0.00     0.078 A 
ATOM     11  C   UNL d   1       4.508  -1.461  -0.184  0.00  0.00     0.039 A 
ATOM     12  C   UNL d   1       5.631  -1.190  -0.968  0.00  0.00     0.026 A 
ATOM     13  C   UNL d   1       5.470  -0.705  -2.265  0.00  0.00     0.034 A 
ATOM     14  C   UNL d   1       4.196  -0.510  -2.791  0.00  0.00     0.026 A 
ATOM     15 CL   UNL d   1       6.853  -0.352  -3.227  0.00  0.00    -0.084 Cl
ATOM     16  C   UNL d   1       3.072  -0.793  -2.011  0.00  0.00     0.039 A 
ENDBRANCH   9  10
ENDBRANCH   2   9
BRANCH   1  17
ATOM     17  N   UNL d   1      -0.195  -2.781   0.706  0.00  0.00    -0.107 N 
ATOM     18  O   UNL d   1       0.021  -3.659  -0.140  0.00  0.00    -0.531 OA
ATOM     19  O   UNL d   1      -0.392  -2.975   1.912  0.00  0.00    -0.531 OA
ENDBRANCH   1  17
BRANCH   3  20
ATOM     20  N   UNL d   1      -2.679  -1.191   0.207  0.00  0.00    -0.374 N 
ATOM     21  C   UNL d   1      -3.763  -0.224   0.009  0.00  0.00     0.150 C 
ATOM     22  C   UNL d   1      -3.012  -2.558  -0.193  0.00  0.00     0.150 C 
ENDBRANCH   3  20
TORSDOF 4
