REMARK  2 active torsions:
REMARK  status: ('A' for Active; 'I' for Inactive)
REMARK       I    between atoms: N_2  and  C_1 
REMARK    1  A    between atoms: C_3  and  N_2 
REMARK    2  A    between atoms: O_7  and  C_6 
ROOT
ATOM      1  C   UNL d   1       0.927   2.094   1.364  0.00  0.00     0.037 A 
ATOM      2  C   UNL d   1       1.966   2.780   0.731  0.00  0.00     0.066 A 
ATOM      3  C   UNL d   1       2.560   3.898   1.324  0.00  0.00     0.070 A 
ATOM      4  C   UNL d   1       1.058   3.671   3.206  0.00  0.00     0.005 A 
ATOM      5  C   UNL d   1       0.473   2.551   2.607  0.00  0.00     0.029 A 
ATOM      6  C   UNL d   1       2.099   4.340   2.564  0.00  0.00     0.037 A 
ENDROOT
BRANCH   1   7
ATOM      7  N   UNL d   1       0.300   0.954   0.808  0.00  0.00    -0.327 N 
ATOM      8  C   UNL d   1       0.613   0.325  -0.384  0.00  0.00     0.218 C 
ATOM      9  O   UNL d   1       1.512   0.629  -1.164  0.00  0.00    -0.274 OA
ATOM     10  C   UNL d   1      -0.271  -0.856  -0.689  0.00  0.00     0.117 C 
ATOM     11  H   UNL d   1      -0.450   0.553   1.361  0.00  0.00     0.169 HD
ENDBRANCH   1   7
BRANCH   3  12
ATOM     12  O   UNL d   1       3.586   4.630   0.787  0.00  0.00    -0.356 OA
ATOM     13  C   UNL d   1       4.082   4.190  -0.475  0.00  0.00     0.210 C 
ENDBRANCH   3  12
TORSDOF 2
