REMARK  7 active torsions:
REMARK  status: ('A' for Active; 'I' for Inactive)
REMARK    1  A    between atoms: C_10  and  N_1 
REMARK    2  A    between atoms: C_7  and  C_2 
REMARK    3  A    between atoms: C_11  and  N_5 
REMARK       I    between atoms: N_8  and  C_7 
REMARK       I    between atoms: C_9  and  N_8 
REMARK    4  A    between atoms: O_21  and  C_9 
REMARK    5  A    between atoms: C_22  and  C_10 
REMARK    6  A    between atoms: C_12  and  C_11 
REMARK    7  A    between atoms: C_23  and  O_21 
ROOT
ATOM      1  N   UNL d   1      -0.748   1.159   0.121  0.00  0.00    -0.261 N 
ATOM      2  C   UNL d   1       1.407   0.027   0.074  0.00  0.00     0.116 C 
ATOM      3  C   UNL d   1      -1.438  -0.044   0.013  0.00  0.00     0.332 C 
ATOM      4  C   UNL d   1       0.604   1.223   0.398  0.00  0.00     0.269 C 
ATOM      5  N   UNL d   1      -0.640  -1.181  -0.093  0.00  0.00    -0.302 N 
ATOM      6  C   UNL d   1       0.740  -1.114  -0.131  0.00  0.00     0.118 C 
ATOM      7  O   UNL d   1      -2.668  -0.110   0.040  0.00  0.00    -0.246 OA
ATOM      8  O   UNL d   1       1.162   2.199   0.907  0.00  0.00    -0.267 OA
ENDROOT
BRANCH   2   9
ATOM      9  C   UNL d   1       2.900   0.013   0.022  0.00  0.00     0.266 C 
ATOM     10  N   UNL d   1       3.500   1.118   0.579  0.00  0.00    -0.269 N 
ATOM     11  C   UNL d   1       4.837   1.378   0.613  0.00  0.00     0.367 C 
ATOM     12  H   UNL d   1       2.921   1.835   1.006  0.00  0.00     0.174 HD
ATOM     13  O   UNL d   1       5.732   0.735   0.091  0.00  0.00    -0.238 OA
ATOM     14  O   UNL d   1       3.489  -0.942  -0.473  0.00  0.00    -0.267 OA
BRANCH  11  15
ATOM     15  O   UNL d   1       5.031   2.521   1.329  0.00  0.00    -0.304 OA
BRANCH  15  16
ATOM     16  C   UNL d   1       6.392   2.962   1.442  0.00  0.00     0.176 C 
ATOM     17  C   UNL d   1       7.104   2.227   2.563  0.00  0.00     0.034 C 
ENDBRANCH  15  16
ENDBRANCH  11  15
ENDBRANCH   2   9
BRANCH   1  18
ATOM     18  C   UNL d   1      -1.511   2.401   0.184  0.00  0.00     0.175 C 
BRANCH  18  19
ATOM     19  C   UNL d   1      -1.356   3.208  -1.093  0.00  0.00    -0.040 A 
ATOM     20  C   UNL d   1      -2.265   3.053  -2.148  0.00  0.00     0.009 A 
ATOM     21  C   UNL d   1      -2.102   3.775  -3.334  0.00  0.00     0.001 A 
ATOM     22  C   UNL d   1      -1.024   4.646  -3.483  0.00  0.00     0.000 A 
ATOM     23  C   UNL d   1      -0.111   4.805  -2.443  0.00  0.00     0.001 A 
ATOM     24  C   UNL d   1      -0.279   4.094  -1.253  0.00  0.00     0.009 A 
ENDBRANCH  18  19
ENDBRANCH   1  18
BRANCH   5  25
ATOM     25  C   UNL d   1      -1.281  -2.500  -0.082  0.00  0.00     0.198 C 
BRANCH  25  26
ATOM     26  C   UNL d   1      -1.272  -3.020   1.314  0.00  0.00     0.070 A 
ATOM     27  O   UNL d   1      -0.244  -3.853   1.651  0.00  0.00    -0.325 OA
ATOM     28  C   UNL d   1      -0.400  -4.166   2.963  0.00  0.00     0.142 A 
ATOM     29  C   UNL d   1      -1.516  -3.548   3.476  0.00  0.00     0.027 A 
ATOM     30  C   UNL d   1      -2.086  -2.813   2.409  0.00  0.00     0.036 A 
ENDBRANCH  25  26
ENDBRANCH   5  25
TORSDOF 7
