REMARK  5 active torsions:
REMARK  status: ('A' for Active; 'I' for Inactive)
REMARK    1  A    between atoms: N_2  and  C_1 
REMARK    2  A    between atoms: N_6  and  C_1 
REMARK    3  A    between atoms: C_3  and  N_2 
REMARK    4  A    between atoms: C_15  and  N_6 
REMARK    5  A    between atoms: C_16  and  C_12 
ROOT
ATOM      1  C   UNL d   1       1.095   0.005  -0.386  0.00  0.00     0.172 C 
ATOM      2  S   UNL d   1       0.738  -1.445   0.367  0.00  0.00    -0.041 SA
ENDROOT
BRANCH   1   3
ATOM      3  N   UNL d   1       2.386   0.426  -0.333  0.00  0.00    -0.362 N 
ATOM      4  H   UNL d   1       2.999  -0.227   0.147  0.00  0.00     0.162 HD
BRANCH   3   5
ATOM      5  C   UNL d   1       2.962   1.706  -0.727  0.00  0.00     0.092 C 
ATOM      6  C   UNL d   1       4.331   1.989  -0.034  0.00  0.00     0.031 C 
ATOM      7  C   UNL d   1       5.256   0.815  -0.282  0.00  0.00    -0.024 C 
ATOM      8  C   UNL d   1       4.965   2.981  -1.013  0.00  0.00     0.019 C 
ATOM      9  C   UNL d   1       5.544   0.815  -1.594  0.00  0.00    -0.026 C 
ATOM     10  C   UNL d   1       4.860   2.020  -2.203  0.00  0.00     0.010 C 
ATOM     11  C   UNL d   1       3.338   1.760  -2.237  0.00  0.00     0.034 C 
ENDBRANCH   3   5
ENDBRANCH   1   3
BRANCH   1  12
ATOM     12  N   UNL d   1       0.233   0.799  -1.095  0.00  0.00    -0.333 N 
ATOM     13  H   UNL d   1       0.580   1.096  -1.997  0.00  0.00     0.168 HD
BRANCH  12  14
ATOM     14  C   UNL d   1      -1.138   1.002  -0.845  0.00  0.00     0.034 A 
ATOM     15  C   UNL d   1      -1.653   0.984   0.453  0.00  0.00     0.030 A 
ATOM     16  C   UNL d   1      -2.988   1.307   0.691  0.00  0.00     0.010 A 
ATOM     17  C   UNL d   1      -3.840   1.654  -0.366  0.00  0.00    -0.055 A 
ATOM     18  C   UNL d   1      -3.325   1.645  -1.670  0.00  0.00     0.010 A 
ATOM     19  C   UNL d   1      -1.979   1.339  -1.906  0.00  0.00     0.030 A 
BRANCH  17  20
ATOM     20  C   UNL d   1      -5.267   2.100  -0.107  0.00  0.00     0.010 C 
ATOM     21  C   UNL d   1      -6.088   1.038   0.628  0.00  0.00     0.015 C 
ATOM     22  C   UNL d   1      -5.278   3.425   0.663  0.00  0.00     0.015 C 
ENDBRANCH  17  20
ENDBRANCH  12  14
ENDBRANCH   1  12
TORSDOF 5
