REMARK  5 active torsions:
REMARK  status: ('A' for Active; 'I' for Inactive)
REMARK    1  A    between atoms: C_7  and  C_1 
REMARK    2  A    between atoms: N_10  and  N_3 
REMARK       I    between atoms: N_8  and  C_7 
REMARK       I    between atoms: C_9  and  N_8 
REMARK    3  A    between atoms: O_16  and  C_9 
REMARK    4  A    between atoms: C_15  and  N_10 
REMARK    5  A    between atoms: C_17  and  O_16 
ROOT
ATOM      1  C   UNL d   1      -0.636  -1.301   0.064  0.00  0.00     0.117 C 
ATOM      2  N   UNL d   1      -0.763   1.089  -0.317  0.00  0.00    -0.273 N 
ATOM      3  N   UNL d   1       1.312   0.070   0.024  0.00  0.00    -0.233 N 
ATOM      4  C   UNL d   1       0.606   1.242  -0.263  0.00  0.00     0.344 C 
ATOM      5  C   UNL d   1      -1.437  -0.102  -0.248  0.00  0.00     0.266 C 
ATOM      6  C   UNL d   1       0.680  -1.128   0.269  0.00  0.00     0.139 C 
ATOM      7  O   UNL d   1       1.130   2.336  -0.467  0.00  0.00    -0.245 OA
ATOM      8  O   UNL d   1      -2.649  -0.184  -0.430  0.00  0.00    -0.267 OA
ATOM      9  H   UNL d   1      -1.295   1.922  -0.517  0.00  0.00     0.173 HD
ENDROOT
BRANCH   1  10
ATOM     10  C   UNL d   1      -1.156  -2.699   0.124  0.00  0.00     0.267 C 
ATOM     11  N   UNL d   1      -2.521  -2.829   0.034  0.00  0.00    -0.269 N 
ATOM     12  C   UNL d   1      -3.182  -4.019   0.162  0.00  0.00     0.367 C 
ATOM     13  H   UNL d   1      -3.102  -2.020  -0.148  0.00  0.00     0.174 HD
ATOM     14  O   UNL d   1      -2.709  -5.093   0.501  0.00  0.00    -0.238 OA
ATOM     15  O   UNL d   1      -0.368  -3.635   0.167  0.00  0.00    -0.267 OA
BRANCH  12  16
ATOM     16  O   UNL d   1      -4.502  -3.827  -0.112  0.00  0.00    -0.304 OA
BRANCH  16  17
ATOM     17  C   UNL d   1      -5.339  -4.989   0.042  0.00  0.00     0.176 C 
ATOM     18  C   UNL d   1      -5.302  -5.858  -1.203  0.00  0.00     0.034 C 
ENDBRANCH  16  17
ENDBRANCH  12  16
ENDBRANCH   1  10
BRANCH   3  19
ATOM     19  N   UNL d   1       2.705   0.240   0.242  0.00  0.00    -0.195 NA
ATOM     20  H   UNL d   1       3.028   1.093  -0.235  0.00  0.00     0.153 HD
BRANCH  19  21
ATOM     21  C   UNL d   1       3.600  -0.824  -0.054  0.00  0.00     0.028 C 
ATOM     22  C   UNL d   1       3.367  -1.827  -1.003  0.00  0.00     0.025 C 
ATOM     23  C   UNL d   1       4.237  -2.916  -1.117  0.00  0.00     0.002 C 
ATOM     24  C   UNL d   1       5.394  -2.971  -0.345  0.00  0.00     0.000 C 
ATOM     25  C   UNL d   1       5.702  -1.919   0.512  0.00  0.00     0.002 C 
ATOM     26  C   UNL d   1       4.816  -0.847   0.645  0.00  0.00     0.025 C 
ENDBRANCH  19  21
ENDBRANCH   3  19
TORSDOF 5
