REMARK  5 active torsions:
REMARK  status: ('A' for Active; 'I' for Inactive)
REMARK       I    between atoms: N_2  and  C_1 
REMARK    1  A    between atoms: C_12  and  C_1 
REMARK    2  A    between atoms: C_5  and  N_2 
REMARK    3  A    between atoms: N_4  and  C_12 
REMARK    4  A    between atoms: C_14  and  N_4 
REMARK    5  A    between atoms: C_13  and  C_14 
ROOT
ATOM      1  C   UNL d   1       1.058  -0.139  -0.151  0.00  0.00     0.250 C 
ATOM      2  N   UNL d   1       0.293   0.821  -0.796  0.00  0.00    -0.326 N 
ATOM      3  O   UNL d   1       0.628  -1.148   0.410  0.00  0.00    -0.271 OA
ATOM      4  H   UNL d   1       0.779   1.462  -1.411  0.00  0.00     0.169 HD
ENDROOT
BRANCH   1   5
ATOM      5  C   UNL d   1       2.565   0.126  -0.224  0.00  0.00     0.372 C 
BRANCH   5   6
ATOM      6  N   UNL d   1       3.285  -1.013  -0.805  0.00  0.00     0.096 N 
ATOM      7  H   UNL d   1       2.970  -1.866  -0.333  0.00  0.00     0.316 HD
BRANCH   6   8
ATOM      8  C   UNL d   1       3.042  -1.170  -2.239  0.00  0.00     0.308 C 
BRANCH   8   9
ATOM      9  C   UNL d   1       3.850  -2.323  -2.789  0.00  0.00    -0.030 A 
ATOM     10  C   UNL d   1       3.222  -3.416  -3.402  0.00  0.00     0.009 A 
ATOM     11  C   UNL d   1       3.976  -4.490  -3.878  0.00  0.00     0.001 A 
ATOM     12  C   UNL d   1       5.364  -4.484  -3.748  0.00  0.00     0.000 A 
ATOM     13  C   UNL d   1       6.002  -3.397  -3.155  0.00  0.00     0.001 A 
ATOM     14  C   UNL d   1       5.250  -2.320  -2.683  0.00  0.00     0.009 A 
ENDBRANCH   8   9
ENDBRANCH   6   8
ENDBRANCH   5   6
ENDBRANCH   1   5
BRANCH   2  15
ATOM     15  C   UNL d   1      -1.112   0.922  -0.768  0.00  0.00     0.034 A 
ATOM     16  C   UNL d   1      -1.907   0.249   0.164  0.00  0.00     0.031 A 
ATOM     17  C   UNL d   1      -3.296   0.410   0.166  0.00  0.00     0.020 A 
ATOM     18  C   UNL d   1      -3.899   1.239  -0.774  0.00  0.00     0.006 A 
ATOM     19  C   UNL d   1      -3.121   1.917  -1.711  0.00  0.00     0.020 A 
ATOM     20  I   UNL d   1      -5.963   1.477  -0.767  0.00  0.00    -0.045 I 
ATOM     21  C   UNL d   1      -1.729   1.766  -1.698  0.00  0.00     0.031 A 
ENDBRANCH   2  15
TORSDOF 5
