REMARK  2 active torsions:
REMARK  status: ('A' for Active; 'I' for Inactive)
REMARK    1  A    between atoms: C_14  and  C_6 
REMARK    2  A    between atoms: C_8  and  C_10 
ROOT
ATOM      1  N   UNL d   1      -4.041  -1.571  -1.069  0.00  0.00    -0.341 N 
ATOM      2  HN  UNL d   1      -3.688  -1.293  -1.984  1.00  0.00     0.167 HD
ATOM      3  C   UNL d   1      -5.303  -1.598  -0.672  0.00  0.00     0.116 A 
ATOM      4  N   UNL d   1      -5.381  -2.132   0.598  0.00  0.00    -0.349 N 
ATOM      5  C   UNL d   1      -3.309  -1.993   0.007  0.00  0.00     0.050 A 
ATOM      6  C   UNL d   1      -4.117  -2.409   1.035  0.00  0.00     0.119 A 
ATOM      7  H   UNL d   1      -6.236  -2.271   1.115  0.00  0.00     0.167 HD
ENDROOT
BRANCH   5   8
ATOM      8  C   UNL d   1      -1.896  -1.902   0.012  0.00  0.00     0.049 C 
ATOM      9  C   UNL d   1      -1.204  -0.856   0.488  0.00  0.00     0.047 A 
ATOM     10  C   UNL d   1      -1.815   0.378   1.115  0.00  0.00     0.257 A 
ATOM     11  C   UNL d   1       0.253  -0.668   0.504  0.00  0.00     0.006 A 
ATOM     12  N   UNL d   1      -0.735   1.190   1.421  0.00  0.00    -0.322 N 
ATOM     13  O   UNL d   1      -2.979   0.628   1.357  0.00  0.00    -0.267 OA
ATOM     14  C   UNL d   1       0.470   0.588   1.084  0.00  0.00     0.046 A 
ATOM     15  H   UNL d   1      -0.848   2.090   1.859  0.00  0.00     0.169 HD
ATOM     16  C   UNL d   1       1.729   1.115   1.288  0.00  0.00     0.030 A 
ATOM     17  C   UNL d   1       2.818   0.342   0.889  0.00  0.00     0.002 A 
ATOM     18  C   UNL d   1       2.621  -0.920   0.296  0.00  0.00     0.001 A 
ATOM     19  C   UNL d   1       1.331  -1.435   0.097  0.00  0.00     0.015 A 
ENDBRANCH   5   8
BRANCH   3  20
ATOM     20  C   UNL d   1      -6.478  -1.172  -1.434  0.00  0.00     0.008 A 
ATOM     21  C   UNL d   1      -6.479  -1.283  -2.830  0.00  0.00     0.015 A 
ATOM     22  C   UNL d   1      -7.608  -0.928  -3.574  0.00  0.00     0.001 A 
ATOM     23  C   UNL d   1      -8.744  -0.441  -2.929  0.00  0.00     0.000 A 
ATOM     24  C   UNL d   1      -8.746  -0.294  -1.544  0.00  0.00     0.001 A 
ATOM     25  C   UNL d   1      -7.619  -0.654  -0.801  0.00  0.00     0.015 A 
ENDBRANCH   3  20
TORSDOF 2
