REMARK  4 active torsions:
REMARK  status: ('A' for Active; 'I' for Inactive)
REMARK    1  A    between atoms: C_6  and  C_1 
REMARK    2  A    between atoms: N_7  and  C_2 
REMARK    3  A    between atoms: O_9  and  C_6 
REMARK    4  A    between atoms: C_12  and  O_9 
ROOT
ATOM      1  C   UNL d   1      -1.954  -1.095   0.173  0.00  0.00     0.080 A 
ATOM      2  C   UNL d   1      -2.823  -0.033  -0.026  0.00  0.00     0.085 A 
ATOM      3  S   UNL d   1      -2.005   1.438  -0.251  0.00  0.00    -0.076 SA
ATOM      4  C   UNL d   1      -0.561  -0.663   0.125  0.00  0.00    -0.026 A 
ATOM      5  C   UNL d   1      -0.471   0.712  -0.059  0.00  0.00    -0.008 A 
ATOM      6  C   UNL d   1       0.633  -1.583   0.264  0.00  0.00     0.041 C 
ATOM      7  C   UNL d   1       0.740   1.603  -0.142  0.00  0.00     0.046 C 
ATOM      8  C   UNL d   1       1.807  -1.200  -0.639  0.00  0.00     0.005 C 
ATOM      9  C   UNL d   1       1.947   1.066   0.620  0.00  0.00     0.005 C 
ATOM     10  C   UNL d   1       2.679  -0.063  -0.105  0.00  0.00     0.001 C 
ENDROOT
BRANCH   1  11
ATOM     11  C   UNL d   1      -2.480  -2.438   0.432  0.00  0.00     0.296 C 
ATOM     12  O   UNL d   1      -3.577  -2.820   0.041  0.00  0.00    -0.259 OA
BRANCH  11  13
ATOM     13  O   UNL d   1      -1.679  -3.161   1.270  0.00  0.00    -0.318 OA
BRANCH  13  14
ATOM     14  C   UNL d   1      -2.342  -4.236   1.951  0.00  0.00     0.174 C 
ATOM     15  C   UNL d   1      -3.002  -3.675   3.199  0.00  0.00     0.034 C 
ENDBRANCH  13  14
ENDBRANCH  11  13
ENDBRANCH   1  11
BRANCH   2  16
ATOM     16  N   UNL d   1      -4.175  -0.059  -0.026  0.00  0.00    -0.393 N 
ATOM     17  H   UNL d   1      -4.649  -0.956  -0.148  0.00  0.00     0.156 HD
ATOM     18  H   UNL d   1      -4.684   0.732  -0.407  0.00  0.00     0.156 HD
ENDBRANCH   2  16
TORSDOF 4
