REMARK  6 active torsions:
REMARK  status: ('A' for Active; 'I' for Inactive)
REMARK    1  A    between atoms: S_15  and  C_3 
REMARK    2  A    between atoms: C_14  and  C_19 
REMARK       I    between atoms: N_18  and  C_14 
REMARK    3  A    between atoms: C_19  and  S_15 
REMARK    4  A    between atoms: C_24  and  N_18 
REMARK    5  A    between atoms: C_25  and  N_18 
REMARK    6  A    between atoms: O_23  and  C_21 
ROOT
ATOM      1  N   UNL d   1       0.970   0.545   0.002  0.00  0.00    -0.120 N 
ATOM      2  C   UNL d   1       1.706  -0.628   0.016  0.00  0.00     0.720 A 
ATOM      3  C   UNL d   1       1.910   1.555  -0.010  0.00  0.00     0.183 A 
ATOM      4  N   UNL d   1       2.991  -0.327   0.025  0.00  0.00    -0.128 N 
ATOM      5  HN  UNL d   1       3.760  -0.997   0.041  1.00  0.00     0.205 HD
ATOM      6  N   UNL d   1       1.095  -1.843   0.020  0.00  0.00    -0.130 N 
ATOM      7  HN  UNL d   1       1.673  -2.683   0.028  1.00  0.00     0.205 HD
ATOM      8  N   UNL d   1       3.120   1.042   0.009  0.00  0.00    -0.265 N 
ATOM      9  HN  UNL d   1       3.996   1.564   0.012  1.00  0.00     0.189 HD
ATOM     10  N   UNL d   1      -0.156  -1.969   0.013  0.00  0.00    -0.284 N 
ATOM     11  HN  UNL d   1      -0.581  -2.896   0.011  1.00  0.00     0.187 HD
ATOM     12  C   UNL d   1      -0.438   0.487   0.004  0.00  0.00     0.087 A 
ATOM     13  C   UNL d   1      -0.965  -0.812   0.009  0.00  0.00     0.079 A 
ATOM     14  C   UNL d   1      -2.357  -0.975   0.012  0.00  0.00     0.070 A 
ATOM     15  C   UNL d   1      -1.288   1.593   0.006  0.00  0.00     0.036 A 
ATOM     16  C   UNL d   1      -3.217   0.127   0.011  0.00  0.00     0.070 A 
ATOM     17  C   UNL d   1      -2.674   1.409   0.008  0.00  0.00     0.039 A 
ENDROOT
BRANCH   3  18
ATOM     18  S   UNL d   1       1.550   3.236  -0.070  0.00  0.00    -0.082 SA
BRANCH  18  19
ATOM     19  C   UNL d   1       3.158   4.079   0.035  0.00  0.00     0.185 C 
BRANCH  19  20
ATOM     20  C   UNL d   1       2.928   5.601   0.032  0.00  0.00     0.229 C 
ATOM     21  N   UNL d   1       4.043   6.438  -0.007  0.00  0.00    -0.352 N 
ATOM     22  O   UNL d   1       1.793   6.091   0.056  0.00  0.00    -0.273 OA
BRANCH  21  23
ATOM     23  C   UNL d   1       3.808   7.882  -0.115  0.00  0.00     0.121 C 
ATOM     24  C   UNL d   1       3.674   8.550   1.245  0.00  0.00     0.026 C 
ENDBRANCH  21  23
BRANCH  21  25
ATOM     25  C   UNL d   1       5.433   5.996   0.102  0.00  0.00     0.121 C 
ATOM     26  C   UNL d   1       6.101   5.876  -1.258  0.00  0.00     0.026 C 
ENDBRANCH  21  25
ENDBRANCH  19  20
ENDBRANCH  18  19
ENDBRANCH   3  18
BRANCH  16  27
ATOM     27  O   UNL d   1      -4.551  -0.172   0.014  0.00  0.00    -0.356 OA
ATOM     28  C   UNL d   1      -5.456   0.928   0.016  0.00  0.00     0.210 C 
ENDBRANCH  16  27
TORSDOF 6
