REMARK  4 active torsions:
REMARK  status: ('A' for Active; 'I' for Inactive)
REMARK    1  A    between atoms: C_2  and  C_1 
REMARK       I    between atoms: N_8  and  C_2 
REMARK    2  A    between atoms: C_6  and  C_3 
REMARK    3  A    between atoms: C_14  and  N_8 
REMARK    4  A    between atoms: C_15  and  C_14 
ROOT
ATOM      1  C   UNL d   1       3.298   0.107  -1.183  0.00  0.00     0.114 C 
ATOM      2  C   UNL d   1       2.629   0.186  -2.353  0.00  0.00     0.058 C 
ATOM      3  C   UNL d   1       4.720   0.107  -1.098  0.00  0.00     0.105 C 
ATOM      4  N   UNL d   1       5.872   0.103  -0.956  0.00  0.00    -0.191 NA
ENDROOT
BRANCH   1   5
ATOM      5  C   UNL d   1       2.504   0.071   0.097  0.00  0.00     0.262 C 
ATOM      6  N   UNL d   1       3.238  -0.068   1.256  0.00  0.00    -0.354 N 
ATOM      7  H   UNL d   1       4.233  -0.266   1.228  0.00  0.00     0.162 HD
ATOM      8  O   UNL d   1       1.280   0.171   0.101  0.00  0.00    -0.267 OA
BRANCH   6   9
ATOM      9  C   UNL d   1       2.655  -0.062   2.591  0.00  0.00     0.155 C 
BRANCH   9  10
ATOM     10  C   UNL d   1       2.443  -1.471   3.159  0.00  0.00     0.139 C 
ATOM     11  O   UNL d   1       3.703  -2.177   3.223  0.00  0.00    -0.384 OA
ATOM     12  C   UNL d   1       3.791  -2.854   4.486  0.00  0.00     0.168 C 
ATOM     13  C   UNL d   1       2.435  -2.746   5.147  0.00  0.00     0.029 C 
ATOM     14  C   UNL d   1       1.910  -1.449   4.586  0.00  0.00     0.035 C 
ENDBRANCH   9  10
ENDBRANCH   6   9
ENDBRANCH   1   5
BRANCH   2  15
ATOM     15  C   UNL d   1       3.263   0.203  -3.630  0.00  0.00     0.033 A 
ATOM     16  N   UNL d   1       2.675   0.921  -4.650  0.00  0.00    -0.366 N 
ATOM     17  C   UNL d   1       3.432   0.821  -5.790  0.00  0.00     0.088 A 
ATOM     18  H   UNL d   1       1.826   1.466  -4.574  0.00  0.00     0.165 HD
ATOM     19  C   UNL d   1       4.508   0.011  -5.516  0.00  0.00     0.019 A 
ATOM     20  C   UNL d   1       4.398  -0.384  -4.162  0.00  0.00     0.031 A 
ENDBRANCH   2  15
TORSDOF 4
