REMARK  6 active torsions:
REMARK  status: ('A' for Active; 'I' for Inactive)
REMARK    1  A    between atoms: C_10  and  C_1 
REMARK    2  A    between atoms: N_6  and  C_2 
REMARK       I    between atoms: C_8  and  N_6 
REMARK    3  A    between atoms: N_7  and  C_11 
REMARK    4  A    between atoms: C_14  and  C_8 
REMARK    5  A    between atoms: O_22  and  C_10 
REMARK    6  A    between atoms: C_27  and  O_22 
ROOT
ATOM      1  C   UNL d   1       2.084  -0.702  -0.402  0.00  0.00     0.138 C 
ATOM      2  C   UNL d   1       1.030  -1.608  -0.270  0.00  0.00     0.081 C 
ATOM      3  N   UNL d   1       1.546   0.553  -0.124  0.00  0.00    -0.344 N 
ATOM      4  C   UNL d   1      -0.183  -0.850  -0.130  0.00  0.00     0.022 A 
ATOM      5  C   UNL d   1       0.163   0.494  -0.062  0.00  0.00     0.047 A 
ATOM      6  C   UNL d   1      -1.551  -1.201  -0.050  0.00  0.00     0.052 A 
ATOM      7  C   UNL d   1      -2.516  -0.184   0.036  0.00  0.00     0.103 A 
ATOM      8  C   UNL d   1      -0.797   1.518   0.049  0.00  0.00     0.033 A 
ATOM      9  C   UNL d   1      -2.147   1.161   0.084  0.00  0.00     0.038 A 
ATOM     10  C   UNL d   1       2.253   1.818  -0.043  0.00  0.00     0.157 C 
ENDROOT
BRANCH   2  11
ATOM     11  N   UNL d   1       0.998  -3.003  -0.323  0.00  0.00    -0.320 N 
ATOM     12  C   UNL d   1       2.032  -3.885  -0.080  0.00  0.00     0.256 C 
ATOM     13  O   UNL d   1       3.169  -3.594   0.267  0.00  0.00    -0.267 OA
ATOM     14  H   UNL d   1       0.075  -3.390  -0.441  0.00  0.00     0.169 HD
BRANCH  12  15
ATOM     15  C   UNL d   1       1.678  -5.339  -0.211  0.00  0.00     0.032 A 
ATOM     16  C   UNL d   1       2.676  -6.236  -0.625  0.00  0.00     0.020 A 
ATOM     17  C   UNL d   1       2.406  -7.607  -0.716  0.00  0.00     0.043 A 
ATOM     18  C   UNL d   1       1.142  -8.080  -0.389  0.00  0.00     0.116 A 
ATOM     19  C   UNL d   1       0.141  -7.209   0.026  0.00  0.00     0.043 A 
ATOM     20  F   UNL d   1       0.888  -9.394  -0.453  0.00  0.00    -0.206 F 
ATOM     21  C   UNL d   1       0.406  -5.837   0.120  0.00  0.00     0.020 A 
ENDBRANCH  12  15
ENDBRANCH   2  11
BRANCH   1  22
ATOM     22  C   UNL d   1       3.463  -0.900  -0.831  0.00  0.00     0.312 C 
ATOM     23  O   UNL d   1       4.419  -0.198  -0.508  0.00  0.00    -0.258 OA
BRANCH  22  24
ATOM     24  O   UNL d   1       3.516  -1.861  -1.797  0.00  0.00    -0.317 OA
BRANCH  24  25
ATOM     25  C   UNL d   1       4.784  -2.069  -2.428  0.00  0.00     0.175 C 
ATOM     26  C   UNL d   1       5.741  -2.870  -1.562  0.00  0.00     0.034 C 
ENDBRANCH  24  25
ENDBRANCH  22  24
ENDBRANCH   1  22
BRANCH   7  27
ATOM     27  N   UNL d   1      -3.939  -0.547   0.054  0.00  0.00    -0.116 N 
ATOM     28  O   UNL d   1      -4.225  -1.753   0.007  0.00  0.00    -0.532 OA
ATOM     29  O   UNL d   1      -4.770   0.370   0.106  0.00  0.00    -0.532 OA
ENDBRANCH   7  27
TORSDOF 6
