REMARK  2 active torsions:
REMARK  status: ('A' for Active; 'I' for Inactive)
REMARK    1  A    between atoms: N_11  and  C_7 
REMARK    2  A    between atoms: C_14  and  N_11 
ROOT
ATOM      1  N   UNL d   1       1.046   0.971  -0.003  0.00  0.00    -0.270 N 
ATOM      2  N   UNL d   1      -1.251   0.417   0.078  0.00  0.00    -0.270 N 
ATOM      3  C   UNL d   1      -0.272   1.401   0.028  0.00  0.00     0.333 A 
ATOM      4  C   UNL d   1       0.392  -1.355   0.133  0.00  0.00     0.116 A 
ATOM      5  C   UNL d   1      -1.025  -0.950   0.097  0.00  0.00     0.268 A 
ATOM      6  C   UNL d   1       1.464  -0.347   0.035  0.00  0.00     0.268 A 
ATOM      7  C   UNL d   1       0.693  -2.661   0.273  0.00  0.00     0.111 C 
ATOM      8  O   UNL d   1      -0.560   2.599   0.005  0.00  0.00    -0.246 OA
ATOM      9  O   UNL d   1       2.652  -0.672  -0.007  0.00  0.00    -0.267 OA
ATOM     10  O   UNL d   1      -1.931  -1.782   0.083  0.00  0.00    -0.267 OA
ATOM     11  C   UNL d   1      -2.645   0.833   0.079  0.00  0.00     0.164 C 
ATOM     12  C   UNL d   1       2.102   1.970  -0.068  0.00  0.00     0.164 C 
ENDROOT
BRANCH   7  13
ATOM     13  N   UNL d   1       1.944  -3.232   0.299  0.00  0.00    -0.365 N 
ATOM     14  H   UNL d   1       2.717  -2.571   0.170  0.00  0.00     0.165 HD
BRANCH  13  15
ATOM     15  C   UNL d   1       2.330  -4.548   0.589  0.00  0.00     0.032 A 
ATOM     16  C   UNL d   1       3.620  -4.957   0.213  0.00  0.00     0.031 A 
ATOM     17  C   UNL d   1       4.058  -6.267   0.424  0.00  0.00     0.026 A 
ATOM     18  C   UNL d   1       3.203  -7.189   1.016  0.00  0.00     0.034 A 
ATOM     19  C   UNL d   1       1.916  -6.811   1.389  0.00  0.00     0.026 A 
ATOM     20 CL   UNL d   1       3.736  -8.802   1.283  0.00  0.00    -0.084 Cl
ATOM     21  C   UNL d   1       1.479  -5.500   1.164  0.00  0.00     0.031 A 
ENDBRANCH  13  15
ENDBRANCH   7  13
TORSDOF 2
