REMARK  2 active torsions:
REMARK  status: ('A' for Active; 'I' for Inactive)
REMARK    1  A    between atoms: C_5  and  C_2 
REMARK       I    between atoms: N_13  and  C_5 
REMARK    2  A    between atoms: C_14  and  N_13 
ROOT
ATOM      1  C   UNL d   1      -4.544  -2.461   0.830  0.00  0.00     0.252 C 
ATOM      2  N   UNL d   1      -3.535  -2.775  -0.054  0.00  0.00    -0.352 N 
ATOM      3  O   UNL d   1      -4.667  -3.016   1.916  0.00  0.00    -0.268 OA
ATOM      4  H   UNL d   1      -3.487  -2.325  -0.954  0.00  0.00     0.163 HD
ENDROOT
BRANCH   1   5
ATOM      5  C   UNL d   1      -5.492  -1.362   0.441  0.00  0.00     0.034 A 
ATOM      6  C   UNL d   1      -5.308  -0.602  -0.736  0.00  0.00     0.051 A 
ATOM      7  C   UNL d   1      -6.225   0.454  -0.915  0.00  0.00     0.086 A 
ATOM      8  C   UNL d   1      -7.292   0.737   0.032  0.00  0.00     0.085 A 
ATOM      9  N   UNL d   1      -6.292   1.349  -1.906  0.00  0.00    -0.240 N 
ATOM     10  N   UNL d   1      -7.974   1.800  -0.412  0.00  0.00    -0.240 N 
ATOM     11  C   UNL d   1      -7.488  -0.031   1.191  0.00  0.00     0.035 A 
ATOM     12  O   UNL d   1      -7.359   2.176  -1.594  0.00  0.00    -0.156 OA
ATOM     13  HN  UNL d   1      -8.780   2.241   0.029  1.00  0.00     0.197 HD
ATOM     14  C   UNL d   1      -6.555  -1.078   1.359  0.00  0.00     0.019 A 
ATOM     15  HN  UNL d   1      -5.683   1.411  -2.722  1.00  0.00     0.197 HD
ENDBRANCH   1   5
BRANCH   2  16
ATOM     16  C   UNL d   1      -2.400  -3.625   0.267  0.00  0.00     0.093 C 
ATOM     17  C   UNL d   1      -2.694  -5.105   0.592  0.00  0.00     0.064 C 
ATOM     18  C   UNL d   1      -1.378  -5.491   1.210  0.00  0.00    -0.050 A 
ATOM     19  C   UNL d   1      -0.826  -6.752   1.340  0.00  0.00     0.007 A 
ATOM     20  C   UNL d   1      -0.701  -4.356   1.681  0.00  0.00    -0.050 A 
ATOM     21  C   UNL d   1       0.434  -6.863   1.936  0.00  0.00     0.001 A 
ATOM     22  C   UNL d   1       1.109  -5.725   2.409  0.00  0.00     0.001 A 
ATOM     23  C   UNL d   1       0.536  -4.457   2.293  0.00  0.00     0.007 A 
ATOM     24  C   UNL d   1      -1.505  -3.116   1.418  0.00  0.00     0.064 C 
ENDBRANCH   2  16
TORSDOF 2
