REMARK  5 active torsions:
REMARK  status: ('A' for Active; 'I' for Inactive)
REMARK    1  A    between atoms: N_13  and  C_3 
REMARK    2  A    between atoms: C_14  and  C_10 
REMARK    3  A    between atoms: C_23  and  C_11 
REMARK    4  A    between atoms: C_12  and  N_19 
REMARK    5  A    between atoms: C_15  and  C_16 
ROOT
ATOM      1  N   UNL d   1       0.312   0.648  -0.040  0.00  0.00    -0.224 N 
ATOM      2  C   UNL d   1       0.146  -0.743  -0.015  0.00  0.00     0.131 A 
ATOM      3  C   UNL d   1      -0.824   1.516  -0.060  0.00  0.00     0.129 A 
ATOM      4  N   UNL d   1       1.638   0.970  -0.050  0.00  0.00    -0.294 N 
ATOM      5  HN  UNL d   1       2.041   1.907  -0.061  1.00  0.00     0.187 HD
ATOM      6  C   UNL d   1      -2.044   0.943  -0.063  0.00  0.00     0.084 A 
ATOM      7  N   UNL d   1      -1.075  -1.342   0.018  0.00  0.00    -0.337 N 
ATOM      8  HN  UNL d   1      -1.170  -2.357   0.052  1.00  0.00     0.167 HD
ATOM      9  C   UNL d   1       1.408  -1.283  -0.011  0.00  0.00     0.077 A 
ATOM     10  C   UNL d   1      -2.123  -0.558   0.004  0.00  0.00     0.121 A 
ATOM     11  C   UNL d   1       2.301  -0.191  -0.044  0.00  0.00     0.037 A 
ENDROOT
BRANCH   3  12
ATOM     12  N   UNL d   1      -0.672   2.928  -0.038  0.00  0.00    -0.363 N 
ATOM     13  C   UNL d   1       0.525   3.541   0.593  0.00  0.00     0.144 C 
ATOM     14  C   UNL d   1       0.268   4.997   1.029  0.00  0.00     0.144 C 
ATOM     15  N   UNL d   1      -0.265   5.823  -0.064  0.00  0.00    -0.363 N 
ATOM     16  C   UNL d   1      -1.379   5.212  -0.814  0.00  0.00     0.144 C 
ATOM     17  C   UNL d   1      -1.109   3.740  -1.209  0.00  0.00     0.144 C 
BRANCH  15  18
ATOM     18  C   UNL d   1       0.452   6.865  -0.621  0.00  0.00     0.125 A 
ATOM     19  N   UNL d   1       0.402   6.988  -1.976  0.00  0.00    -0.350 N 
ATOM     20  C   UNL d   1       1.025   8.032  -2.581  0.00  0.00     0.106 A 
ATOM     21  HN  UNL d   1      -0.102   6.299  -2.534  1.00  0.00     0.166 HD
ATOM     22  C   UNL d   1       1.736   9.008  -1.909  0.00  0.00     0.065 A 
ATOM     23  C   UNL d   1       1.809   8.888  -0.524  0.00  0.00     0.045 A 
ATOM     24  C   UNL d   1       1.158   7.831   0.127  0.00  0.00     0.078 A 
ATOM     25 CL   UNL d   1       1.171   7.913   1.859  0.00  0.00    -0.080 Cl
BRANCH  22  26
ATOM     26  C   UNL d   1       2.350  10.153  -2.651  0.00  0.00     0.418 C 
ATOM     27  F   UNL d   1       2.992  11.040  -1.841  0.00  0.00    -0.166 F 
ATOM     28  F   UNL d   1       3.272   9.750  -3.567  0.00  0.00    -0.166 F 
ATOM     29  F   UNL d   1       1.429  10.881  -3.340  0.00  0.00    -0.166 F 
ENDBRANCH  22  26
ENDBRANCH  15  18
ENDBRANCH   3  12
BRANCH  10  30
ATOM     30  C   UNL d   1      -3.522  -1.173   0.083  0.00  0.00     0.432 C 
ATOM     31  F   UNL d   1      -4.513  -0.236   0.096  0.00  0.00    -0.165 F 
ATOM     32  F   UNL d   1      -3.788  -1.989  -0.972  0.00  0.00    -0.165 F 
ATOM     33  F   UNL d   1      -3.695  -1.919   1.208  0.00  0.00    -0.165 F 
ENDBRANCH  10  30
BRANCH  11  34
ATOM     34  C   UNL d   1       3.821  -0.210  -0.025  0.00  0.00    -0.007 C 
ATOM     35  C   UNL d   1       4.318  -0.214   1.434  0.00  0.00     0.021 C 
ATOM     36  C   UNL d   1       4.370  -1.463  -0.738  0.00  0.00     0.021 C 
ATOM     37  C   UNL d   1       4.411   1.026  -0.740  0.00  0.00     0.021 C 
ENDBRANCH  11  34
TORSDOF 5
