REMARK  6 active torsions:
REMARK  status: ('A' for Active; 'I' for Inactive)
REMARK    1  A    between atoms: N_8  and  C_2 
REMARK    2  A    between atoms: C_7  and  N_8 
REMARK    3  A    between atoms: N_14  and  C_7 
REMARK    4  A    between atoms: N_12  and  N_14 
REMARK    5  A    between atoms: C_16  and  C_18 
REMARK    6  A    between atoms: C_20  and  C_17 
ROOT
ATOM      1  C   UNL d   1       5.128   3.472  -1.120  0.00  0.00     0.186 C 
ATOM      2  S   UNL d   1       5.350   4.538   0.130  0.00  0.00    -0.040 SA
ENDROOT
BRANCH   1   3
ATOM      3  N   UNL d   1       4.142   2.537  -1.245  0.00  0.00    -0.361 N 
ATOM      4  H   UNL d   1       4.321   2.016  -2.100  0.00  0.00     0.162 HD
BRANCH   3   5
ATOM      5  C   UNL d   1       3.122   2.002  -0.338  0.00  0.00     0.089 C 
ATOM      6  C   UNL d   1       3.633   0.729   0.394  0.00  0.00     0.017 C 
ATOM      7  C   UNL d   1       2.562   0.197   1.389  0.00  0.00     0.018 A 
ATOM      8  C   UNL d   1       3.548  -0.303  -0.745  0.00  0.00     0.012 C 
ATOM      9  C   UNL d   1       1.474  -0.396   0.452  0.00  0.00     0.001 A 
ATOM     10  C   UNL d   1       2.999  -0.991   2.197  0.00  0.00    -0.025 A 
ATOM     11  C   UNL d   1       1.403  -1.910   0.732  0.00  0.00     0.032 A 
ATOM     12  C   UNL d   1       2.042  -0.085  -0.947  0.00  0.00    -0.007 C 
ATOM     13  C   UNL d   1       2.377  -2.120   1.841  0.00  0.00    -0.030 A 
ATOM     14  C   UNL d   1       1.976   1.432  -1.209  0.00  0.00     0.030 C 
ENDBRANCH   3   5
ENDBRANCH   1   3
BRANCH   1  15
ATOM     15  N   UNL d   1       5.987   3.435  -2.224  0.00  0.00    -0.277 N 
ATOM     16  H   UNL d   1       6.769   4.083  -2.267  0.00  0.00     0.189 HD
BRANCH  15  17
ATOM     17  N   UNL d   1       5.776   2.498  -3.202  0.00  0.00    -0.310 N 
ATOM     18  C   UNL d   1       6.652   2.402  -4.142  0.00  0.00     0.107 C 
ATOM     19  HN  UNL d   1       4.953   1.895  -3.185  1.00  0.00     0.186 HD
BRANCH  18  20
ATOM     20  C   UNL d   1       6.463   1.378  -5.199  0.00  0.00     0.019 C 
ATOM     21  C   UNL d   1       7.390   1.119  -6.129  0.00  0.00     0.013 C 
BRANCH  21  22
ATOM     22  C   UNL d   1       7.233   0.070  -7.160  0.00  0.00    -0.036 A 
ATOM     23  C   UNL d   1       7.893   0.210  -8.389  0.00  0.00     0.011 A 
ATOM     24  C   UNL d   1       7.789  -0.779  -9.375  0.00  0.00     0.001 A 
ATOM     25  C   UNL d   1       7.032  -1.924  -9.142  0.00  0.00     0.000 A 
ATOM     26  C   UNL d   1       6.386  -2.086  -7.920  0.00  0.00     0.001 A 
ATOM     27  C   UNL d   1       6.492  -1.100  -6.934  0.00  0.00     0.011 A 
ENDBRANCH  21  22
ENDBRANCH  18  20
ENDBRANCH  15  17
ENDBRANCH   1  15
TORSDOF 6
