REMARK  0 active torsions:
REMARK  status: ('A' for Active; 'I' for Inactive)
ROOT
ATOM      1  C   UNL d   1      -1.734   0.004  -0.775  0.00  0.00    -0.088 C 
ATOM      2  C   UNL d   1       1.355   0.013  -1.092  0.00  0.00     0.127 C 
ATOM      3  C   UNL d   1      -0.015   1.248   0.654  0.00  0.00    -0.003 C 
ATOM      4  C   UNL d   1      -0.009  -1.250   0.640  0.00  0.00    -0.003 C 
ATOM      5  C   UNL d   1      -1.378   1.289  -0.065  0.00  0.00     0.038 C 
ATOM      6  C   UNL d   1      -1.372  -1.288  -0.081  0.00  0.00     0.038 C 
ATOM      7  O   UNL d   1       1.807   0.020  -2.239  0.00  0.00    -0.298 OA
ATOM      8  C   UNL d   1      -2.381   0.010  -1.952  0.00  0.00     0.014 C 
ATOM      9  C   UNL d   1       1.173  -1.288  -0.335  0.00  0.00     0.083 C 
ATOM     10  C   UNL d   1       1.166   1.303  -0.321  0.00  0.00     0.083 C 
ATOM     11  C   UNL d   1       0.078  -0.005   1.529  0.00  0.00     0.010 C 
ENDROOT
TORSDOF 0
