REMARK  5 active torsions:
REMARK  status: ('A' for Active; 'I' for Inactive)
REMARK       I    between atoms: N_5  and  C_1 
REMARK       I    between atoms: N_7  and  C_1 
REMARK    1  A    between atoms: C_6  and  C_3 
REMARK    2  A    between atoms: C_4  and  N_5 
REMARK    3  A    between atoms: O_10  and  C_6 
REMARK    4  A    between atoms: C_11  and  N_7 
REMARK    5  A    between atoms: C_13  and  C_11 
ROOT
ATOM      1  C   UNL d   1       1.071   0.040   0.140  0.00  0.00     0.321 C 
ATOM      2  N   UNL d   1       0.513  -0.326  -1.071  0.00  0.00    -0.308 N 
ATOM      3  N   UNL d   1       0.164   0.731   0.908  0.00  0.00    -0.339 N 
ATOM      4  O   UNL d   1       2.232  -0.147   0.478  0.00  0.00    -0.247 OA
ATOM      5  H   UNL d   1      -0.227   0.287  -1.373  0.00  0.00     0.170 HD
ATOM      6  H   UNL d   1      -0.805   0.462   0.817  0.00  0.00     0.164 HD
ENDROOT
BRANCH   2   7
ATOM      7  C   UNL d   1       1.209  -1.064  -2.057  0.00  0.00     0.043 A 
ATOM      8  C   UNL d   1       1.085  -0.749  -3.430  0.00  0.00    -0.019 A 
ATOM      9  C   UNL d   1       1.763  -1.566  -4.372  0.00  0.00     0.047 A 
ATOM     10  C   UNL d   1       0.320   0.464  -3.900  0.00  0.00     0.052 C 
ATOM     11  C   UNL d   1       2.531  -2.662  -3.940  0.00  0.00     0.018 A 
ATOM     12  C   UNL d   1       2.654  -2.948  -2.586  0.00  0.00     0.003 A 
ATOM     13  C   UNL d   1       1.999  -2.152  -1.654  0.00  0.00     0.030 A 
BRANCH   9  14
ATOM     14  C   UNL d   1       1.683  -1.301  -5.844  0.00  0.00     0.293 C 
ATOM     15  O   UNL d   1       0.734  -0.780  -6.410  0.00  0.00    -0.259 OA
BRANCH  14  16
ATOM     16  O   UNL d   1       2.833  -1.710  -6.438  0.00  0.00    -0.323 OA
ATOM     17  C   UNL d   1       2.867  -1.515  -7.854  0.00  0.00     0.213 C 
ENDBRANCH  14  16
ENDBRANCH   9  14
ENDBRANCH   2   7
BRANCH   3  18
ATOM     18  C   UNL d   1       0.557   1.350   2.155  0.00  0.00     0.162 C 
BRANCH  18  19
ATOM     19  C   UNL d   1      -0.077   0.683   3.348  0.00  0.00    -0.040 A 
ATOM     20  C   UNL d   1       0.264  -0.633   3.694  0.00  0.00     0.009 A 
ATOM     21  C   UNL d   1      -0.305  -1.240   4.816  0.00  0.00     0.001 A 
ATOM     22  C   UNL d   1      -1.216  -0.539   5.603  0.00  0.00     0.000 A 
ATOM     23  C   UNL d   1      -1.560   0.770   5.271  0.00  0.00     0.001 A 
ATOM     24  C   UNL d   1      -0.995   1.378   4.149  0.00  0.00     0.009 A 
ENDBRANCH  18  19
ENDBRANCH   3  18
TORSDOF 5
