REMARK  2 active torsions:
REMARK  status: ('A' for Active; 'I' for Inactive)
REMARK    1  A    between atoms: C_7  and  C_2 
REMARK    2  A    between atoms: O_14  and  C_11 
ROOT
ATOM      1  N   UNL d   1       1.524  -0.590  -0.470  0.00  0.00    -0.292 N 
ATOM      2  C   UNL d   1       1.406   0.659   0.048  0.00  0.00     0.134 A 
ATOM      3  N   UNL d   1       0.259   0.890   0.622  0.00  0.00    -0.281 N 
ATOM      4  HN  UNL d   1      -0.053   1.744   1.083  1.00  0.00     0.188 HD
ATOM      5  C   UNL d   1       0.352  -1.223  -0.196  0.00  0.00     0.340 A 
ATOM      6  N   UNL d   1      -0.429  -0.286   0.462  0.00  0.00    -0.250 N 
ATOM      7  O   UNL d   1       0.065  -2.377  -0.465  0.00  0.00    -0.245 OA
ATOM      8  H   UNL d   1       2.314  -1.038  -0.897  0.00  0.00     0.172 HD
ATOM      9  H   UNL d   1      -1.365  -0.428   0.816  0.00  0.00     0.192 HD
ENDROOT
BRANCH   2  10
ATOM     10  C   UNL d   1       2.520   1.614  -0.049  0.00  0.00     0.009 A 
ATOM     11  C   UNL d   1       3.453   1.534  -1.089  0.00  0.00     0.018 A 
ATOM     12  C   UNL d   1       4.507   2.452  -1.159  0.00  0.00     0.037 A 
ATOM     13  C   UNL d   1       4.636   3.447  -0.189  0.00  0.00     0.068 A 
ATOM     14  C   UNL d   1       3.686   3.541   0.832  0.00  0.00     0.037 A 
ATOM     15  C   UNL d   1       2.631   2.629   0.906  0.00  0.00     0.018 A 
BRANCH  13  16
ATOM     16  O   UNL d   1       5.613   4.403  -0.165  0.00  0.00    -0.356 OA
ATOM     17  C   UNL d   1       6.844   4.045  -0.784  0.00  0.00     0.210 C 
ENDBRANCH  13  16
ENDBRANCH   2  10
TORSDOF 2
