REMARK  3 active torsions:
REMARK  status: ('A' for Active; 'I' for Inactive)
REMARK    1  A    between atoms: C_11  and  C_1 
REMARK    2  A    between atoms: C_6  and  N_13 
REMARK    3  A    between atoms: N_13  and  N_8 
ROOT
ATOM      1  C   UNL d   1      -2.353  -0.243   0.002  0.00  0.00     0.054 A 
ATOM      2  C   UNL d   1      -1.397   0.881  -0.000  0.00  0.00     0.198 A 
ATOM      3  C   UNL d   1       0.034   0.517  -0.006  0.00  0.00     0.049 A 
ATOM      4  C   UNL d   1      -1.863  -1.490  -0.004  0.00  0.00     0.159 A 
ATOM      5  O   UNL d   1      -0.538  -1.845  -0.013  0.00  0.00    -0.321 OA
ATOM      6  C   UNL d   1       0.387  -0.833  -0.010  0.00  0.00     0.089 A 
ATOM      7  O   UNL d   1      -1.772   2.048   0.003  0.00  0.00    -0.286 OA
ATOM      8  C   UNL d   1       1.027   1.500  -0.006  0.00  0.00     0.018 A 
ATOM      9  C   UNL d   1       1.730  -1.209  -0.012  0.00  0.00     0.038 A 
ATOM     10  C   UNL d   1       2.373   1.122  -0.008  0.00  0.00     0.001 A 
ATOM     11  C   UNL d   1       2.722  -0.230  -0.010  0.00  0.00     0.003 A 
ENDROOT
BRANCH   1  12
ATOM     12  C   UNL d   1      -3.820  -0.048   0.015  0.00  0.00     0.124 C 
ATOM     13  N   UNL d   1      -4.643  -1.049   0.019  0.00  0.00    -0.309 N 
ATOM     14  HN  UNL d   1      -4.316  -2.015   0.012  1.00  0.00     0.186 HD
BRANCH  13  15
ATOM     15  N   UNL d   1      -5.971  -0.741   0.032  0.00  0.00    -0.277 N 
ATOM     16  H   UNL d   1      -6.287   0.225   0.039  0.00  0.00     0.189 HD
BRANCH  15  17
ATOM     17  C   UNL d   1      -6.907  -1.741   0.037  0.00  0.00     0.184 C 
ATOM     18  S   UNL d   1      -8.537  -1.445   0.055  0.00  0.00    -0.040 SA
ATOM     19  N   UNL d   1      -6.404  -3.000   0.028  0.00  0.00    -0.375 N 
ATOM     20  H   UNL d   1      -5.395  -3.089   0.016  0.00  0.00     0.158 HD
ATOM     21  H   UNL d   1      -6.997  -3.816   0.030  0.00  0.00     0.158 HD
ENDBRANCH  15  17
ENDBRANCH  13  15
ENDBRANCH   1  12
TORSDOF 3
