REMARK  7 active torsions:
REMARK  status: ('A' for Active; 'I' for Inactive)
REMARK    1  A    between atoms: C_7  and  C_1 
REMARK    2  A    between atoms: O_8  and  C_2 
REMARK    3  A    between atoms: C_3  and  C_10 
REMARK       I    between atoms: C_4  and  N_5 
REMARK    4  A    between atoms: C_15  and  C_4 
REMARK    5  A    between atoms: N_5  and  C_6 
REMARK    6  A    between atoms: O_25  and  C_7 
REMARK    7  A    between atoms: C_11  and  O_8 
ROOT
ATOM      1  C   UNL d   1       2.250   3.305   0.893  0.00  0.00     0.069 C 
ATOM      2  C   UNL d   1       2.663   5.590   0.163  0.00  0.00     0.050 C 
ATOM      3  C   UNL d   1       2.233   2.902  -0.450  0.00  0.00     0.102 C 
ATOM      4  C   UNL d   1       2.420   4.661   1.186  0.00  0.00     0.048 C 
ATOM      5  C   UNL d   1       2.889   5.119  -1.136  0.00  0.00     0.019 C 
ATOM      6  C   UNL d   1       2.691   3.775  -1.437  0.00  0.00     0.040 C 
ENDROOT
BRANCH   3   7
ATOM      7  O   UNL d   1       1.797   1.628  -0.741  0.00  0.00    -0.307 OA
BRANCH   7   8
ATOM      8  C   UNL d   1       1.202   1.304  -1.926  0.00  0.00     0.099 A 
ATOM      9  C   UNL d   1       0.380   2.096  -2.723  0.00  0.00     0.114 A 
ATOM     10  S   UNL d   1       0.021   1.302  -4.209  0.00  0.00    -0.093 SA
ATOM     11  C   UNL d   1       0.812  -0.127  -3.724  0.00  0.00     0.053 A 
ATOM     12  C   UNL d   1       1.385   0.001  -2.481  0.00  0.00     0.046 A 
BRANCH   9  13
ATOM     13  C   UNL d   1      -0.170   3.430  -2.560  0.00  0.00     0.302 C 
ATOM     14  O   UNL d   1      -0.258   4.275  -3.439  0.00  0.00    -0.259 OA
BRANCH  13  15
ATOM     15  O   UNL d   1      -0.613   3.610  -1.282  0.00  0.00    -0.322 OA
ATOM     16  C   UNL d   1      -1.191   4.899  -1.053  0.00  0.00     0.213 C 
ENDBRANCH  13  15
ENDBRANCH   9  13
ENDBRANCH   7   8
ENDBRANCH   3   7
BRANCH   1  17
ATOM     17  N   UNL d   1       2.137   2.322   1.905  0.00  0.00    -0.322 N 
ATOM     18  C   UNL d   1       2.821   2.383   3.124  0.00  0.00     0.255 C 
ATOM     19  O   UNL d   1       3.484   3.360   3.476  0.00  0.00    -0.270 OA
ATOM     20  H   UNL d   1       1.823   1.407   1.593  0.00  0.00     0.169 HD
BRANCH  18  21
ATOM     21  C   UNL d   1       2.847   1.059   3.904  0.00  0.00     0.270 C 
ATOM     22 CL   UNL d   1       3.333   1.317   5.592  0.00  0.00    -0.098 Cl
ATOM     23 CL   UNL d   1       1.262   0.255   3.848  0.00  0.00    -0.098 Cl
ENDBRANCH  18  21
ENDBRANCH   1  17
BRANCH   2  24
ATOM     24  C   UNL d   1       2.664   7.074   0.429  0.00  0.00     0.417 C 
ATOM     25  F   UNL d   1       2.171   7.410   1.652  0.00  0.00    -0.166 F 
ATOM     26  F   UNL d   1       3.904   7.627   0.348  0.00  0.00    -0.166 F 
ATOM     27  F   UNL d   1       1.894   7.747  -0.472  0.00  0.00    -0.166 F 
ENDBRANCH   2  24
TORSDOF 7
