REMARK  4 active torsions:
REMARK  status: ('A' for Active; 'I' for Inactive)
REMARK    1  A    between atoms: C_3  and  C_1 
REMARK    2  A    between atoms: N_6  and  C_2 
REMARK       I    between atoms: C_7  and  N_6 
REMARK       I    between atoms: N_12  and  C_7 
REMARK    3  A    between atoms: C_22  and  N_12 
REMARK    4  A    between atoms: C_21  and  C_22 
ROOT
ATOM      1  N   UNL d   1       1.593  -4.080   0.616  0.00  0.00    -0.306 N 
ATOM      2  C   UNL d   1       1.698  -2.861   0.054  0.00  0.00     0.321 C 
ATOM      3  N   UNL d   1       2.896  -2.259  -0.127  0.00  0.00    -0.339 N 
ATOM      4  O   UNL d   1       0.638  -2.303  -0.241  0.00  0.00    -0.247 OA
ATOM      5  H   UNL d   1       0.602  -4.290   0.686  0.00  0.00     0.170 HD
ATOM      6  H   UNL d   1       3.663  -2.858  -0.390  0.00  0.00     0.164 HD
ENDROOT
BRANCH   1   7
ATOM      7  C   UNL d   1       2.396  -5.033   1.219  0.00  0.00     0.077 A 
ATOM      8  C   UNL d   1       3.756  -5.258   1.377  0.00  0.00     0.186 A 
ATOM      9  O   UNL d   1       3.942  -6.388   2.144  0.00  0.00    -0.308 OA
ATOM     10  C   UNL d   1       2.734  -6.899   2.464  0.00  0.00     0.052 A 
ATOM     11  C   UNL d   1       2.726  -8.109   3.310  0.00  0.00     0.077 C 
ATOM     12  C   UNL d   1       1.754  -6.130   1.894  0.00  0.00     0.064 A 
BRANCH   8  13
ATOM     13  C   UNL d   1       5.047  -4.675   0.950  0.00  0.00     0.441 C 
ATOM     14  F   UNL d   1       4.928  -3.568   0.180  0.00  0.00    -0.164 F 
ATOM     15  F   UNL d   1       5.826  -4.328   2.008  0.00  0.00    -0.164 F 
ATOM     16  F   UNL d   1       5.772  -5.556   0.208  0.00  0.00    -0.164 F 
ENDBRANCH   8  13
ENDBRANCH   1   7
BRANCH   3  17
ATOM     17  C   UNL d   1       2.878  -0.941  -0.732  0.00  0.00     0.163 C 
BRANCH  17  18
ATOM     18  C   UNL d   1       4.220  -0.307  -1.014  0.00  0.00    -0.038 A 
ATOM     19  C   UNL d   1       4.306   0.608  -2.083  0.00  0.00     0.048 A 
ATOM     20  C   UNL d   1       5.488   1.289  -2.279  0.00  0.00     0.105 A 
ATOM     21  O   UNL d   1       5.714   2.225  -3.240  0.00  0.00    -0.323 OA
ATOM     22  C   UNL d   1       6.578   1.092  -1.469  0.00  0.00     0.105 A 
ATOM     23  C   UNL d   1       7.064   2.620  -2.918  0.00  0.00     0.352 A 
ATOM     24  O   UNL d   1       7.632   1.878  -1.819  0.00  0.00    -0.323 OA
ATOM     25  C   UNL d   1       6.541   0.201  -0.419  0.00  0.00     0.040 A 
ATOM     26  C   UNL d   1       5.346  -0.492  -0.183  0.00  0.00     0.012 A 
ENDBRANCH  17  18
ENDBRANCH   3  17
TORSDOF 4
