REMARK  4 active torsions:
REMARK  status: ('A' for Active; 'I' for Inactive)
REMARK    1  A    between atoms: C_2  and  C_1 
REMARK       I    between atoms: N_14  and  C_2 
REMARK    2  A    between atoms: C_3  and  C_15 
REMARK    3  A    between atoms: C_18  and  C_8 
REMARK    4  A    between atoms: C_20  and  N_14 
ROOT
ATOM      1  C   UNL d   1      -5.032  -3.626  -0.787  0.00  0.00    -0.002 A 
ATOM      2  C   UNL d   1      -2.203  -3.732  -0.383  0.00  0.00     0.035 A 
ATOM      3  C   UNL d   1      -4.144  -2.935  -1.628  0.00  0.00     0.016 A 
ATOM      4  C   UNL d   1      -4.463  -4.427   0.213  0.00  0.00     0.016 A 
ATOM      5  C   UNL d   1      -3.072  -4.477   0.413  0.00  0.00     0.030 A 
ATOM      6  C   UNL d   1      -2.752  -2.990  -1.434  0.00  0.00     0.030 A 
ENDROOT
BRANCH   2   7
ATOM      7  N   UNL d   1      -0.804  -3.639  -0.168  0.00  0.00    -0.323 N 
ATOM      8  C   UNL d   1      -0.080  -4.187   0.883  0.00  0.00     0.261 C 
ATOM      9  O   UNL d   1      -0.543  -4.956   1.712  0.00  0.00    -0.267 OA
ATOM     10  H   UNL d   1      -0.298  -3.078  -0.836  0.00  0.00     0.169 HD
BRANCH   8  11
ATOM     11  C   UNL d   1       1.324  -3.784   0.965  0.00  0.00     0.093 A 
ATOM     12  C   UNL d   1       2.420  -4.518   1.550  0.00  0.00     0.083 A 
ATOM     13  N   UNL d   1       3.520  -3.747   1.601  0.00  0.00    -0.259 N 
ATOM     14  O   UNL d   1       3.203  -2.568   0.985  0.00  0.00    -0.241 OA
ATOM     15  HN  UNL d   1       4.417  -3.994   2.018  1.00  0.00     0.195 HD
ATOM     16  C   UNL d   1       1.913  -2.592   0.570  0.00  0.00     0.090 A 
ATOM     17  C   UNL d   1       1.493  -1.373  -0.150  0.00  0.00     0.080 C 
BRANCH  12  18
ATOM     18  C   UNL d   1       2.513  -5.920   1.977  0.00  0.00    -0.006 A 
ATOM     19  C   UNL d   1       3.440  -6.307   2.960  0.00  0.00     0.014 A 
ATOM     20  C   UNL d   1       3.634  -7.656   3.273  0.00  0.00     0.001 A 
ATOM     21  C   UNL d   1       2.898  -8.637   2.613  0.00  0.00     0.000 A 
ATOM     22  C   UNL d   1       1.967  -8.271   1.646  0.00  0.00     0.001 A 
ATOM     23  C   UNL d   1       1.780  -6.923   1.326  0.00  0.00     0.014 A 
ENDBRANCH  12  18
ENDBRANCH   8  11
ENDBRANCH   2   7
BRANCH   1  24
ATOM     24  C   UNL d   1      -6.494  -3.434  -0.954  0.00  0.00     0.085 A 
ATOM     25  N   UNL d   1      -7.032  -2.617  -1.842  0.00  0.00    -0.349 N 
ATOM     26  C   UNL d   1      -8.410  -2.562  -1.691  0.00  0.00     0.050 A 
ATOM     27  HN  UNL d   1      -6.505  -2.097  -2.543  1.00  0.00     0.166 HD
ATOM     28  C   UNL d   1      -9.297  -1.766  -2.443  0.00  0.00     0.031 A 
ATOM     29  C   UNL d   1      -8.933  -3.372  -0.686  0.00  0.00     0.034 A 
ATOM     30  C   UNL d   1     -10.670  -1.791  -2.164  0.00  0.00     0.009 A 
ATOM     31  C   UNL d   1     -11.180  -2.601  -1.146  0.00  0.00    -0.061 A 
ATOM     32  C   UNL d   1     -10.311  -3.411  -0.398  0.00  0.00     0.028 A 
ATOM     33  C   UNL d   1     -12.656  -2.590  -0.858  0.00  0.00     0.048 C 
ATOM     34  S   UNL d   1      -7.643  -4.227   0.061  0.00  0.00    -0.070 SA
ENDBRANCH   1  24
TORSDOF 4
