REMARK  3 active torsions:
REMARK  status: ('A' for Active; 'I' for Inactive)
REMARK       I    between atoms: N_4  and  C_1 
REMARK       I    between atoms: N_14  and  C_1 
REMARK       I    between atoms: C_2  and  N_3 
REMARK    1  A    between atoms: C_5  and  C_2 
REMARK    2  A    between atoms: N_3  and  N_4 
REMARK    3  A    between atoms: C_6  and  C_7 
ROOT
ATOM      1  C   UNL d   1       0.371   2.263  -2.924  0.00  0.00     0.270 C 
ATOM      2  N   UNL d   1       1.111   2.590  -1.805  0.00  0.00    -0.262 N 
ATOM      3  O   UNL d   1       0.889   1.811  -3.943  0.00  0.00    -0.266 OA
ATOM      4  H   UNL d   1       0.759   3.143  -1.028  0.00  0.00     0.190 HD
ENDROOT
BRANCH   1   5
ATOM      5  C   UNL d   1      -1.110   2.462  -2.854  0.00  0.00     0.033 A 
ATOM      6  C   UNL d   1      -1.813   2.631  -1.658  0.00  0.00     0.017 A 
ATOM      7  C   UNL d   1      -3.217   2.710  -1.667  0.00  0.00     0.009 A 
ATOM      8  C   UNL d   1      -3.958   2.615  -2.862  0.00  0.00    -0.051 A 
ATOM      9  C   UNL d   1      -3.230   2.480  -4.054  0.00  0.00     0.009 A 
ATOM     10  C   UNL d   1      -1.831   2.401  -4.050  0.00  0.00     0.017 A 
BRANCH   8  11
ATOM     11  C   UNL d   1      -5.500   2.623  -2.834  0.00  0.00    -0.024 C 
ATOM     12  C   UNL d   1      -6.147   2.490  -4.233  0.00  0.00     0.019 C 
ATOM     13  C   UNL d   1      -6.008   1.434  -1.989  0.00  0.00     0.019 C 
ATOM     14  C   UNL d   1      -6.021   3.937  -2.216  0.00  0.00     0.019 C 
ENDBRANCH   8  11
ENDBRANCH   1   5
BRANCH   2  15
ATOM     15  N   UNL d   1       2.512   2.480  -1.881  0.00  0.00    -0.249 N 
ATOM     16  C   UNL d   1       3.244   3.017  -0.860  0.00  0.00     0.334 C 
ATOM     17  O   UNL d   1       2.726   3.671   0.045  0.00  0.00    -0.246 OA
ATOM     18  N   UNL d   1       4.585   2.834  -0.878  0.00  0.00    -0.346 N 
ATOM     19  C   UNL d   1       5.423   2.150  -1.833  0.00  0.00     0.151 C 
ATOM     20  H   UNL d   1       5.041   3.275  -0.088  0.00  0.00     0.163 HD
ATOM     21  H   UNL d   1       2.858   1.719  -2.452  0.00  0.00     0.192 HD
ENDBRANCH   2  15
TORSDOF 3
