REMARK  3 active torsions:
REMARK  status: ('A' for Active; 'I' for Inactive)
REMARK    1  A    between atoms: C_2  and  C_1 
REMARK       I    between atoms: N_3  and  C_2 
REMARK    2  A    between atoms: C_8  and  N_3 
REMARK    3  A    between atoms: O_12  and  C_4 
ROOT
ATOM      1  C   UNL d   1      -2.677  -2.450  -0.239  0.00  0.00     0.259 C 
ATOM      2  N   UNL d   1      -1.969  -3.602   0.060  0.00  0.00    -0.323 N 
ATOM      3  O   UNL d   1      -3.862  -2.416  -0.570  0.00  0.00    -0.267 OA
ATOM      4  H   UNL d   1      -1.048  -3.514   0.465  0.00  0.00     0.169 HD
ENDROOT
BRANCH   1   5
ATOM      5  C   UNL d   1      -1.976  -1.129  -0.141  0.00  0.00     0.066 A 
ATOM      6  C   UNL d   1      -2.738   0.054  -0.239  0.00  0.00     0.081 A 
ATOM      7  C   UNL d   1      -2.138   1.312  -0.184  0.00  0.00     0.039 A 
ATOM      8  C   UNL d   1      -0.760   1.414  -0.036  0.00  0.00     0.022 A 
ATOM      9  C   UNL d   1       0.008   0.255   0.049  0.00  0.00     0.012 A 
ATOM     10  C   UNL d   1      -0.585  -1.013  -0.009  0.00  0.00     0.039 A 
ATOM     11 BR   UNL d   1       1.886   0.400   0.232  0.00  0.00    -0.051 Br
BRANCH   6  12
ATOM     12  O   UNL d   1      -4.100   0.069  -0.402  0.00  0.00    -0.360 OA
ATOM     13  H   UNL d   1      -4.401  -0.861  -0.520  0.00  0.00     0.217 HD
ENDBRANCH   6  12
ENDBRANCH   1   5
BRANCH   2  14
ATOM     14  C   UNL d   1      -2.427  -4.933  -0.115  0.00  0.00     0.035 A 
ATOM     15  C   UNL d   1      -3.659  -5.261  -0.695  0.00  0.00     0.032 A 
ATOM     16  C   UNL d   1      -4.033  -6.596  -0.878  0.00  0.00     0.044 A 
ATOM     17  C   UNL d   1      -3.176  -7.608  -0.481  0.00  0.00     0.116 A 
ATOM     18  C   UNL d   1      -1.952  -7.311   0.105  0.00  0.00     0.044 A 
ATOM     19  F   UNL d   1      -3.527  -8.886  -0.673  0.00  0.00    -0.206 F 
ATOM     20  C   UNL d   1      -1.578  -5.975   0.289  0.00  0.00     0.032 A 
ENDBRANCH   2  14
TORSDOF 3
