REMARK  7 active torsions:
REMARK  status: ('A' for Active; 'I' for Inactive)
REMARK    1  A    between atoms: C_14  and  N_3 
REMARK    2  A    between atoms: C_15  and  C_10 
REMARK    3  A    between atoms: S_16  and  C_11 
REMARK    4  A    between atoms: C_19  and  C_14 
REMARK    5  A    between atoms: C_18  and  S_16 
REMARK    6  A    between atoms: C_17  and  C_18 
REMARK    7  A    between atoms: C_21  and  C_17 
ROOT
ATOM      1  C   UNL d   1      -0.500  -1.249   0.077  0.00  0.00     0.105 A 
ATOM      2  C   UNL d   1      -0.904  -2.611  -0.019  0.00  0.00     0.193 A 
ATOM      3  N   UNL d   1       0.791  -0.780   0.098  0.00  0.00    -0.284 N 
ATOM      4  N   UNL d   1       0.854   0.575   0.173  0.00  0.00    -0.301 N 
ATOM      5  HN  UNL d   1       1.689   1.155   0.263  1.00  0.00     0.187 HD
ATOM      6  C   UNL d   1      -1.300  -0.125   0.096  0.00  0.00     0.063 A 
ATOM      7  O   UNL d   1      -2.106  -2.994  -0.565  0.00  0.00    -0.266 OA
ATOM      8  N   UNL d   1      -0.190  -3.649   0.366  0.00  0.00    -0.275 N 
ATOM      9  HN  UNL d   1       0.729  -3.625   0.809  1.00  0.00     0.189 HD
ATOM     10  C   UNL d   1      -0.420   0.983   0.103  0.00  0.00     0.036 A 
ATOM     11  C   UNL d   1      -2.044  -4.359  -0.493  0.00  0.00     0.204 A 
ATOM     12  N   UNL d   1      -0.922  -4.776   0.056  0.00  0.00    -0.272 N 
ATOM     13  HN  UNL d   1      -0.648  -5.745   0.220  1.00  0.00     0.189 HD
ENDROOT
BRANCH   3  14
ATOM     14  C   UNL d   1       2.044  -1.527  -0.030  0.00  0.00     0.187 C 
BRANCH  14  15
ATOM     15  C   UNL d   1       2.458  -1.684  -1.478  0.00  0.00    -0.038 A 
ATOM     16  C   UNL d   1       2.723  -0.557  -2.275  0.00  0.00     0.015 A 
ATOM     17  C   UNL d   1       2.998  -0.686  -3.645  0.00  0.00    -0.061 A 
ATOM     18  C   UNL d   1       3.161   0.531  -4.505  0.00  0.00     0.048 C 
ATOM     19  C   UNL d   1       3.096  -1.968  -4.201  0.00  0.00     0.007 A 
ATOM     20  C   UNL d   1       2.895  -3.095  -3.407  0.00  0.00     0.001 A 
ATOM     21  C   UNL d   1       2.569  -2.957  -2.055  0.00  0.00     0.009 A 
ENDBRANCH  14  15
ENDBRANCH   3  14
BRANCH  10  22
ATOM     22  C   UNL d   1      -0.772   2.465   0.044  0.00  0.00    -0.007 C 
ATOM     23  C   UNL d   1      -0.925   3.023   1.471  0.00  0.00     0.021 C 
ATOM     24  C   UNL d   1       0.317   3.276  -0.692  0.00  0.00     0.021 C 
ATOM     25  C   UNL d   1      -2.101   2.689  -0.713  0.00  0.00     0.021 C 
ENDBRANCH  10  22
BRANCH  11  26
ATOM     26  S   UNL d   1      -3.264  -5.428  -1.122  0.00  0.00    -0.077 SA
BRANCH  26  27
ATOM     27  C   UNL d   1      -4.485  -4.249  -1.769  0.00  0.00     0.166 C 
BRANCH  27  28
ATOM     28  C   UNL d   1      -5.080  -3.372  -0.679  0.00  0.00     0.169 C 
ATOM     29  O   UNL d   1      -5.155  -3.736   0.489  0.00  0.00    -0.291 OA
BRANCH  28  30
ATOM     30  C   UNL d   1      -5.625  -2.024  -1.037  0.00  0.00     0.010 A 
ATOM     31  C   UNL d   1      -5.650  -1.525  -2.344  0.00  0.00     0.015 A 
ATOM     32  C   UNL d   1      -6.169  -0.251  -2.602  0.00  0.00     0.001 A 
ATOM     33  C   UNL d   1      -6.676   0.526  -1.563  0.00  0.00     0.000 A 
ATOM     34  C   UNL d   1      -6.667   0.035  -0.261  0.00  0.00     0.001 A 
ATOM     35  C   UNL d   1      -6.143  -1.230   0.002  0.00  0.00     0.015 A 
ENDBRANCH  28  30
ENDBRANCH  27  28
ENDBRANCH  26  27
ENDBRANCH  11  26
TORSDOF 7
