REMARK  6 active torsions:
REMARK  status: ('A' for Active; 'I' for Inactive)
REMARK    1  A    between atoms: N_3  and  C_1 
REMARK       I    between atoms: C_2  and  N_3 
REMARK    2  A    between atoms: C_6  and  C_2 
REMARK    3  A    between atoms: N_5  and  C_4 
REMARK    4  A    between atoms: C_7  and  C_8 
REMARK    5  A    between atoms: O_21  and  C_7 
REMARK    6  A    between atoms: C_27  and  O_21 
ROOT
ATOM      1  C   UNL d   1       1.646  -0.143  -0.006  0.00  0.00     0.062 C 
ATOM      2  C   UNL d   1       0.889  -1.312   0.275  0.00  0.00     0.057 C 
ATOM      3  C   UNL d   1      -0.313   1.237   0.285  0.00  0.00     0.041 C 
ATOM      4  C   UNL d   1       1.065   1.122   0.070  0.00  0.00     0.049 C 
ATOM      5  C   UNL d   1      -0.494  -1.180   0.429  0.00  0.00     0.033 C 
ATOM      6  C   UNL d   1      -1.096   0.082   0.418  0.00  0.00     0.020 C 
ENDROOT
BRANCH   1   7
ATOM      7  N   UNL d   1       3.007  -0.229  -0.408  0.00  0.00    -0.321 N 
ATOM      8  C   UNL d   1       3.369  -1.116  -1.417  0.00  0.00     0.256 C 
ATOM      9  O   UNL d   1       2.576  -1.687  -2.168  0.00  0.00    -0.267 OA
ATOM     10  H   UNL d   1       3.559   0.614  -0.342  0.00  0.00     0.169 HD
BRANCH   8  11
ATOM     11  C   UNL d   1       4.822  -1.357  -1.642  0.00  0.00     0.034 A 
ATOM     12  C   UNL d   1       5.169  -2.277  -2.649  0.00  0.00     0.042 A 
ATOM     13  C   UNL d   1       6.502  -2.609  -2.889  0.00  0.00     0.056 A 
ATOM     14 CL   UNL d   1       6.829  -3.765  -4.130  0.00  0.00    -0.083 Cl
ATOM     15  C   UNL d   1       7.510  -2.018  -2.125  0.00  0.00     0.055 A 
ATOM     16  C   UNL d   1       7.175  -1.106  -1.117  0.00  0.00     0.026 A 
ATOM     17 CL   UNL d   1       9.181  -2.376  -2.364  0.00  0.00    -0.083 Cl
ATOM     18  C   UNL d   1       5.834  -0.780  -0.867  0.00  0.00     0.019 A 
ENDBRANCH   8  11
ENDBRANCH   1   7
BRANCH   2  19
ATOM     19  N   UNL d   1       1.528  -2.525   0.462  0.00  0.00    -0.375 N 
ATOM     20  C   UNL d   1       2.310  -2.723   1.687  0.00  0.00     0.149 C 
ATOM     21  C   UNL d   1       3.483  -3.662   1.365  0.00  0.00     0.187 C 
ATOM     22  O   UNL d   1       3.031  -4.899   0.783  0.00  0.00    -0.388 OA
ATOM     23  C   UNL d   1       2.276  -4.651  -0.422  0.00  0.00     0.187 C 
ATOM     24  C   UNL d   1       1.047  -3.761  -0.151  0.00  0.00     0.149 C 
ENDBRANCH   2  19
BRANCH   3  25
ATOM     25  C   UNL d   1      -0.877   2.603   0.432  0.00  0.00     0.293 C 
ATOM     26  O   UNL d   1      -0.193   3.614   0.436  0.00  0.00    -0.259 OA
BRANCH  25  27
ATOM     27  O   UNL d   1      -2.206   2.529   0.682  0.00  0.00    -0.318 OA
BRANCH  27  28
ATOM     28  C   UNL d   1      -2.790   3.687   1.292  0.00  0.00     0.174 C 
ATOM     29  C   UNL d   1      -2.773   3.472   2.795  0.00  0.00     0.034 C 
ENDBRANCH  27  28
ENDBRANCH  25  27
ENDBRANCH   3  25
TORSDOF 6
