REMARK  4 active torsions:
REMARK  status: ('A' for Active; 'I' for Inactive)
REMARK    1  A    between atoms: C_6  and  N_1 
REMARK    2  A    between atoms: C_7  and  C_10 
REMARK    3  A    between atoms: O_16  and  C_7 
REMARK    4  A    between atoms: C_18  and  O_16 
ROOT
ATOM      1  C   UNL d   1      -2.591  -0.035  -0.704  0.00  0.00     0.046 A 
ATOM      2  C   UNL d   1      -5.292  -0.146  -1.540  0.00  0.00     0.039 A 
ATOM      3  C   UNL d   1      -3.044   0.721  -1.797  0.00  0.00     0.031 A 
ATOM      4  C   UNL d   1      -3.527  -0.824  -0.020  0.00  0.00     0.031 A 
ATOM      5  C   UNL d   1      -4.375   0.655  -2.222  0.00  0.00     0.020 A 
ATOM      6  C   UNL d   1      -4.865  -0.876  -0.426  0.00  0.00     0.020 A 
ENDROOT
BRANCH   1   7
ATOM      7  N   UNL d   1      -1.217  -0.044  -0.355  0.00  0.00    -0.245 N 
ATOM      8  C   UNL d   1      -0.307   0.922  -0.688  0.00  0.00     0.255 A 
ATOM      9  C   UNL d   1       1.017   0.431  -0.308  0.00  0.00     0.087 A 
ATOM     10  O   UNL d   1      -0.455   2.019  -1.196  0.00  0.00    -0.268 OA
ATOM     11  C   UNL d   1       0.866  -0.782   0.231  0.00  0.00     0.012 A 
ATOM     12  C   UNL d   1      -0.576  -1.072   0.278  0.00  0.00     0.261 A 
ATOM     13  C   UNL d   1       1.911  -1.742   0.643  0.00  0.00     0.054 C 
ATOM     14  O   UNL d   1      -1.013  -2.106   0.762  0.00  0.00    -0.267 OA
ENDBRANCH   1   7
BRANCH   2  15
ATOM     15  C   UNL d   1      -6.707  -0.131  -1.992  0.00  0.00     0.293 C 
ATOM     16  O   UNL d   1      -7.107   0.528  -2.938  0.00  0.00    -0.259 OA
BRANCH  15  17
ATOM     17  O   UNL d   1      -7.468  -0.856  -1.138  0.00  0.00    -0.318 OA
BRANCH  17  18
ATOM     18  C   UNL d   1      -8.871  -0.570  -1.174  0.00  0.00     0.174 C 
ATOM     19  C   UNL d   1      -9.136   0.588  -0.229  0.00  0.00     0.034 C 
ENDBRANCH  17  18
ENDBRANCH  15  17
ENDBRANCH   2  15
TORSDOF 4
