REMARK  2 active torsions:
REMARK  status: ('A' for Active; 'I' for Inactive)
REMARK    1  A    between atoms: C_9  and  N_3 
REMARK    2  A    between atoms: O_17  and  C_14 
ROOT
ATOM      1  C   UNL d   1      -0.619  -0.559   1.162  0.00  0.00     0.334 A 
ATOM      2  N   UNL d   1       0.042   0.649   1.176  0.00  0.00    -0.274 N 
ATOM      3  N   UNL d   1      -0.652  -1.212  -0.086  0.00  0.00    -0.273 N 
ATOM      4  C   UNL d   1       0.585   0.551  -1.165  0.00  0.00     0.128 A 
ATOM      5  C   UNL d   1      -0.043  -0.630  -1.194  0.00  0.00     0.130 A 
ATOM      6  C   UNL d   1       0.602   1.292   0.109  0.00  0.00     0.271 A 
ATOM      7  C   UNL d   1       1.233   1.083  -2.307  0.00  0.00     0.106 C 
ATOM      8  N   UNL d   1       1.752   1.459  -3.274  0.00  0.00    -0.191 NA
ATOM      9  O   UNL d   1      -1.149  -0.941   2.202  0.00  0.00    -0.246 OA
ATOM     10  O   UNL d   1       1.082   2.415   0.215  0.00  0.00    -0.266 OA
ATOM     11  H   UNL d   1       0.021   1.149   2.053  0.00  0.00     0.173 HD
ENDROOT
BRANCH   3  12
ATOM     12  C   UNL d   1      -1.335  -2.473  -0.203  0.00  0.00     0.043 A 
ATOM     13  C   UNL d   1      -2.082  -2.773  -1.353  0.00  0.00     0.033 A 
ATOM     14  C   UNL d   1      -2.759  -3.991  -1.468  0.00  0.00     0.039 A 
ATOM     15  C   UNL d   1      -2.670  -4.953  -0.463  0.00  0.00     0.068 A 
ATOM     16  C   UNL d   1      -1.924  -4.674   0.679  0.00  0.00     0.039 A 
ATOM     17  C   UNL d   1      -1.271  -3.439   0.810  0.00  0.00     0.033 A 
BRANCH  15  18
ATOM     18  O   UNL d   1      -3.381  -6.097  -0.693  0.00  0.00    -0.356 OA
ATOM     19  C   UNL d   1      -2.944  -7.257   0.006  0.00  0.00     0.210 C 
ENDBRANCH  15  18
ENDBRANCH   3  12
TORSDOF 2
