REMARK  5 active torsions:
REMARK  status: ('A' for Active; 'I' for Inactive)
REMARK    1  A    between atoms: O_14  and  C_3 
REMARK    2  A    between atoms: C_15  and  C_8 
REMARK    3  A    between atoms: C_9  and  C_10 
REMARK    4  A    between atoms: O_16  and  C_15 
REMARK    5  A    between atoms: C_17  and  O_16 
ROOT
ATOM      1  N   UNL d   1      -1.454   1.435  -0.851  0.00  0.00    -0.323 N 
ATOM      2  HN  UNL d   1      -1.999   2.287  -0.718  1.00  0.00     0.169 HD
ATOM      3  C   UNL d   1      -2.006   0.213  -0.788  0.00  0.00     0.165 A 
ATOM      4  C   UNL d   1      -1.342  -0.982  -0.973  0.00  0.00     0.106 A 
ATOM      5  N   UNL d   1       0.618   0.353  -1.317  0.00  0.00    -0.346 N 
ATOM      6  HN  UNL d   1       1.614   0.426  -1.524  1.00  0.00     0.167 HD
ATOM      7  C   UNL d   1       0.008  -0.856  -1.246  0.00  0.00     0.033 A 
ATOM      8  C   UNL d   1      -0.132   1.459  -1.104  0.00  0.00     0.108 A 
ATOM      9 CL   UNL d   1      -2.142  -2.500  -0.877  0.00  0.00    -0.078 Cl
ATOM     10  C   UNL d   1       0.889  -2.045  -1.488  0.00  0.00     0.070 C 
ENDROOT
BRANCH   8  11
ATOM     11  C   UNL d   1       0.566   2.795  -1.227  0.00  0.00     0.252 C 
BRANCH  11  12
ATOM     12  O   UNL d   1       0.487   3.527   0.003  0.00  0.00    -0.344 OA
BRANCH  12  13
ATOM     13  C   UNL d   1       1.043   4.777  -0.035  0.00  0.00     0.069 A 
ATOM     14  C   UNL d   1       0.510   5.708   0.852  0.00  0.00     0.037 A 
ATOM     15  C   UNL d   1       0.999   7.021   0.882  0.00  0.00     0.011 A 
ATOM     16  C   UNL d   1       2.046   7.434   0.036  0.00  0.00    -0.050 A 
ATOM     17  C   UNL d   1       2.593   6.467  -0.820  0.00  0.00     0.011 A 
ATOM     18  C   UNL d   1       2.102   5.156  -0.854  0.00  0.00     0.037 A 
BRANCH  16  19
ATOM     19  C   UNL d   1       2.541   8.890   0.055  0.00  0.00    -0.024 C 
ATOM     20  C   UNL d   1       3.696   9.162  -0.937  0.00  0.00     0.019 C 
ATOM     21  C   UNL d   1       1.379   9.831  -0.328  0.00  0.00     0.019 C 
ATOM     22  C   UNL d   1       3.053   9.261   1.462  0.00  0.00     0.019 C 
ENDBRANCH  16  19
ENDBRANCH  12  13
ENDBRANCH  11  12
ENDBRANCH   8  11
BRANCH   3  23
ATOM     23  O   UNL d   1      -3.339   0.258  -0.517  0.00  0.00    -0.345 OA
ATOM     24  H   UNL d   1      -3.471   1.218  -0.427  0.00  0.00     0.219 HD
ENDBRANCH   3  23
TORSDOF 5
