REMARK  1 active torsions:
REMARK  status: ('A' for Active; 'I' for Inactive)
REMARK    1  A    between atoms: C_15  and  C_10 
ROOT
ATOM      1  C   UNL d   1      -0.291  -0.675  -0.001  0.00  0.00     0.147 A 
ATOM      2  C   UNL d   1      -0.276   0.690  -0.002  0.00  0.00     0.145 A 
ATOM      3  N   UNL d   1       0.894   1.413  -0.004  0.00  0.00    -0.287 N 
ATOM      4  N   UNL d   1       2.098  -0.682  -0.004  0.00  0.00    -0.269 N 
ATOM      5  C   UNL d   1       2.153   0.705  -0.004  0.00  0.00     0.332 A 
ATOM      6  C   UNL d   1       0.929  -1.448  -0.001  0.00  0.00     0.281 A 
ATOM      7  N   UNL d   1      -1.585  -1.142  -0.001  0.00  0.00    -0.338 N 
ATOM      8  HN  UNL d   1      -1.889  -2.115  -0.000  1.00  0.00     0.167 HD
ATOM      9  N   UNL d   1      -1.585   1.078  -0.003  0.00  0.00    -0.330 N 
ATOM     10  C   UNL d   1      -2.351  -0.068  -0.003  0.00  0.00     0.083 A 
ATOM     11  O   UNL d   1       3.177   1.372  -0.005  0.00  0.00    -0.246 OA
ATOM     12  O   UNL d   1       0.930  -2.675   0.001  0.00  0.00    -0.265 OA
ATOM     13  C   UNL d   1       0.948   2.879  -0.007  0.00  0.00     0.163 C 
ATOM     14  C   UNL d   1       3.371  -1.375  -0.008  0.00  0.00     0.164 C 
ATOM     15  H   UNL d   1      -1.950   2.020  -0.003  0.00  0.00     0.168 HD
ENDROOT
BRANCH  10  16
ATOM     16  C   UNL d   1      -3.842  -0.041   0.001  0.00  0.00     0.072 C 
ATOM     17  C   UNL d   1      -4.405  -0.038  -1.411  0.00  0.00     0.013 C 
ENDBRANCH  10  16
TORSDOF 1
