REMARK  8 active torsions:
REMARK  status: ('A' for Active; 'I' for Inactive)
REMARK    1  A    between atoms: N_2  and  S_1 
REMARK    2  A    between atoms: C_3  and  S_1 
REMARK    3  A    between atoms: C_4  and  N_2 
REMARK    4  A    between atoms: C_10  and  N_2 
REMARK    5  A    between atoms: C_6  and  C_4 
REMARK    6  A    between atoms: C_5  and  C_9 
REMARK       I    between atoms: N_12  and  C_5 
REMARK    7  A    between atoms: C_9  and  C_10 
REMARK    8  A    between atoms: C_19  and  N_12 
ROOT
ATOM      1  N   UNL d   1       0.187  -0.545   1.402  0.00  0.00    -0.200 NA
ENDROOT
BRANCH   1   2
ATOM      2  S   UNL d   1       0.820   0.092  -0.061  0.00  0.00     0.244 S 
ATOM      3  O   UNL d   1       0.580  -0.890  -1.093  0.00  0.00    -0.206 OA
ATOM      4  O   UNL d   1       2.166   0.548   0.239  0.00  0.00    -0.206 OA
BRANCH   2   5
ATOM      5  C   UNL d   1      -0.101   1.551  -0.471  0.00  0.00     0.074 A 
ATOM      6  C   UNL d   1       0.051   2.700   0.309  0.00  0.00     0.026 A 
ATOM      7  C   UNL d   1      -0.517   3.901  -0.121  0.00  0.00     0.025 A 
ATOM      8  C   UNL d   1      -1.222   3.948  -1.327  0.00  0.00     0.034 A 
ATOM      9  C   UNL d   1      -1.381   2.799  -2.100  0.00  0.00     0.025 A 
ATOM     10 CL   UNL d   1      -1.868   5.443  -1.880  0.00  0.00    -0.084 Cl
ATOM     11  C   UNL d   1      -0.820   1.594  -1.675  0.00  0.00     0.026 A 
ENDBRANCH   2   5
ENDBRANCH   1   2
BRANCH   1  12
ATOM     12  C   UNL d   1      -1.315  -0.639   1.411  0.00  0.00     0.172 C 
BRANCH  12  13
ATOM     13  C   UNL d   1      -1.818  -1.114   2.737  0.00  0.00     0.066 A 
ATOM     14  O   UNL d   1      -2.535  -2.277   2.726  0.00  0.00    -0.326 OA
ATOM     15  C   UNL d   1      -2.841  -2.571   4.017  0.00  0.00     0.142 A 
ATOM     16  C   UNL d   1      -2.336  -1.611   4.861  0.00  0.00     0.027 A 
ATOM     17  C   UNL d   1      -1.685  -0.661   4.035  0.00  0.00     0.036 A 
ENDBRANCH  12  13
ENDBRANCH   1  12
BRANCH   1  18
ATOM     18  C   UNL d   1       0.789  -1.909   1.732  0.00  0.00     0.117 C 
BRANCH  18  19
ATOM     19  C   UNL d   1       2.307  -1.978   1.809  0.00  0.00     0.118 C 
BRANCH  19  20
ATOM     20  C   UNL d   1       2.857  -1.355   3.073  0.00  0.00     0.223 C 
ATOM     21  N   UNL d   1       3.301  -0.055   2.920  0.00  0.00    -0.327 N 
ATOM     22  H   UNL d   1       2.998   0.438   2.080  0.00  0.00     0.169 HD
ATOM     23  O   UNL d   1       2.887  -2.007   4.114  0.00  0.00    -0.273 OA
BRANCH  21  24
ATOM     24  C   UNL d   1       4.157   0.638   3.806  0.00  0.00     0.034 A 
ATOM     25  C   UNL d   1       4.894  -0.005   4.808  0.00  0.00     0.031 A 
ATOM     26  C   UNL d   1       5.821   0.701   5.583  0.00  0.00     0.026 A 
ATOM     27  C   UNL d   1       6.002   2.063   5.373  0.00  0.00     0.034 A 
ATOM     28  C   UNL d   1       5.252   2.727   4.406  0.00  0.00     0.026 A 
ATOM     29 CL   UNL d   1       7.176   2.922   6.294  0.00  0.00    -0.084 Cl
ATOM     30  C   UNL d   1       4.338   2.013   3.617  0.00  0.00     0.031 A 
ENDBRANCH  21  24
ENDBRANCH  19  20
ENDBRANCH  18  19
ENDBRANCH   1  18
TORSDOF 8
