REMARK  2 active torsions:
REMARK  status: ('A' for Active; 'I' for Inactive)
REMARK    1  A    between atoms: C_8  and  N_1 
REMARK    2  A    between atoms: O_19  and  C_16 
ROOT
ATOM      1  N   UNL d   1       0.950  -0.704   0.041  0.00  0.00    -0.269 N 
ATOM      2  C   UNL d   1      -0.302  -1.060  -0.410  0.00  0.00     0.164 A 
ATOM      3  N   UNL d   1      -1.197  -0.107  -0.335  0.00  0.00    -0.281 N 
ATOM      4  HN  UNL d   1      -2.171  -0.139  -0.634  1.00  0.00     0.188 HD
ATOM      5  C   UNL d   1       0.797   0.609   0.462  0.00  0.00     0.199 A 
ATOM      6  N   UNL d   1      -0.535   0.934   0.233  0.00  0.00    -0.274 N 
ATOM      7  C   UNL d   1      -0.681  -2.362  -0.893  0.00  0.00     0.120 A 
ATOM      8  S   UNL d   1       1.861   1.751   1.035  0.00  0.00    -0.039 SA
ATOM      9  O   UNL d   1      -0.108  -3.482  -0.354  0.00  0.00    -0.319 OA
ATOM     10  C   UNL d   1      -1.618  -2.744  -1.838  0.00  0.00     0.043 A 
ATOM     11  C   UNL d   1      -0.640  -4.558  -0.987  0.00  0.00     0.142 A 
ATOM     12  C   UNL d   1      -1.568  -4.157  -1.917  0.00  0.00     0.027 A 
ATOM     13  H   UNL d   1      -0.972   1.835   0.391  0.00  0.00     0.189 HD
ENDROOT
BRANCH   1  14
ATOM     14  C   UNL d   1       2.157  -1.451  -0.043  0.00  0.00     0.043 A 
ATOM     15  C   UNL d   1       2.409  -2.302  -1.131  0.00  0.00     0.033 A 
ATOM     16  C   UNL d   1       3.571  -3.083  -1.201  0.00  0.00     0.039 A 
ATOM     17  C   UNL d   1       4.523  -3.008  -0.191  0.00  0.00     0.068 A 
ATOM     18  C   UNL d   1       4.319  -2.125   0.865  0.00  0.00     0.039 A 
ATOM     19  C   UNL d   1       3.144  -1.365   0.947  0.00  0.00     0.033 A 
BRANCH  17  20
ATOM     20  O   UNL d   1       5.693  -3.713  -0.157  0.00  0.00    -0.356 OA
ATOM     21  C   UNL d   1       5.657  -4.988  -0.791  0.00  0.00     0.210 C 
ENDBRANCH  17  20
ENDBRANCH   1  14
TORSDOF 2
