REMARK  7 active torsions:
REMARK  status: ('A' for Active; 'I' for Inactive)
REMARK    1  A    between atoms: C_15  and  C_3 
REMARK    2  A    between atoms: O_14  and  C_6 
REMARK    3  A    between atoms: C_16  and  C_7 
REMARK    4  A    between atoms: C_13  and  C_8 
REMARK    5  A    between atoms: C_11  and  O_14 
REMARK    6  A    between atoms: O_25  and  C_15 
REMARK    7  A    between atoms: O_26  and  C_16 
ROOT
ATOM      1  C   UNL d   1      -0.289  -0.752  -0.013  0.00  0.00     0.069 A 
ATOM      2  C   UNL d   1      -0.216   0.689   0.000  0.00  0.00     0.033 A 
ATOM      3  C   UNL d   1      -1.584  -1.228  -0.021  0.00  0.00     0.107 A 
ATOM      4  N   UNL d   1       0.829  -1.525  -0.012  0.00  0.00    -0.350 N 
ATOM      5  HN  UNL d   1       0.803  -2.544  -0.042  1.00  0.00     0.166 HD
ATOM      6  C   UNL d   1       0.963   1.439   0.016  0.00  0.00     0.091 A 
ATOM      7  C   UNL d   1       2.000  -0.802   0.032  0.00  0.00     0.119 A 
ATOM      8  S   UNL d   1      -2.701   0.094  -0.023  0.00  0.00    -0.093 SA
ATOM      9  C   UNL d   1       2.094   0.618   0.069  0.00  0.00     0.072 A 
ATOM     10  C   UNL d   1      -1.460   1.271  -0.006  0.00  0.00     0.067 A 
ENDROOT
BRANCH   6  11
ATOM     11  O   UNL d   1       0.977   2.807   0.066  0.00  0.00    -0.308 OA
BRANCH  11  12
ATOM     12  C   UNL d   1       1.962   3.541  -0.512  0.00  0.00     0.099 A 
ATOM     13  C   UNL d   1       2.323   4.786  -0.021  0.00  0.00     0.114 A 
ATOM     14  S   UNL d   1       3.623   5.448  -0.940  0.00  0.00    -0.093 SA
ATOM     15  C   UNL d   1       3.649   4.123  -2.011  0.00  0.00     0.053 A 
ATOM     16  C   UNL d   1       2.689   3.191  -1.695  0.00  0.00     0.046 A 
BRANCH  13  17
ATOM     17  C   UNL d   1       1.821   5.569   1.095  0.00  0.00     0.302 C 
ATOM     18  O   UNL d   1       2.237   6.668   1.448  0.00  0.00    -0.259 OA
BRANCH  17  19
ATOM     19  O   UNL d   1       0.796   4.922   1.724  0.00  0.00    -0.322 OA
ATOM     20  C   UNL d   1       0.253   5.638   2.835  0.00  0.00     0.213 C 
ENDBRANCH  17  19
ENDBRANCH  13  17
ENDBRANCH  11  12
ENDBRANCH   6  11
BRANCH   7  21
ATOM     21  C   UNL d   1       3.326  -1.565   0.027  0.00  0.00     0.432 C 
ATOM     22  F   UNL d   1       3.204  -2.919  -0.022  0.00  0.00    -0.165 F 
ATOM     23  F   UNL d   1       4.107  -1.222  -1.040  0.00  0.00    -0.165 F 
ATOM     24  F   UNL d   1       4.082  -1.294   1.130  0.00  0.00    -0.165 F 
ENDBRANCH   7  21
BRANCH   3  25
ATOM     25  C   UNL d   1      -2.130  -2.569  -0.024  0.00  0.00     0.302 C 
ATOM     26  O   UNL d   1      -3.326  -2.853  -0.035  0.00  0.00    -0.259 OA
BRANCH  25  27
ATOM     27  O   UNL d   1      -1.146  -3.513  -0.006  0.00  0.00    -0.322 OA
ATOM     28  C   UNL d   1      -1.626  -4.859   0.003  0.00  0.00     0.213 C 
ENDBRANCH  25  27
ENDBRANCH   3  25
TORSDOF 7
