REMARK  7 active torsions:
REMARK  status: ('A' for Active; 'I' for Inactive)
REMARK    1  A    between atoms: C_9  and  C_1 
REMARK    2  A    between atoms: C_2  and  C_10 
REMARK    3  A    between atoms: N_3  and  C_13 
REMARK    4  A    between atoms: C_14  and  N_5 
REMARK    5  A    between atoms: O_11  and  C_7 
REMARK    6  A    between atoms: O_12  and  C_8 
REMARK    7  A    between atoms: C_13  and  C_14 
ROOT
ATOM      1  C   UNL d   1       4.564   3.458   0.120  0.00  0.00     0.138 C 
ENDROOT
BRANCH   1   2
ATOM      2  N   UNL d   1       5.261   4.735   0.314  0.00  0.00    -0.396 N 
ATOM      3  C   UNL d   1       5.629   5.314  -0.781  0.00  0.00     0.097 C 
ATOM      4  HN  UNL d   1       5.440   5.133   1.236  1.00  0.00     0.158 HD
BRANCH   3   5
ATOM      5  C   UNL d   1       6.310   6.622  -0.743  0.00  0.00     0.012 A 
ATOM      6  C   UNL d   1       6.618   7.251   0.470  0.00  0.00     0.077 A 
ATOM      7  C   UNL d   1       7.243   8.493   0.480  0.00  0.00     0.037 A 
ATOM      8  C   UNL d   1       7.560   9.117  -0.727  0.00  0.00     0.003 A 
ATOM      9  C   UNL d   1       7.256   8.496  -1.940  0.00  0.00     0.001 A 
ATOM     10  C   UNL d   1       6.632   7.246  -1.952  0.00  0.00     0.015 A 
BRANCH   6  11
ATOM     11  O   UNL d   1       6.327   6.696   1.688  0.00  0.00    -0.360 OA
ATOM     12  H   UNL d   1       5.885   5.833   1.508  0.00  0.00     0.217 HD
ENDBRANCH   6  11
ENDBRANCH   3   5
ENDBRANCH   1   2
BRANCH   1  13
ATOM     13  C   UNL d   1       3.050   3.691   0.119  0.00  0.00     0.138 C 
BRANCH  13  14
ATOM     14  N   UNL d   1       2.386   2.398  -0.070  0.00  0.00    -0.396 N 
ATOM     15  C   UNL d   1       1.211   2.316   0.459  0.00  0.00     0.097 C 
ATOM     16  HN  UNL d   1       2.817   1.625  -0.577  1.00  0.00     0.158 HD
BRANCH  15  17
ATOM     17  C   UNL d   1       0.443   1.057   0.376  0.00  0.00     0.012 A 
ATOM     18  C   UNL d   1       0.967  -0.078  -0.258  0.00  0.00     0.077 A 
ATOM     19  C   UNL d   1       0.234  -1.257  -0.311  0.00  0.00     0.037 A 
ATOM     20  C   UNL d   1      -1.033  -1.310   0.271  0.00  0.00     0.003 A 
ATOM     21  C   UNL d   1      -1.563  -0.183   0.903  0.00  0.00     0.001 A 
ATOM     22  C   UNL d   1      -0.827   1.004   0.958  0.00  0.00     0.015 A 
BRANCH  18  23
ATOM     23  O   UNL d   1       2.204  -0.094  -0.847  0.00  0.00    -0.360 OA
ATOM     24  H   UNL d   1       2.586   0.804  -0.716  0.00  0.00     0.217 HD
ENDBRANCH  18  23
ENDBRANCH  15  17
ENDBRANCH  13  14
ENDBRANCH   1  13
TORSDOF 7
