REMARK  4 active torsions:
REMARK  status: ('A' for Active; 'I' for Inactive)
REMARK    1  A    between atoms: C_6  and  C_1 
REMARK    2  A    between atoms: C_3  and  C_6 
REMARK    3  A    between atoms: C_13  and  C_4 
REMARK    4  A    between atoms: C_11  and  C_8 
ROOT
ATOM      1  C   UNL d   1      -1.051  -3.716   0.593  0.00  0.00     0.096 C 
ATOM      2  C   UNL d   1      -0.604  -4.950   0.253  0.00  0.00     0.045 C 
ATOM      3  C   UNL d   1      -0.342  -2.874   1.524  0.00  0.00     0.103 C 
ATOM      4  N   UNL d   1       0.231  -2.185   2.260  0.00  0.00    -0.191 NA
ENDROOT
BRANCH   1   5
ATOM      5  C   UNL d   1      -2.354  -3.282  -0.022  0.00  0.00     0.205 C 
ATOM      6  O   UNL d   1      -3.142  -4.101  -0.491  0.00  0.00    -0.286 OA
BRANCH   5   7
ATOM      7  C   UNL d   1      -2.638  -1.847  -0.042  0.00  0.00     0.048 A 
ATOM      8  C   UNL d   1      -1.742  -0.734  -0.096  0.00  0.00     0.056 A 
ATOM      9  C   UNL d   1      -2.499   0.417  -0.044  0.00  0.00     0.086 A 
ATOM     10  O   UNL d   1      -3.818   0.087  -0.040  0.00  0.00    -0.314 OA
ATOM     11  C   UNL d   1      -3.905  -1.276  -0.045  0.00  0.00     0.064 A 
ATOM     12  C   UNL d   1      -5.288  -1.803  -0.007  0.00  0.00     0.077 C 
BRANCH   9  13
ATOM     13  C   UNL d   1      -2.172   1.833   0.051  0.00  0.00    -0.002 A 
ATOM     14  C   UNL d   1      -2.997   2.819  -0.509  0.00  0.00     0.016 A 
ATOM     15  C   UNL d   1      -2.666   4.175  -0.397  0.00  0.00     0.024 A 
ATOM     16  C   UNL d   1      -1.511   4.554   0.285  0.00  0.00     0.034 A 
ATOM     17  C   UNL d   1      -0.679   3.589   0.846  0.00  0.00     0.024 A 
ATOM     18 CL   UNL d   1      -1.113   6.220   0.443  0.00  0.00    -0.084 Cl
ATOM     19  C   UNL d   1      -1.007   2.235   0.725  0.00  0.00     0.016 A 
ENDBRANCH   9  13
ENDBRANCH   5   7
ENDBRANCH   1   5
BRANCH   2  20
ATOM     20  C   UNL d   1       0.600  -5.465   0.807  0.00  0.00     0.006 A 
ATOM     21  S   UNL d   1       2.108  -5.161   0.041  0.00  0.00    -0.102 SA
ATOM     22  C   UNL d   1       2.979  -5.899   1.313  0.00  0.00     0.050 A 
ATOM     23  C   UNL d   1       2.145  -6.423   2.274  0.00  0.00     0.008 A 
ATOM     24  C   UNL d   1       0.771  -6.193   1.970  0.00  0.00     0.019 A 
ENDBRANCH   2  20
TORSDOF 4
