REMARK  5 active torsions:
REMARK  status: ('A' for Active; 'I' for Inactive)
REMARK    1  A    between atoms: C_8  and  N_1 
REMARK    2  A    between atoms: C_7  and  C_2 
REMARK    3  A    between atoms: N_13  and  C_7 
REMARK    4  A    between atoms: C_15  and  C_8 
REMARK    5  A    between atoms: O_16  and  N_11 
ROOT
ATOM      1  N   UNL d   1      -5.009  -1.428   0.041  0.00  0.00    -0.261 N 
ATOM      2  C   UNL d   1      -2.867  -2.595   0.066  0.00  0.00     0.088 C 
ATOM      3  C   UNL d   1      -3.647  -1.356   0.285  0.00  0.00     0.266 C 
ATOM      4  C   UNL d   1      -5.714  -2.624  -0.048  0.00  0.00     0.331 C 
ATOM      5  N   UNL d   1      -4.932  -3.779  -0.028  0.00  0.00    -0.313 N 
ATOM      6  C   UNL d   1      -3.555  -3.738  -0.040  0.00  0.00     0.115 C 
ATOM      7  O   UNL d   1      -6.943  -2.666  -0.116  0.00  0.00    -0.246 OA
ATOM      8  O   UNL d   1      -3.079  -0.339   0.695  0.00  0.00    -0.267 OA
ATOM      9  C   UNL d   1      -5.580  -5.085  -0.051  0.00  0.00     0.160 C 
ENDROOT
BRANCH   2  10
ATOM     10  C   UNL d   1      -1.364  -2.602   0.004  0.00  0.00     0.115 C 
ATOM     11  N   UNL d   1      -0.742  -3.741  -0.191  0.00  0.00    -0.257 N 
ATOM     12  HN  UNL d   1      -1.208  -4.641  -0.305  1.00  0.00     0.195 HD
BRANCH  11  13
ATOM     13  O   UNL d   1       0.652  -3.558  -0.221  0.00  0.00    -0.289 OA
ATOM     14  H   UNL d   1       0.970  -4.431  -0.515  0.00  0.00     0.244 HD
ENDBRANCH  11  13
BRANCH  10  15
ATOM     15  N   UNL d   1      -0.651  -1.436   0.141  0.00  0.00    -0.286 NA
ATOM     16  H   UNL d   1      -1.107  -0.686   0.659  0.00  0.00     0.125 HD
ATOM     17  H   UNL d   1       0.322  -1.602   0.376  0.00  0.00     0.125 HD
ENDBRANCH  10  15
ENDBRANCH   2  10
BRANCH   1  18
ATOM     18  C   UNL d   1      -5.761  -0.180   0.012  0.00  0.00     0.175 C 
BRANCH  18  19
ATOM     19  C   UNL d   1      -5.678   0.475  -1.352  0.00  0.00    -0.040 A 
ATOM     20  C   UNL d   1      -6.614   0.168  -2.349  0.00  0.00     0.009 A 
ATOM     21  C   UNL d   1      -6.494   0.722  -3.626  0.00  0.00     0.001 A 
ATOM     22  C   UNL d   1      -5.436   1.581  -3.920  0.00  0.00     0.000 A 
ATOM     23  C   UNL d   1      -4.504   1.899  -2.936  0.00  0.00     0.001 A 
ATOM     24  C   UNL d   1      -4.625   1.352  -1.658  0.00  0.00     0.009 A 
ENDBRANCH  18  19
ENDBRANCH   1  18
TORSDOF 5
