REMARK  4 active torsions:
REMARK  status: ('A' for Active; 'I' for Inactive)
REMARK    1  A    between atoms: C_8  and  C_1 
REMARK    2  A    between atoms: N_2  and  C_7 
REMARK    3  A    between atoms: N_13  and  N_9 
REMARK    4  A    between atoms: C_16  and  N_13 
ROOT
ATOM      1  C   UNL d   1       3.630   0.281  -0.027  0.00  0.00     0.126 C 
ATOM      2  N   UNL d   1       4.227   1.415   0.155  0.00  0.00    -0.310 N 
ATOM      3  HN  UNL d   1       3.694   2.266   0.331  1.00  0.00     0.186 HD
ENDROOT
BRANCH   2   4
ATOM      4  N   UNL d   1       5.581   1.438   0.104  0.00  0.00    -0.301 N 
ATOM      5  H   UNL d   1       6.098   0.725  -0.408  0.00  0.00     0.187 HD
BRANCH   4   6
ATOM      6  C   UNL d   1       6.194   2.712   0.129  0.00  0.00     0.048 A 
ATOM      7  C   UNL d   1       5.447   3.885   0.335  0.00  0.00     0.033 A 
ATOM      8  C   UNL d   1       6.058   5.136   0.433  0.00  0.00     0.038 A 
ATOM      9  C   UNL d   1       7.449   5.221   0.353  0.00  0.00     0.103 A 
ATOM     10  C   UNL d   1       8.222   4.066   0.181  0.00  0.00     0.038 A 
ATOM     11  C   UNL d   1       7.591   2.818   0.078  0.00  0.00     0.033 A 
BRANCH   9  12
ATOM     12  N   UNL d   1       8.100   6.533   0.461  0.00  0.00    -0.116 N 
ATOM     13  O   UNL d   1       7.377   7.525   0.619  0.00  0.00    -0.532 OA
ATOM     14  O   UNL d   1       9.336   6.570   0.385  0.00  0.00    -0.532 OA
ENDBRANCH   9  12
ENDBRANCH   4   6
ENDBRANCH   2   4
BRANCH   1  15
ATOM     15  C   UNL d   1       2.185   0.215   0.036  0.00  0.00     0.029 A 
ATOM     16  S   UNL d   1       1.415  -1.081  -0.766  0.00  0.00    -0.088 SA
ATOM     17  C   UNL d   1      -0.156  -0.505  -0.380  0.00  0.00     0.016 A 
ATOM     18  C   UNL d   1      -1.390  -1.076  -0.755  0.00  0.00     0.019 A 
ATOM     19  C   UNL d   1      -0.093   0.652   0.397  0.00  0.00    -0.012 A 
ATOM     20  C   UNL d   1      -2.576  -0.470  -0.333  0.00  0.00     0.001 A 
ATOM     21  C   UNL d   1      -2.542   0.678   0.445  0.00  0.00     0.001 A 
ATOM     22  C   UNL d   1      -1.317   1.240   0.810  0.00  0.00     0.013 A 
ATOM     23  C   UNL d   1       1.274   1.060   0.655  0.00  0.00    -0.032 A 
ATOM     24  C   UNL d   1       1.594   2.253   1.504  0.00  0.00     0.050 C 
ENDBRANCH   1  15
TORSDOF 4
