REMARK  2 active torsions:
REMARK  status: ('A' for Active; 'I' for Inactive)
REMARK       I    between atoms: N_2  and  C_1 
REMARK       I    between atoms: N_7  and  C_1 
REMARK    1  A    between atoms: C_4  and  N_3 
REMARK    2  A    between atoms: C_16  and  N_7 
ROOT
ATOM      1  C   UNL d   1      -0.902   4.800  -2.042  0.00  0.00     0.103 A 
ATOM      2  N   UNL d   1      -1.063   5.902  -1.281  0.00  0.00    -0.351 N 
ATOM      3  HN  UNL d   1      -0.739   5.926  -0.314  1.00  0.00     0.166 HD
ATOM      4  N   UNL d   1      -3.361   9.093  -4.071  0.00  0.00    -0.191 NA
ATOM      5  C   UNL d   1      -2.821   8.160  -3.651  0.00  0.00     0.101 C 
ATOM      6  C   UNL d   1      -2.161   7.002  -3.138  0.00  0.00     0.060 A 
ATOM      7  C   UNL d   1      -1.360   4.758  -3.360  0.00  0.00     0.050 A 
ATOM      8  C   UNL d   1      -1.672   6.978  -1.844  0.00  0.00     0.112 A 
ATOM      9  C   UNL d   1      -2.007   5.861  -3.911  0.00  0.00     0.028 A 
ENDROOT
BRANCH   1  10
ATOM     10  N   UNL d   1      -0.388   3.650  -1.488  0.00  0.00    -0.364 N 
ATOM     11  C   UNL d   1      -0.508   3.438  -0.047  0.00  0.00     0.144 C 
ATOM     12  C   UNL d   1      -0.634   1.916   0.179  0.00  0.00     0.147 C 
ATOM     13  N   UNL d   1       0.475   1.164  -0.449  0.00  0.00    -0.331 N 
ATOM     14  C   UNL d   1       0.924  -0.081  -0.037  0.00  0.00     0.319 C 
ATOM     15  C   UNL d   1       0.746   1.529  -1.854  0.00  0.00     0.147 C 
ATOM     16  N   UNL d   1       0.521  -0.452   1.220  0.00  0.00    -0.335 N 
ATOM     17  O   UNL d   1       1.628  -0.789  -0.750  0.00  0.00    -0.247 OA
ATOM     18  H   UNL d   1       0.452   0.328   1.851  0.00  0.00     0.165 HD
ATOM     19  C   UNL d   1       0.819   3.051  -2.068  0.00  0.00     0.144 C 
BRANCH  16  20
ATOM     20  C   UNL d   1       0.915  -1.712   1.877  0.00  0.00     0.023 C 
ATOM     21  C   UNL d   1       2.412  -1.695   2.227  0.00  0.00     0.037 C 
ATOM     22  C   UNL d   1       0.102  -1.823   3.181  0.00  0.00     0.037 C 
ATOM     23  C   UNL d   1       0.588  -2.947   1.019  0.00  0.00     0.037 C 
ENDBRANCH  16  20
ENDBRANCH   1  10
TORSDOF 2
