REMARK  4 active torsions:
REMARK  status: ('A' for Active; 'I' for Inactive)
REMARK    1  A    between atoms: C_3  and  C_1 
REMARK    2  A    between atoms: C_2  and  C_6 
REMARK       I    between atoms: N_9  and  C_3 
REMARK       I    between atoms: C_6  and  N_10 
REMARK    3  A    between atoms: N_10  and  N_9 
REMARK    4  A    between atoms: C_15  and  N_9 
ROOT
ATOM      1  C   UNL d   1       3.754  -0.236  -0.624  0.00  0.00     0.285 C 
ATOM      2  N   UNL d   1       4.545  -1.248  -0.001  0.00  0.00    -0.217 N 
ATOM      3  O   UNL d   1       4.279   0.639  -1.331  0.00  0.00    -0.265 OA
ENDROOT
BRANCH   2   4
ATOM      4  N   UNL d   1       5.952  -1.092  -0.162  0.00  0.00    -0.255 N 
ATOM      5  C   UNL d   1       6.657  -0.072   0.451  0.00  0.00     0.279 C 
ATOM      6  O   UNL d   1       6.113   0.804   1.118  0.00  0.00    -0.265 OA
ATOM      7  H   UNL d   1       6.431  -1.835  -0.659  0.00  0.00     0.191 HD
BRANCH   5   8
ATOM      8  C   UNL d   1       8.095  -0.152   0.221  0.00  0.00     0.097 A 
ATOM      9  S   UNL d   1       8.999   1.298   0.153  0.00  0.00    -0.082 SA
ATOM     10  C   UNL d   1      10.472   0.475  -0.188  0.00  0.00     0.017 A 
ATOM     11  C   UNL d   1      11.734   1.058  -0.419  0.00  0.00     0.020 A 
ATOM     12  C   UNL d   1      10.290  -0.909  -0.210  0.00  0.00     0.004 A 
ATOM     13  C   UNL d   1      12.831   0.230  -0.670  0.00  0.00     0.001 A 
ATOM     14  C   UNL d   1      12.683  -1.149  -0.685  0.00  0.00     0.001 A 
ATOM     15  C   UNL d   1      11.429  -1.722  -0.457  0.00  0.00     0.014 A 
ATOM     16  C   UNL d   1       8.913  -1.252   0.034  0.00  0.00     0.068 A 
ATOM     17 CL   UNL d   1       8.404  -2.899   0.084  0.00  0.00    -0.082 Cl
ENDBRANCH   5   8
ENDBRANCH   2   4
BRANCH   2  18
ATOM     18  C   UNL d   1       4.184  -2.619  -0.150  0.00  0.00     0.060 A 
ATOM     19  C   UNL d   1       4.243  -3.459   0.966  0.00  0.00     0.038 A 
ATOM     20  C   UNL d   1       3.992  -4.829   0.837  0.00  0.00    -0.060 A 
ATOM     21  C   UNL d   1       3.980  -5.722   2.042  0.00  0.00     0.048 C 
ATOM     22  C   UNL d   1       3.783  -5.364  -0.440  0.00  0.00     0.007 A 
ATOM     23  C   UNL d   1       3.771  -4.536  -1.563  0.00  0.00     0.003 A 
ATOM     24  C   UNL d   1       3.953  -3.161  -1.421  0.00  0.00     0.031 A 
ENDBRANCH   2  18
BRANCH   1  25
ATOM     25  C   UNL d   1       2.305  -0.326  -0.439  0.00  0.00     0.098 C 
ATOM     26  S   UNL d   1       1.292   0.326  -1.662  0.00  0.00    -0.082 SA
ATOM     27  C   UNL d   1      -0.132  -0.319  -0.949  0.00  0.00     0.017 A 
ATOM     28  C   UNL d   1      -1.445  -0.241  -1.453  0.00  0.00     0.020 A 
ATOM     29  C   UNL d   1       0.155  -0.979   0.246  0.00  0.00     0.004 A 
ATOM     30  C   UNL d   1      -2.466  -0.925  -0.789  0.00  0.00     0.001 A 
ATOM     31  C   UNL d   1      -2.196  -1.648   0.363  0.00  0.00     0.001 A 
ATOM     32  C   UNL d   1      -0.907  -1.654   0.902  0.00  0.00     0.014 A 
ATOM     33  C   UNL d   1       1.541  -0.810   0.605  0.00  0.00     0.068 C 
ATOM     34 CL   UNL d   1       2.099  -1.225   2.176  0.00  0.00    -0.082 Cl
ENDBRANCH   1  25
TORSDOF 4
