REMARK  4 active torsions:
REMARK  status: ('A' for Active; 'I' for Inactive)
REMARK    1  A    between atoms: C_2  and  C_1 
REMARK    2  A    between atoms: C_5  and  C_1 
REMARK    3  A    between atoms: C_6  and  C_2 
REMARK    4  A    between atoms: O_8  and  C_5 
ROOT
ATOM      1  N   UNL d   1      -7.155  -0.035  -0.530  0.00  0.00    -0.191 NA
ATOM      2  C   UNL d   1      -6.000  -0.018  -0.422  0.00  0.00     0.099 C 
ATOM      3  C   UNL d   1      -1.770   0.047  -0.113  0.00  0.00     0.018 A 
ATOM      4  C   UNL d   1      -4.569   0.004  -0.301  0.00  0.00     0.044 A 
ATOM      5  C   UNL d   1      -2.452  -1.172  -0.151  0.00  0.00     0.022 A 
ATOM      6  C   UNL d   1      -2.489   1.245  -0.153  0.00  0.00     0.022 A 
ATOM      7  C   UNL d   1      -3.848  -1.195  -0.245  0.00  0.00     0.024 A 
ATOM      8  C   UNL d   1      -3.885   1.224  -0.247  0.00  0.00     0.024 A 
ENDROOT
BRANCH   3   9
ATOM      9  C   UNL d   1      -0.341   0.067  -0.065  0.00  0.00    -0.064 C 
BRANCH   9  10
ATOM     10  C   UNL d   1       0.963   0.067  -0.065  0.00  0.00    -0.064 C 
BRANCH  10  11
ATOM     11  C   UNL d   1       2.483   0.067  -0.065  0.00  0.00     0.114 C 
ATOM     12  C   UNL d   1       3.003   1.468  -0.376  0.00  0.00     0.060 C 
ATOM     13  C   UNL d   1       3.001  -0.422   1.284  0.00  0.00     0.060 C 
BRANCH  11  14
ATOM     14  O   UNL d   1       2.942  -0.830  -1.071  0.00  0.00    -0.378 OA
ATOM     15  H   UNL d   1       2.521  -0.561  -1.905  0.00  0.00     0.211 HD
ENDBRANCH  11  14
ENDBRANCH  10  11
ENDBRANCH   9  10
ENDBRANCH   3   9
TORSDOF 4
