REMARK  4 active torsions:
REMARK  status: ('A' for Active; 'I' for Inactive)
REMARK    1  A    between atoms: C_13  and  C_1 
REMARK    2  A    between atoms: C_14  and  C_1 
REMARK    3  A    between atoms: O_15  and  C_13 
REMARK    4  A    between atoms: O_16  and  C_14 
ROOT
ATOM      1  C   UNL d   1      -1.862  -0.622  -0.636  0.00  0.00     0.011 C 
ATOM      2  C   UNL d   1      -0.888  -1.587   0.089  0.00  0.00     0.008 C 
ATOM      3  C   UNL d   1      -0.920   0.612  -0.572  0.00  0.00     0.008 C 
ATOM      4  C   UNL d   1       0.478  -1.505  -0.774  0.00  0.00     0.000 C 
ATOM      5  C   UNL d   1       0.410   0.161  -1.249  0.00  0.00     0.000 C 
ATOM      6  C   UNL d   1      -0.546   0.718   0.943  0.00  0.00     0.001 A 
ATOM      7  C   UNL d   1      -0.522  -0.775   1.442  0.00  0.00     0.001 A 
ATOM      8  C   UNL d   1       1.070  -0.685   1.643  0.00  0.00    -0.000 A 
ATOM      9  C   UNL d   1       0.993   0.868   1.104  0.00  0.00    -0.000 A 
ATOM     10  C   UNL d   1       1.650  -1.431   0.319  0.00  0.00    -0.004 C 
ATOM     11  C   UNL d   1       1.602   0.834  -0.384  0.00  0.00    -0.004 C 
ATOM     12  C   UNL d   1       2.642  -0.345  -0.266  0.00  0.00     0.011 C 
ENDROOT
BRANCH   1  13
ATOM     13  C   UNL d   1      -2.189  -1.026  -2.090  0.00  0.00     0.176 C 
BRANCH  13  14
ATOM     14  O   UNL d   1      -3.019  -2.186  -2.128  0.00  0.00    -0.400 OA
ATOM     15  H   UNL d   1      -2.451  -2.938  -2.369  0.00  0.00     0.209 HD
ENDBRANCH  13  14
ENDBRANCH   1  13
BRANCH   1  16
ATOM     16  C   UNL d   1      -3.186  -0.424   0.142  0.00  0.00     0.176 C 
BRANCH  16  17
ATOM     17  O   UNL d   1      -3.881  -1.654   0.308  0.00  0.00    -0.400 OA
ATOM     18  H   UNL d   1      -3.921  -2.063  -0.584  0.00  0.00     0.209 HD
ENDBRANCH  16  17
ENDBRANCH   1  16
TORSDOF 4
