REMARK  8 active torsions:
REMARK  status: ('A' for Active; 'I' for Inactive)
REMARK    1  A    between atoms: C_2  and  C_1 
REMARK       I    between atoms: N_9  and  C_2 
REMARK    2  A    between atoms: C_3  and  C_10 
REMARK    3  A    between atoms: C_14  and  C_4 
REMARK    4  A    between atoms: N_12  and  N_9 
REMARK    5  A    between atoms: C_15  and  C_14 
REMARK    6  A    between atoms: C_18  and  C_15 
REMARK    7  A    between atoms: C_16  and  C_17 
REMARK    8  A    between atoms: C_17  and  C_18 
ROOT
ATOM      1  C   UNL d   1       2.077   1.282   0.030  0.00  0.00     0.050 A 
ATOM      2  N   UNL d   1       2.050  -1.150   0.002  0.00  0.00    -0.373 N 
ATOM      3  HN  UNL d   1       2.551  -2.038  -0.010  1.00  0.00     0.164 HD
ATOM      4  C   UNL d   1       0.678   1.299   0.013  0.00  0.00     0.040 A 
ATOM      5  C   UNL d   1      -0.019   0.089   0.006  0.00  0.00     0.034 A 
ATOM      6  C   UNL d   1       2.705   0.038   0.020  0.00  0.00     0.104 A 
ATOM      7  C   UNL d   1       0.699  -1.096  -0.001  0.00  0.00     0.108 A 
ENDROOT
BRANCH   5   8
ATOM      8  C   UNL d   1      -1.446   0.071   0.029  0.00  0.00    -0.066 C 
ATOM      9  C   UNL d   1      -2.646   0.029   0.047  0.00  0.00    -0.101 C 
BRANCH   9  10
ATOM     10  C   UNL d   1      -4.110  -0.050   0.046  0.00  0.00     0.094 C 
BRANCH  10  11
ATOM     11  C   UNL d   1      -4.660   0.267  -1.342  0.00  0.00     0.012 C 
BRANCH  11  12
ATOM     12  C   UNL d   1      -6.183   0.176  -1.363  0.00  0.00     0.001 C 
BRANCH  12  13
ATOM     13  C   UNL d   1      -6.730   0.495  -2.752  0.00  0.00    -0.000 C 
BRANCH  13  14
ATOM     14  C   UNL d   1      -8.253   0.406  -2.777  0.00  0.00    -0.005 C 
ATOM     15  C   UNL d   1      -8.798   0.723  -4.159  0.00  0.00     0.005 C 
ENDBRANCH  13  14
ENDBRANCH  12  13
ENDBRANCH  11  12
ENDBRANCH  10  11
ENDBRANCH   9  10
ENDBRANCH   5   8
BRANCH   1  16
ATOM     16  C   UNL d   1       2.930   2.497   0.108  0.00  0.00     0.267 C 
ATOM     17  O   UNL d   1       4.155   2.388   0.183  0.00  0.00    -0.266 OA
ATOM     18  N   UNL d   1       2.297   3.734   0.111  0.00  0.00    -0.290 N 
ATOM     19  H   UNL d   1       1.304   3.840  -0.086  0.00  0.00     0.183 HD
BRANCH  18  20
ATOM     20  N   UNL d   1       3.079   4.907   0.176  0.00  0.00    -0.247 NA
ATOM     21  H   UNL d   1       4.066   4.604   0.189  0.00  0.00     0.143 HD
ATOM     22  H   UNL d   1       2.939   5.337   1.093  0.00  0.00     0.143 HD
ENDBRANCH  18  20
ENDBRANCH   1  16
TORSDOF 8
