REMARK  2 active torsions:
REMARK  status: ('A' for Active; 'I' for Inactive)
REMARK    1  A    between atoms: C_2  and  N_1 
REMARK       I    between atoms: C_5  and  N_6 
REMARK    2  A    between atoms: N_6  and  C_8 
ROOT
ATOM      1  C   UNL d   1       0.208   0.517  -1.126  0.00  0.00     0.105 A 
ATOM      2  C   UNL d   1       0.685  -0.058  -2.313  0.00  0.00     0.065 A 
ATOM      3  C   UNL d   1       0.022   0.181  -3.519  0.00  0.00     0.037 A 
ATOM      4  C   UNL d   1      -0.926   1.337  -1.130  0.00  0.00     0.036 A 
ATOM      5  C   UNL d   1      -1.585   1.581  -2.333  0.00  0.00     0.005 A 
ATOM      6  C   UNL d   1      -1.113   1.006  -3.518  0.00  0.00     0.029 A 
ENDROOT
BRANCH   3   7
ATOM      7  N   UNL d   1       0.421  -0.368  -4.758  0.00  0.00    -0.327 N 
ATOM      8  C   UNL d   1       1.497  -1.207  -4.990  0.00  0.00     0.218 C 
ATOM      9  O   UNL d   1       2.304  -1.609  -4.159  0.00  0.00    -0.274 OA
ATOM     10  C   UNL d   1       1.627  -1.633  -6.431  0.00  0.00     0.117 C 
ATOM     11  H   UNL d   1      -0.149  -0.122  -5.557  0.00  0.00     0.169 HD
ENDBRANCH   3   7
BRANCH   1  12
ATOM     12  N   UNL d   1       0.906   0.254   0.140  0.00  0.00    -0.116 N 
ATOM     13  O   UNL d   1       1.906  -0.476   0.115  0.00  0.00    -0.532 OA
ATOM     14  O   UNL d   1       0.450   0.781   1.166  0.00  0.00    -0.532 OA
ENDBRANCH   1  12
TORSDOF 2
