REMARK  5 active torsions:
REMARK  status: ('A' for Active; 'I' for Inactive)
REMARK    1  A    between atoms: N_2  and  S_1 
REMARK    2  A    between atoms: C_5  and  S_1 
REMARK    3  A    between atoms: N_3  and  N_2 
REMARK       I    between atoms: C_4  and  N_3 
REMARK    4  A    between atoms: C_8  and  C_4 
REMARK    5  A    between atoms: N_10  and  C_9 
ROOT
ATOM      1  N   UNL d   1       0.768  -2.526   0.344  0.00  0.00    -0.256 N 
ATOM      2  C   UNL d   1       0.549  -3.788   0.853  0.00  0.00     0.270 C 
ATOM      3  O   UNL d   1       1.169  -4.776   0.464  0.00  0.00    -0.266 OA
ATOM      4  H   UNL d   1       0.349  -1.682   0.725  0.00  0.00     0.191 HD
ENDROOT
BRANCH   1   5
ATOM      5  N   UNL d   1       1.831  -2.361  -0.621  0.00  0.00    -0.220 N 
ATOM      6  H   UNL d   1       2.329  -3.189  -0.961  0.00  0.00     0.200 HD
BRANCH   5   7
ATOM      7  S   UNL d   1       2.553  -0.854  -0.821  0.00  0.00     0.276 S 
ATOM      8  O   UNL d   1       1.502   0.142  -0.838  0.00  0.00    -0.199 OA
ATOM      9  O   UNL d   1       3.538  -0.963  -1.875  0.00  0.00    -0.199 OA
BRANCH   7  10
ATOM     10  C   UNL d   1       3.413  -0.692   0.731  0.00  0.00     0.081 A 
ATOM     11  C   UNL d   1       4.735  -1.139   0.842  0.00  0.00     0.028 A 
ATOM     12  C   UNL d   1       5.396  -1.019   2.065  0.00  0.00     0.044 A 
ATOM     13  C   UNL d   1       4.736  -0.454   3.154  0.00  0.00     0.116 A 
ATOM     14  C   UNL d   1       3.427   0.005   3.043  0.00  0.00     0.044 A 
ATOM     15  F   UNL d   1       5.372  -0.348   4.327  0.00  0.00    -0.206 F 
ATOM     16  C   UNL d   1       2.760  -0.103   1.823  0.00  0.00     0.028 A 
ENDBRANCH   7  10
ENDBRANCH   5   7
ENDBRANCH   1   5
BRANCH   2  17
ATOM     17  C   UNL d   1      -0.419  -3.884   1.981  0.00  0.00     0.033 A 
ATOM     18  C   UNL d   1      -1.425  -2.942   2.202  0.00  0.00     0.019 A 
ATOM     19  C   UNL d   1      -2.274  -3.066   3.316  0.00  0.00     0.030 A 
ATOM     20  C   UNL d   1      -2.164  -4.123   4.235  0.00  0.00     0.029 A 
ATOM     21  C   UNL d   1      -1.157  -5.066   3.967  0.00  0.00     0.030 A 
ATOM     22  C   UNL d   1      -0.297  -4.955   2.866  0.00  0.00     0.019 A 
BRANCH  20  23
ATOM     23  N   UNL d   1      -3.023  -4.269   5.313  0.00  0.00    -0.390 N 
ATOM     24  C   UNL d   1      -2.577  -4.887   6.561  0.00  0.00     0.149 C 
ATOM     25  C   UNL d   1      -4.283  -3.539   5.412  0.00  0.00     0.149 C 
ENDBRANCH  20  23
ENDBRANCH   2  17
TORSDOF 5
