REMARK  8 active torsions:
REMARK  status: ('A' for Active; 'I' for Inactive)
REMARK    1  A    between atoms: N_12  and  C_1 
REMARK    2  A    between atoms: C_6  and  C_5 
REMARK    3  A    between atoms: C_11  and  C_10 
REMARK    4  A    between atoms: O_26  and  C_11 
REMARK    5  A    between atoms: C_20  and  N_12 
REMARK    6  A    between atoms: C_21  and  N_13 
REMARK    7  A    between atoms: C_27  and  C_21 
REMARK    8  A    between atoms: C_28  and  O_26 
ROOT
ATOM      1  C   UNL d   1      -1.071  -1.161   0.080  0.00  0.00     0.043 C 
ATOM      2  C   UNL d   1      -1.694  -0.220  -0.805  0.00  0.00     0.018 A 
ATOM      3  N   UNL d   1      -1.270   1.556   0.790  0.00  0.00    -0.352 N 
ATOM      4  HN  UNL d   1      -1.390   2.526   1.081  1.00  0.00     0.166 HD
ATOM      5  C   UNL d   1      -0.570   0.682   1.556  0.00  0.00     0.119 C 
ATOM      6  C   UNL d   1      -1.798   1.118  -0.354  0.00  0.00     0.045 A 
ATOM      7  C   UNL d   1      -0.463  -0.662   1.223  0.00  0.00     0.064 C 
ATOM      8  C   UNL d   1      -2.176  -0.512  -2.106  0.00  0.00     0.033 A 
ATOM      9  C   UNL d   1      -2.754   0.480  -2.935  0.00  0.00     0.040 A 
ATOM     10  C   UNL d   1      -2.460   2.059  -1.136  0.00  0.00     0.031 A 
ATOM     11  C   UNL d   1      -2.933   1.759  -2.413  0.00  0.00     0.020 A 
ENDROOT
BRANCH   1  12
ATOM     12  N   UNL d   1      -1.124  -2.528  -0.173  0.00  0.00    -0.384 N 
ATOM     13  H   UNL d   1      -2.047  -2.854  -0.452  0.00  0.00     0.160 HD
BRANCH  12  14
ATOM     14  C   UNL d   1      -0.096  -3.583  -0.040  0.00  0.00     0.085 C 
ATOM     15  C   UNL d   1      -0.696  -4.937  -0.444  0.00  0.00     0.055 C 
ATOM     16  C   UNL d   1      -1.688  -5.505   0.591  0.00  0.00     0.275 C 
ATOM     17  N   UNL d   1      -1.419  -5.313   2.021  0.00  0.00     0.092 N 
ATOM     18  C   UNL d   1      -0.512  -4.204   2.367  0.00  0.00     0.275 C 
ATOM     19  C   UNL d   1       0.527  -3.826   1.327  0.00  0.00     0.055 C 
BRANCH  17  20
ATOM     20  C   UNL d   1      -2.640  -5.133   2.849  0.00  0.00     0.311 C 
BRANCH  20  21
ATOM     21  C   UNL d   1      -3.831  -6.046   2.653  0.00  0.00    -0.030 A 
ATOM     22  C   UNL d   1      -3.974  -7.230   3.387  0.00  0.00     0.009 A 
ATOM     23  C   UNL d   1      -5.165  -7.961   3.324  0.00  0.00     0.001 A 
ATOM     24  C   UNL d   1      -6.218  -7.526   2.517  0.00  0.00     0.000 A 
ATOM     25  C   UNL d   1      -6.081  -6.363   1.766  0.00  0.00     0.001 A 
ATOM     26  C   UNL d   1      -4.897  -5.628   1.836  0.00  0.00     0.009 A 
ENDBRANCH  20  21
ENDBRANCH  17  20
ENDBRANCH  12  14
ENDBRANCH   1  12
BRANCH   5  27
ATOM     27  C   UNL d   1       0.117   1.169   2.822  0.00  0.00     0.432 C 
ATOM     28  F   UNL d   1      -0.037   2.496   3.084  0.00  0.00    -0.165 F 
ATOM     29  F   UNL d   1      -0.333   0.516   3.942  0.00  0.00    -0.165 F 
ATOM     30  F   UNL d   1       1.464   0.949   2.800  0.00  0.00    -0.165 F 
ENDBRANCH   5  27
BRANCH   9  31
ATOM     31  C   UNL d   1      -3.115   0.269  -4.372  0.00  0.00     0.293 C 
ATOM     32  O   UNL d   1      -3.650   1.108  -5.079  0.00  0.00    -0.259 OA
BRANCH  31  33
ATOM     33  O   UNL d   1      -2.685  -0.947  -4.779  0.00  0.00    -0.318 OA
BRANCH  33  34
ATOM     34  C   UNL d   1      -2.758  -1.216  -6.191  0.00  0.00     0.174 C 
ATOM     35  C   UNL d   1      -4.150  -1.655  -6.599  0.00  0.00     0.034 C 
ENDBRANCH  33  34
ENDBRANCH  31  33
ENDBRANCH   9  31
TORSDOF 8
