REMARK  8 active torsions:
REMARK  status: ('A' for Active; 'I' for Inactive)
REMARK    1  A    between atoms: C_6  and  C_1 
REMARK       I    between atoms: N_9  and  C_1 
REMARK    2  A    between atoms: N_2  and  C_12 
REMARK    3  A    between atoms: C_5  and  C_4 
REMARK    4  A    between atoms: O_15  and  C_8 
REMARK    5  A    between atoms: C_19  and  N_9 
REMARK    6  A    between atoms: C_16  and  C_19 
REMARK    7  A    between atoms: C_20  and  C_16 
REMARK    8  A    between atoms: O_17  and  C_20 
ROOT
ATOM      1  C   UNL d   1       0.232  -1.111  -0.535  0.00  0.00     0.032 A 
ATOM      2  C   UNL d   1       0.601  -2.390  -0.105  0.00  0.00     0.019 A 
ATOM      3  C   UNL d   1      -0.779  -0.971  -1.492  0.00  0.00     0.019 A 
ATOM      4  C   UNL d   1      -1.003  -3.390  -1.642  0.00  0.00     0.031 A 
ATOM      5  C   UNL d   1      -1.395  -2.106  -2.032  0.00  0.00     0.030 A 
ATOM      6  C   UNL d   1      -0.026  -3.519  -0.646  0.00  0.00     0.030 A 
ENDROOT
BRANCH   4   7
ATOM      7  N   UNL d   1      -1.628  -4.487  -2.262  0.00  0.00    -0.365 N 
ATOM      8  C   UNL d   1      -0.900  -5.505  -2.605  0.00  0.00     0.102 C 
ATOM      9  HN  UNL d   1      -2.633  -4.482  -2.438  1.00  0.00     0.165 HD
BRANCH   8  10
ATOM     10  C   UNL d   1      -1.485  -6.668  -3.306  0.00  0.00     0.012 A 
ATOM     11  C   UNL d   1      -2.794  -6.651  -3.801  0.00  0.00     0.077 A 
ATOM     12  C   UNL d   1      -3.300  -7.754  -4.482  0.00  0.00     0.037 A 
ATOM     13  C   UNL d   1      -2.503  -8.885  -4.666  0.00  0.00     0.003 A 
ATOM     14  C   UNL d   1      -1.197  -8.910  -4.171  0.00  0.00     0.001 A 
ATOM     15  C   UNL d   1      -0.684  -7.800  -3.494  0.00  0.00     0.015 A 
BRANCH  11  16
ATOM     16  O   UNL d   1      -3.627  -5.575  -3.661  0.00  0.00    -0.360 OA
ATOM     17  H   UNL d   1      -3.144  -4.906  -3.125  0.00  0.00     0.217 HD
ENDBRANCH  11  16
ENDBRANCH   8  10
ENDBRANCH   4   7
BRANCH   1  18
ATOM     18  C   UNL d   1       0.959   0.104  -0.081  0.00  0.00     0.251 C 
ATOM     19  O   UNL d   1       1.101   1.045  -0.850  0.00  0.00    -0.268 OA
ATOM     20  N   UNL d   1       1.450   0.079   1.209  0.00  0.00    -0.357 N 
ATOM     21  H   UNL d   1       1.201  -0.681   1.827  0.00  0.00     0.162 HD
BRANCH  20  22
ATOM     22  C   UNL d   1       2.366   1.092   1.698  0.00  0.00     0.125 C 
BRANCH  22  23
ATOM     23  C   UNL d   1       1.698   2.445   1.938  0.00  0.00     0.046 C 
BRANCH  23  24
ATOM     24  C   UNL d   1       2.663   3.445   2.567  0.00  0.00     0.168 C 
BRANCH  24  25
ATOM     25  O   UNL d   1       3.796   3.614   1.718  0.00  0.00    -0.396 OA
ATOM     26  C   UNL d   1       4.722   4.553   2.245  0.00  0.00     0.201 C 
ENDBRANCH  24  25
ENDBRANCH  23  24
ENDBRANCH  22  23
ENDBRANCH  20  22
ENDBRANCH   1  18
TORSDOF 8
