REMARK  1 active torsions:
REMARK  status: ('A' for Active; 'I' for Inactive)
REMARK    1  A    between atoms: N_13  and  C_5 
ROOT
ATOM      1  C   UNL d   1       0.159  -0.650  -0.003  0.00  0.00     0.088 A 
ATOM      2  C   UNL d   1       0.269   0.744  -0.001  0.00  0.00     0.032 A 
ATOM      3  C   UNL d   1       2.514   0.006   0.000  0.00  0.00     0.114 A 
ATOM      4  S   UNL d   1       1.653  -1.460  -0.004  0.00  0.00    -0.058 SA
ATOM      5  C   UNL d   1       1.676   1.108  -0.000  0.00  0.00     0.067 A 
ATOM      6  N   UNL d   1      -0.969  -1.389  -0.004  0.00  0.00    -0.354 N 
ATOM      7  HN  UNL d   1      -0.954  -2.409  -0.006  1.00  0.00     0.166 HD
ATOM      8  C   UNL d   1      -0.965   1.460   0.001  0.00  0.00    -0.045 A 
ATOM      9  C   UNL d   1       3.942   0.044   0.002  0.00  0.00     0.109 C 
ATOM     10  N   UNL d   1       5.101   0.112   0.003  0.00  0.00    -0.191 NA
ATOM     11  C   UNL d   1      -2.153   0.700  -0.000  0.00  0.00     0.032 A 
ATOM     12  C   UNL d   1      -2.111  -0.686  -0.001  0.00  0.00     0.006 A 
ATOM     13  C   UNL d   1      -1.151   2.955   0.008  0.00  0.00     0.049 C 
ATOM     14  C   UNL d   1      -3.383  -1.484   0.005  0.00  0.00     0.068 C 
ENDROOT
BRANCH   5  15
ATOM     15  N   UNL d   1       2.158   2.374   0.002  0.00  0.00    -0.397 N 
ATOM     16  H   UNL d   1       1.585   3.206  -0.025  0.00  0.00     0.156 HD
ATOM     17  H   UNL d   1       3.153   2.595  -0.006  0.00  0.00     0.156 HD
ENDBRANCH   5  15
TORSDOF 1
