REMARK  2 active torsions:
REMARK  status: ('A' for Active; 'I' for Inactive)
REMARK    1  A    between atoms: N_7  and  C_1 
REMARK       I    between atoms: C_4  and  N_9 
REMARK       I    between atoms: N_6  and  C_4 
REMARK    2  A    between atoms: C_10  and  N_6 
ROOT
ATOM      1  C   UNL d   1      -8.280   1.405   0.398  0.00  0.00     0.323 C 
ATOM      2  N   UNL d   1      -9.038   1.192   1.537  0.00  0.00    -0.307 N 
ATOM      3  N   UNL d   1      -4.544   0.088  -0.047  0.00  0.00    -0.360 N 
ATOM      4  N   UNL d   1      -6.936   1.700   0.624  0.00  0.00    -0.332 N 
ATOM      5  O   UNL d   1      -8.737   1.382  -0.741  0.00  0.00    -0.247 OA
ATOM      6  C   UNL d   1      -5.317   0.767  -1.097  0.00  0.00     0.145 C 
ATOM      7  C   UNL d   1      -6.091   1.984  -0.555  0.00  0.00     0.147 C 
ATOM      8  C   UNL d   1      -5.673   0.149   2.156  0.00  0.00     0.040 C 
ATOM      9  C   UNL d   1      -5.325  -0.675   0.920  0.00  0.00     0.126 C 
ATOM     10  C   UNL d   1      -6.211   1.554   1.885  0.00  0.00     0.129 C 
ATOM     11  H   UNL d   1      -8.755   1.790   2.302  0.00  0.00     0.170 HD
ENDROOT
BRANCH   2  12
ATOM     12  C   UNL d   1     -10.460   1.056   1.454  0.00  0.00     0.064 A 
ATOM     13  C   UNL d   1     -11.255   1.905   2.252  0.00  0.00     0.061 A 
ATOM     14 CL   UNL d   1     -10.531   2.969   3.413  0.00  0.00    -0.082 Cl
ATOM     15  C   UNL d   1     -12.643   1.949   2.100  0.00  0.00     0.026 A 
ATOM     16  C   UNL d   1     -13.262   1.121   1.171  0.00  0.00     0.002 A 
ATOM     17  C   UNL d   1     -12.499   0.209   0.444  0.00  0.00     0.009 A 
ATOM     18  C   UNL d   1     -11.100   0.139   0.598  0.00  0.00    -0.034 A 
ATOM     19  C   UNL d   1     -10.383  -0.955  -0.147  0.00  0.00     0.050 C 
ENDBRANCH   2  12
BRANCH   3  20
ATOM     20  C   UNL d   1      -3.179   0.170  -0.023  0.00  0.00     0.147 A 
ATOM     21  N   UNL d   1      -2.469   0.865  -0.887  0.00  0.00    -0.336 N 
ATOM     22  C   UNL d   1      -1.107   0.744  -0.645  0.00  0.00     0.051 A 
ATOM     23  HN  UNL d   1      -2.869   1.423  -1.640  1.00  0.00     0.168 HD
ATOM     24  C   UNL d   1      -0.068   1.344  -1.390  0.00  0.00     0.032 A 
ATOM     25  C   UNL d   1      -0.768  -0.053   0.444  0.00  0.00     0.036 A 
ATOM     26  C   UNL d   1       1.268   1.133  -1.021  0.00  0.00     0.026 A 
ATOM     27  C   UNL d   1       1.571   0.332   0.075  0.00  0.00     0.035 A 
ATOM     28  C   UNL d   1       0.566  -0.277   0.826  0.00  0.00     0.045 A 
ATOM     29 CL   UNL d   1       3.218   0.087   0.520  0.00  0.00    -0.084 Cl
ATOM     30  S   UNL d   1      -2.205  -0.650   1.157  0.00  0.00    -0.052 SA
ENDBRANCH   3  20
TORSDOF 2
