REMARK  2 active torsions:
REMARK  status: ('A' for Active; 'I' for Inactive)
REMARK    1  A    between atoms: N_8  and  C_4 
REMARK    2  A    between atoms: O_9  and  C_7 
ROOT
ATOM      1  N   UNL d   1      -1.926  -0.933  -0.062  0.00  0.00    -0.244 N 
ATOM      2  HN  UNL d   1      -2.872  -1.314  -0.086  1.00  0.00     0.196 HD
ATOM      3  C   UNL d   1      -0.158   0.539  -0.030  0.00  0.00     0.078 A 
ATOM      4  C   UNL d   1      -1.583   0.358  -0.081  0.00  0.00     0.135 A 
ATOM      5  O   UNL d   1      -0.756  -1.640  -0.004  0.00  0.00    -0.235 OA
ATOM      6  C   UNL d   1       0.292  -0.784   0.007  0.00  0.00     0.115 A 
ATOM      7  C   UNL d   1       0.858   1.539  -0.031  0.00  0.00     0.085 A 
ATOM      8  C   UNL d   1       2.592  -0.207   0.030  0.00  0.00     0.006 A 
ATOM      9  C   UNL d   1       1.622  -1.200   0.038  0.00  0.00     0.040 A 
ATOM     10  C   UNL d   1       2.215   1.131  -0.002  0.00  0.00     0.038 A 
ENDROOT
BRANCH   4  11
ATOM     11  N   UNL d   1      -2.552   1.294  -0.145  0.00  0.00    -0.383 N 
ATOM     12  H   UNL d   1      -2.456   2.170   0.347  0.00  0.00     0.157 HD
ATOM     13  H   UNL d   1      -3.492   0.924  -0.040  0.00  0.00     0.157 HD
ENDBRANCH   4  11
BRANCH   7  14
ATOM     14  O   UNL d   1       0.789   2.928  -0.085  0.00  0.00    -0.355 OA
ATOM     15  C   UNL d   1      -0.468   3.560  -0.045  0.00  0.00     0.210 C 
ENDBRANCH   7  14
TORSDOF 2
