REMARK  3 active torsions:
REMARK  status: ('A' for Active; 'I' for Inactive)
REMARK    1  A    between atoms: C_6  and  C_1 
REMARK    2  A    between atoms: C_10  and  N_7 
REMARK    3  A    between atoms: C_13  and  C_9 
ROOT
ATOM      1  C   UNL d   1       3.463   0.935  -0.914  0.00  0.00     0.107 C 
ATOM      2  N   UNL d   1       4.215   1.285   0.074  0.00  0.00    -0.365 N 
ATOM      3  HN  UNL d   1       3.789   1.464   0.984  1.00  0.00     0.165 HD
ENDROOT
BRANCH   1   4
ATOM      4  C   UNL d   1       2.021   0.898  -0.764  0.00  0.00     0.027 A 
ATOM      5  S   UNL d   1       1.119   0.300  -2.085  0.00  0.00    -0.088 SA
ATOM      6  C   UNL d   1      -0.384   0.584  -1.308  0.00  0.00     0.016 A 
ATOM      7  C   UNL d   1      -1.669   0.331  -1.827  0.00  0.00     0.019 A 
ATOM      8  C   UNL d   1      -0.200   1.128  -0.037  0.00  0.00    -0.012 A 
ATOM      9  C   UNL d   1      -2.788   0.643  -1.050  0.00  0.00     0.001 A 
ATOM     10  C   UNL d   1      -2.637   1.191   0.213  0.00  0.00     0.001 A 
ATOM     11  C   UNL d   1      -1.358   1.433   0.724  0.00  0.00     0.013 A 
ATOM     12  C   UNL d   1       1.206   1.298   0.287  0.00  0.00    -0.032 A 
ATOM     13  C   UNL d   1       1.641   1.864   1.605  0.00  0.00     0.050 C 
ENDBRANCH   1   4
BRANCH   2  14
ATOM     14  C   UNL d   1       5.599   1.425  -0.069  0.00  0.00     0.031 A 
ATOM     15  C   UNL d   1       6.207   2.399   0.727  0.00  0.00     0.030 A 
ATOM     16  C   UNL d   1       7.586   2.609   0.687  0.00  0.00     0.010 A 
ATOM     17  C   UNL d   1       8.396   1.843  -0.160  0.00  0.00    -0.055 A 
ATOM     18  C   UNL d   1       7.790   0.856  -0.951  0.00  0.00     0.010 A 
ATOM     19  C   UNL d   1       6.406   0.643  -0.898  0.00  0.00     0.030 A 
BRANCH  17  20
ATOM     20  C   UNL d   1       9.898   2.058  -0.219  0.00  0.00     0.010 C 
ATOM     21  C   UNL d   1      10.242   3.479  -0.670  0.00  0.00     0.015 C 
ATOM     22  C   UNL d   1      10.559   1.735   1.124  0.00  0.00     0.015 C 
ENDBRANCH  17  20
ENDBRANCH   2  14
TORSDOF 3
