REMARK  0 active torsions:
REMARK  status: ('A' for Active; 'I' for Inactive)
ROOT
ATOM      1  N   UNL d   1       1.800   1.994   0.523  0.00  0.00    -0.362 N 
ATOM      2  HN  UNL d   1       1.520   2.531   1.344  1.00  0.00     0.165 HD
ATOM      3  C   UNL d   1       1.805   1.141  -1.664  0.00  0.00    -0.007 A 
ATOM      4  C   UNL d   1       1.199   2.012  -0.744  0.00  0.00     0.040 A 
ATOM      5  C   UNL d   1       3.028   0.571  -0.975  0.00  0.00     0.021 A 
ATOM      6  C   UNL d   1       2.788   1.153   0.435  0.00  0.00    -0.004 A 
ATOM      7  C   UNL d   1       1.246   0.937  -2.940  0.00  0.00    -0.016 A 
ATOM      8  C   UNL d   1       0.083   2.753  -1.072  0.00  0.00     0.031 A 
ATOM      9  C   UNL d   1       0.074   1.673  -3.264  0.00  0.00    -0.025 A 
ATOM     10  C   UNL d   1      -0.472   2.588  -2.340  0.00  0.00     0.014 A 
ATOM     11  C   UNL d   1       4.312   1.185  -1.543  0.00  0.00     0.027 C 
ATOM     12  C   UNL d   1       3.096  -0.953  -0.932  0.00  0.00     0.027 C 
ATOM     13  C   UNL d   1       3.616   0.767   1.620  0.00  0.00     0.064 C 
ATOM     14  C   UNL d   1       1.755   0.039  -3.903  0.00  0.00     0.013 A 
ATOM     15  C   UNL d   1      -0.550   1.476  -4.505  0.00  0.00     0.012 A 
ATOM     16  C   UNL d   1       1.104  -0.163  -5.122  0.00  0.00     0.001 A 
ATOM     17  C   UNL d   1      -0.049   0.554  -5.422  0.00  0.00     0.001 A 
ENDROOT
TORSDOF 0
