REMARK  4 active torsions:
REMARK  status: ('A' for Active; 'I' for Inactive)
REMARK    1  A    between atoms: S_8  and  C_1 
REMARK    2  A    between atoms: C_3  and  S_8 
REMARK    3  A    between atoms: C_16  and  C_6 
REMARK    4  A    between atoms: C_18  and  C_7 
ROOT
ATOM      1  N   UNL d   1      -3.769   1.117   0.441  0.00  0.00    -0.320 N 
ATOM      2  C   UNL d   1      -3.272   2.326   0.073  0.00  0.00     0.167 A 
ATOM      3  C   UNL d   1      -5.126   1.172   0.262  0.00  0.00     0.132 A 
ATOM      4  N   UNL d   1      -5.423   2.365  -0.220  0.00  0.00    -0.283 N 
ATOM      5  HN  UNL d   1      -6.355   2.690  -0.476  1.00  0.00     0.188 HD
ATOM      6  N   UNL d   1      -4.256   3.099  -0.317  0.00  0.00    -0.278 N 
ATOM      7  HN  UNL d   1      -4.176   4.065  -0.635  1.00  0.00     0.189 HD
ATOM      8  H   UNL d   1      -3.216   0.334   0.753  0.00  0.00     0.169 HD
ENDROOT
BRANCH   2   9
ATOM      9  S   UNL d   1      -1.622   2.779   0.253  0.00  0.00    -0.034 SA
BRANCH   9  10
ATOM     10  C   UNL d   1      -0.691   1.254   0.063  0.00  0.00     0.086 A 
ATOM     11  N   UNL d   1      -1.309   0.111   0.445  0.00  0.00    -0.332 N 
ATOM     12  C   UNL d   1      -0.603  -1.046   0.382  0.00  0.00     0.191 A 
ATOM     13  HN  UNL d   1      -2.276   0.119   0.770  1.00  0.00     0.168 HD
ATOM     14  N   UNL d   1       0.681  -1.101  -0.017  0.00  0.00    -0.342 N 
ATOM     15  C   UNL d   1       1.286   0.048  -0.382  0.00  0.00     0.015 A 
ATOM     16  HN  UNL d   1       1.184  -1.989  -0.043  1.00  0.00     0.167 HD
ATOM     17  C   UNL d   1       0.632   1.279  -0.375  0.00  0.00    -0.006 A 
ATOM     18  C   UNL d   1       2.729  -0.084  -0.780  0.00  0.00     0.069 C 
ATOM     19  C   UNL d   1       1.368   2.519  -0.798  0.00  0.00     0.053 C 
BRANCH  12  20
ATOM     20  C   UNL d   1      -1.297  -2.353   0.785  0.00  0.00     0.449 C 
ATOM     21  F   UNL d   1      -2.594  -2.155   1.186  0.00  0.00    -0.163 F 
ATOM     22  F   UNL d   1      -1.370  -3.263  -0.231  0.00  0.00    -0.163 F 
ATOM     23  F   UNL d   1      -0.691  -2.995   1.825  0.00  0.00    -0.163 F 
ENDBRANCH  12  20
ENDBRANCH   9  10
ENDBRANCH   2   9
BRANCH   3  24
ATOM     24  C   UNL d   1      -6.048   0.076   0.541  0.00  0.00     0.013 A 
ATOM     25  C   UNL d   1      -5.725  -0.948   1.444  0.00  0.00     0.039 A 
ATOM     26  C   UNL d   1      -6.627  -1.986   1.682  0.00  0.00     0.036 A 
ATOM     27 CL   UNL d   1      -6.210  -3.232   2.795  0.00  0.00    -0.084 Cl
ATOM     28  C   UNL d   1      -7.857  -2.025   1.033  0.00  0.00     0.047 A 
ATOM     29  C   UNL d   1      -8.185  -1.005   0.145  0.00  0.00     0.036 A 
ATOM     30  C   UNL d   1      -7.295   0.042  -0.098  0.00  0.00     0.039 A 
ATOM     31 CL   UNL d   1      -9.702  -1.042  -0.667  0.00  0.00    -0.084 Cl
ENDBRANCH   3  24
TORSDOF 4
