REMARK  3 active torsions:
REMARK  status: ('A' for Active; 'I' for Inactive)
REMARK    1  A    between atoms: C_9  and  N_1 
REMARK    2  A    between atoms: C_6  and  C_4 
REMARK    3  A    between atoms: C_8  and  C_5 
ROOT
ATOM      1  N   UNL d   1       0.170  -1.108   0.039  0.00  0.00    -0.283 N 
ATOM      2  N   UNL d   1       1.173  -0.180  -0.014  0.00  0.00    -0.301 N 
ATOM      3  HN  UNL d   1       2.174  -0.371  -0.055  1.00  0.00     0.187 HD
ATOM      4  C   UNL d   1      -1.167  -0.520   0.050  0.00  0.00     0.150 A 
ATOM      5  C   UNL d   1       0.609   0.991  -0.002  0.00  0.00     0.038 A 
ATOM      6  C   UNL d   1      -0.894   0.981   0.067  0.00  0.00     0.091 A 
ENDROOT
BRANCH   4   7
ATOM      7  C   UNL d   1      -2.064  -0.962   1.200  0.00  0.00     0.010 A 
ATOM      8  C   UNL d   1      -1.608  -1.204   2.516  0.00  0.00     0.044 A 
ATOM      9 CL   UNL d   1      -0.010  -0.839   3.071  0.00  0.00    -0.084 Cl
ATOM     10  C   UNL d   1      -2.471  -1.706   3.503  0.00  0.00     0.024 A 
ATOM     11  C   UNL d   1      -3.814  -1.921   3.230  0.00  0.00     0.003 A 
ATOM     12  C   UNL d   1      -4.307  -1.612   1.970  0.00  0.00     0.024 A 
ATOM     13  C   UNL d   1      -3.447  -1.137   0.970  0.00  0.00     0.044 A 
ATOM     14 CL   UNL d   1      -4.193  -0.740  -0.543  0.00  0.00    -0.084 Cl
ENDBRANCH   4   7
BRANCH   1  15
ATOM     15  C   UNL d   1       0.444  -2.473  -0.021  0.00  0.00     0.051 A 
ATOM     16  C   UNL d   1       1.664  -2.977   0.459  0.00  0.00     0.031 A 
ATOM     17  C   UNL d   1       1.929  -4.349   0.490  0.00  0.00     0.002 A 
ATOM     18  C   UNL d   1       0.988  -5.251   0.004  0.00  0.00     0.000 A 
ATOM     19  C   UNL d   1      -0.216  -4.777  -0.508  0.00  0.00     0.002 A 
ATOM     20  C   UNL d   1      -0.483  -3.404  -0.514  0.00  0.00     0.031 A 
ENDBRANCH   1  15
BRANCH   5  21
ATOM     21  C   UNL d   1       1.363   2.266  -0.057  0.00  0.00    -0.012 A 
ATOM     22  C   UNL d   1       0.702   3.502  -0.077  0.00  0.00     0.020 A 
ATOM     23  C   UNL d   1       1.429   4.700  -0.137  0.00  0.00    -0.061 A 
ATOM     24  C   UNL d   1       0.727   6.026  -0.159  0.00  0.00     0.048 C 
ATOM     25  C   UNL d   1       2.826   4.648  -0.176  0.00  0.00     0.007 A 
ATOM     26  C   UNL d   1       3.490   3.421  -0.155  0.00  0.00     0.001 A 
ATOM     27  C   UNL d   1       2.760   2.231  -0.096  0.00  0.00     0.013 A 
ENDBRANCH   5  21
TORSDOF 3
