REMARK  2 active torsions:
REMARK  status: ('A' for Active; 'I' for Inactive)
REMARK    1  A    between atoms: C_6  and  C_2 
REMARK    2  A    between atoms: N_9  and  C_7 
ROOT
ATOM      1  N   UNL d   1      -2.187  -1.702  -0.777  0.00  0.00    -0.260 NA
ATOM      2  C   UNL d   1      -2.439  -0.537   0.091  0.00  0.00     0.239 C 
ATOM      3  O   UNL d   1      -3.175   0.506  -0.607  0.00  0.00    -0.324 OA
ATOM      4  C   UNL d   1      -3.245   0.031  -1.885  0.00  0.00     0.093 A 
ATOM      5  C   UNL d   1      -2.652  -1.210  -2.010  0.00  0.00     0.044 A 
ATOM      6  C   UNL d   1      -3.847   0.678  -2.946  0.00  0.00     0.045 A 
ATOM      7  C   UNL d   1      -2.627  -1.861  -3.225  0.00  0.00     0.027 A 
ATOM      8  C   UNL d   1      -3.855   0.028  -4.188  0.00  0.00    -0.059 A 
ATOM      9  C   UNL d   1      -3.235  -1.232  -4.322  0.00  0.00     0.009 A 
ATOM     10  C   UNL d   1      -4.556   0.667  -5.353  0.00  0.00     0.048 C 
ATOM     11  H   UNL d   1      -1.209  -1.962  -0.826  0.00  0.00     0.130 HD
ENDROOT
BRANCH   2  12
ATOM     12  C   UNL d   1      -3.218  -0.965   1.318  0.00  0.00    -0.015 A 
ATOM     13  C   UNL d   1      -2.700  -0.780   2.601  0.00  0.00     0.013 A 
ATOM     14  C   UNL d   1      -3.434  -1.174   3.730  0.00  0.00     0.030 A 
ATOM     15  C   UNL d   1      -4.699  -1.782   3.639  0.00  0.00     0.029 A 
ATOM     16  C   UNL d   1      -5.205  -1.947   2.341  0.00  0.00     0.030 A 
ATOM     17  C   UNL d   1      -4.486  -1.546   1.204  0.00  0.00     0.013 A 
BRANCH  15  18
ATOM     18  N   UNL d   1      -5.413  -2.129   4.782  0.00  0.00    -0.390 N 
ATOM     19  C   UNL d   1      -4.702  -2.688   5.933  0.00  0.00     0.149 C 
ATOM     20  C   UNL d   1      -6.825  -2.495   4.714  0.00  0.00     0.149 C 
ENDBRANCH  15  18
ENDBRANCH   2  12
TORSDOF 2
