REMARK  6 active torsions:
REMARK  status: ('A' for Active; 'I' for Inactive)
REMARK    1  A    between atoms: C_3  and  S_1 
REMARK    2  A    between atoms: N_4  and  S_1 
REMARK    3  A    between atoms: N_2  and  C_6 
REMARK    4  A    between atoms: C_13  and  N_4 
REMARK    5  A    between atoms: O_17  and  C_9 
REMARK    6  A    between atoms: O_18  and  C_14 
ROOT
ATOM      1  S   UNL d   1       1.076  -0.105   0.009  0.00  0.00     0.263 S 
ATOM      2  O   UNL d   1       2.298  -0.122  -0.770  0.00  0.00    -0.200 OA
ATOM      3  O   UNL d   1      -0.000  -1.034  -0.245  0.00  0.00    -0.200 OA
ENDROOT
BRANCH   1   4
ATOM      4  C   UNL d   1       0.412   1.544  -0.068  0.00  0.00     0.082 A 
ATOM      5  C   UNL d   1      -0.964   1.735   0.112  0.00  0.00     0.065 A 
ATOM      6  C   UNL d   1      -1.505   3.027   0.136  0.00  0.00     0.102 A 
ATOM      7  C   UNL d   1      -0.650   4.127  -0.070  0.00  0.00     0.101 A 
ATOM      8  C   UNL d   1       0.722   3.908  -0.292  0.00  0.00     0.041 A 
ATOM      9  C   UNL d   1       1.259   2.623  -0.293  0.00  0.00     0.028 A 
BRANCH   6  10
ATOM     10  O   UNL d   1      -2.833   3.266   0.368  0.00  0.00    -0.353 OA
ATOM     11  C   UNL d   1      -3.695   2.157   0.588  0.00  0.00     0.210 C 
ENDBRANCH   6  10
BRANCH   7  12
ATOM     12  O   UNL d   1      -0.961   5.462  -0.093  0.00  0.00    -0.353 OA
ATOM     13  C   UNL d   1      -2.300   5.865   0.154  0.00  0.00     0.210 C 
ENDBRANCH   7  12
ENDBRANCH   1   4
BRANCH   1  14
ATOM     14  N   UNL d   1       1.540  -0.240   1.622  0.00  0.00    -0.281 N 
ATOM     15  H   UNL d   1       2.527  -0.063   1.806  0.00  0.00     0.179 HD
BRANCH  14  16
ATOM     16  C   UNL d   1       0.589  -0.110   2.663  0.00  0.00     0.045 A 
ATOM     17  C   UNL d   1       0.391   1.121   3.288  0.00  0.00     0.066 A 
ATOM     18  C   UNL d   1      -0.548   1.215   4.324  0.00  0.00     0.105 A 
ATOM     19  C   UNL d   1      -1.271   0.088   4.743  0.00  0.00     0.036 A 
ATOM     20  C   UNL d   1      -1.058  -1.136   4.109  0.00  0.00     0.005 A 
ATOM     21  C   UNL d   1      -0.136  -1.232   3.065  0.00  0.00     0.030 A 
BRANCH  18  22
ATOM     22  N   UNL d   1      -0.774   2.507   4.984  0.00  0.00    -0.116 N 
ATOM     23  O   UNL d   1      -0.099   3.472   4.603  0.00  0.00    -0.532 OA
ATOM     24  O   UNL d   1      -1.623   2.553   5.885  0.00  0.00    -0.532 OA
ENDBRANCH  18  22
ENDBRANCH  14  16
ENDBRANCH   1  14
TORSDOF 6
