REMARK  4 active torsions:
REMARK  status: ('A' for Active; 'I' for Inactive)
REMARK    1  A    between atoms: C_7  and  N_2 
REMARK    2  A    between atoms: C_10  and  N_5 
REMARK    3  A    between atoms: O_21  and  C_13 
REMARK    4  A    between atoms: O_22  and  C_14 
ROOT
ATOM      1  C   UNL d   1       0.912   0.599  -0.005  0.00  0.00     0.154 C 
ATOM      2  N   UNL d   1      -0.380   1.099  -0.067  0.00  0.00    -0.262 N 
ATOM      3  S   UNL d   1       0.901  -1.129  -0.300  0.00  0.00    -0.084 SA
ATOM      4  C   UNL d   1      -1.401   0.171  -0.237  0.00  0.00     0.240 C 
ATOM      5  N   UNL d   1       1.955   1.343   0.174  0.00  0.00    -0.336 N 
ATOM      6  HN  UNL d   1       1.809   2.338   0.339  1.00  0.00     0.168 HD
ATOM      7  C   UNL d   1      -0.886  -1.239  -0.254  0.00  0.00     0.186 C 
ATOM      8  O   UNL d   1      -2.606   0.401  -0.302  0.00  0.00    -0.272 OA
ENDROOT
BRANCH   2   9
ATOM      9  C   UNL d   1      -0.669   2.495  -0.037  0.00  0.00     0.044 A 
ATOM     10  C   UNL d   1      -0.053   3.357   0.880  0.00  0.00     0.033 A 
ATOM     11  C   UNL d   1      -0.357   4.726   0.899  0.00  0.00     0.039 A 
ATOM     12  C   UNL d   1      -1.261   5.255  -0.021  0.00  0.00     0.068 A 
ATOM     13  C   UNL d   1      -1.854   4.413  -0.957  0.00  0.00     0.039 A 
ATOM     14  C   UNL d   1      -1.583   3.044  -0.950  0.00  0.00     0.033 A 
BRANCH  12  15
ATOM     15  O   UNL d   1      -1.602   6.575  -0.128  0.00  0.00    -0.356 OA
ATOM     16  C   UNL d   1      -1.581   7.311   1.089  0.00  0.00     0.210 C 
ENDBRANCH  12  15
ENDBRANCH   2   9
BRANCH   5  17
ATOM     17  C   UNL d   1       3.276   0.868   0.156  0.00  0.00     0.034 A 
ATOM     18  C   UNL d   1       4.203   1.528  -0.658  0.00  0.00     0.032 A 
ATOM     19  C   UNL d   1       5.548   1.135  -0.697  0.00  0.00     0.039 A 
ATOM     20  C   UNL d   1       5.983   0.066   0.083  0.00  0.00     0.068 A 
ATOM     21  C   UNL d   1       5.076  -0.568   0.931  0.00  0.00     0.039 A 
ATOM     22  C   UNL d   1       3.740  -0.158   0.983  0.00  0.00     0.032 A 
BRANCH  20  23
ATOM     23  O   UNL d   1       7.259  -0.423   0.133  0.00  0.00    -0.356 OA
ATOM     24  C   UNL d   1       8.097  -0.110  -0.973  0.00  0.00     0.210 C 
ENDBRANCH  20  23
ENDBRANCH   5  17
TORSDOF 4
