REMARK  7 active torsions:
REMARK  status: ('A' for Active; 'I' for Inactive)
REMARK    1  A    between atoms: C_13  and  C_3 
REMARK    2  A    between atoms: C_6  and  C_8 
REMARK    3  A    between atoms: C_9  and  C_7 
REMARK    4  A    between atoms: C_12  and  C_9 
REMARK    5  A    between atoms: O_27  and  C_12 
REMARK    6  A    between atoms: C_14  and  O_18 
REMARK    7  A    between atoms: O_18  and  C_25 
ROOT
ATOM      1  C   UNL d   1       1.343  -2.550   0.125  0.00  0.00    -0.002 A 
ATOM      2  C   UNL d   1       2.205  -2.686   1.220  0.00  0.00     0.017 A 
ATOM      3  C   UNL d   1       1.171  -3.627  -0.755  0.00  0.00     0.017 A 
ATOM      4  C   UNL d   1       2.725  -4.955   0.541  0.00  0.00     0.077 A 
ATOM      5  C   UNL d   1       2.871  -3.894   1.440  0.00  0.00     0.038 A 
ATOM      6  C   UNL d   1       1.859  -4.825  -0.544  0.00  0.00     0.038 A 
ENDROOT
BRANCH   1   7
ATOM      7  C   UNL d   1       0.641  -1.263  -0.063  0.00  0.00     0.083 A 
ATOM      8  N   UNL d   1       1.105  -0.131   0.348  0.00  0.00    -0.320 N 
ATOM      9  C   UNL d   1       0.274   0.930   0.064  0.00  0.00     0.237 A 
ATOM     10  HN  UNL d   1       1.996  -0.032   0.834  1.00  0.00     0.169 HD
ATOM     11  C   UNL d   1      -0.986   0.571  -0.709  0.00  0.00     0.156 A 
ATOM     12  O   UNL d   1       0.506   2.079   0.423  0.00  0.00    -0.272 OA
ATOM     13  S   UNL d   1      -0.927  -1.244  -0.825  0.00  0.00    -0.096 SA
BRANCH  11  14
ATOM     14  C   UNL d   1      -2.209   1.070   0.048  0.00  0.00     0.135 C 
BRANCH  14  15
ATOM     15  C   UNL d   1      -3.484   0.776  -0.696  0.00  0.00     0.141 C 
ATOM     16  O   UNL d   1      -3.573   0.689  -1.910  0.00  0.00    -0.650 OA
BRANCH  15  17
ATOM     17  O   UNL d   1      -4.558   0.666   0.117  0.00  0.00    -0.776 OA
ATOM     18  H   UNL d   1      -4.369   0.785   1.067  0.00  0.00     0.167 HD
ENDBRANCH  15  17
ENDBRANCH  14  15
ENDBRANCH  11  14
ENDBRANCH   1   7
BRANCH   4  19
ATOM     19  O   UNL d   1       3.333  -6.182   0.687  0.00  0.00    -0.294 OA
BRANCH  19  20
ATOM     20  C   UNL d   1       4.617  -6.217   1.213  0.00  0.00     0.147 A 
ATOM     21  N   UNL d   1       5.454  -5.175   1.013  0.00  0.00    -0.346 N 
ATOM     22  C   UNL d   1       6.664  -5.234   1.608  0.00  0.00     0.106 A 
ATOM     23  HN  UNL d   1       5.182  -4.377   0.437  1.00  0.00     0.167 HD
ATOM     24  C   UNL d   1       7.093  -6.302   2.382  0.00  0.00     0.063 A 
ATOM     25  C   UNL d   1       6.227  -7.394   2.517  0.00  0.00     0.022 A 
ATOM     26  C   UNL d   1       4.968  -7.355   1.920  0.00  0.00     0.057 A 
BRANCH  24  27
ATOM     27  C   UNL d   1       8.427  -6.264   3.059  0.00  0.00     0.418 C 
ATOM     28  F   UNL d   1       9.117  -5.112   2.842  0.00  0.00    -0.166 F 
ATOM     29  F   UNL d   1       8.321  -6.383   4.412  0.00  0.00    -0.166 F 
ATOM     30  F   UNL d   1       9.247  -7.274   2.658  0.00  0.00    -0.166 F 
ENDBRANCH  24  27
ENDBRANCH  19  20
ENDBRANCH   4  19
TORSDOF 7
