REMARK  3 active torsions:
REMARK  status: ('A' for Active; 'I' for Inactive)
REMARK    1  A    between atoms: C_7  and  C_1 
REMARK    2  A    between atoms: O_13  and  C_7 
REMARK    3  A    between atoms: C_16  and  O_13 
ROOT
ATOM      1  C   UNL d   1       2.407   0.132   0.033  0.00  0.00     0.158 A 
ATOM      2  C   UNL d   1       1.645   1.297   0.045  0.00  0.00    -0.008 A 
ATOM      3  O   UNL d   1       1.581  -0.956   0.064  0.00  0.00    -0.303 OA
ATOM      4  C   UNL d   1       0.264   0.878   0.051  0.00  0.00     0.013 A 
ATOM      5  C   UNL d   1       0.304  -0.511   0.059  0.00  0.00     0.088 A 
ATOM      6  C   UNL d   1      -1.007   1.506   0.034  0.00  0.00    -0.048 A 
ATOM      7  C   UNL d   1      -0.808  -1.347   0.050  0.00  0.00     0.044 A 
ATOM      8  C   UNL d   1      -2.149   0.666   0.024  0.00  0.00     0.014 A 
ATOM      9  C   UNL d   1      -2.062  -0.732   0.029  0.00  0.00    -0.059 A 
ATOM     10  C   UNL d   1       2.157   2.693   0.019  0.00  0.00     0.052 C 
ATOM     11  C   UNL d   1      -1.248   2.991   0.016  0.00  0.00     0.049 C 
ATOM     12  C   UNL d   1      -3.316  -1.558   0.011  0.00  0.00     0.048 C 
ENDROOT
BRANCH   1  13
ATOM     13  C   UNL d   1       3.832  -0.096  -0.073  0.00  0.00     0.317 C 
ATOM     14  O   UNL d   1       4.691   0.769  -0.209  0.00  0.00    -0.257 OA
BRANCH  13  15
ATOM     15  O   UNL d   1       4.082  -1.438  -0.102  0.00  0.00    -0.316 OA
BRANCH  15  16
ATOM     16  C   UNL d   1       5.348  -1.827  -0.649  0.00  0.00     0.175 C 
ATOM     17  C   UNL d   1       5.197  -1.931  -2.156  0.00  0.00     0.034 C 
ENDBRANCH  15  16
ENDBRANCH  13  15
ENDBRANCH   1  13
TORSDOF 3
