REMARK  3 active torsions:
REMARK  status: ('A' for Active; 'I' for Inactive)
REMARK    1  A    between atoms: C_13  and  C_7 
REMARK    2  A    between atoms: C_17  and  C_8 
REMARK    3  A    between atoms: N_9  and  C_12 
ROOT
ATOM      1  N   UNL d   1       0.277   0.590  -0.035  0.00  0.00    -0.257 N 
ATOM      2  C   UNL d   1      -0.422  -0.597  -0.006  0.00  0.00     0.159 A 
ATOM      3  C   UNL d   1       1.650   0.564  -0.026  0.00  0.00     0.256 A 
ATOM      4  N   UNL d   1       0.073  -1.786   0.007  0.00  0.00    -0.335 N 
ATOM      5  HN  UNL d   1      -0.519  -2.617   0.031  1.00  0.00     0.168 HD
ATOM      6  C   UNL d   1       2.243  -0.790  -0.018  0.00  0.00     0.105 A 
ATOM      7  C   UNL d   1      -0.534   1.716  -0.052  0.00  0.00     0.061 A 
ATOM      8  C   UNL d   1       1.447  -1.870  -0.012  0.00  0.00     0.049 A 
ATOM      9  S   UNL d   1      -2.147  -0.270   0.014  0.00  0.00    -0.063 SA
ATOM     10  C   UNL d   1      -1.847   1.441  -0.028  0.00  0.00     0.084 A 
ATOM     11  O   UNL d   1       2.407   1.530  -0.014  0.00  0.00    -0.268 OA
ENDROOT
BRANCH   7  12
ATOM     12  C   UNL d   1      -0.031   3.088  -0.115  0.00  0.00    -0.008 A 
ATOM     13  C   UNL d   1       0.225   3.806   1.062  0.00  0.00     0.016 A 
ATOM     14  C   UNL d   1       0.692   5.123   1.000  0.00  0.00     0.037 A 
ATOM     15  C   UNL d   1       0.899   5.725  -0.248  0.00  0.00     0.102 A 
ATOM     16  C   UNL d   1       0.638   5.020  -1.430  0.00  0.00     0.037 A 
ATOM     17  C   UNL d   1       0.171   3.705  -1.359  0.00  0.00     0.016 A 
BRANCH  15  18
ATOM     18  N   UNL d   1       1.391   7.106  -0.319  0.00  0.00    -0.116 N 
ATOM     19  O   UNL d   1       1.606   7.697   0.750  0.00  0.00    -0.532 OA
ATOM     20  O   UNL d   1       1.552   7.605  -1.442  0.00  0.00    -0.532 OA
ENDBRANCH  15  18
ENDBRANCH   7  12
BRANCH   8  21
ATOM     21  C   UNL d   1       2.050  -3.232   0.020  0.00  0.00    -0.009 A 
ATOM     22  C   UNL d   1       1.369  -4.281   0.661  0.00  0.00     0.013 A 
ATOM     23  C   UNL d   1       1.910  -5.570   0.710  0.00  0.00     0.001 A 
ATOM     24  C   UNL d   1       3.140  -5.833   0.114  0.00  0.00     0.000 A 
ATOM     25  C   UNL d   1       3.825  -4.812  -0.539  0.00  0.00     0.001 A 
ATOM     26  C   UNL d   1       3.281  -3.525  -0.593  0.00  0.00     0.013 A 
ENDBRANCH   8  21
TORSDOF 3
