REMARK  8 active torsions:
REMARK  status: ('A' for Active; 'I' for Inactive)
REMARK       I    between atoms: N_2  and  C_1 
REMARK    1  A    between atoms: C_4  and  C_1 
REMARK    2  A    between atoms: C_6  and  N_2 
REMARK       I    between atoms: C_3  and  N_5 
REMARK    3  A    between atoms: O_7  and  C_3 
REMARK    4  A    between atoms: N_5  and  C_4 
REMARK    5  A    between atoms: C_13  and  C_4 
REMARK    6  A    between atoms: C_10  and  C_6 
REMARK    7  A    between atoms: C_11  and  C_6 
REMARK    8  A    between atoms: C_12  and  O_7 
ROOT
ATOM      1  C   UNL d   1       0.377  -0.460   1.017  0.00  0.00     0.241 C 
ATOM      2  N   UNL d   1      -0.103  -1.226   2.051  0.00  0.00    -0.347 N 
ATOM      3  O   UNL d   1       0.927   0.625   1.180  0.00  0.00    -0.271 OA
ATOM      4  H   UNL d   1      -0.450  -2.158   1.831  0.00  0.00     0.163 HD
ENDROOT
BRANCH   1   5
ATOM      5  C   UNL d   1       0.030  -0.996  -0.401  0.00  0.00     0.182 C 
BRANCH   5   6
ATOM      6  N   UNL d   1       0.647  -2.316  -0.663  0.00  0.00    -0.323 N 
ATOM      7  C   UNL d   1       0.416  -3.483  -0.003  0.00  0.00     0.362 C 
ATOM      8  O   UNL d   1      -0.397  -3.617   0.904  0.00  0.00    -0.238 OA
ATOM      9  H   UNL d   1       1.298  -2.386  -1.425  0.00  0.00     0.165 HD
BRANCH   7  10
ATOM     10  O   UNL d   1       1.254  -4.445  -0.459  0.00  0.00    -0.294 OA
BRANCH  10  11
ATOM     11  C   UNL d   1       1.226  -5.799   0.091  0.00  0.00     0.061 C 
ATOM     12  C   UNL d   1      -0.168  -6.420  -0.070  0.00  0.00     0.046 C 
ATOM     13  C   UNL d   1       2.241  -6.617  -0.734  0.00  0.00     0.046 C 
ATOM     14  C   UNL d   1       1.675  -5.827   1.560  0.00  0.00     0.046 C 
ENDBRANCH  10  11
ENDBRANCH   7  10
ENDBRANCH   5   6
BRANCH   5  15
ATOM     15  C   UNL d   1      -1.497  -0.895  -0.656  0.00  0.00     0.009 C 
ATOM     16  C   UNL d   1      -1.977   0.567  -0.558  0.00  0.00     0.012 C 
ATOM     17  C   UNL d   1      -1.910  -1.430  -2.029  0.00  0.00     0.012 C 
ENDBRANCH   5  15
ENDBRANCH   1   5
BRANCH   2  18
ATOM     18  C   UNL d   1       0.057  -0.901   3.456  0.00  0.00     0.151 C 
BRANCH  18  19
ATOM     19  C   UNL d   1      -1.050  -1.583   4.258  0.00  0.00    -0.031 A 
ATOM     20  C   UNL d   1      -1.161  -2.986   4.314  0.00  0.00     0.009 A 
ATOM     21  C   UNL d   1      -2.195  -3.600   5.022  0.00  0.00     0.001 A 
ATOM     22  C   UNL d   1      -3.141  -2.815   5.686  0.00  0.00     0.000 A 
ATOM     23  C   UNL d   1      -3.051  -1.429   5.637  0.00  0.00     0.001 A 
ATOM     24  C   UNL d   1      -2.016  -0.811   4.928  0.00  0.00     0.009 A 
ENDBRANCH  18  19
BRANCH  18  25
ATOM     25  C   UNL d   1       1.457  -1.217   3.977  0.00  0.00    -0.031 A 
ATOM     26  C   UNL d   1       1.985  -0.471   5.045  0.00  0.00     0.009 A 
ATOM     27  C   UNL d   1       3.283  -0.702   5.504  0.00  0.00     0.001 A 
ATOM     28  C   UNL d   1       4.070  -1.687   4.912  0.00  0.00     0.000 A 
ATOM     29  C   UNL d   1       3.552  -2.458   3.875  0.00  0.00     0.001 A 
ATOM     30  C   UNL d   1       2.254  -2.230   3.417  0.00  0.00     0.009 A 
ENDBRANCH  18  25
ENDBRANCH   2  18
TORSDOF 8
