REMARK  4 active torsions:
REMARK  status: ('A' for Active; 'I' for Inactive)
REMARK    1  A    between atoms: C_7  and  C_1 
REMARK    2  A    between atoms: N_15  and  C_3 
REMARK    3  A    between atoms: C_13  and  C_6 
REMARK       I    between atoms: N_12  and  C_7 
REMARK    4  A    between atoms: C_18  and  N_12 
ROOT
ATOM      1  C   UNL d   1      -3.342   0.581  -0.034  0.00  0.00     0.102 A 
ATOM      2  C   UNL d   1      -1.202  -0.483  -0.065  0.00  0.00     0.037 A 
ATOM      3  C   UNL d   1      -2.645  -0.609  -0.215  0.00  0.00     0.062 A 
ATOM      4  C   UNL d   1      -0.905   0.877   0.065  0.00  0.00     0.088 A 
ATOM      5  S   UNL d   1      -2.264   1.885   0.179  0.00  0.00    -0.064 SA
ATOM      6  C   UNL d   1      -0.078  -1.394  -0.051  0.00  0.00    -0.001 A 
ATOM      7  N   UNL d   1       0.306   1.462   0.127  0.00  0.00    -0.353 N 
ATOM      8  HN  UNL d   1       0.438   2.470   0.216  1.00  0.00     0.166 HD
ATOM      9  C   UNL d   1       1.196  -0.785  -0.013  0.00  0.00    -0.023 A 
ATOM     10  C   UNL d   1       1.313   0.593   0.060  0.00  0.00     0.017 A 
ATOM     11  C   UNL d   1       2.559  -1.413  -0.011  0.00  0.00     0.042 A 
ATOM     12  C   UNL d   1       2.733   1.065   0.061  0.00  0.00     0.058 A 
ATOM     13  C   UNL d   1       3.534  -0.232   0.093  0.00  0.00     0.011 A 
ENDROOT
BRANCH   1  14
ATOM     14  C   UNL d   1      -4.791   0.801  -0.043  0.00  0.00     0.265 C 
ATOM     15  N   UNL d   1      -5.190   2.126   0.096  0.00  0.00    -0.322 N 
ATOM     16  H   UNL d   1      -4.442   2.808   0.088  0.00  0.00     0.169 HD
ATOM     17  O   UNL d   1      -5.576  -0.136  -0.197  0.00  0.00    -0.267 OA
BRANCH  15  18
ATOM     18  C   UNL d   1      -6.505   2.635   0.077  0.00  0.00     0.035 A 
ATOM     19  C   UNL d   1      -7.644   1.845   0.235  0.00  0.00     0.029 A 
ATOM     20  C   UNL d   1      -8.919   2.407   0.124  0.00  0.00     0.002 A 
ATOM     21  C   UNL d   1      -9.065   3.766  -0.143  0.00  0.00     0.000 A 
ATOM     22  C   UNL d   1      -7.936   4.572  -0.258  0.00  0.00     0.002 A 
ATOM     23  C   UNL d   1      -6.661   4.012  -0.131  0.00  0.00     0.029 A 
ENDBRANCH  15  18
ENDBRANCH   1  14
BRANCH   3  24
ATOM     24  N   UNL d   1      -3.288  -1.761  -0.519  0.00  0.00    -0.397 N 
ATOM     25  H   UNL d   1      -2.813  -2.557  -0.937  0.00  0.00     0.156 HD
ATOM     26  H   UNL d   1      -4.290  -1.743  -0.734  0.00  0.00     0.156 HD
ENDBRANCH   3  24
BRANCH   6  27
ATOM     27  C   UNL d   1      -0.252  -2.864  -0.007  0.00  0.00    -0.009 A 
ATOM     28  C   UNL d   1       0.532  -3.747  -0.759  0.00  0.00     0.100 A 
ATOM     29  N   UNL d   1       0.473  -5.104  -0.715  0.00  0.00    -0.374 N 
ATOM     30  C   UNL d   1      -0.449  -5.643   0.103  0.00  0.00     0.087 A 
ATOM     31  HN  UNL d   1       1.097  -5.686  -1.274  1.00  0.00     0.164 HD
ATOM     32  C   UNL d   1      -1.306  -4.885   0.876  0.00  0.00     0.018 A 
ATOM     33  C   UNL d   1      -1.185  -3.493   0.836  0.00  0.00     0.015 A 
ENDBRANCH   6  27
TORSDOF 4
