REMARK  2 active torsions:
REMARK  status: ('A' for Active; 'I' for Inactive)
REMARK    1  A    between atoms: N_9  and  C_6 
REMARK    2  A    between atoms: C_15  and  N_9 
ROOT
ATOM      1  C   UNL d   1       1.113  -0.953   0.046  0.00  0.00     0.078 A 
ATOM      2  S   UNL d   1      -0.182  -2.084   0.087  0.00  0.00    -0.066 SA
ATOM      3  C   UNL d   1       0.635   0.354   0.045  0.00  0.00     0.067 A 
ATOM      4  C   UNL d   1      -1.353  -0.852   0.058  0.00  0.00     0.087 A 
ATOM      5  C   UNL d   1      -0.799   0.420   0.045  0.00  0.00     0.026 A 
ATOM      6  C   UNL d   1       2.496  -1.178  -0.004  0.00  0.00     0.126 A 
ATOM      7  N   UNL d   1       3.297  -0.086  -0.030  0.00  0.00    -0.337 N 
ATOM      8  HN  UNL d   1       4.311  -0.195  -0.071  1.00  0.00     0.168 HD
ATOM      9  N   UNL d   1       1.454   1.436   0.029  0.00  0.00    -0.350 N 
ATOM     10  HN  UNL d   1       1.107   2.395   0.039  1.00  0.00     0.166 HD
ATOM     11  N   UNL d   1      -2.668  -1.156   0.048  0.00  0.00    -0.360 N 
ATOM     12  HN  UNL d   1      -3.017  -2.114   0.062  1.00  0.00     0.166 HD
ATOM     13  C   UNL d   1       2.752   1.134  -0.001  0.00  0.00     0.182 A 
ATOM     14  C   UNL d   1      -1.700   1.508   0.023  0.00  0.00     0.018 A 
ATOM     15  C   UNL d   1      -3.481  -0.078   0.018  0.00  0.00     0.089 A 
ATOM     16  C   UNL d   1      -3.065   1.242   0.006  0.00  0.00     0.018 A 
ENDROOT
BRANCH   6  17
ATOM     17  N   UNL d   1       3.046  -2.466   0.005  0.00  0.00    -0.341 N 
ATOM     18  H   UNL d   1       2.384  -3.209   0.191  0.00  0.00     0.167 HD
BRANCH  17  19
ATOM     19  C   UNL d   1       4.291  -2.904  -0.481  0.00  0.00     0.033 A 
ATOM     20  C   UNL d   1       4.859  -4.075   0.042  0.00  0.00     0.029 A 
ATOM     21  C   UNL d   1       6.118  -4.515  -0.379  0.00  0.00     0.002 A 
ATOM     22  C   UNL d   1       6.826  -3.792  -1.335  0.00  0.00     0.000 A 
ATOM     23  C   UNL d   1       6.282  -2.624  -1.860  0.00  0.00     0.002 A 
ATOM     24  C   UNL d   1       5.031  -2.179  -1.423  0.00  0.00     0.029 A 
ENDBRANCH  17  19
ENDBRANCH   6  17
TORSDOF 2
