REMARK  6 active torsions:
REMARK  status: ('A' for Active; 'I' for Inactive)
REMARK    1  A    between atoms: C_3  and  C_1 
REMARK    2  A    between atoms: C_2  and  N_4 
REMARK    3  A    between atoms: N_8  and  C_2 
REMARK    4  A    between atoms: N_4  and  C_10 
REMARK    5  A    between atoms: C_5  and  C_17 
REMARK    6  A    between atoms: C_17  and  N_8 
ROOT
ATOM      1  N   UNL d   1       0.830  -4.603   1.010  0.00  0.00    -0.333 N 
ATOM      2  H   UNL d   1       0.766  -5.313   1.736  0.00  0.00     0.168 HD
ENDROOT
BRANCH   1   3
ATOM      3  C   UNL d   1       1.284  -5.090  -0.189  0.00  0.00     0.172 C 
ATOM      4  S   UNL d   1       2.307  -4.344  -1.278  0.00  0.00    -0.041 SA
BRANCH   3   5
ATOM      5  N   UNL d   1       0.868  -6.365  -0.477  0.00  0.00    -0.361 N 
ATOM      6  H   UNL d   1       1.251  -6.707  -1.351  0.00  0.00     0.162 HD
BRANCH   5   7
ATOM      7  C   UNL d   1      -0.454  -6.860  -0.137  0.00  0.00     0.187 C 
BRANCH   7   8
ATOM      8  C   UNL d   1      -0.426  -7.614   1.137  0.00  0.00     0.070 A 
ATOM      9  O   UNL d   1      -0.492  -6.883   2.290  0.00  0.00    -0.325 OA
ATOM     10  C   UNL d   1      -0.521  -7.767   3.320  0.00  0.00     0.142 A 
ATOM     11  C   UNL d   1      -0.466  -9.057   2.848  0.00  0.00     0.027 A 
ATOM     12  C   UNL d   1      -0.396  -8.960   1.438  0.00  0.00     0.036 A 
ENDBRANCH   7   8
ENDBRANCH   5   7
ENDBRANCH   3   5
ENDBRANCH   1   3
BRANCH   1  13
ATOM     13  C   UNL d   1       0.688  -3.269   1.433  0.00  0.00     0.035 A 
ATOM     14  C   UNL d   1       0.326  -2.247   0.551  0.00  0.00     0.045 A 
ATOM     15  C   UNL d   1       0.124  -0.939   1.016  0.00  0.00     0.050 A 
ATOM     16  C   UNL d   1       0.299  -0.666   2.380  0.00  0.00     0.016 A 
ATOM     17  C   UNL d   1       0.644  -1.689   3.266  0.00  0.00     0.003 A 
ATOM     18  C   UNL d   1       0.816  -2.991   2.795  0.00  0.00     0.029 A 
BRANCH  15  19
ATOM     19  C   UNL d   1      -0.291   0.159   0.069  0.00  0.00     0.417 C 
ATOM     20  F   UNL d   1      -0.456  -0.256  -1.218  0.00  0.00    -0.166 F 
ATOM     21  F   UNL d   1       0.613   1.177   0.021  0.00  0.00    -0.166 F 
ATOM     22  F   UNL d   1      -1.475   0.731   0.426  0.00  0.00    -0.166 F 
ENDBRANCH  15  19
ENDBRANCH   1  13
TORSDOF 6
