REMARK  3 active torsions:
REMARK  status: ('A' for Active; 'I' for Inactive)
REMARK    1  A    between atoms: C_5  and  C_1 
REMARK    2  A    between atoms: C_6  and  C_9 
REMARK    3  A    between atoms: C_14  and  N_10 
ROOT
ATOM      1  C   UNL d   1       1.262   0.841  -0.002  0.00  0.00     0.057 A 
ATOM      2  N   UNL d   1       1.411  -0.530  -0.050  0.00  0.00    -0.335 N 
ATOM      3  HN  UNL d   1       2.312  -1.004  -0.110  1.00  0.00     0.168 HD
ATOM      4  C   UNL d   1       0.255  -1.153  -0.008  0.00  0.00     0.149 A 
ATOM      5  S   UNL d   1      -1.100  -0.100   0.152  0.00  0.00    -0.064 SA
ATOM      6  C   UNL d   1      -0.052   1.259   0.074  0.00  0.00     0.083 A 
ATOM      7  N   UNL d   1       0.089  -2.495  -0.056  0.00  0.00    -0.337 N 
ATOM      8  H   UNL d   1      -0.815  -2.884   0.172  0.00  0.00     0.168 HD
ENDROOT
BRANCH   7   9
ATOM      9  C   UNL d   1       1.012  -3.405  -0.609  0.00  0.00     0.034 A 
ATOM     10  C   UNL d   1       1.076  -4.712  -0.106  0.00  0.00     0.045 A 
ATOM     11  C   UNL d   1       2.048  -5.622  -0.564  0.00  0.00     0.050 A 
ATOM     12  C   UNL d   1       2.949  -5.219  -1.561  0.00  0.00     0.016 A 
ATOM     13  C   UNL d   1       2.895  -3.926  -2.070  0.00  0.00     0.003 A 
ATOM     14  C   UNL d   1       1.946  -3.029  -1.584  0.00  0.00     0.029 A 
BRANCH  11  15
ATOM     15  C   UNL d   1       2.158  -7.008   0.018  0.00  0.00     0.417 C 
ATOM     16  F   UNL d   1       1.252  -7.263   1.002  0.00  0.00    -0.166 F 
ATOM     17  F   UNL d   1       1.977  -7.981  -0.917  0.00  0.00    -0.166 F 
ATOM     18  F   UNL d   1       3.382  -7.245   0.569  0.00  0.00    -0.166 F 
ENDBRANCH  11  15
ENDBRANCH   7   9
BRANCH   1  19
ATOM     19  C   UNL d   1       2.428   1.713  -0.037  0.00  0.00     0.068 A 
ATOM     20  C   UNL d   1       3.616   1.290  -0.650  0.00  0.00     0.132 A 
ATOM     21  F   UNL d   1       3.697   0.100  -1.267  0.00  0.00    -0.205 F 
ATOM     22  C   UNL d   1       4.759   2.094  -0.669  0.00  0.00     0.043 A 
ATOM     23  C   UNL d   1       4.737   3.351  -0.072  0.00  0.00     0.006 A 
ATOM     24  C   UNL d   1       3.568   3.793   0.544  0.00  0.00     0.043 A 
ATOM     25  C   UNL d   1       2.433   2.978   0.560  0.00  0.00     0.132 A 
ATOM     26  F   UNL d   1       1.345   3.449   1.189  0.00  0.00    -0.205 F 
ENDBRANCH   1  19
TORSDOF 3
