REMARK  3 active torsions:
REMARK  status: ('A' for Active; 'I' for Inactive)
REMARK    1  A    between atoms: C_6  and  C_3 
REMARK    2  A    between atoms: O_9  and  C_5 
REMARK    3  A    between atoms: C_14  and  O_9 
ROOT
ATOM      1  N   UNL d   1       0.927  -1.347   0.043  0.00  0.00    -0.349 N 
ATOM      2  HN  UNL d   1       0.657  -2.326   0.147  1.00  0.00     0.166 HD
ATOM      3  C   UNL d   1       2.243  -1.004   0.016  0.00  0.00     0.119 C 
ATOM      4  C   UNL d   1      -0.025  -0.391  -0.068  0.00  0.00     0.084 A 
ATOM      5  C   UNL d   1       1.664   1.316  -0.120  0.00  0.00     0.090 C 
ATOM      6  C   UNL d   1       0.294   0.973  -0.221  0.00  0.00     0.028 A 
ATOM      7  C   UNL d   1       2.641   0.324  -0.038  0.00  0.00     0.072 C 
ATOM      8  C   UNL d   1      -1.374  -0.740  -0.027  0.00  0.00     0.143 A 
ATOM      9  F   UNL d   1      -1.723  -2.026   0.160  0.00  0.00    -0.204 F 
ATOM     10  C   UNL d   1      -0.756   1.902  -0.445  0.00  0.00     0.017 A 
ATOM     11  C   UNL d   1      -2.093   1.520  -0.391  0.00  0.00     0.004 A 
ATOM     12  C   UNL d   1      -2.403   0.190  -0.160  0.00  0.00     0.045 A 
ENDROOT
BRANCH   5  13
ATOM     13  O   UNL d   1       2.156   2.605  -0.171  0.00  0.00    -0.310 OA
BRANCH  13  14
ATOM     14  C   UNL d   1       1.677   3.572   0.690  0.00  0.00     0.076 A 
ATOM     15  C   UNL d   1       0.916   3.339   1.841  0.00  0.00     0.039 A 
ATOM     16  C   UNL d   1       0.379   4.415   2.555  0.00  0.00     0.026 A 
ATOM     17  C   UNL d   1       0.656   5.722   2.159  0.00  0.00     0.034 A 
ATOM     18  C   UNL d   1       1.476   5.963   1.060  0.00  0.00     0.026 A 
ATOM     19 CL   UNL d   1      -0.021   7.042   3.029  0.00  0.00    -0.084 Cl
ATOM     20  C   UNL d   1       1.983   4.888   0.325  0.00  0.00     0.039 A 
ENDBRANCH  13  14
ENDBRANCH   5  13
BRANCH   3  21
ATOM     21  C   UNL d   1       3.299  -2.100   0.032  0.00  0.00     0.432 C 
ATOM     22  F   UNL d   1       2.798  -3.367   0.052  0.00  0.00    -0.165 F 
ATOM     23  F   UNL d   1       4.118  -2.045  -1.061  0.00  0.00    -0.165 F 
ATOM     24  F   UNL d   1       4.129  -2.010   1.111  0.00  0.00    -0.165 F 
ENDBRANCH   3  21
TORSDOF 3
