REMARK  6 active torsions:
REMARK  status: ('A' for Active; 'I' for Inactive)
REMARK    1  A    between atoms: O_20  and  C_1 
REMARK    2  A    between atoms: C_3  and  C_2 
REMARK       I    between atoms: N_7  and  C_3 
REMARK       I    between atoms: C_4  and  N_8 
REMARK    3  A    between atoms: C_9  and  C_4 
REMARK    4  A    between atoms: O_22  and  C_5 
REMARK    5  A    between atoms: O_21  and  C_6 
REMARK    6  A    between atoms: N_8  and  N_7 
ROOT
ATOM      1  C   UNL d   1      -2.825   0.571  -0.090  0.00  0.00     0.270 C 
ATOM      2  N   UNL d   1      -3.279   1.866   0.042  0.00  0.00    -0.263 N 
ATOM      3  O   UNL d   1      -3.608  -0.351  -0.343  0.00  0.00    -0.266 OA
ATOM      4  H   UNL d   1      -2.724   2.677   0.309  0.00  0.00     0.190 HD
ENDROOT
BRANCH   1   5
ATOM      5  C   UNL d   1      -1.363   0.296   0.029  0.00  0.00     0.039 A 
ATOM      6  C   UNL d   1      -0.379   1.283   0.098  0.00  0.00     0.057 A 
ATOM      7  C   UNL d   1       0.987   0.948   0.035  0.00  0.00     0.105 A 
ATOM      8  C   UNL d   1       1.371  -0.404  -0.070  0.00  0.00     0.135 A 
ATOM      9  C   UNL d   1       0.381  -1.410  -0.013  0.00  0.00     0.105 A 
ATOM     10  C   UNL d   1      -0.969  -1.048  -0.003  0.00  0.00     0.057 A 
BRANCH   7  11
ATOM     11  O   UNL d   1       1.780   2.066   0.073  0.00  0.00    -0.353 OA
ATOM     12  C   UNL d   1       3.179   1.943  -0.131  0.00  0.00     0.210 C 
ENDBRANCH   7  11
BRANCH   8  13
ATOM     13  O   UNL d   1       2.707  -0.718  -0.137  0.00  0.00    -0.351 OA
ATOM     14  C   UNL d   1       3.064  -1.617  -1.190  0.00  0.00     0.210 C 
ENDBRANCH   8  13
BRANCH   9  15
ATOM     15  O   UNL d   1       0.800  -2.718   0.008  0.00  0.00    -0.353 OA
ATOM     16  C   UNL d   1      -0.136  -3.678   0.490  0.00  0.00     0.210 C 
ENDBRANCH   9  15
ENDBRANCH   1   5
BRANCH   2  17
ATOM     17  N   UNL d   1      -4.635   2.097  -0.246  0.00  0.00    -0.263 N 
ATOM     18  C   UNL d   1      -5.200   3.285   0.156  0.00  0.00     0.270 C 
ATOM     19  O   UNL d   1      -4.564   4.140   0.766  0.00  0.00    -0.266 OA
ATOM     20  H   UNL d   1      -5.147   1.289  -0.591  0.00  0.00     0.190 HD
BRANCH  18  21
ATOM     21  C   UNL d   1      -6.636   3.527  -0.196  0.00  0.00     0.035 A 
ATOM     22  C   UNL d   1      -7.340   2.763  -1.138  0.00  0.00     0.042 A 
ATOM     23  C   UNL d   1      -8.656   3.110  -1.486  0.00  0.00     0.056 A 
ATOM     24 CL   UNL d   1      -9.451   2.138  -2.676  0.00  0.00    -0.083 Cl
ATOM     25  C   UNL d   1      -9.277   4.217  -0.896  0.00  0.00     0.055 A 
ATOM     26  C   UNL d   1      -8.585   4.971   0.055  0.00  0.00     0.026 A 
ATOM     27 CL   UNL d   1     -10.876   4.720  -1.310  0.00  0.00    -0.083 Cl
ATOM     28  C   UNL d   1      -7.275   4.626   0.401  0.00  0.00     0.019 A 
ENDBRANCH  18  21
ENDBRANCH   2  17
TORSDOF 6
