REMARK  3 active torsions:
REMARK  status: ('A' for Active; 'I' for Inactive)
REMARK    1  A    between atoms: C_2  and  C_1 
REMARK       I    between atoms: N_11  and  C_2 
REMARK    2  A    between atoms: C_10  and  C_3 
REMARK       I    between atoms: C_6  and  N_7 
REMARK    3  A    between atoms: N_7  and  C_12 
ROOT
ATOM      1  C   UNL d   1       0.989   0.927   0.192  0.00  0.00     0.112 C 
ATOM      2  C   UNL d   1       0.381   0.152   1.112  0.00  0.00     0.039 C 
ATOM      3  C   UNL d   1       0.271   1.739  -0.730  0.00  0.00     0.105 C 
ATOM      4  N   UNL d   1      -0.268   2.413  -1.506  0.00  0.00    -0.191 NA
ENDROOT
BRANCH   1   5
ATOM      5  C   UNL d   1       2.481   0.896   0.153  0.00  0.00     0.260 C 
ATOM      6  O   UNL d   1       3.155   0.242   0.943  0.00  0.00    -0.267 OA
ATOM      7  N   UNL d   1       3.096   1.624  -0.821  0.00  0.00    -0.365 N 
ATOM      8  H   UNL d   1       2.625   2.183  -1.521  0.00  0.00     0.159 HD
ATOM      9  H   UNL d   1       4.108   1.589  -0.853  0.00  0.00     0.159 HD
ENDBRANCH   1   5
BRANCH   2  10
ATOM     10  C   UNL d   1      -1.073   0.046   1.247  0.00  0.00    -0.035 A 
ATOM     11  C   UNL d   1      -1.773  -0.937   0.545  0.00  0.00     0.013 A 
ATOM     12  C   UNL d   1      -3.171  -0.980   0.599  0.00  0.00     0.030 A 
ATOM     13  C   UNL d   1      -3.887  -0.043   1.355  0.00  0.00     0.034 A 
ATOM     14  C   UNL d   1      -3.176   0.917   2.079  0.00  0.00     0.030 A 
ATOM     15  C   UNL d   1      -1.779   0.963   2.027  0.00  0.00     0.013 A 
BRANCH  13  16
ATOM     16  N   UNL d   1      -5.296  -0.118   1.321  0.00  0.00    -0.328 N 
ATOM     17  C   UNL d   1      -6.193   0.717   1.962  0.00  0.00     0.218 C 
ATOM     18  O   UNL d   1      -5.922   1.653   2.708  0.00  0.00    -0.274 OA
ATOM     19  C   UNL d   1      -7.635   0.386   1.669  0.00  0.00     0.117 C 
ATOM     20  H   UNL d   1      -5.684  -0.850   0.740  0.00  0.00     0.169 HD
ENDBRANCH  13  16
ENDBRANCH   2  10
TORSDOF 3
