REMARK  8 active torsions:
REMARK  status: ('A' for Active; 'I' for Inactive)
REMARK    1  A    between atoms: C_7  and  C_1 
REMARK    2  A    between atoms: C_10  and  N_2 
REMARK    3  A    between atoms: C_11  and  C_6 
REMARK       I    between atoms: N_9  and  C_7 
REMARK    4  A    between atoms: C_8  and  O_13 
REMARK    5  A    between atoms: N_12  and  N_9 
REMARK    6  A    between atoms: C_20  and  C_10 
REMARK    7  A    between atoms: C_18  and  N_12 
REMARK    8  A    between atoms: O_13  and  C_19 
ROOT
ATOM      1  C   UNL d   1      -0.677  -1.342   0.321  0.00  0.00     0.122 A 
ATOM      2  N   UNL d   1       0.568  -0.768   0.413  0.00  0.00    -0.282 N 
ATOM      3  N   UNL d   1       0.551   0.574   0.312  0.00  0.00    -0.301 N 
ATOM      4  HN  UNL d   1       1.352   1.205   0.321  1.00  0.00     0.187 HD
ATOM      5  C   UNL d   1      -1.545  -0.267   0.188  0.00  0.00     0.064 A 
ATOM      6  C   UNL d   1      -0.739   0.903   0.199  0.00  0.00     0.036 A 
ENDROOT
BRANCH   1   7
ATOM      7  C   UNL d   1      -0.945  -2.760   0.203  0.00  0.00     0.288 C 
ATOM      8  N   UNL d   1      -0.632  -3.525   1.331  0.00  0.00    -0.264 N 
ATOM      9  H   UNL d   1      -0.266  -3.040   2.147  0.00  0.00     0.190 HD
ATOM     10  O   UNL d   1      -1.392  -3.242  -0.834  0.00  0.00    -0.264 OA
BRANCH   8  11
ATOM     11  N   UNL d   1      -0.034  -4.787   1.084  0.00  0.00    -0.298 N 
ATOM     12  H   UNL d   1       0.876  -4.922   1.515  0.00  0.00     0.187 HD
BRANCH  11  13
ATOM     13  C   UNL d   1      -0.828  -5.957   1.147  0.00  0.00     0.048 A 
ATOM     14  C   UNL d   1      -0.173  -7.197   1.002  0.00  0.00     0.034 A 
ATOM     15  C   UNL d   1      -0.879  -8.406   0.895  0.00  0.00     0.039 A 
ATOM     16  C   UNL d   1      -2.267  -8.393   0.893  0.00  0.00     0.078 A 
ATOM     17  C   UNL d   1      -2.931  -7.179   1.080  0.00  0.00     0.039 A 
ATOM     18  C   UNL d   1      -2.222  -5.971   1.181  0.00  0.00     0.034 A 
BRANCH  16  19
ATOM     19  O   UNL d   1      -3.076  -9.480   0.736  0.00  0.00    -0.255 OA
BRANCH  19  20
ATOM     20  C   UNL d   1      -2.612 -10.552  -0.073  0.00  0.00     0.530 C 
ATOM     21  F   UNL d   1      -1.677 -10.184  -0.976  0.00  0.00    -0.144 F 
ATOM     22  F   UNL d   1      -2.106 -11.533   0.707  0.00  0.00    -0.144 F 
ATOM     23  F   UNL d   1      -3.663 -11.061  -0.756  0.00  0.00    -0.144 F 
ENDBRANCH  19  20
ENDBRANCH  16  19
ENDBRANCH  11  13
ENDBRANCH   8  11
ENDBRANCH   1   7
BRANCH   2  24
ATOM     24  C   UNL d   1       1.865  -1.422   0.558  0.00  0.00     0.188 C 
BRANCH  24  25
ATOM     25  C   UNL d   1       2.279  -1.493   2.015  0.00  0.00    -0.038 A 
ATOM     26  C   UNL d   1       2.685  -2.710   2.579  0.00  0.00     0.009 A 
ATOM     27  C   UNL d   1       3.034  -2.778   3.931  0.00  0.00     0.001 A 
ATOM     28  C   UNL d   1       3.007  -1.630   4.724  0.00  0.00     0.000 A 
ATOM     29  C   UNL d   1       2.648  -0.409   4.167  0.00  0.00     0.001 A 
ATOM     30  C   UNL d   1       2.298  -0.342   2.816  0.00  0.00     0.009 A 
ENDBRANCH  24  25
ENDBRANCH   2  24
BRANCH   6  31
ATOM     31  C   UNL d   1      -1.109   2.374   0.072  0.00  0.00    -0.007 C 
ATOM     32  C   UNL d   1      -2.633   2.593   0.053  0.00  0.00     0.021 C 
ATOM     33  C   UNL d   1      -0.528   3.169   1.267  0.00  0.00     0.021 C 
ATOM     34  C   UNL d   1      -0.523   2.957  -1.233  0.00  0.00     0.021 C 
ENDBRANCH   6  31
TORSDOF 8
