REMARK  6 active torsions:
REMARK  status: ('A' for Active; 'I' for Inactive)
REMARK    1  A    between atoms: C_2  and  N_1 
REMARK       I    between atoms: C_3  and  N_1 
REMARK    2  A    between atoms: N_7  and  C_2 
REMARK    3  A    between atoms: O_13  and  C_3 
REMARK    4  A    between atoms: C_5  and  C_12 
REMARK    5  A    between atoms: C_12  and  N_7 
REMARK    6  A    between atoms: C_14  and  O_13 
ROOT
ATOM      1  C   UNL d   1       0.220   0.599  -1.278  0.00  0.00     0.176 C 
ATOM      2  S   UNL d   1       0.658   0.925  -2.852  0.00  0.00    -0.041 SA
ENDROOT
BRANCH   1   3
ATOM      3  N   UNL d   1       1.012   0.102  -0.256  0.00  0.00    -0.279 N 
ATOM      4  C   UNL d   1       2.320  -0.346  -0.180  0.00  0.00     0.366 C 
ATOM      5  O   UNL d   1       2.703  -0.938   0.825  0.00  0.00    -0.238 OA
ATOM      6  H   UNL d   1       0.547  -0.132   0.604  0.00  0.00     0.173 HD
BRANCH   4   7
ATOM      7  O   UNL d   1       3.070  -0.105  -1.276  0.00  0.00    -0.304 OA
BRANCH   7   8
ATOM      8  C   UNL d   1       4.372  -0.705  -1.327  0.00  0.00     0.176 C 
ATOM      9  C   UNL d   1       4.437  -1.546  -2.588  0.00  0.00     0.034 C 
ENDBRANCH   7   8
ENDBRANCH   4   7
ENDBRANCH   1   3
BRANCH   1  10
ATOM     10  N   UNL d   1      -1.085   0.852  -0.940  0.00  0.00    -0.362 N 
ATOM     11  H   UNL d   1      -1.666   1.138  -1.722  0.00  0.00     0.162 HD
BRANCH  10  12
ATOM     12  C   UNL d   1      -1.745   0.633   0.334  0.00  0.00     0.168 C 
BRANCH  12  13
ATOM     13  C   UNL d   1      -3.114   1.228   0.311  0.00  0.00     0.000 A 
ATOM     14  S   UNL d   1      -4.466   0.273   0.757  0.00  0.00    -0.105 SA
ATOM     15  C   UNL d   1      -5.539   1.591   0.575  0.00  0.00     0.050 A 
ATOM     16  C   UNL d   1      -4.890   2.733   0.165  0.00  0.00     0.008 A 
ATOM     17  C   UNL d   1      -3.489   2.524   0.010  0.00  0.00     0.017 A 
ENDBRANCH  12  13
ENDBRANCH  10  12
ENDBRANCH   1  10
TORSDOF 6
