REMARK  1 active torsions:
REMARK  status: ('A' for Active; 'I' for Inactive)
REMARK    1  A    between atoms: C_2  and  C_1 
REMARK       I    between atoms: N_6  and  C_2 
ROOT
ATOM      1  C   UNL d   1       0.007  -1.271   0.571  0.00  0.00     0.042 C 
ATOM      2  C   UNL d   1      -0.039  -0.022   1.464  0.00  0.00     0.040 C 
ATOM      3  C   UNL d   1       0.025   1.228   0.597  0.00  0.00     0.019 C 
ATOM      4 BR   UNL d   1       0.010   2.807   1.804  0.00  0.00    -0.086 Br
ATOM      5  C   UNL d   1      -1.228  -1.301  -0.352  0.00  0.00     0.019 C 
ATOM      6  C   UNL d   1       1.329  -1.280  -0.235  0.00  0.00     0.019 C 
ATOM      7  C   UNL d   1      -1.198   1.342  -0.319  0.00  0.00     0.021 C 
ATOM      8  C   UNL d   1       1.356   1.283  -0.168  0.00  0.00     0.021 C 
ATOM      9  C   UNL d   1      -1.825   0.033  -0.802  0.00  0.00     0.003 C 
ATOM     10  C   UNL d   1       1.663   0.020  -0.964  0.00  0.00     0.003 C 
ENDROOT
BRANCH   1  11
ATOM     11  C   UNL d   1      -0.014  -2.530   1.464  0.00  0.00     0.224 C 
ATOM     12  O   UNL d   1      -0.046  -2.502   2.689  0.00  0.00    -0.273 OA
ATOM     13  N   UNL d   1       0.010  -3.727   0.815  0.00  0.00    -0.369 N 
ATOM     14  H   UNL d   1      -0.023  -3.826  -0.182  0.00  0.00     0.159 HD
ATOM     15  H   UNL d   1      -0.024  -4.568   1.382  0.00  0.00     0.159 HD
ENDBRANCH   1  11
TORSDOF 1
