REMARK  5 active torsions:
REMARK  status: ('A' for Active; 'I' for Inactive)
REMARK    1  A    between atoms: C_3  and  C_1 
REMARK    2  A    between atoms: S_2  and  C_10 
REMARK    3  A    between atoms: N_16  and  S_2 
REMARK       I    between atoms: N_9  and  C_3 
REMARK    4  A    between atoms: C_17  and  C_6 
REMARK    5  A    between atoms: C_15  and  N_9 
ROOT
ATOM      1  C   UNL d   1       0.239  -2.486   0.603  0.00  0.00     0.261 C 
ATOM      2  N   UNL d   1      -0.512  -3.455  -0.047  0.00  0.00    -0.323 N 
ATOM      3  O   UNL d   1       1.294  -2.686   1.195  0.00  0.00    -0.267 OA
ATOM      4  H   UNL d   1      -1.337  -3.143  -0.545  0.00  0.00     0.169 HD
ENDROOT
BRANCH   1   5
ATOM      5  C   UNL d   1      -0.243  -1.129   0.444  0.00  0.00     0.093 A 
ATOM      6  C   UNL d   1      -1.532  -0.519   0.545  0.00  0.00     0.083 A 
ATOM      7  N   UNL d   1      -1.443   0.789   0.242  0.00  0.00    -0.259 N 
ATOM      8  O   UNL d   1      -0.115   1.064   0.035  0.00  0.00    -0.241 OA
ATOM      9  HN  UNL d   1      -2.216   1.451   0.179  1.00  0.00     0.195 HD
ATOM     10  C   UNL d   1       0.605  -0.070   0.179  0.00  0.00     0.090 A 
ATOM     11  C   UNL d   1       2.067   0.058   0.014  0.00  0.00     0.080 C 
BRANCH   6  12
ATOM     12  C   UNL d   1      -2.829  -1.062   0.964  0.00  0.00    -0.006 A 
ATOM     13  C   UNL d   1      -4.015  -0.439   0.534  0.00  0.00     0.014 A 
ATOM     14  C   UNL d   1      -5.261  -0.857   1.006  0.00  0.00     0.001 A 
ATOM     15  C   UNL d   1      -5.340  -1.911   1.910  0.00  0.00     0.000 A 
ATOM     16  C   UNL d   1      -4.176  -2.549   2.336  0.00  0.00     0.001 A 
ATOM     17  C   UNL d   1      -2.926  -2.126   1.871  0.00  0.00     0.014 A 
ENDBRANCH   6  12
ENDBRANCH   1   5
BRANCH   2  18
ATOM     18  C   UNL d   1      -0.116  -4.798  -0.267  0.00  0.00     0.036 A 
ATOM     19  C   UNL d   1       1.016  -5.374   0.312  0.00  0.00     0.054 A 
ATOM     20  C   UNL d   1       1.418  -6.665  -0.047  0.00  0.00     0.076 A 
ATOM     21  C   UNL d   1       0.681  -7.420  -0.955  0.00  0.00     0.025 A 
ATOM     22  C   UNL d   1      -0.476  -6.871  -1.503  0.00  0.00     0.004 A 
ATOM     23  C   UNL d   1      -0.873  -5.570  -1.160  0.00  0.00     0.029 A 
BRANCH  20  24
ATOM     24  S   UNL d   1       2.913  -7.303   0.649  0.00  0.00     0.239 S 
ATOM     25  O   UNL d   1       2.820  -7.235   2.089  0.00  0.00    -0.206 OA
ATOM     26  O   UNL d   1       3.286  -8.509  -0.051  0.00  0.00    -0.206 OA
BRANCH  24  27
ATOM     27  N   UNL d   1       4.041  -6.150   0.184  0.00  0.00    -0.225 NA
ATOM     28  H   UNL d   1       4.417  -5.671   1.002  0.00  0.00     0.136 HD
ATOM     29  H   UNL d   1       4.748  -6.572  -0.418  0.00  0.00     0.136 HD
ENDBRANCH  24  27
ENDBRANCH  20  24
ENDBRANCH   2  18
TORSDOF 5
