REMARK  6 active torsions:
REMARK  status: ('A' for Active; 'I' for Inactive)
REMARK    1  A    between atoms: C_3  and  C_1 
REMARK    2  A    between atoms: C_2  and  N_4 
REMARK    3  A    between atoms: N_6  and  C_2 
REMARK    4  A    between atoms: N_4  and  C_8 
REMARK    5  A    between atoms: C_15  and  N_6 
REMARK    6  A    between atoms: C_14  and  C_15 
ROOT
ATOM      1  C   UNL d   1      -0.347  -2.958   3.873  0.00  0.00     0.172 C 
ATOM      2  S   UNL d   1       0.107  -3.653   2.424  0.00  0.00    -0.041 SA
ENDROOT
BRANCH   1   3
ATOM      3  N   UNL d   1      -0.399  -1.622   4.177  0.00  0.00    -0.333 N 
ATOM      4  H   UNL d   1       0.018  -1.385   5.071  0.00  0.00     0.168 HD
BRANCH   3   5
ATOM      5  C   UNL d   1      -0.691  -0.541   3.324  0.00  0.00     0.035 A 
ATOM      6  C   UNL d   1      -1.543  -0.677   2.224  0.00  0.00     0.045 A 
ATOM      7  C   UNL d   1      -1.872   0.429   1.426  0.00  0.00     0.050 A 
ATOM      8  C   UNL d   1      -1.331   1.682   1.747  0.00  0.00     0.016 A 
ATOM      9  C   UNL d   1      -0.496   1.827   2.855  0.00  0.00     0.003 A 
ATOM     10  C   UNL d   1      -0.191   0.722   3.651  0.00  0.00     0.029 A 
BRANCH   7  11
ATOM     11  C   UNL d   1      -2.808   0.280   0.253  0.00  0.00     0.417 C 
ATOM     12  F   UNL d   1      -3.275  -0.989   0.080  0.00  0.00    -0.166 F 
ATOM     13  F   UNL d   1      -2.227   0.628  -0.928  0.00  0.00    -0.166 F 
ATOM     14  F   UNL d   1      -3.915   1.066   0.371  0.00  0.00    -0.166 F 
ENDBRANCH   7  11
ENDBRANCH   3   5
ENDBRANCH   1   3
BRANCH   1  15
ATOM     15  N   UNL d   1      -0.661  -3.800   4.907  0.00  0.00    -0.363 N 
ATOM     16  H   UNL d   1      -0.639  -4.776   4.633  0.00  0.00     0.162 HD
BRANCH  15  17
ATOM     17  C   UNL d   1      -1.558  -3.466   6.000  0.00  0.00     0.162 C 
BRANCH  17  18
ATOM     18  C   UNL d   1      -0.889  -2.746   7.134  0.00  0.00    -0.025 A 
ATOM     19  C   UNL d   1      -1.580  -1.766   7.843  0.00  0.00     0.096 A 
ATOM     20  N   UNL d   1      -1.068  -1.086   8.893  0.00  0.00    -0.375 N 
ATOM     21  C   UNL d   1       0.187  -1.405   9.271  0.00  0.00     0.087 A 
ATOM     22  HN  UNL d   1      -1.605  -0.365   9.376  1.00  0.00     0.164 HD
ATOM     23  C   UNL d   1       0.955  -2.371   8.645  0.00  0.00     0.018 A 
ATOM     24  C   UNL d   1       0.405  -3.053   7.564  0.00  0.00     0.011 A 
ENDBRANCH  17  18
ENDBRANCH  15  17
ENDBRANCH   1  15
TORSDOF 6
