REMARK  7 active torsions:
REMARK  status: ('A' for Active; 'I' for Inactive)
REMARK    1  A    between atoms: C_9  and  N_1 
REMARK    2  A    between atoms: C_11  and  C_2 
REMARK    3  A    between atoms: S_8  and  C_5 
REMARK    4  A    between atoms: C_13  and  S_8 
REMARK    5  A    between atoms: C_10  and  C_13 
REMARK    6  A    between atoms: O_14  and  C_10 
REMARK    7  A    between atoms: C_19  and  O_14 
ROOT
ATOM      1  N   UNL d   1      -0.349  -1.323  -0.048  0.00  0.00    -0.275 N 
ATOM      2  C   UNL d   1       0.891  -0.671  -0.062  0.00  0.00     0.139 A 
ATOM      3  N   UNL d   1       0.686   0.637  -0.055  0.00  0.00    -0.282 N 
ATOM      4  HN  UNL d   1       1.414   1.351  -0.027  1.00  0.00     0.188 HD
ATOM      5  C   UNL d   1      -1.268  -0.286  -0.093  0.00  0.00     0.168 A 
ATOM      6  N   UNL d   1      -0.657   0.875  -0.091  0.00  0.00    -0.278 N 
ATOM      7  HN  UNL d   1      -1.105   1.791  -0.113  1.00  0.00     0.189 HD
ENDROOT
BRANCH   5   8
ATOM      8  S   UNL d   1      -2.998  -0.444   0.018  0.00  0.00    -0.082 SA
BRANCH   8   9
ATOM      9  C   UNL d   1      -3.514   1.045  -0.891  0.00  0.00     0.193 C 
BRANCH   9  10
ATOM     10  C   UNL d   1      -2.930   1.085  -2.290  0.00  0.00     0.268 C 
ATOM     11  O   UNL d   1      -2.569   0.117  -2.945  0.00  0.00    -0.264 OA
BRANCH  10  12
ATOM     12  O   UNL d   1      -2.879   2.383  -2.712  0.00  0.00    -0.321 OA
BRANCH  12  13
ATOM     13  C   UNL d   1      -2.096   2.619  -3.891  0.00  0.00     0.174 C 
ATOM     14  C   UNL d   1      -0.650   2.829  -3.484  0.00  0.00     0.034 C 
ENDBRANCH  12  13
ENDBRANCH  10  12
ENDBRANCH   9  10
ENDBRANCH   8   9
ENDBRANCH   5   8
BRANCH   1  15
ATOM     15  C   UNL d   1      -0.597  -2.724   0.020  0.00  0.00     0.043 A 
ATOM     16  C   UNL d   1       0.189  -3.538   0.848  0.00  0.00     0.030 A 
ATOM     17  C   UNL d   1      -0.015  -4.919   0.872  0.00  0.00     0.002 A 
ATOM     18  C   UNL d   1      -1.010  -5.493   0.085  0.00  0.00     0.000 A 
ATOM     19  C   UNL d   1      -1.805  -4.688  -0.729  0.00  0.00     0.002 A 
ATOM     20  C   UNL d   1      -1.599  -3.307  -0.767  0.00  0.00     0.030 A 
ENDBRANCH   1  15
BRANCH   2  21
ATOM     21  C   UNL d   1       2.230  -1.273  -0.135  0.00  0.00     0.010 A 
ATOM     22  C   UNL d   1       2.523  -2.370  -0.958  0.00  0.00     0.015 A 
ATOM     23  C   UNL d   1       3.803  -2.931  -0.972  0.00  0.00     0.001 A 
ATOM     24  C   UNL d   1       4.817  -2.379  -0.193  0.00  0.00     0.000 A 
ATOM     25  C   UNL d   1       4.556  -1.260   0.592  0.00  0.00     0.001 A 
ATOM     26  C   UNL d   1       3.271  -0.709   0.619  0.00  0.00     0.015 A 
ENDBRANCH   2  21
TORSDOF 7
