REMARK  1 active torsions:
REMARK  status: ('A' for Active; 'I' for Inactive)
REMARK    1  A    between atoms: C_7  and  C_1 
ROOT
ATOM      1  C   UNL d   1      -2.413   0.624  -0.438  0.00  0.00     0.275 C 
ATOM      2  C   UNL d   1      -2.392  -0.784   0.223  0.00  0.00     0.275 C 
ATOM      3  C   UNL d   1      -1.215   1.430   0.075  0.00  0.00     0.215 C 
ATOM      4  C   UNL d   1       0.071   0.704   0.172  0.00  0.00     0.043 A 
ATOM      5  N   UNL d   1      -1.158  -1.382   0.343  0.00  0.00    -0.323 N 
ATOM      6  C   UNL d   1       0.051  -0.693   0.218  0.00  0.00     0.049 A 
ATOM      7  O   UNL d   1      -3.400  -1.419   0.529  0.00  0.00    -0.269 OA
ATOM      8  O   UNL d   1      -1.234   2.638   0.316  0.00  0.00    -0.288 OA
ATOM      9  C   UNL d   1       1.281   1.401   0.143  0.00  0.00     0.041 A 
ATOM     10  F   UNL d   1      -3.579   1.270  -0.105  0.00  0.00    -0.218 F 
ATOM     11  C   UNL d   1       1.246  -1.405   0.177  0.00  0.00     0.032 A 
ATOM     12  C   UNL d   1       2.472   0.682   0.101  0.00  0.00     0.035 A 
ATOM     13  C   UNL d   1       2.459  -0.715   0.098  0.00  0.00     0.026 A 
ATOM     14 CL   UNL d   1       3.973   1.518   0.023  0.00  0.00    -0.084 Cl
ATOM     15  H   UNL d   1      -1.170  -2.366   0.585  0.00  0.00     0.169 HD
ENDROOT
BRANCH   1  16
ATOM     16  C   UNL d   1      -2.363   0.398  -1.970  0.00  0.00    -0.001 A 
ATOM     17  C   UNL d   1      -3.389  -0.360  -2.566  0.00  0.00     0.011 A 
ATOM     18  C   UNL d   1      -3.307  -0.760  -3.902  0.00  0.00     0.001 A 
ATOM     19  C   UNL d   1      -2.207  -0.391  -4.671  0.00  0.00     0.000 A 
ATOM     20  C   UNL d   1      -1.217   0.418  -4.123  0.00  0.00     0.001 A 
ATOM     21  C   UNL d   1      -1.303   0.827  -2.789  0.00  0.00     0.011 A 
ENDBRANCH   1  16
TORSDOF 1
