REMARK  7 active torsions:
REMARK  status: ('A' for Active; 'I' for Inactive)
REMARK    1  A    between atoms: N_4  and  C_1 
REMARK    2  A    between atoms: N_5  and  C_1 
REMARK       I    between atoms: C_2  and  N_3 
REMARK    3  A    between atoms: C_7  and  C_2 
REMARK    4  A    between atoms: N_3  and  N_4 
REMARK    5  A    between atoms: C_10  and  N_5 
REMARK    6  A    between atoms: N_9  and  C_8 
REMARK    7  A    between atoms: O_18  and  C_17 
ROOT
ATOM      1  N   UNL d   1       0.365  -0.362   1.382  0.00  0.00    -0.273 N 
ATOM      2  H   UNL d   1       0.880  -0.615   0.543  0.00  0.00     0.189 HD
ENDROOT
BRANCH   1   3
ATOM      3  N   UNL d   1       0.974  -0.747   2.580  0.00  0.00    -0.264 N 
ATOM      4  C   UNL d   1       0.317  -1.467   3.570  0.00  0.00     0.270 C 
ATOM      5  O   UNL d   1       0.969  -2.159   4.357  0.00  0.00    -0.266 OA
ATOM      6  H   UNL d   1       1.978  -0.910   2.554  0.00  0.00     0.190 HD
BRANCH   4   7
ATOM      7  C   UNL d   1      -1.145  -1.304   3.783  0.00  0.00     0.033 C 
ATOM      8  C   UNL d   1      -2.093  -1.415   2.775  0.00  0.00     0.019 C 
ATOM      9  C   UNL d   1      -3.427  -1.044   3.005  0.00  0.00     0.030 C 
ATOM     10  C   UNL d   1      -3.882  -0.621   4.264  0.00  0.00     0.029 C 
ATOM     11  C   UNL d   1      -2.926  -0.671   5.295  0.00  0.00     0.030 C 
ATOM     12  C   UNL d   1      -1.578  -0.986   5.068  0.00  0.00     0.019 C 
BRANCH  10  13
ATOM     13  N   UNL d   1      -5.202  -0.245   4.506  0.00  0.00    -0.390 N 
ATOM     14  C   UNL d   1      -5.518   0.682   5.597  0.00  0.00     0.149 C 
ATOM     15  C   UNL d   1      -6.192  -0.223   3.428  0.00  0.00     0.149 C 
ENDBRANCH  10  13
ENDBRANCH   4   7
ENDBRANCH   1   3
BRANCH   1  16
ATOM     16  C   UNL d   1      -0.402   0.766   1.249  0.00  0.00     0.191 C 
ATOM     17  S   UNL d   1      -0.396   2.073   2.297  0.00  0.00    -0.039 SA
BRANCH  16  18
ATOM     18  N   UNL d   1      -1.269   0.808   0.185  0.00  0.00    -0.332 N 
ATOM     19  H   UNL d   1      -1.792   1.679   0.172  0.00  0.00     0.168 HD
BRANCH  18  20
ATOM     20  C   UNL d   1      -1.701  -0.169  -0.750  0.00  0.00     0.036 A 
ATOM     21  C   UNL d   1      -1.219  -1.482  -0.842  0.00  0.00     0.066 A 
ATOM     22  C   UNL d   1      -1.729  -2.386  -1.778  0.00  0.00     0.070 A 
ATOM     23  C   UNL d   1      -2.738  -1.975  -2.642  0.00  0.00     0.037 A 
ATOM     24  C   UNL d   1      -3.246  -0.681  -2.561  0.00  0.00     0.005 A 
ATOM     25  C   UNL d   1      -2.729   0.215  -1.621  0.00  0.00     0.029 A 
BRANCH  22  26
ATOM     26  O   UNL d   1      -1.321  -3.684  -1.935  0.00  0.00    -0.356 OA
ATOM     27  C   UNL d   1      -0.405  -4.202  -0.975  0.00  0.00     0.210 C 
ENDBRANCH  22  26
ENDBRANCH  18  20
ENDBRANCH  16  18
ENDBRANCH   1  16
TORSDOF 7
