REMARK  20 active torsions:
REMARK  status: ('A' for Active; 'I' for Inactive)
REMARK       I    between atoms: N_2  and  C_1 
REMARK    1  A    between atoms: C_8  and  C_1 
REMARK    2  A    between atoms: C_5  and  N_2 
REMARK       I    between atoms: C_3  and  N_7 
REMARK    3  A    between atoms: O_15  and  C_3 
REMARK    4  A    between atoms: C_5  and  C_4 
REMARK    5  A    between atoms: O_9  and  C_4 
REMARK    6  A    between atoms: C_11  and  C_5 
REMARK       I    between atoms: C_6  and  N_17 
REMARK    7  A    between atoms: O_16  and  C_6 
REMARK    8  A    between atoms: C_8  and  N_7 
REMARK    9  A    between atoms: C_25  and  C_8 
REMARK   10  A    between atoms: C_18  and  O_9 
REMARK   11  A    between atoms: C_21  and  C_11 
REMARK   12  A    between atoms: C_19  and  O_15 
REMARK   13  A    between atoms: C_20  and  O_16 
REMARK   14  A    between atoms: N_17  and  C_26 
REMARK   15  A    between atoms: C_22  and  C_18 
REMARK   16  A    between atoms: C_23  and  C_19 
REMARK   17  A    between atoms: C_24  and  C_20 
REMARK   18  A    between atoms: C_35  and  C_25 
REMARK   19  A    between atoms: C_26  and  C_36 
REMARK   20  A    between atoms: C_36  and  C_35 
ROOT
ATOM      1  C   UNL d   1       0.507   1.007   0.541  0.00  0.00     0.179 C 
ENDROOT
BRANCH   1   2
ATOM      2  C   UNL d   1       0.639   2.386  -0.115  0.00  0.00     0.035 C 
BRANCH   2   3
ATOM      3  C   UNL d   1      -0.333   3.427   0.442  0.00  0.00     0.004 C 
BRANCH   3   4
ATOM      4  C   UNL d   1      -0.242   4.778  -0.268  0.00  0.00     0.020 C 
BRANCH   4   5
ATOM      5  C   UNL d   1      -0.639   4.708  -1.737  0.00  0.00     0.125 C 
BRANCH   5   6
ATOM      6  N   UNL d   1      -0.652   6.019  -2.336  0.00  0.00    -0.337 N 
ATOM      7  C   UNL d   1      -1.790   6.753  -2.468  0.00  0.00     0.360 C 
ATOM      8  O   UNL d   1      -2.879   6.455  -2.003  0.00  0.00    -0.239 OA
ATOM      9  H   UNL d   1       0.158   6.360  -2.834  0.00  0.00     0.164 HD
BRANCH   7  10
ATOM     10  O   UNL d   1      -1.530   7.807  -3.274  0.00  0.00    -0.299 OA
BRANCH  10  11
ATOM     11  C   UNL d   1      -2.681   8.390  -3.887  0.00  0.00     0.219 C 
BRANCH  11  12
ATOM     12  C   UNL d   1      -2.930   9.789  -3.392  0.00  0.00    -0.034 A 
ATOM     13  C   UNL d   1      -2.290  10.883  -3.990  0.00  0.00     0.009 A 
ATOM     14  C   UNL d   1      -2.584  12.184  -3.579  0.00  0.00     0.001 A 
ATOM     15  C   UNL d   1      -3.510  12.402  -2.561  0.00  0.00     0.000 A 
ATOM     16  C   UNL d   1      -4.130  11.319  -1.940  0.00  0.00     0.001 A 
ATOM     17  C   UNL d   1      -3.836  10.017  -2.348  0.00  0.00     0.009 A 
ENDBRANCH  11  12
ENDBRANCH  10  11
ENDBRANCH   7  10
ENDBRANCH   5   6
ENDBRANCH   4   5
ENDBRANCH   3   4
ENDBRANCH   2   3
ENDBRANCH   1   2
BRANCH   1  18
ATOM     18  C   UNL d   1       0.928   0.993   2.015  0.00  0.00     0.241 C 
ATOM     19  N   UNL d   1       0.011   1.477   2.916  0.00  0.00    -0.345 N 
ATOM     20  H   UNL d   1      -0.955   1.548   2.618  0.00  0.00     0.163 HD
ATOM     21  O   UNL d   1       2.023   0.536   2.367  0.00  0.00    -0.271 OA
BRANCH  19  22
ATOM     22  C   UNL d   1       0.274   1.316   4.347  0.00  0.00     0.188 C 
BRANCH  22  23
ATOM     23  C   UNL d   1       1.340   2.249   4.984  0.00  0.00     0.282 C 
ATOM     24  O   UNL d   1       1.502   2.313   6.200  0.00  0.00    -0.263 OA
BRANCH  23  25
ATOM     25  O   UNL d   1       2.111   2.920   4.072  0.00  0.00    -0.315 OA
BRANCH  25  26
ATOM     26  C   UNL d   1       3.050   3.875   4.611  0.00  0.00     0.217 C 
BRANCH  26  27
ATOM     27  C   UNL d   1       4.470   3.819   4.063  0.00  0.00    -0.034 A 
ATOM     28  C   UNL d   1       4.785   3.331   2.789  0.00  0.00     0.009 A 
ATOM     29  C   UNL d   1       6.092   3.445   2.286  0.00  0.00     0.001 A 
ATOM     30  C   UNL d   1       7.098   4.043   3.048  0.00  0.00     0.000 A 
ATOM     31  C   UNL d   1       6.807   4.516   4.320  0.00  0.00     0.001 A 
ATOM     32  C   UNL d   1       5.505   4.408   4.820  0.00  0.00     0.009 A 
ENDBRANCH  26  27
ENDBRANCH  25  26
ENDBRANCH  23  25
ENDBRANCH  22  23
BRANCH  22  33
ATOM     33  C   UNL d   1      -1.039   1.247   5.157  0.00  0.00     0.074 C 
BRANCH  33  34
ATOM     34  C   UNL d   1      -1.870   2.502   5.305  0.00  0.00    -0.056 A 
ATOM     35  C   UNL d   1      -2.956   2.753   4.453  0.00  0.00     0.007 A 
ATOM     36  C   UNL d   1      -3.827   3.817   4.705  0.00  0.00     0.001 A 
ATOM     37  C   UNL d   1      -3.606   4.660   5.792  0.00  0.00     0.000 A 
ATOM     38  C   UNL d   1      -2.502   4.453   6.615  0.00  0.00     0.001 A 
ATOM     39  C   UNL d   1      -1.644   3.376   6.379  0.00  0.00     0.007 A 
ENDBRANCH  33  34
ENDBRANCH  22  33
ENDBRANCH  19  22
ENDBRANCH   1  18
BRANCH   1  40
ATOM     40  N   UNL d   1       1.375   0.030  -0.098  0.00  0.00    -0.324 N 
ATOM     41  C   UNL d   1       1.149  -0.436  -1.353  0.00  0.00     0.361 C 
ATOM     42  O   UNL d   1       0.305   0.019  -2.106  0.00  0.00    -0.238 OA
ATOM     43  H   UNL d   1       2.027  -0.488   0.486  0.00  0.00     0.165 HD
BRANCH  41  44
ATOM     44  O   UNL d   1       1.921  -1.517  -1.579  0.00  0.00    -0.299 OA
BRANCH  44  45
ATOM     45  C   UNL d   1       1.511  -2.279  -2.713  0.00  0.00     0.219 C 
BRANCH  45  46
ATOM     46  C   UNL d   1       2.431  -2.101  -3.891  0.00  0.00    -0.034 A 
ATOM     47  C   UNL d   1       3.765  -2.523  -3.829  0.00  0.00     0.009 A 
ATOM     48  C   UNL d   1       4.573  -2.472  -4.967  0.00  0.00     0.001 A 
ATOM     49  C   UNL d   1       4.058  -1.990  -6.170  0.00  0.00     0.000 A 
ATOM     50  C   UNL d   1       2.742  -1.537  -6.232  0.00  0.00     0.001 A 
ATOM     51  C   UNL d   1       1.934  -1.584  -5.096  0.00  0.00     0.009 A 
ENDBRANCH  45  46
ENDBRANCH  44  45
ENDBRANCH  41  44
ENDBRANCH   1  40
TORSDOF 20
