REMARK  7 active torsions:
REMARK  status: ('A' for Active; 'I' for Inactive)
REMARK    1  A    between atoms: C_2  and  C_1 
REMARK    2  A    between atoms: C_5  and  C_22 
REMARK       I    between atoms: N_9  and  C_5 
REMARK    3  A    between atoms: C_19  and  N_9 
REMARK    4  A    between atoms: S_17  and  C_24 
REMARK    5  A    between atoms: C_22  and  S_17 
REMARK    6  A    between atoms: C_18  and  C_19 
REMARK    7  A    between atoms: C_24  and  C_20 
ROOT
ATOM      1  C   UNL d   1       3.397  -6.621   0.652  0.00  0.00     0.227 C 
ATOM      2  N   UNL d   1       3.942  -5.434   1.075  0.00  0.00    -0.356 N 
ATOM      3  O   UNL d   1       3.530  -7.684   1.236  0.00  0.00    -0.273 OA
ATOM      4  H   UNL d   1       3.839  -4.600   0.518  0.00  0.00     0.162 HD
ENDROOT
BRANCH   1   5
ATOM      5  C   UNL d   1       2.551  -6.498  -0.592  0.00  0.00     0.176 C 
BRANCH   5   6
ATOM      6  S   UNL d   1       3.577  -6.193  -2.048  0.00  0.00    -0.155 SA
BRANCH   6   7
ATOM      7  C   UNL d   1       4.551  -7.746  -2.054  0.00  0.00     0.112 C 
BRANCH   7   8
ATOM      8  C   UNL d   1       5.412  -7.753  -3.294  0.00  0.00    -0.048 A 
ATOM      9  C   UNL d   1       6.677  -7.146  -3.277  0.00  0.00     0.024 A 
ATOM     10  C   UNL d   1       7.417  -6.995  -4.458  0.00  0.00     0.048 A 
ATOM     11  C   UNL d   1       6.883  -7.482  -5.661  0.00  0.00     0.016 A 
ATOM     12  C   UNL d   1       5.638  -8.111  -5.682  0.00  0.00     0.001 A 
ATOM     13  C   UNL d   1       4.906  -8.246  -4.504  0.00  0.00     0.008 A 
BRANCH  10  14
ATOM     14  C   UNL d   1       8.748  -6.286  -4.458  0.00  0.00     0.417 C 
ATOM     15  F   UNL d   1       9.117  -5.816  -3.233  0.00  0.00    -0.166 F 
ATOM     16  F   UNL d   1       8.764  -5.205  -5.288  0.00  0.00    -0.166 F 
ATOM     17  F   UNL d   1       9.768  -7.088  -4.871  0.00  0.00    -0.166 F 
ENDBRANCH  10  14
ENDBRANCH   7   8
ENDBRANCH   6   7
ENDBRANCH   5   6
ENDBRANCH   1   5
BRANCH   2  18
ATOM     18  C   UNL d   1       4.475  -5.331   2.408  0.00  0.00     0.161 C 
BRANCH  18  19
ATOM     19  C   UNL d   1       5.971  -5.374   2.523  0.00  0.00    -0.038 A 
ATOM     20  C   UNL d   1       6.456  -5.600   3.825  0.00  0.00     0.048 A 
ATOM     21  C   UNL d   1       7.769  -5.321   4.073  0.00  0.00     0.105 A 
ATOM     22  O   UNL d   1       8.328  -5.279   5.312  0.00  0.00    -0.323 OA
ATOM     23  C   UNL d   1       8.619  -4.874   3.089  0.00  0.00     0.105 A 
ATOM     24  C   UNL d   1       9.420  -4.391   5.015  0.00  0.00     0.352 C 
ATOM     25  O   UNL d   1       9.802  -4.449   3.623  0.00  0.00    -0.323 OA
ATOM     26  C   UNL d   1       8.223  -4.774   1.775  0.00  0.00     0.040 A 
ATOM     27  C   UNL d   1       6.868  -5.018   1.493  0.00  0.00     0.012 A 
ENDBRANCH  18  19
ENDBRANCH   2  18
TORSDOF 7
