REMARK  8 active torsions:
REMARK  status: ('A' for Active; 'I' for Inactive)
REMARK    1  A    between atoms: C_3  and  C_1 
REMARK    2  A    between atoms: C_13  and  N_2 
REMARK    3  A    between atoms: N_7  and  O_12 
REMARK    4  A    between atoms: C_10  and  C_14 
REMARK    5  A    between atoms: O_12  and  C_10 
REMARK    6  A    between atoms: C_19  and  C_11 
REMARK    7  A    between atoms: N_23  and  C_11 
REMARK    8  A    between atoms: C_18  and  C_13 
ROOT
ATOM      1  C   UNL d   1      -3.664   3.563  -1.506  0.00  0.00     0.042 A 
ATOM      2  C   UNL d   1      -2.820   2.466  -1.249  0.00  0.00     0.026 A 
ATOM      3  C   UNL d   1      -1.804   2.102  -2.147  0.00  0.00    -0.039 A 
ATOM      4  C   UNL d   1      -3.481   4.307  -2.678  0.00  0.00     0.017 A 
ATOM      5  C   UNL d   1      -2.475   3.950  -3.580  0.00  0.00     0.002 A 
ATOM      6  C   UNL d   1      -1.649   2.852  -3.320  0.00  0.00     0.009 A 
ENDROOT
BRANCH   1   7
ATOM      7  C   UNL d   1      -4.760   3.834  -0.534  0.00  0.00     0.315 C 
ATOM      8  O   UNL d   1      -4.914   3.164   0.483  0.00  0.00    -0.257 OA
BRANCH   7   9
ATOM      9  O   UNL d   1      -5.560   4.862  -0.942  0.00  0.00    -0.193 OA
BRANCH   9  10
ATOM     10  N   UNL d   1      -6.897   4.429  -0.841  0.00  0.00    -0.246 N 
ATOM     11  C   UNL d   1      -7.754   5.402  -0.898  0.00  0.00     0.109 C 
ATOM     12  HN  UNL d   1      -7.164   3.450  -0.733  1.00  0.00     0.196 HD
BRANCH  11  13
ATOM     13  C   UNL d   1      -9.193   5.011  -1.019  0.00  0.00     0.004 A 
ATOM     14  C   UNL d   1      -9.642   3.810  -0.454  0.00  0.00     0.015 A 
ATOM     15  C   UNL d   1     -10.944   3.369  -0.696  0.00  0.00     0.001 A 
ATOM     16  C   UNL d   1     -11.796   4.122  -1.504  0.00  0.00     0.000 A 
ATOM     17  C   UNL d   1     -11.358   5.329  -2.050  0.00  0.00     0.001 A 
ATOM     18  C   UNL d   1     -10.059   5.779  -1.804  0.00  0.00     0.015 A 
ENDBRANCH  11  13
BRANCH  11  19
ATOM     19  N   UNL d   1      -7.426   6.739  -0.876  0.00  0.00    -0.286 NA
ATOM     20  H   UNL d   1      -6.501   6.897  -0.491  0.00  0.00     0.125 HD
ATOM     21  H   UNL d   1      -8.120   7.341  -0.447  0.00  0.00     0.125 HD
ENDBRANCH  11  19
ENDBRANCH   9  10
ENDBRANCH   7   9
ENDBRANCH   1   7
BRANCH   3  22
ATOM     22  C   UNL d   1      -0.881   0.944  -1.844  0.00  0.00     0.170 C 
BRANCH  22  23
ATOM     23  N   UNL d   1      -1.310  -0.339  -2.404  0.00  0.00    -0.320 N 
ATOM     24  C   UNL d   1      -2.103  -1.188  -1.640  0.00  0.00     0.110 A 
ATOM     25  C   UNL d   1      -2.410  -2.435  -2.045  0.00  0.00     0.063 A 
ATOM     26  C   UNL d   1      -1.914  -2.888  -3.332  0.00  0.00     0.023 A 
ATOM     27  C   UNL d   1      -1.164  -2.088  -4.102  0.00  0.00     0.075 A 
ATOM     28  C   UNL d   1      -0.806  -0.717  -3.647  0.00  0.00     0.247 A 
ATOM     29  O   UNL d   1      -0.083  -0.023  -4.357  0.00  0.00    -0.268 OA
BRANCH  25  30
ATOM     30  C   UNL d   1      -3.204  -3.378  -1.184  0.00  0.00     0.418 C 
ATOM     31  F   UNL d   1      -3.283  -4.631  -1.703  0.00  0.00    -0.166 F 
ATOM     32  F   UNL d   1      -2.653  -3.506   0.051  0.00  0.00    -0.166 F 
ATOM     33  F   UNL d   1      -4.478  -2.948  -1.004  0.00  0.00    -0.166 F 
ENDBRANCH  25  30
ENDBRANCH  22  23
ENDBRANCH   3  22
TORSDOF 8
