REMARK  4 active torsions:
REMARK  status: ('A' for Active; 'I' for Inactive)
REMARK    1  A    between atoms: N_3  and  C_2 
REMARK       I    between atoms: C_4  and  N_3 
REMARK    2  A    between atoms: C_9  and  C_4 
REMARK    3  A    between atoms: S_6  and  C_9 
REMARK    4  A    between atoms: C_10  and  S_6 
ROOT
ATOM      1  N   UNL d   1       0.754   3.284  -1.511  0.00  0.00    -0.325 N 
ATOM      2  C   UNL d   1      -0.165   3.683  -0.556  0.00  0.00     0.231 C 
ATOM      3  O   UNL d   1      -0.983   2.937  -0.011  0.00  0.00    -0.272 OA
ATOM      4  H   UNL d   1       1.569   3.890  -1.607  0.00  0.00     0.169 HD
ENDROOT
BRANCH   2   5
ATOM      5  C   UNL d   1      -0.141   5.174  -0.243  0.00  0.00     0.182 C 
BRANCH   5   6
ATOM      6  S   UNL d   1       1.567   5.796  -0.069  0.00  0.00    -0.121 SA
BRANCH   6   7
ATOM      7  C   UNL d   1       1.362   7.527   0.344  0.00  0.00     0.001 A 
ATOM      8  C   UNL d   1       0.141   8.195   0.458  0.00  0.00     0.020 A 
ATOM      9  C   UNL d   1       0.098   9.560   0.784  0.00  0.00     0.025 A 
ATOM     10  C   UNL d   1       1.284  10.259   1.000  0.00  0.00     0.034 A 
ATOM     11  C   UNL d   1       2.506   9.613   0.895  0.00  0.00     0.025 A 
ATOM     12 CL   UNL d   1       1.229  11.931   1.400  0.00  0.00    -0.084 Cl
ATOM     13  C   UNL d   1       2.543   8.252   0.567  0.00  0.00     0.020 A 
ENDBRANCH   6   7
ENDBRANCH   5   6
ENDBRANCH   2   5
BRANCH   1  14
ATOM     14  C   UNL d   1       0.917   1.958  -1.980  0.00  0.00     0.058 A 
ATOM     15  C   UNL d   1       2.205   1.497  -2.310  0.00  0.00     0.082 A 
ATOM     16  C   UNL d   1       2.384   0.177  -2.750  0.00  0.00     0.058 A 
ATOM     17 CL   UNL d   1       3.563   2.564  -2.101  0.00  0.00    -0.080 Cl
ATOM     18 CL   UNL d   1       3.944  -0.481  -3.102  0.00  0.00    -0.082 Cl
ATOM     19  C   UNL d   1       1.280  -0.666  -2.904  0.00  0.00     0.026 A 
ATOM     20  C   UNL d   1      -0.001  -0.200  -2.613  0.00  0.00     0.004 A 
ATOM     21  C   UNL d   1      -0.181   1.103  -2.144  0.00  0.00     0.031 A 
ENDBRANCH   1  14
TORSDOF 4
