REMARK  10 active torsions:
REMARK  status: ('A' for Active; 'I' for Inactive)
REMARK    1  A    between atoms: C_2  and  C_1 
REMARK       I    between atoms: C_3  and  N_5 
REMARK       I    between atoms: N_7  and  C_3 
REMARK    2  A    between atoms: N_4  and  C_6 
REMARK    3  A    between atoms: N_5  and  N_4 
REMARK    4  A    between atoms: C_12  and  N_7 
REMARK    5  A    between atoms: C_20  and  C_13 
REMARK    6  A    between atoms: C_21  and  C_20 
REMARK    7  A    between atoms: C_24  and  C_21 
REMARK    8  A    between atoms: C_22  and  C_23 
REMARK    9  A    between atoms: C_23  and  C_25 
REMARK   10  A    between atoms: C_25  and  C_24 
ROOT
ATOM      1  C   UNL d   1       2.368  -3.883  -0.917  0.00  0.00     0.313 C 
ATOM      2  N   UNL d   1       2.740  -3.200   0.225  0.00  0.00    -0.273 N 
ATOM      3  N   UNL d   1       1.240  -4.665  -0.809  0.00  0.00    -0.209 NA
ATOM      4  O   UNL d   1       3.000  -3.830  -1.972  0.00  0.00    -0.252 OA
ATOM      5  H   UNL d   1       1.989  -2.920   0.848  0.00  0.00     0.185 HD
ATOM      6  H   UNL d   1       1.256  -5.330  -1.575  0.00  0.00     0.138 HD
ENDROOT
BRANCH   2   7
ATOM      7  N   UNL d   1       3.785  -2.256   0.105  0.00  0.00    -0.202 NA
ATOM      8  H   UNL d   1       4.181  -2.275  -0.848  0.00  0.00     0.153 HD
BRANCH   7   9
ATOM      9  C   UNL d   1       4.776  -2.350   1.122  0.00  0.00     0.042 A 
ATOM     10  C   UNL d   1       6.084  -1.861   0.923  0.00  0.00     0.070 A 
ATOM     11  C   UNL d   1       7.014  -1.889   1.989  0.00  0.00     0.018 A 
ATOM     12  C   UNL d   1       6.656  -2.361   3.249  0.00  0.00     0.001 A 
ATOM     13  C   UNL d   1       5.359  -2.800   3.466  0.00  0.00     0.002 A 
ATOM     14  C   UNL d   1       4.431  -2.783   2.420  0.00  0.00     0.026 A 
BRANCH  10  15
ATOM     15  C   UNL d   1       6.574  -1.296  -0.387  0.00  0.00     0.419 C 
ATOM     16  F   UNL d   1       5.653  -1.294  -1.392  0.00  0.00    -0.166 F 
ATOM     17  F   UNL d   1       7.644  -1.986  -0.876  0.00  0.00    -0.166 F 
ATOM     18  F   UNL d   1       6.998  -0.005  -0.269  0.00  0.00    -0.166 F 
ENDBRANCH  10  15
ENDBRANCH   7   9
ENDBRANCH   2   7
BRANCH   3  19
ATOM     19  C   UNL d   1       0.819  -5.194   0.425  0.00  0.00     0.016 A 
ATOM     20  C   UNL d   1      -0.320  -4.665   1.030  0.00  0.00     0.024 A 
ATOM     21  C   UNL d   1      -0.694  -5.103   2.300  0.00  0.00     0.009 A 
ATOM     22  C   UNL d   1       0.074  -6.066   2.970  0.00  0.00    -0.058 A 
ATOM     23  C   UNL d   1       1.172  -6.642   2.316  0.00  0.00     0.009 A 
ATOM     24  C   UNL d   1       1.546  -6.209   1.045  0.00  0.00     0.024 A 
BRANCH  22  25
ATOM     25  C   UNL d   1      -0.225  -6.419   4.407  0.00  0.00     0.038 C 
BRANCH  25  26
ATOM     26  C   UNL d   1       0.911  -6.004   5.354  0.00  0.00     0.005 C 
BRANCH  26  27
ATOM     27  C   UNL d   1       1.214  -4.496   5.381  0.00  0.00     0.000 C 
BRANCH  27  28
ATOM     28  C   UNL d   1       0.047  -3.604   5.814  0.00  0.00     0.000 C 
BRANCH  28  29
ATOM     29  C   UNL d   1      -0.433  -3.918   7.231  0.00  0.00    -0.000 C 
BRANCH  29  30
ATOM     30  C   UNL d   1      -1.628  -3.060   7.633  0.00  0.00    -0.005 C 
ATOM     31  C   UNL d   1      -2.085  -3.409   9.041  0.00  0.00     0.005 C 
ENDBRANCH  29  30
ENDBRANCH  28  29
ENDBRANCH  27  28
ENDBRANCH  26  27
ENDBRANCH  25  26
ENDBRANCH  22  25
ENDBRANCH   3  19
TORSDOF 10
