REMARK  3 active torsions:
REMARK  status: ('A' for Active; 'I' for Inactive)
REMARK    1  A    between atoms: C_2  and  S_1 
REMARK    2  A    between atoms: N_3  and  S_1 
REMARK    3  A    between atoms: C_8  and  N_3 
ROOT
ATOM      1  S   UNL d   1       0.513   1.579   0.344  0.00  0.00     0.260 S 
ATOM      2  O   UNL d   1      -0.684   1.792  -0.445  0.00  0.00    -0.200 OA
ATOM      3  O   UNL d   1       0.871   2.483   1.412  0.00  0.00    -0.200 OA
ENDROOT
BRANCH   1   4
ATOM      4  C   UNL d   1       1.892   1.409  -0.757  0.00  0.00     0.096 A 
ATOM      5  C   UNL d   1       1.928   0.479  -1.803  0.00  0.00     0.029 A 
ATOM      6  I   UNL d   1       0.317  -0.693  -2.472  0.00  0.00    -0.043 I 
ATOM      7  C   UNL d   1       3.136   0.278  -2.494  0.00  0.00     0.020 A 
ATOM      8  C   UNL d   1       4.277   1.004  -2.158  0.00  0.00     0.001 A 
ATOM      9  C   UNL d   1       4.218   1.977  -1.167  0.00  0.00     0.002 A 
ATOM     10  C   UNL d   1       3.028   2.188  -0.472  0.00  0.00     0.027 A 
ENDBRANCH   1   4
BRANCH   1  11
ATOM     11  N   UNL d   1       0.404   0.029   1.007  0.00  0.00    -0.311 N 
ATOM     12  H   UNL d   1      -0.514  -0.365   0.810  0.00  0.00     0.172 HD
BRANCH  11  13
ATOM     13  C   UNL d   1       1.003  -0.287   2.320  0.00  0.00     0.093 C 
ATOM     14  C   UNL d   1       2.534  -0.290   2.309  0.00  0.00     0.026 C 
ATOM     15  C   UNL d   1       3.148  -1.426   1.490  0.00  0.00     0.002 C 
ATOM     16  C   UNL d   1       2.563  -2.792   1.837  0.00  0.00     0.000 C 
ATOM     17  C   UNL d   1       1.038  -2.789   1.862  0.00  0.00     0.002 C 
ATOM     18  C   UNL d   1       0.489  -1.670   2.747  0.00  0.00     0.026 C 
ENDBRANCH  11  13
ENDBRANCH   1  11
TORSDOF 3
