REMARK  1 active torsions:
REMARK  status: ('A' for Active; 'I' for Inactive)
REMARK    1  A    between atoms: C_7  and  C_4 
ROOT
ATOM      1  C   UNL d   1       1.898   0.472   0.093  0.00  0.00    -0.001 A 
ATOM      2  C   UNL d   1       0.859   1.534   0.266  0.00  0.00     0.189 A 
ATOM      3  C   UNL d   1      -0.406   0.844   0.543  0.00  0.00     0.021 A 
ATOM      4  C   UNL d   1       3.193   0.758  -0.098  0.00  0.00     0.041 C 
ATOM      5  C   UNL d   1      -0.191  -0.535   0.527  0.00  0.00    -0.040 A 
ATOM      6  C   UNL d   1       1.230  -0.876   0.203  0.00  0.00     0.082 A 
ATOM      7  O   UNL d   1       1.021   2.736   0.190  0.00  0.00    -0.287 OA
ATOM      8  C   UNL d   1      -1.647   1.396   0.801  0.00  0.00     0.016 A 
ATOM      9  C   UNL d   1      -1.232  -1.409   0.793  0.00  0.00     0.008 A 
ATOM     10  C   UNL d   1      -2.700   0.519   1.069  0.00  0.00     0.001 A 
ATOM     11  C   UNL d   1      -2.493  -0.873   1.069  0.00  0.00     0.001 A 
ENDROOT
BRANCH   4  12
ATOM     12  C   UNL d   1       4.139  -0.277  -0.245  0.00  0.00     0.032 A 
ATOM     13  N   UNL d   1       4.431  -0.725  -1.511  0.00  0.00    -0.366 N 
ATOM     14  C   UNL d   1       5.374  -1.718  -1.440  0.00  0.00     0.088 A 
ATOM     15  H   UNL d   1       4.012  -0.377  -2.363  0.00  0.00     0.165 HD
ATOM     16  C   UNL d   1       5.690  -1.911  -0.114  0.00  0.00     0.019 A 
ATOM     17  C   UNL d   1       4.907  -1.004   0.642  0.00  0.00     0.031 A 
ENDBRANCH   4  12
TORSDOF 1
