REMARK  6 active torsions:
REMARK  status: ('A' for Active; 'I' for Inactive)
REMARK    1  A    between atoms: S_14  and  C_2 
REMARK    2  A    between atoms: C_11  and  C_3 
REMARK    3  A    between atoms: C_19  and  C_8 
REMARK    4  A    between atoms: C_12  and  C_13 
REMARK    5  A    between atoms: O_20  and  C_19 
REMARK    6  A    between atoms: C_21  and  O_20 
ROOT
ATOM      1  C   UNL d   1      -0.611  -0.151  -0.006  0.00  0.00     0.105 A 
ATOM      2  C   UNL d   1       0.140   0.006  -1.165  0.00  0.00     0.094 A 
ATOM      3  C   UNL d   1       0.118  -0.240   1.182  0.00  0.00     0.067 A 
ATOM      4  N   UNL d   1       1.487   0.078  -1.160  0.00  0.00    -0.337 N 
ATOM      5  HN  UNL d   1       2.010   0.192  -2.028  1.00  0.00     0.168 HD
ATOM      6  N   UNL d   1       1.478  -0.181   1.189  0.00  0.00    -0.342 N 
ATOM      7  HN  UNL d   1       2.000  -0.269   2.060  1.00  0.00     0.167 HD
ATOM      8  C   UNL d   1       2.115  -0.005   0.019  0.00  0.00     0.107 A 
ATOM      9  C   UNL d   1      -2.045  -0.215  -0.028  0.00  0.00     0.104 C 
ATOM     10  N   UNL d   1      -3.200  -0.228   0.048  0.00  0.00    -0.191 NA
ENDROOT
BRANCH   2  11
ATOM     11  S   UNL d   1      -0.611   0.112  -2.794  0.00  0.00    -0.115 SA
ATOM     12  C   UNL d   1       0.856   0.268  -3.867  0.00  0.00     0.097 C 
ENDBRANCH   2  11
BRANCH   3  13
ATOM     13  C   UNL d   1      -0.464  -0.377   2.548  0.00  0.00    -0.008 A 
ATOM     14  C   UNL d   1       0.209  -1.091   3.563  0.00  0.00     0.015 A 
ATOM     15  C   UNL d   1      -0.294  -1.155   4.872  0.00  0.00     0.024 A 
ATOM     16  C   UNL d   1      -1.490  -0.518   5.187  0.00  0.00     0.034 A 
ATOM     17  C   UNL d   1      -2.190   0.167   4.206  0.00  0.00     0.024 A 
ATOM     18 CL   UNL d   1      -2.092  -0.537   6.796  0.00  0.00    -0.084 Cl
ATOM     19  C   UNL d   1      -1.670   0.248   2.914  0.00  0.00     0.015 A 
ENDBRANCH   3  13
BRANCH   8  20
ATOM     20  C   UNL d   1       3.625   0.069   0.011  0.00  0.00     0.252 C 
BRANCH  20  21
ATOM     21  O   UNL d   1       4.054   1.429   0.124  0.00  0.00    -0.344 OA
BRANCH  21  22
ATOM     22  C   UNL d   1       5.409   1.620   0.076  0.00  0.00     0.069 A 
ATOM     23  C   UNL d   1       5.828   2.867  -0.381  0.00  0.00     0.037 A 
ATOM     24  C   UNL d   1       7.192   3.182  -0.455  0.00  0.00     0.011 A 
ATOM     25  C   UNL d   1       8.176   2.264  -0.049  0.00  0.00    -0.050 A 
ATOM     26  C   UNL d   1       7.727   1.011   0.406  0.00  0.00     0.011 A 
ATOM     27  C   UNL d   1       6.365   0.693   0.473  0.00  0.00     0.037 A 
BRANCH  25  28
ATOM     28  C   UNL d   1       9.670   2.630  -0.116  0.00  0.00    -0.024 C 
ATOM     29  C   UNL d   1      10.575   1.492   0.408  0.00  0.00     0.019 C 
ATOM     30  C   UNL d   1      10.069   2.935  -1.575  0.00  0.00     0.019 C 
ATOM     31  C   UNL d   1       9.978   3.883   0.734  0.00  0.00     0.019 C 
ENDBRANCH  25  28
ENDBRANCH  21  22
ENDBRANCH  20  21
ENDBRANCH   8  20
TORSDOF 6
