REMARK  9 active torsions:
REMARK  status: ('A' for Active; 'I' for Inactive)
REMARK    1  A    between atoms: C_22  and  C_1 
REMARK    2  A    between atoms: C_7  and  C_10 
REMARK    3  A    between atoms: C_8  and  N_12 
REMARK    4  A    between atoms: N_11  and  C_8 
REMARK    5  A    between atoms: C_9  and  C_23 
REMARK       I    between atoms: N_13  and  C_9 
REMARK    6  A    between atoms: C_16  and  N_11 
REMARK    7  A    between atoms: N_12  and  N_13 
REMARK    8  A    between atoms: S_21  and  C_22 
REMARK    9  A    between atoms: C_23  and  S_21 
ROOT
ATOM      1  C   UNL d   1      -4.196   4.255   0.883  0.00  0.00     0.245 C 
ATOM      2  N   UNL d   1      -4.884   3.275   1.588  0.00  0.00    -0.267 N 
ATOM      3  O   UNL d   1      -3.792   5.301   1.384  0.00  0.00    -0.271 OA
ATOM      4  H   UNL d   1      -5.094   2.370   1.184  0.00  0.00     0.190 HD
ENDROOT
BRANCH   2   5
ATOM      5  N   UNL d   1      -5.144   3.427   2.960  0.00  0.00    -0.274 N 
ATOM      6  H   UNL d   1      -4.349   3.298   3.582  0.00  0.00     0.189 HD
BRANCH   5   7
ATOM      7  C   UNL d   1      -6.147   4.253   3.425  0.00  0.00     0.191 C 
ATOM      8  S   UNL d   1      -7.201   5.170   2.502  0.00  0.00    -0.039 SA
BRANCH   7   9
ATOM      9  N   UNL d   1      -6.273   4.313   4.795  0.00  0.00    -0.332 N 
ATOM     10  H   UNL d   1      -6.739   5.168   5.088  0.00  0.00     0.168 HD
BRANCH   9  11
ATOM     11  C   UNL d   1      -6.574   3.211   5.640  0.00  0.00     0.035 A 
ATOM     12  C   UNL d   1      -6.452   1.874   5.253  0.00  0.00     0.045 A 
ATOM     13  C   UNL d   1      -6.945   0.837   6.068  0.00  0.00     0.050 A 
ATOM     14  C   UNL d   1      -7.546   1.158   7.293  0.00  0.00     0.016 A 
ATOM     15  C   UNL d   1      -7.637   2.486   7.704  0.00  0.00     0.003 A 
ATOM     16  C   UNL d   1      -7.147   3.504   6.884  0.00  0.00     0.029 A 
BRANCH  13  17
ATOM     17  C   UNL d   1      -6.883  -0.598   5.608  0.00  0.00     0.417 C 
ATOM     18  F   UNL d   1      -6.233  -0.762   4.422  0.00  0.00    -0.166 F 
ATOM     19  F   UNL d   1      -6.242  -1.407   6.497  0.00  0.00    -0.166 F 
ATOM     20  F   UNL d   1      -8.120  -1.141   5.432  0.00  0.00    -0.166 F 
ENDBRANCH  13  17
ENDBRANCH   9  11
ENDBRANCH   7   9
ENDBRANCH   5   7
ENDBRANCH   2   5
BRANCH   1  21
ATOM     21  C   UNL d   1      -3.975   3.901  -0.580  0.00  0.00     0.178 C 
BRANCH  21  22
ATOM     22  S   UNL d   1      -2.316   3.213  -0.874  0.00  0.00    -0.155 SA
BRANCH  22  23
ATOM     23  C   UNL d   1      -2.456   1.620   0.011  0.00  0.00     0.114 C 
BRANCH  23  24
ATOM     24  C   UNL d   1      -1.167   0.803   0.007  0.00  0.00    -0.036 C 
ATOM     25  C   UNL d   1      -0.010   1.309   0.668  0.00  0.00    -0.048 C 
ATOM     26  C   UNL d   1       1.231   0.637   0.531  0.00  0.00    -0.049 C 
ATOM     27  C   UNL d   1      -0.076   2.567   1.506  0.00  0.00     0.049 C 
ATOM     28  C   UNL d   1       2.511   1.274   1.021  0.00  0.00     0.049 C 
ATOM     29  C   UNL d   1       1.266  -0.659  -0.042  0.00  0.00    -0.049 C 
ATOM     30  C   UNL d   1       0.087  -1.250  -0.571  0.00  0.00    -0.049 C 
ATOM     31  C   UNL d   1       2.593  -1.401  -0.052  0.00  0.00     0.049 C 
ATOM     32  C   UNL d   1      -1.119  -0.483  -0.606  0.00  0.00    -0.048 C 
ATOM     33  C   UNL d   1       0.164  -2.667  -1.082  0.00  0.00     0.049 C 
ATOM     34  C   UNL d   1      -2.371  -1.027  -1.256  0.00  0.00     0.049 C 
ENDBRANCH  23  24
ENDBRANCH  22  23
ENDBRANCH  21  22
ENDBRANCH   1  21
TORSDOF 9
