REMARK  3 active torsions:
REMARK  status: ('A' for Active; 'I' for Inactive)
REMARK    1  A    between atoms: S_11  and  C_1 
REMARK       I    between atoms: C_14  and  N_2 
REMARK    2  A    between atoms: C_15  and  N_3 
REMARK    3  A    between atoms: C_4  and  S_11 
ROOT
ATOM      1  C   UNL d   1      -1.398  -2.584   1.135  0.00  0.00     0.182 A 
ATOM      2  N   UNL d   1      -2.362  -3.365   1.765  0.00  0.00    -0.219 N 
ATOM      3  N   UNL d   1      -1.327  -1.416   1.738  0.00  0.00    -0.264 N 
ATOM      4  HN  UNL d   1      -0.717  -0.637   1.490  1.00  0.00     0.186 HD
ATOM      5  N   UNL d   1      -2.228  -1.452   2.757  0.00  0.00    -0.006 NA
ATOM      6  N   UNL d   1      -2.867  -2.609   2.784  0.00  0.00     0.001 NA
ENDROOT
BRANCH   1   7
ATOM      7  S   UNL d   1      -0.581  -2.897  -0.349  0.00  0.00    -0.048 SA
BRANCH   7   8
ATOM      8  C   UNL d   1       0.840  -3.789   0.164  0.00  0.00     0.056 C 
ATOM      9  C   UNL d   1       1.599  -3.749   1.322  0.00  0.00     0.052 C 
ATOM     10  N   UNL d   1       2.713  -4.564   1.076  0.00  0.00    -0.228 N 
ATOM     11  C   UNL d   1       1.386  -3.001   2.592  0.00  0.00     0.072 C 
ATOM     12  C   UNL d   1       3.892  -4.760   1.832  0.00  0.00     0.238 C 
ATOM     13  N   UNL d   1       2.572  -5.240  -0.099  0.00  0.00    -0.294 N 
ATOM     14  O   UNL d   1       4.090  -4.125   2.867  0.00  0.00    -0.272 OA
ATOM     15  C   UNL d   1       4.901  -5.710   1.250  0.00  0.00     0.119 C 
ATOM     16  C   UNL d   1       1.469  -4.751  -0.663  0.00  0.00     0.042 C 
ATOM     17  HN  UNL d   1       3.184  -5.967  -0.469  1.00  0.00     0.187 HD
ATOM     18  C   UNL d   1       1.045  -5.264  -1.994  0.00  0.00     0.071 C 
ENDBRANCH   7   8
ENDBRANCH   1   7
BRANCH   2  19
ATOM     19  C   UNL d   1      -2.878  -4.678   1.548  0.00  0.00     0.056 A 
ATOM     20  C   UNL d   1      -2.333  -5.571   0.621  0.00  0.00     0.031 A 
ATOM     21  C   UNL d   1      -2.904  -6.833   0.423  0.00  0.00     0.002 A 
ATOM     22  C   UNL d   1      -4.019  -7.224   1.155  0.00  0.00     0.000 A 
ATOM     23  C   UNL d   1      -4.558  -6.360   2.102  0.00  0.00     0.002 A 
ATOM     24  C   UNL d   1      -3.990  -5.099   2.303  0.00  0.00     0.031 A 
ENDBRANCH   2  19
TORSDOF 3
