REMARK  1 active torsions:
REMARK  status: ('A' for Active; 'I' for Inactive)
REMARK    1  A    between atoms: C_15  and  N_4 
ROOT
ATOM      1  C   UNL d   1       2.711  -0.696  -0.020  0.00  0.00     0.139 A 
ATOM      2  C   UNL d   1       1.762   0.279   0.019  0.00  0.00     0.105 A 
ATOM      3  N   UNL d   1       4.065  -0.297  -0.126  0.00  0.00    -0.288 N 
ATOM      4  N   UNL d   1       2.289  -2.066  -0.011  0.00  0.00    -0.262 N 
ATOM      5  N   UNL d   1       3.521   1.986   0.081  0.00  0.00    -0.270 N 
ATOM      6  C   UNL d   1       4.492   1.023   0.029  0.00  0.00     0.332 C 
ATOM      7  C   UNL d   1       2.176   1.718  -0.010  0.00  0.00     0.267 C 
ATOM      8  C   UNL d   1       0.921  -2.435  -0.026  0.00  0.00     0.266 A 
ATOM      9  C   UNL d   1      -0.081  -1.375  -0.012  0.00  0.00     0.061 A 
ATOM     10  C   UNL d   1       0.323  -0.065   0.029  0.00  0.00     0.068 A 
ATOM     11  N   UNL d   1      -0.591   0.936   0.056  0.00  0.00    -0.354 N 
ATOM     12  HN  UNL d   1      -0.278   1.906   0.094  1.00  0.00     0.166 HD
ATOM     13  C   UNL d   1      -1.448  -1.685  -0.018  0.00  0.00     0.033 A 
ATOM     14  C   UNL d   1      -1.910   0.661   0.034  0.00  0.00     0.043 A 
ATOM     15  O   UNL d   1       5.692   1.319   0.083  0.00  0.00    -0.246 OA
ATOM     16  O   UNL d   1       1.369   2.642  -0.114  0.00  0.00    -0.267 OA
ATOM     17  O   UNL d   1       0.491  -3.590  -0.017  0.00  0.00    -0.267 OA
ATOM     18  C   UNL d   1      -2.392  -0.657   0.003  0.00  0.00    -0.008 A 
ATOM     19  C   UNL d   1       5.170  -1.189  -0.457  0.00  0.00     0.163 C 
ATOM     20  C   UNL d   1       3.916   3.386   0.074  0.00  0.00     0.164 C 
ATOM     21  C   UNL d   1      -2.836   1.697   0.038  0.00  0.00     0.030 A 
ATOM     22  C   UNL d   1      -3.776  -0.913  -0.009  0.00  0.00     0.014 A 
ATOM     23  C   UNL d   1      -4.212   1.451   0.020  0.00  0.00     0.002 A 
ATOM     24  C   UNL d   1      -4.683   0.143  -0.001  0.00  0.00     0.001 A 
ENDROOT
BRANCH   4  25
ATOM     25  C   UNL d   1       3.155  -3.208   0.091  0.00  0.00     0.044 A 
ATOM     26  C   UNL d   1       3.133  -4.183  -0.922  0.00  0.00     0.030 A 
ATOM     27  C   UNL d   1       3.989  -5.282  -0.871  0.00  0.00     0.002 A 
ATOM     28  C   UNL d   1       4.867  -5.425   0.200  0.00  0.00     0.000 A 
ATOM     29  C   UNL d   1       4.866  -4.487   1.234  0.00  0.00     0.002 A 
ATOM     30  C   UNL d   1       4.000  -3.389   1.191  0.00  0.00     0.030 A 
ENDBRANCH   4  25
TORSDOF 1
