REMARK  2 active torsions:
REMARK  status: ('A' for Active; 'I' for Inactive)
REMARK    1  A    between atoms: C_2  and  C_1 
REMARK       I    between atoms: N_10  and  C_1 
REMARK    2  A    between atoms: N_12  and  N_10 
ROOT
ATOM      1  C   UNL d   1       0.245  -1.236  -0.046  0.00  0.00     0.034 A 
ATOM      2  C   UNL d   1      -0.820  -1.270  -0.952  0.00  0.00     0.030 A 
ATOM      3  C   UNL d   1      -1.550  -2.458  -1.145  0.00  0.00    -0.009 A 
ATOM      4  N   UNL d   1      -1.861  -4.791  -0.598  0.00  0.00    -0.365 N 
ATOM      5  HN  UNL d   1      -1.593  -5.623  -0.073  1.00  0.00     0.165 HD
ATOM      6  C   UNL d   1      -1.207  -3.628  -0.434  0.00  0.00     0.042 A 
ATOM      7  C   UNL d   1       0.584  -2.391   0.661  0.00  0.00     0.019 A 
ATOM      8  C   UNL d   1      -0.146  -3.569   0.460  0.00  0.00     0.031 A 
ATOM      9  C   UNL d   1      -2.884  -4.823  -1.480  0.00  0.00     0.088 A 
ATOM     10  C   UNL d   1      -2.625  -2.529  -2.041  0.00  0.00     0.015 A 
ATOM     11  C   UNL d   1      -3.303  -3.729  -2.214  0.00  0.00     0.018 A 
ENDROOT
BRANCH   1  12
ATOM     12  C   UNL d   1       1.030   0.020   0.094  0.00  0.00     0.265 C 
ATOM     13  O   UNL d   1       1.148   0.792  -0.853  0.00  0.00    -0.266 OA
ATOM     14  N   UNL d   1       1.592   0.252   1.345  0.00  0.00    -0.290 N 
ATOM     15  H   UNL d   1       1.264  -0.269   2.155  0.00  0.00     0.183 HD
BRANCH  14  16
ATOM     16  N   UNL d   1       2.303   1.452   1.565  0.00  0.00    -0.247 NA
ATOM     17  H   UNL d   1       2.203   2.016   0.708  0.00  0.00     0.143 HD
ATOM     18  H   UNL d   1       3.300   1.224   1.592  0.00  0.00     0.143 HD
ENDBRANCH  14  16
ENDBRANCH   1  12
TORSDOF 2
