REMARK  5 active torsions:
REMARK  status: ('A' for Active; 'I' for Inactive)
REMARK    1  A    between atoms: C_8  and  C_1 
REMARK    2  A    between atoms: N_4  and  C_7 
REMARK       I    between atoms: N_13  and  C_8 
REMARK    3  A    between atoms: C_21  and  C_9 
REMARK    4  A    between atoms: N_10  and  C_15 
REMARK    5  A    between atoms: C_11  and  N_14 
ROOT
ATOM      1  C   UNL d   1      -0.153  -2.233  -0.218  0.00  0.00     0.272 C 
ATOM      2  N   UNL d   1       0.993  -2.951  -0.641  0.00  0.00    -0.344 N 
ATOM      3  N   UNL d   1       2.743  -5.248  -0.839  0.00  0.00    -0.278 NA
ATOM      4  O   UNL d   1      -1.217  -2.334  -0.844  0.00  0.00    -0.266 OA
ATOM      5  C   UNL d   1       2.247  -3.024   0.155  0.00  0.00     0.141 C 
ATOM      6  C   UNL d   1       0.681  -4.085  -1.518  0.00  0.00     0.141 C 
ATOM      7  C   UNL d   1       3.347  -4.026  -0.284  0.00  0.00     0.115 C 
ATOM      8  C   UNL d   1       1.888  -4.889  -2.000  0.00  0.00     0.115 C 
ENDROOT
BRANCH   3   9
ATOM      9  C   UNL d   1       3.627  -6.336  -0.993  0.00  0.00     0.038 A 
ATOM     10  C   UNL d   1       4.050  -7.219   0.058  0.00  0.00     0.063 A 
ATOM     11  C   UNL d   1       4.931  -8.257  -0.311  0.00  0.00     0.068 A 
ATOM     12  C   UNL d   1       5.403  -8.453  -1.617  0.00  0.00     0.105 A 
ATOM     13  C   UNL d   1       5.012  -7.603  -2.629  0.00  0.00     0.038 A 
ATOM     14  C   UNL d   1       4.146  -6.562  -2.307  0.00  0.00     0.028 A 
BRANCH  10  15
ATOM     15  N   UNL d   1       3.696  -7.119   1.483  0.00  0.00    -0.318 N 
ATOM     16  C   UNL d   1       4.341  -7.705   2.615  0.00  0.00     0.013 C 
ATOM     17  C   UNL d   1       4.118  -6.848   3.686  0.00  0.00     0.027 C 
ATOM     18  C   UNL d   1       5.031  -9.019   2.817  0.00  0.00     0.068 C 
ATOM     19  C   UNL d   1       3.067  -5.997   3.340  0.00  0.00     0.027 C 
ATOM     20  C   UNL d   1       2.665  -6.366   2.071  0.00  0.00     0.013 C 
ATOM     21  C   UNL d   1       1.308  -6.138   1.512  0.00  0.00     0.068 C 
ENDBRANCH  10  15
BRANCH  12  22
ATOM     22  N   UNL d   1       6.317  -9.568  -1.903  0.00  0.00    -0.116 N 
ATOM     23  O   UNL d   1       6.764 -10.211  -0.942  0.00  0.00    -0.532 OA
ATOM     24  O   UNL d   1       6.589  -9.799  -3.090  0.00  0.00    -0.532 OA
ENDBRANCH  12  22
ENDBRANCH   3   9
BRANCH   1  25
ATOM     25  C   UNL d   1      -0.086  -1.468   1.007  0.00  0.00     0.120 C 
ATOM     26  N   UNL d   1      -1.081  -1.373   1.952  0.00  0.00    -0.291 N 
ATOM     27  N   UNL d   1      -0.664  -0.836   3.118  0.00  0.00    -0.302 N 
ATOM     28  C   UNL d   1      -2.466  -1.789   1.858  0.00  0.00     0.178 C 
ATOM     29  C   UNL d   1       0.578  -0.414   2.862  0.00  0.00     0.036 C 
ATOM     30  HN  UNL d   1      -1.180  -0.768   3.996  1.00  0.00     0.186 HD
ATOM     31  C   UNL d   1       0.920  -0.674   1.518  0.00  0.00     0.064 C 
BRANCH  29  32
ATOM     32  C   UNL d   1       1.477   0.179   3.928  0.00  0.00    -0.007 C 
ATOM     33  C   UNL d   1       2.279   1.363   3.347  0.00  0.00     0.021 C 
ATOM     34  C   UNL d   1       0.684   0.686   5.146  0.00  0.00     0.021 C 
ATOM     35  C   UNL d   1       2.472  -0.901   4.408  0.00  0.00     0.021 C 
ENDBRANCH  29  32
ENDBRANCH   1  25
TORSDOF 5
