REMARK  5 active torsions:
REMARK  status: ('A' for Active; 'I' for Inactive)
REMARK    1  A    between atoms: C_8  and  C_1 
REMARK       I    between atoms: C_3  and  N_7 
REMARK    2  A    between atoms: O_13  and  C_3 
REMARK    3  A    between atoms: N_7  and  N_4 
REMARK    4  A    between atoms: O_14  and  C_6 
REMARK    5  A    between atoms: C_17  and  O_13 
ROOT
ATOM      1  C   UNL d   1       1.089  -1.159   0.019  0.00  0.00     0.025 A 
ATOM      2  C   UNL d   1      -0.274  -0.733   0.012  0.00  0.00    -0.011 A 
ATOM      3  C   UNL d   1       2.128  -0.207   0.013  0.00  0.00     0.078 A 
ATOM      4  C   UNL d   1      -0.529   0.666   0.006  0.00  0.00    -0.025 A 
ATOM      5  C   UNL d   1       1.849   1.153   0.006  0.00  0.00     0.038 A 
ATOM      6  C   UNL d   1       0.529   1.585   0.005  0.00  0.00     0.015 A 
ATOM      7  C   UNL d   1      -1.408  -1.588   0.011  0.00  0.00     0.013 A 
ATOM      8  C   UNL d   1      -1.847   1.151   0.004  0.00  0.00     0.012 A 
ATOM      9  C   UNL d   1      -2.714  -1.087   0.006  0.00  0.00     0.001 A 
ATOM     10  C   UNL d   1      -2.933   0.281   0.004  0.00  0.00     0.001 A 
ENDROOT
BRANCH   1  11
ATOM     11  C   UNL d   1       1.442  -2.606   0.030  0.00  0.00     0.122 C 
ATOM     12  N   UNL d   1       2.686  -2.965   0.070  0.00  0.00    -0.307 N 
ATOM     13  HN  UNL d   1       3.435  -2.273   0.109  1.00  0.00     0.186 HD
BRANCH  12  14
ATOM     14  N   UNL d   1       2.954  -4.294   0.057  0.00  0.00    -0.246 N 
ATOM     15  C   UNL d   1       4.253  -4.715  -0.117  0.00  0.00     0.379 C 
ATOM     16  O   UNL d   1       5.235  -3.989  -0.182  0.00  0.00    -0.237 OA
ATOM     17  H   UNL d   1       2.218  -4.984  -0.008  0.00  0.00     0.192 HD
BRANCH  15  18
ATOM     18  O   UNL d   1       4.269  -6.064  -0.285  0.00  0.00    -0.303 OA
BRANCH  18  19
ATOM     19  C   UNL d   1       5.508  -6.594  -0.779  0.00  0.00     0.176 C 
ATOM     20  C   UNL d   1       5.451  -6.602  -2.295  0.00  0.00     0.034 C 
ENDBRANCH  18  19
ENDBRANCH  15  18
ENDBRANCH  12  14
ENDBRANCH   1  11
BRANCH   3  21
ATOM     21  O   UNL d   1       3.463  -0.518   0.009  0.00  0.00    -0.360 OA
ATOM     22  H   UNL d   1       3.561  -1.497   0.025  0.00  0.00     0.217 HD
ENDBRANCH   3  21
TORSDOF 5
