REMARK  10 active torsions:
REMARK  status: ('A' for Active; 'I' for Inactive)
REMARK    1  A    between atoms: C_8  and  S_1 
REMARK    2  A    between atoms: N_18  and  S_1 
REMARK    3  A    between atoms: S_2  and  C_9 
REMARK    4  A    between atoms: N_19  and  S_2 
REMARK    5  A    between atoms: C_23  and  N_18 
REMARK    6  A    between atoms: C_24  and  N_19 
REMARK    7  A    between atoms: C_25  and  C_23 
REMARK    8  A    between atoms: C_26  and  C_24 
REMARK    9  A    between atoms: C_27  and  C_25 
REMARK   10  A    between atoms: C_28  and  C_26 
ROOT
ATOM      1  C   UNL d   1      -0.118   2.237  -3.186  0.00  0.00     0.027 A 
ATOM      2  C   UNL d   1      -0.529   3.735  -4.985  0.00  0.00     0.027 A 
ATOM      3  C   UNL d   1      -0.498   2.300  -4.616  0.00  0.00     0.194 A 
ATOM      4  C   UNL d   1      -0.210   4.474  -3.831  0.00  0.00    -0.011 A 
ATOM      5  C   UNL d   1       0.031   3.560  -2.731  0.00  0.00    -0.011 A 
ATOM      6  C   UNL d   1       0.518   1.372  -1.079  0.00  0.00     0.080 A 
ATOM      7  C   UNL d   1      -0.668   5.706  -6.285  0.00  0.00     0.075 A 
ATOM      8  C   UNL d   1       0.117   1.126  -2.397  0.00  0.00     0.041 A 
ATOM      9  C   UNL d   1      -0.765   4.312  -6.219  0.00  0.00     0.041 A 
ATOM     10  C   UNL d   1      -0.122   5.855  -3.905  0.00  0.00     0.015 A 
ATOM     11  C   UNL d   1       0.400   3.794  -1.416  0.00  0.00     0.015 A 
ATOM     12  O   UNL d   1      -0.736   1.362  -5.343  0.00  0.00    -0.287 OA
ATOM     13  C   UNL d   1      -0.348   6.473  -5.144  0.00  0.00     0.026 A 
ATOM     14  C   UNL d   1       0.645   2.690  -0.587  0.00  0.00     0.026 A 
ENDROOT
BRANCH   6  15
ATOM     15  S   UNL d   1       1.016   0.007  -0.055  0.00  0.00     0.258 S 
ATOM     16  O   UNL d   1       1.387   0.519   1.249  0.00  0.00    -0.201 OA
ATOM     17  O   UNL d   1       1.923  -0.800  -0.840  0.00  0.00    -0.201 OA
BRANCH  15  18
ATOM     18  N   UNL d   1      -0.398  -0.897   0.118  0.00  0.00    -0.315 N 
ATOM     19  H   UNL d   1      -0.201  -1.889  -0.037  0.00  0.00     0.172 HD
BRANCH  18  20
ATOM     20  C   UNL d   1      -1.279  -0.555   1.239  0.00  0.00     0.132 C 
BRANCH  20  21
ATOM     21  C   UNL d   1      -2.506  -1.466   1.236  0.00  0.00     0.020 C 
BRANCH  21  22
ATOM     22  C   UNL d   1      -3.428  -1.119   2.406  0.00  0.00    -0.003 C 
ATOM     23  C   UNL d   1      -4.662  -2.004   2.452  0.00  0.00     0.005 C 
ENDBRANCH  21  22
ENDBRANCH  20  21
ENDBRANCH  18  20
ENDBRANCH  15  18
ENDBRANCH   6  15
BRANCH   7  24
ATOM     24  S   UNL d   1      -0.827   6.530  -7.851  0.00  0.00     0.241 S 
ATOM     25  O   UNL d   1       0.294   7.436  -7.968  0.00  0.00    -0.206 OA
ATOM     26  O   UNL d   1      -1.126   5.549  -8.869  0.00  0.00    -0.206 OA
BRANCH  24  27
ATOM     27  N   UNL d   1      -2.193   7.503  -7.638  0.00  0.00    -0.216 NA
ATOM     28  H   UNL d   1      -2.011   8.443  -7.993  0.00  0.00     0.139 HD
BRANCH  27  29
ATOM     29  C   UNL d   1      -3.493   6.904  -7.966  0.00  0.00     0.104 C 
BRANCH  29  30
ATOM     30  C   UNL d   1      -4.616   7.909  -7.705  0.00  0.00     0.015 C 
BRANCH  30  31
ATOM     31  C   UNL d   1      -5.971   7.290  -8.054  0.00  0.00    -0.003 C 
ATOM     32  C   UNL d   1      -7.125   8.253  -7.829  0.00  0.00     0.005 C 
ENDBRANCH  30  31
ENDBRANCH  29  30
ENDBRANCH  27  29
ENDBRANCH  24  27
ENDBRANCH   7  24
TORSDOF 10
