REMARK  4 active torsions:
REMARK  status: ('A' for Active; 'I' for Inactive)
REMARK    1  A    between atoms: C_2  and  S_1 
REMARK    2  A    between atoms: N_4  and  S_1 
REMARK    3  A    between atoms: C_15  and  N_7 
REMARK    4  A    between atoms: C_17  and  C_15 
ROOT
ATOM      1  N   UNL d   1       0.545   1.008  -0.460  0.00  0.00    -0.203 NA
ATOM      2  N   UNL d   1      -0.978   2.789   1.401  0.00  0.00     0.095 N 
ATOM      3  C   UNL d   1       0.995   2.396  -0.159  0.00  0.00     0.138 C 
ATOM      4  C   UNL d   1      -0.948   0.938  -0.377  0.00  0.00     0.138 C 
ATOM      5  C   UNL d   1       0.482   2.895   1.203  0.00  0.00     0.288 C 
ATOM      6  C   UNL d   1      -1.470   1.456   0.981  0.00  0.00     0.288 C 
ENDROOT
BRANCH   1   7
ATOM      7  S   UNL d   1       1.342  -0.275   0.341  0.00  0.00     0.250 S 
ATOM      8  O   UNL d   1       1.143  -0.131   1.766  0.00  0.00    -0.205 OA
ATOM      9  O   UNL d   1       1.006  -1.508  -0.335  0.00  0.00    -0.205 OA
BRANCH   7  10
ATOM     10  C   UNL d   1       3.099  -0.086   0.150  0.00  0.00     0.116 A 
ATOM     11  S   UNL d   1       3.688   0.122  -1.442  0.00  0.00    -0.065 SA
ATOM     12  C   UNL d   1       5.262   0.370  -0.872  0.00  0.00     0.075 A 
ATOM     13 CL   UNL d   1       6.514   0.767  -1.977  0.00  0.00    -0.076 Cl
ATOM     14  C   UNL d   1       5.388   0.235   0.488  0.00  0.00     0.033 A 
ATOM     15  C   UNL d   1       4.123  -0.047   1.084  0.00  0.00     0.034 A 
ENDBRANCH   7  10
ENDBRANCH   1   7
BRANCH   2  16
ATOM     16  C   UNL d   1      -1.691   3.904   0.763  0.00  0.00     0.311 C 
BRANCH  16  17
ATOM     17  C   UNL d   1      -3.156   3.973   1.138  0.00  0.00    -0.030 A 
ATOM     18  C   UNL d   1      -3.554   4.026   2.486  0.00  0.00     0.009 A 
ATOM     19  C   UNL d   1      -4.907   4.068   2.825  0.00  0.00     0.001 A 
ATOM     20  C   UNL d   1      -5.877   4.064   1.824  0.00  0.00     0.000 A 
ATOM     21  C   UNL d   1      -5.495   4.025   0.484  0.00  0.00     0.001 A 
ATOM     22  C   UNL d   1      -4.142   3.981   0.143  0.00  0.00     0.009 A 
ENDBRANCH  16  17
ENDBRANCH   2  16
TORSDOF 4
