REMARK  3 active torsions:
REMARK  status: ('A' for Active; 'I' for Inactive)
REMARK    1  A    between atoms: C_4  and  C_1 
REMARK       I    between atoms: N_11  and  C_4 
REMARK    2  A    between atoms: C_6  and  N_10 
REMARK    3  A    between atoms: N_10  and  N_11 
ROOT
ATOM      1  C   UNL d   1      -0.061  -2.533   0.630  0.00  0.00     0.276 C 
ATOM      2  N   UNL d   1       0.770  -3.429  -0.034  0.00  0.00    -0.282 N 
ATOM      3  O   UNL d   1       0.380  -1.446   1.009  0.00  0.00    -0.266 OA
ATOM      4  H   UNL d   1       0.448  -4.304  -0.431  0.00  0.00     0.184 HD
ENDROOT
BRANCH   2   5
ATOM      5  N   UNL d   1       2.101  -3.062  -0.268  0.00  0.00    -0.200 NA
ATOM      6  H   UNL d   1       2.333  -2.205   0.257  0.00  0.00     0.153 HD
BRANCH   5   7
ATOM      7  C   UNL d   1       3.084  -4.065  -0.008  0.00  0.00     0.071 A 
ATOM      8  C   UNL d   1       4.284  -4.015  -0.762  0.00  0.00     0.058 A 
ATOM      9 CL   UNL d   1       4.509  -2.832  -2.011  0.00  0.00    -0.082 Cl
ATOM     10  C   UNL d   1       5.331  -4.919  -0.549  0.00  0.00     0.026 A 
ATOM     11  C   UNL d   1       5.227  -5.884   0.443  0.00  0.00     0.003 A 
ATOM     12  C   UNL d   1       4.082  -5.931   1.234  0.00  0.00     0.026 A 
ATOM     13  C   UNL d   1       3.030  -5.024   1.029  0.00  0.00     0.058 A 
ATOM     14 CL   UNL d   1       1.715  -5.156   2.153  0.00  0.00    -0.082 Cl
ENDBRANCH   5   7
ENDBRANCH   2   5
BRANCH   1  15
ATOM     15  C   UNL d   1      -1.425  -2.961   0.845  0.00  0.00     0.115 A 
ATOM     16  C   UNL d   1      -2.517  -2.276   1.367  0.00  0.00     0.046 A 
ATOM     17  N   UNL d   1      -3.685  -3.030   1.454  0.00  0.00    -0.298 N 
ATOM     18  C   UNL d   1      -2.599  -0.868   1.833  0.00  0.00     0.071 C 
ATOM     19  N   UNL d   1      -3.516  -4.264   1.017  0.00  0.00    -0.269 N 
ATOM     20  HN  UNL d   1      -4.569  -2.671   1.813  1.00  0.00     0.187 HD
ATOM     21  S   UNL d   1      -1.964  -4.553   0.490  0.00  0.00     0.009 SA
ATOM     22  HN  UNL d   1      -4.256  -4.965   1.004  1.00  0.00     0.195 HD
ENDBRANCH   1  15
TORSDOF 3
