REMARK  1 active torsions:
REMARK  status: ('A' for Active; 'I' for Inactive)
REMARK    1  A    between atoms: N_3  and  C_2 
ROOT
ATOM      1  C   UNL d   1      -1.035  -0.869  -0.025  0.00  0.00     0.017 A 
ATOM      2  C   UNL d   1      -2.397  -1.290   0.001  0.00  0.00     0.044 A 
ATOM      3  C   UNL d   1      -0.767   0.520  -0.117  0.00  0.00     0.046 A 
ATOM      4  C   UNL d   1       0.065  -1.754   0.076  0.00  0.00     0.018 A 
ATOM      5  C   UNL d   1       0.548   0.961  -0.127  0.00  0.00     0.054 A 
ATOM      6  N   UNL d   1      -1.734   1.445  -0.173  0.00  0.00    -0.365 N 
ATOM      7  HN  UNL d   1      -1.509   2.437  -0.240  1.00  0.00     0.165 HD
ATOM      8  C   UNL d   1       1.614   0.068  -0.053  0.00  0.00     0.036 A 
ATOM      9  C   UNL d   1      -3.385  -0.304  -0.056  0.00  0.00     0.047 A 
ATOM     10  C   UNL d   1       1.380  -1.294   0.047  0.00  0.00     0.025 A 
ATOM     11  C   UNL d   1      -3.011   1.023  -0.138  0.00  0.00     0.090 A 
ATOM     12 CL   UNL d   1       3.231   0.655  -0.070  0.00  0.00    -0.084 Cl
ENDROOT
BRANCH   2  13
ATOM     13  N   UNL d   1      -2.720  -2.647   0.136  0.00  0.00    -0.377 N 
ATOM     14  C   UNL d   1      -3.967  -3.023   0.831  0.00  0.00     0.153 C 
ATOM     15  C   UNL d   1      -3.867  -4.502   1.273  0.00  0.00     0.289 C 
ATOM     16  N   UNL d   1      -3.577  -5.436   0.165  0.00  0.00     0.086 N 
ATOM     17  C   UNL d   1      -2.393  -4.972  -0.591  0.00  0.00     0.289 C 
ATOM     18  H   UNL d   1      -3.375  -6.356   0.558  0.00  0.00     0.316 HD
ATOM     19  C   UNL d   1      -2.494  -3.497  -1.055  0.00  0.00     0.153 C 
ENDBRANCH   2  13
TORSDOF 1
