REMARK  7 active torsions:
REMARK  status: ('A' for Active; 'I' for Inactive)
REMARK       I    between atoms: N_4  and  C_1 
REMARK    1  A    between atoms: C_5  and  C_1 
REMARK    2  A    between atoms: C_2  and  C_5 
REMARK    3  A    between atoms: C_7  and  C_2 
REMARK    4  A    between atoms: C_3  and  C_7 
REMARK    5  A    between atoms: O_12  and  C_3 
REMARK    6  A    between atoms: C_9  and  N_4 
REMARK    7  A    between atoms: C_11  and  C_9 
ROOT
ATOM      1  C   UNL d   1       1.192   1.116   1.727  0.00  0.00     0.218 C 
ATOM      2  N   UNL d   1       2.533   0.872   1.528  0.00  0.00    -0.357 N 
ATOM      3  O   UNL d   1       0.734   1.566   2.772  0.00  0.00    -0.274 OA
ATOM      4  H   UNL d   1       2.855   0.582   0.614  0.00  0.00     0.162 HD
ENDROOT
BRANCH   1   5
ATOM      5  C   UNL d   1       0.351   0.894   0.472  0.00  0.00     0.112 C 
BRANCH   5   6
ATOM      6  C   UNL d   1      -1.206   0.890   0.613  0.00  0.00    -0.023 C 
ATOM      7  C   UNL d   1      -1.697  -0.337   1.433  0.00  0.00     0.010 C 
ATOM      8  C   UNL d   1      -1.577  -1.678   0.710  0.00  0.00     0.001 C 
ATOM      9  C   UNL d   1      -2.254  -1.645  -0.654  0.00  0.00     0.000 C 
ATOM     10  C   UNL d   1      -1.697  -0.522  -1.515  0.00  0.00     0.001 C 
ATOM     11  C   UNL d   1      -1.823   0.830  -0.820  0.00  0.00     0.010 C 
BRANCH   6  12
ATOM     12  C   UNL d   1      -1.766   2.160   1.320  0.00  0.00     0.119 C 
BRANCH  12  13
ATOM     13  C   UNL d   1      -1.382   3.461   0.655  0.00  0.00     0.140 C 
ATOM     14  O   UNL d   1      -1.953   3.936  -0.309  0.00  0.00    -0.650 OA
BRANCH  13  15
ATOM     15  O   UNL d   1      -0.291   4.042   1.218  0.00  0.00    -0.776 OA
ATOM     16  H   UNL d   1       0.037   3.542   1.999  0.00  0.00     0.167 HD
ENDBRANCH  13  15
ENDBRANCH  12  13
ENDBRANCH   6  12
ENDBRANCH   5   6
ENDBRANCH   1   5
BRANCH   2  17
ATOM     17  C   UNL d   1       3.547   1.115   2.537  0.00  0.00     0.161 C 
BRANCH  17  18
ATOM     18  C   UNL d   1       4.216  -0.161   2.985  0.00  0.00    -0.040 A 
ATOM     19  C   UNL d   1       5.565  -0.419   2.685  0.00  0.00     0.010 A 
ATOM     20  C   UNL d   1       6.191  -1.577   3.156  0.00  0.00     0.024 A 
ATOM     21  C   UNL d   1       5.471  -2.489   3.926  0.00  0.00     0.034 A 
ATOM     22  C   UNL d   1       4.132  -2.258   4.222  0.00  0.00     0.024 A 
ATOM     23 CL   UNL d   1       6.249  -3.903   4.527  0.00  0.00    -0.084 Cl
ATOM     24  C   UNL d   1       3.507  -1.098   3.751  0.00  0.00     0.010 A 
ENDBRANCH  17  18
ENDBRANCH   2  17
TORSDOF 7
