REMARK  4 active torsions:
REMARK  status: ('A' for Active; 'I' for Inactive)
REMARK    1  A    between atoms: C_9  and  N_3 
REMARK    2  A    between atoms: O_8  and  C_4 
REMARK    3  A    between atoms: C_12  and  C_9 
REMARK    4  A    between atoms: C_13  and  C_12 
ROOT
ATOM      1  C   UNL d   1       2.465  -0.582  -0.017  0.00  0.00     0.250 A 
ATOM      2  C   UNL d   1       2.365   0.894   0.012  0.00  0.00     0.112 A 
ATOM      3  N   UNL d   1       1.282  -1.311   0.023  0.00  0.00    -0.314 N 
ATOM      4  C   UNL d   1       1.185   1.517   0.025  0.00  0.00     0.083 A 
ATOM      5  C   UNL d   1       0.001  -0.666   0.010  0.00  0.00     0.050 A 
ATOM      6  C   UNL d   1      -0.060   0.742   0.004  0.00  0.00     0.024 A 
ATOM      7  O   UNL d   1       3.589  -1.079  -0.067  0.00  0.00    -0.268 OA
ATOM      8  C   UNL d   1      -1.308   1.388  -0.027  0.00  0.00     0.016 A 
ATOM      9  C   UNL d   1      -1.202  -1.389  -0.005  0.00  0.00     0.031 A 
ATOM     10  C   UNL d   1      -2.491   0.653  -0.051  0.00  0.00     0.001 A 
ATOM     11  C   UNL d   1      -2.437  -0.734  -0.036  0.00  0.00     0.002 A 
ENDROOT
BRANCH   3  12
ATOM     12  C   UNL d   1       1.393  -2.773   0.002  0.00  0.00     0.132 C 
BRANCH  12  13
ATOM     13  C   UNL d   1       1.327  -3.337  -1.421  0.00  0.00     0.020 C 
BRANCH  13  14
ATOM     14  C   UNL d   1       1.380  -4.865  -1.433  0.00  0.00    -0.003 C 
ATOM     15  C   UNL d   1       1.315  -5.407  -2.853  0.00  0.00     0.005 C 
ENDBRANCH  13  14
ENDBRANCH  12  13
ENDBRANCH   3  12
BRANCH   4  16
ATOM     16  O   UNL d   1       1.063   2.890   0.058  0.00  0.00    -0.360 OA
ATOM     17  H   UNL d   1       1.952   3.284   0.078  0.00  0.00     0.217 HD
ENDBRANCH   4  16
TORSDOF 4
