REMARK  5 active torsions:
REMARK  status: ('A' for Active; 'I' for Inactive)
REMARK    1  A    between atoms: C_2  and  C_1 
REMARK       I    between atoms: N_8  and  C_2 
REMARK    2  A    between atoms: N_16  and  C_3 
REMARK    3  A    between atoms: N_4  and  N_8 
REMARK    4  A    between atoms: N_9  and  C_7 
REMARK    5  A    between atoms: C_17  and  C_14 
ROOT
ATOM      1  C   UNL d   1       2.967   2.030  -0.667  0.00  0.00     0.250 C 
ATOM      2  N   UNL d   1       3.970   2.639   0.086  0.00  0.00    -0.170 NA
ATOM      3  O   UNL d   1       3.097   1.099  -1.453  0.00  0.00    -0.272 OA
ATOM      4  H   UNL d   1       3.632   3.534   0.448  0.00  0.00     0.156 HD
ENDROOT
BRANCH   2   5
ATOM      5  N   UNL d   1       5.205   2.837  -0.460  0.00  0.00    -0.325 N 
ATOM      6  C   UNL d   1       6.167   1.965  -0.508  0.00  0.00     0.113 C 
ATOM      7  HN  UNL d   1       5.390   3.753  -0.868  1.00  0.00     0.180 HD
BRANCH   6   8
ATOM      8  C   UNL d   1       6.410   0.561  -0.089  0.00  0.00    -0.020 A 
ATOM      9  C   UNL d   1       5.467  -0.442   0.027  0.00  0.00     0.015 A 
ATOM     10  C   UNL d   1       5.883  -1.787   0.194  0.00  0.00     0.030 A 
ATOM     11  C   UNL d   1       7.236  -2.166   0.282  0.00  0.00     0.029 A 
ATOM     12  C   UNL d   1       8.161  -1.121   0.223  0.00  0.00     0.030 A 
ATOM     13  C   UNL d   1       7.763   0.215   0.038  0.00  0.00     0.015 A 
BRANCH  11  14
ATOM     14  N   UNL d   1       7.632  -3.494   0.358  0.00  0.00    -0.390 N 
ATOM     15  C   UNL d   1       6.809  -4.492   1.034  0.00  0.00     0.149 C 
ATOM     16  C   UNL d   1       9.011  -3.902   0.095  0.00  0.00     0.149 C 
ENDBRANCH  11  14
ENDBRANCH   6   8
ENDBRANCH   2   5
BRANCH   1  17
ATOM     17  C   UNL d   1       1.609   2.606  -0.465  0.00  0.00     0.050 A 
ATOM     18  C   UNL d   1       1.273   3.907  -0.905  0.00  0.00     0.023 A 
ATOM     19  C   UNL d   1      -0.025   4.380  -0.637  0.00  0.00     0.026 A 
ATOM     20  C   UNL d   1      -0.969   3.577   0.009  0.00  0.00     0.026 A 
ATOM     21  C   UNL d   1      -0.623   2.290   0.409  0.00  0.00     0.035 A 
ATOM     22  C   UNL d   1       0.659   1.797   0.178  0.00  0.00     0.042 A 
ATOM     23 CL   UNL d   1      -1.791   1.312   1.206  0.00  0.00    -0.084 Cl
BRANCH  18  24
ATOM     24  N   UNL d   1       2.152   4.771  -1.584  0.00  0.00    -0.296 NA
ATOM     25  C   UNL d   1       2.787   4.221  -2.784  0.00  0.00     0.113 C 
ATOM     26  H   UNL d   1       1.724   5.672  -1.790  0.00  0.00     0.127 HD
ENDBRANCH  18  24
ENDBRANCH   1  17
TORSDOF 5
