REMARK  7 active torsions:
REMARK  status: ('A' for Active; 'I' for Inactive)
REMARK    1  A    between atoms: C_5  and  C_1 
REMARK       I    between atoms: C_2  and  N_3 
REMARK    2  A    between atoms: C_8  and  C_2 
REMARK    3  A    between atoms: N_3  and  C_4 
REMARK       I    between atoms: N_11  and  C_5 
REMARK    4  A    between atoms: N_6  and  C_13 
REMARK    5  A    between atoms: C_18  and  N_11 
REMARK    6  A    between atoms: C_13  and  C_14 
REMARK    7  A    between atoms: C_14  and  C_18 
ROOT
ATOM      1  C   UNL d   1       1.493  -0.302   0.306  0.00  0.00     0.058 A 
ATOM      2  C   UNL d   1       0.800   0.288  -0.769  0.00  0.00     0.050 A 
ATOM      3  C   UNL d   1       0.763  -0.929   1.337  0.00  0.00     0.019 A 
ATOM      4  C   UNL d   1      -0.605   0.241  -0.772  0.00  0.00     0.030 A 
ATOM      5  C   UNL d   1      -0.632  -0.986   1.299  0.00  0.00     0.001 A 
ATOM      6  C   UNL d   1      -1.316  -0.395   0.245  0.00  0.00     0.002 A 
ENDROOT
BRANCH   1   7
ATOM      7  C   UNL d   1       2.989  -0.336   0.349  0.00  0.00     0.253 C 
ATOM      8  O   UNL d   1       3.642   0.577  -0.146  0.00  0.00    -0.268 OA
ATOM      9  N   UNL d   1       3.543  -1.455   0.937  0.00  0.00    -0.357 N 
ATOM     10  H   UNL d   1       2.945  -2.232   1.186  0.00  0.00     0.162 HD
BRANCH   9  11
ATOM     11  C   UNL d   1       4.966  -1.707   1.050  0.00  0.00     0.124 C 
BRANCH  11  12
ATOM     12  C   UNL d   1       5.583  -1.203   2.355  0.00  0.00     0.050 C 
BRANCH  12  13
ATOM     13  C   UNL d   1       4.910  -1.677   3.654  0.00  0.00     0.274 C 
BRANCH  13  14
ATOM     14  N   UNL d   1       4.757  -3.131   3.837  0.00  0.00     0.092 N 
ATOM     15  C   UNL d   1       6.035  -3.856   4.038  0.00  0.00     0.298 C 
ATOM     16  C   UNL d   1       6.669  -3.728   5.440  0.00  0.00     0.198 C 
ATOM     17  O   UNL d   1       5.734  -4.000   6.492  0.00  0.00    -0.388 OA
ATOM     18  C   UNL d   1       4.576  -3.170   6.363  0.00  0.00     0.198 C 
ATOM     19  C   UNL d   1       3.890  -3.420   5.010  0.00  0.00     0.298 C 
ENDBRANCH  13  14
ENDBRANCH  12  13
ENDBRANCH  11  12
ENDBRANCH   9  11
ENDBRANCH   1   7
BRANCH   2  20
ATOM     20  N   UNL d   1       1.472   0.948  -1.834  0.00  0.00    -0.322 N 
ATOM     21  C   UNL d   1       1.003   0.922  -3.133  0.00  0.00     0.256 C 
ATOM     22  O   UNL d   1       0.120   0.185  -3.560  0.00  0.00    -0.267 OA
ATOM     23  H   UNL d   1       2.444   1.214  -1.665  0.00  0.00     0.169 HD
BRANCH  21  24
ATOM     24  C   UNL d   1       1.640   1.846  -4.098  0.00  0.00     0.032 A 
ATOM     25  C   UNL d   1       2.003   1.355  -5.356  0.00  0.00     0.017 A 
ATOM     26  C   UNL d   1       2.405   2.236  -6.358  0.00  0.00     0.001 A 
ATOM     27  C   UNL d   1       2.424   3.609  -6.109  0.00  0.00     0.000 A 
ATOM     28  C   UNL d   1       2.065   4.099  -4.851  0.00  0.00     0.001 A 
ATOM     29  C   UNL d   1       1.678   3.220  -3.836  0.00  0.00     0.017 A 
ENDBRANCH  21  24
ENDBRANCH   2  20
TORSDOF 7
