REMARK  4 active torsions:
REMARK  status: ('A' for Active; 'I' for Inactive)
REMARK    1  A    between atoms: C_2  and  S_1 
REMARK    2  A    between atoms: O_5  and  S_1 
REMARK    3  A    between atoms: C_11  and  O_5 
REMARK    4  A    between atoms: N_12  and  C_13 
ROOT
ATOM      1  S   UNL d   1      -1.125  -0.860  -1.848  0.00  0.00     0.305 S 
ATOM      2  O   UNL d   1      -1.146  -1.947  -0.880  0.00  0.00    -0.193 OA
ATOM      3  O   UNL d   1      -2.220   0.092  -1.864  0.00  0.00    -0.193 OA
ENDROOT
BRANCH   1   4
ATOM      4  C   UNL d   1      -1.156  -1.671  -3.408  0.00  0.00     0.117 A 
ATOM      5  C   UNL d   1      -0.070  -1.886  -4.269  0.00  0.00     0.109 A 
ATOM      6  C   UNL d   1      -0.240  -2.589  -5.544  0.00  0.00     0.086 A 
ATOM      7  N   UNL d   1       1.225  -1.569  -4.166  0.00  0.00    -0.238 N 
ATOM      8  N   UNL d   1       0.943  -2.640  -6.165  0.00  0.00    -0.239 N 
ATOM      9  C   UNL d   1      -1.478  -3.103  -5.974  0.00  0.00     0.034 A 
ATOM     10  O   UNL d   1       1.836  -2.008  -5.323  0.00  0.00    -0.156 OA
ATOM     11  HN  UNL d   1       1.144  -3.059  -7.072  1.00  0.00     0.197 HD
ATOM     12  C   UNL d   1      -2.544  -2.896  -5.084  0.00  0.00     0.004 A 
ATOM     13  C   UNL d   1      -2.392  -2.207  -3.855  0.00  0.00     0.028 A 
ATOM     14  HN  UNL d   1       1.675  -1.094  -3.384  1.00  0.00     0.197 HD
ENDBRANCH   1   4
BRANCH   1  15
ATOM     15  O   UNL d   1       0.278  -0.078  -1.653  0.00  0.00    -0.227 OA
BRANCH  15  16
ATOM     16  C   UNL d   1       0.754   0.955  -2.426  0.00  0.00     0.116 A 
ATOM     17  C   UNL d   1       2.134   1.262  -2.266  0.00  0.00     0.065 A 
ATOM     18  C   UNL d   1       2.649   2.305  -3.056  0.00  0.00     0.032 A 
ATOM     19  C   UNL d   1       1.843   3.036  -3.934  0.00  0.00     0.002 A 
ATOM     20  C   UNL d   1       0.489   2.751  -4.034  0.00  0.00     0.003 A 
ATOM     21  C   UNL d   1      -0.056   1.711  -3.284  0.00  0.00     0.040 A 
BRANCH  17  22
ATOM     22  N   UNL d   1       2.921   0.623  -1.305  0.00  0.00    -0.374 N 
ATOM     23  C   UNL d   1       4.127   1.279  -0.766  0.00  0.00     0.149 C 
ATOM     24  C   UNL d   1       4.394   0.717   0.640  0.00  0.00     0.187 C 
ATOM     25  O   UNL d   1       4.590  -0.707   0.603  0.00  0.00    -0.388 OA
ATOM     26  C   UNL d   1       3.431  -1.361   0.056  0.00  0.00     0.187 C 
ATOM     27  C   UNL d   1       3.084  -0.845  -1.355  0.00  0.00     0.149 C 
ENDBRANCH  17  22
ENDBRANCH  15  16
ENDBRANCH   1  15
TORSDOF 4
