REMARK  4 active torsions:
REMARK  status: ('A' for Active; 'I' for Inactive)
REMARK    1  A    between atoms: C_6  and  C_1 
REMARK    2  A    between atoms: O_8  and  C_1 
REMARK    3  A    between atoms: C_3  and  O_4 
REMARK    4  A    between atoms: O_4  and  C_6 
ROOT
ATOM      1  C   UNL d   1      -3.084   1.987  -1.014  0.00  0.00     0.007 A 
ATOM      2  C   UNL d   1      -2.001   1.273  -1.585  0.00  0.00     0.080 A 
ATOM      3  C   UNL d   1      -4.009   2.631  -1.872  0.00  0.00    -0.023 A 
ATOM      4  C   UNL d   1      -2.782   1.820  -3.809  0.00  0.00     0.004 A 
ATOM      5  C   UNL d   1      -1.868   1.181  -2.974  0.00  0.00     0.038 A 
ATOM      6  C   UNL d   1      -3.284   2.100   0.381  0.00  0.00     0.015 A 
ATOM      7  C   UNL d   1      -3.841   2.541  -3.262  0.00  0.00     0.012 A 
ATOM      8  C   UNL d   1      -5.083   3.352  -1.325  0.00  0.00     0.012 A 
ATOM      9  C   UNL d   1      -4.355   2.822   0.909  0.00  0.00     0.001 A 
ATOM     10  C   UNL d   1      -5.255   3.448   0.056  0.00  0.00     0.001 A 
ENDROOT
BRANCH   2  11
ATOM     11  O   UNL d   1      -1.137   0.663  -0.707  0.00  0.00    -0.340 OA
BRANCH  11  12
ATOM     12  C   UNL d   1       0.207   0.487  -1.169  0.00  0.00     0.285 C 
BRANCH  12  13
ATOM     13  C   UNL d   1       1.102   0.309   0.047  0.00  0.00     0.164 C 
ATOM     14  O   UNL d   1       2.314   0.159  -0.012  0.00  0.00    -0.648 OA
BRANCH  13  15
ATOM     15  O   UNL d   1       0.426   0.331   1.222  0.00  0.00    -0.775 OA
ATOM     16  H   UNL d   1      -0.531   0.455   1.036  0.00  0.00     0.167 HD
ENDBRANCH  13  15
ENDBRANCH  12  13
ENDBRANCH  11  12
ENDBRANCH   2  11
TORSDOF 4
