REMARK  4 active torsions:
REMARK  status: ('A' for Active; 'I' for Inactive)
REMARK    1  A    between atoms: C_2  and  N_1 
REMARK    2  A    between atoms: C_7  and  O_18 
REMARK    3  A    between atoms: C_10  and  O_20 
REMARK    4  A    between atoms: N_19  and  C_11 
ROOT
ATOM      1  N   UNL d   1       3.338   3.028  -0.351  0.00  0.00    -0.297 N 
ATOM      2  C   UNL d   1       4.487   2.428  -0.792  0.00  0.00     0.142 A 
ATOM      3  C   UNL d   1       5.410   3.456  -0.892  0.00  0.00     0.122 A 
ATOM      4  N   UNL d   1       4.871   4.644  -0.437  0.00  0.00    -0.346 N 
ATOM      5  HN  UNL d   1       5.335   5.549  -0.361  1.00  0.00     0.167 HD
ATOM      6  C   UNL d   1       3.626   4.348  -0.123  0.00  0.00     0.188 A 
ATOM      7  C   UNL d   1       6.663   3.123  -1.434  0.00  0.00     0.131 A 
ATOM      8  N   UNL d   1       4.669   1.137  -1.115  0.00  0.00    -0.336 N 
ATOM      9  HN  UNL d   1       3.956   0.412  -1.029  1.00  0.00     0.168 HD
ATOM     10  N   UNL d   1       6.910   1.830  -1.748  0.00  0.00    -0.337 N 
ATOM     11  HN  UNL d   1       7.819   1.545  -2.111  1.00  0.00     0.168 HD
ATOM     12  C   UNL d   1       5.921   0.928  -1.570  0.00  0.00     0.183 A 
ENDROOT
BRANCH   1  13
ATOM     13  C   UNL d   1       2.038   2.401  -0.317  0.00  0.00     0.262 C 
ATOM     14  C   UNL d   1       1.421   2.198   1.065  0.00  0.00     0.198 C 
ATOM     15  C   UNL d   1      -0.056   2.125   0.693  0.00  0.00     0.179 C 
ATOM     16  C   UNL d   1      -0.175   3.186  -0.399  0.00  0.00     0.151 C 
ATOM     17  O   UNL d   1       1.106   3.228  -1.061  0.00  0.00    -0.356 OA
ATOM     18  C   UNL d   1      -0.488   4.572   0.145  0.00  0.00     0.042 C 
BRANCH  14  19
ATOM     19  O   UNL d   1       1.848   1.012   1.726  0.00  0.00    -0.388 OA
ATOM     20  H   UNL d   1       1.266   0.293   1.403  0.00  0.00     0.210 HD
ENDBRANCH  14  19
BRANCH  15  21
ATOM     21  O   UNL d   1      -0.319   0.804   0.176  0.00  0.00    -0.390 OA
ATOM     22  H   UNL d   1      -0.305   0.829  -0.798  0.00  0.00     0.210 HD
ENDBRANCH  15  21
ENDBRANCH   1  13
BRANCH   7  23
ATOM     23  N   UNL d   1       7.661   4.055  -1.678  0.00  0.00    -0.383 N 
ATOM     24  H   UNL d   1       7.561   4.914  -1.150  0.00  0.00     0.157 HD
ATOM     25  H   UNL d   1       8.578   3.637  -1.750  0.00  0.00     0.157 HD
ENDBRANCH   7  23
TORSDOF 4
