REMARK  6 active torsions:
REMARK  status: ('A' for Active; 'I' for Inactive)
REMARK    1  A    between atoms: C_3  and  C_1 
REMARK    2  A    between atoms: N_6  and  C_2 
REMARK       I    between atoms: C_7  and  N_6 
REMARK       I    between atoms: N_9  and  C_7 
REMARK    3  A    between atoms: C_14  and  N_9 
REMARK    4  A    between atoms: C_15  and  C_14 
REMARK    5  A    between atoms: C_16  and  C_15 
REMARK    6  A    between atoms: O_17  and  C_15 
ROOT
ATOM      1  N   UNL d   1       1.115  -4.382   0.387  0.00  0.00    -0.306 N 
ATOM      2  C   UNL d   1       1.346  -3.086   0.106  0.00  0.00     0.320 C 
ATOM      3  N   UNL d   1       2.575  -2.595  -0.138  0.00  0.00    -0.340 N 
ATOM      4  O   UNL d   1       0.347  -2.365   0.074  0.00  0.00    -0.247 OA
ATOM      5  H   UNL d   1       0.110  -4.472   0.483  0.00  0.00     0.170 HD
ATOM      6  H   UNL d   1       3.390  -3.142   0.104  0.00  0.00     0.164 HD
ENDROOT
BRANCH   1   7
ATOM      7  C   UNL d   1       1.782  -5.572   0.631  0.00  0.00     0.077 A 
ATOM      8  C   UNL d   1       3.099  -6.010   0.680  0.00  0.00     0.186 A 
ATOM      9  O   UNL d   1       3.121  -7.346   1.021  0.00  0.00    -0.308 OA
ATOM     10  C   UNL d   1       1.853  -7.770   1.206  0.00  0.00     0.052 A 
ATOM     11  C   UNL d   1       1.678  -9.176   1.622  0.00  0.00     0.077 C 
ATOM     12  C   UNL d   1       0.993  -6.732   0.959  0.00  0.00     0.064 A 
BRANCH   8  13
ATOM     13  C   UNL d   1       4.465  -5.476   0.500  0.00  0.00     0.441 C 
ATOM     14  F   UNL d   1       4.503  -4.141   0.277  0.00  0.00    -0.164 F 
ATOM     15  F   UNL d   1       5.236  -5.693   1.601  0.00  0.00    -0.164 F 
ATOM     16  F   UNL d   1       5.106  -6.063  -0.544  0.00  0.00    -0.164 F 
ENDBRANCH   8  13
ENDBRANCH   1   7
BRANCH   3  17
ATOM     17  C   UNL d   1       2.765  -1.143  -0.164  0.00  0.00     0.161 C 
BRANCH  17  18
ATOM     18  C   UNL d   1       3.977  -0.660  -0.989  0.00  0.00     0.169 C 
BRANCH  18  19
ATOM     19  C   UNL d   1       4.003   0.860  -1.115  0.00  0.00    -0.028 A 
ATOM     20  C   UNL d   1       4.033   1.699   0.012  0.00  0.00     0.010 A 
ATOM     21  C   UNL d   1       4.019   3.092  -0.129  0.00  0.00     0.001 A 
ATOM     22  C   UNL d   1       3.976   3.667  -1.395  0.00  0.00     0.000 A 
ATOM     23  C   UNL d   1       3.951   2.853  -2.523  0.00  0.00     0.001 A 
ATOM     24  C   UNL d   1       3.968   1.459  -2.385  0.00  0.00     0.010 A 
ENDBRANCH  18  19
BRANCH  18  25
ATOM     25  O   UNL d   1       5.184  -1.129  -0.380  0.00  0.00    -0.389 OA
ATOM     26  H   UNL d   1       5.392  -0.539   0.362  0.00  0.00     0.210 HD
ENDBRANCH  18  25
ENDBRANCH  17  18
ENDBRANCH   3  17
TORSDOF 6
