REMARK  3 active torsions:
REMARK  status: ('A' for Active; 'I' for Inactive)
REMARK       I    between atoms: N_2  and  C_1 
REMARK    1  A    between atoms: C_6  and  C_1 
REMARK       I    between atoms: C_8  and  N_2 
REMARK    2  A    between atoms: S_18  and  C_3 
REMARK       I    between atoms: N_12  and  C_8 
REMARK    3  A    between atoms: C_16  and  N_12 
ROOT
ATOM      1  C   UNL d   1       0.966   1.311  -4.671  0.00  0.00     0.265 C 
ATOM      2  N   UNL d   1       0.395   0.675  -3.580  0.00  0.00    -0.275 N 
ATOM      3  C   UNL d   1       1.008   0.183  -2.446  0.00  0.00     0.327 C 
ATOM      4  N   UNL d   1       2.355   0.420  -2.354  0.00  0.00    -0.309 N 
ATOM      5  O   UNL d   1       2.144   1.657  -4.690  0.00  0.00    -0.267 OA
ATOM      6  O   UNL d   1       0.313  -0.432  -1.642  0.00  0.00    -0.247 OA
ATOM      7  H   UNL d   1      -0.579   0.402  -3.618  0.00  0.00     0.173 HD
ATOM      8  H   UNL d   1       2.731   1.035  -3.076  0.00  0.00     0.170 HD
ENDROOT
BRANCH   4   9
ATOM      9  C   UNL d   1       3.269  -0.117  -1.427  0.00  0.00     0.037 A 
ATOM     10  C   UNL d   1       2.912  -1.075  -0.471  0.00  0.00     0.051 A 
ATOM     11  C   UNL d   1       3.919  -1.627   0.341  0.00  0.00     0.036 A 
ATOM     12  S   UNL d   1       3.781  -2.846   1.548  0.00  0.00    -0.063 SA
ATOM     13  C   UNL d   1       5.251  -1.230   0.246  0.00  0.00     0.050 A 
ATOM     14  C   UNL d   1       5.471  -2.775   1.805  0.00  0.00     0.112 A 
ATOM     15  N   UNL d   1       6.129  -1.888   1.095  0.00  0.00    -0.344 N 
ATOM     16  HN  UNL d   1       7.131  -1.710   1.157  1.00  0.00     0.167 HD
ATOM     17  C   UNL d   1       5.591  -0.234  -0.690  0.00  0.00     0.033 A 
ATOM     18  C   UNL d   1       4.598   0.304  -1.522  0.00  0.00     0.032 A 
BRANCH  14  19
ATOM     19  S   UNL d   1       6.269  -3.840   2.943  0.00  0.00    -0.109 SA
ATOM     20  C   UNL d   1       7.994  -3.375   2.692  0.00  0.00     0.097 C 
ENDBRANCH  14  19
ENDBRANCH   4   9
BRANCH   1  21
ATOM     21  C   UNL d   1       0.074   1.591  -5.823  0.00  0.00     0.109 A 
ATOM     22  C   UNL d   1       0.395   2.613  -6.718  0.00  0.00     0.135 A 
ATOM     23  F   UNL d   1       1.473   3.387  -6.533  0.00  0.00    -0.205 F 
ATOM     24  C   UNL d   1      -0.415   2.886  -7.821  0.00  0.00     0.043 A 
ATOM     25  C   UNL d   1      -1.565   2.130  -8.050  0.00  0.00     0.006 A 
ATOM     26  C   UNL d   1      -1.899   1.107  -7.167  0.00  0.00     0.043 A 
ATOM     27  C   UNL d   1      -1.082   0.846  -6.064  0.00  0.00     0.135 A 
ATOM     28  F   UNL d   1      -1.443  -0.146  -5.236  0.00  0.00    -0.205 F 
ENDBRANCH   1  21
TORSDOF 3
