REMARK  3 active torsions:
REMARK  status: ('A' for Active; 'I' for Inactive)
REMARK    1  A    between atoms: N_4  and  C_1 
REMARK       I    between atoms: C_3  and  N_4 
REMARK    2  A    between atoms: C_9  and  C_3 
REMARK    3  A    between atoms: O_13  and  C_11 
ROOT
ATOM      1  C   UNL d   1       3.944  -0.220   0.024  0.00  0.00     0.260 C 
ATOM      2  N   UNL d   1       2.796   0.536  -0.021  0.00  0.00    -0.302 N 
ATOM      3  O   UNL d   1       5.097   0.192   0.108  0.00  0.00    -0.267 OA
ATOM      4  H   UNL d   1       1.913   0.131  -0.287  0.00  0.00     0.171 HD
ENDROOT
BRANCH   1   5
ATOM      5  C   UNL d   1       3.747  -1.687  -0.134  0.00  0.00     0.065 A 
ATOM      6  C   UNL d   1       4.732  -2.454  -0.773  0.00  0.00     0.081 A 
ATOM      7  C   UNL d   1       4.540  -3.818  -0.983  0.00  0.00     0.037 A 
ATOM      8  C   UNL d   1       3.375  -4.435  -0.531  0.00  0.00     0.003 A 
ATOM      9  C   UNL d   1       2.410  -3.691   0.147  0.00  0.00     0.001 A 
ATOM     10  C   UNL d   1       2.593  -2.322   0.350  0.00  0.00     0.020 A 
BRANCH   6  11
ATOM     11  O   UNL d   1       5.912  -1.927  -1.226  0.00  0.00    -0.360 OA
ATOM     12  H   UNL d   1       6.009  -1.026  -0.842  0.00  0.00     0.217 HD
ENDBRANCH   6  11
ENDBRANCH   1   5
BRANCH   2  13
ATOM     13  C   UNL d   1       2.817   1.893   0.156  0.00  0.00     0.168 A 
ATOM     14  S   UNL d   1       1.321   2.667  -0.133  0.00  0.00    -0.038 SA
ATOM     15  C   UNL d   1       2.103   4.144   0.274  0.00  0.00     0.066 A 
ATOM     16  C   UNL d   1       1.372   5.436   0.262  0.00  0.00     0.078 C 
ATOM     17  N   UNL d   1       3.369   4.006   0.606  0.00  0.00    -0.296 N 
ATOM     18  N   UNL d   1       3.788   2.689   0.527  0.00  0.00    -0.279 N 
ATOM     19  HN  UNL d   1       3.972   4.779   0.888  1.00  0.00     0.187 HD
ATOM     20  HN  UNL d   1       4.736   2.377   0.733  1.00  0.00     0.189 HD
ENDBRANCH   2  13
TORSDOF 3
