REMARK  5 active torsions:
REMARK  status: ('A' for Active; 'I' for Inactive)
REMARK    1  A    between atoms: C_7  and  N_1 
REMARK       I    between atoms: N_2  and  C_4 
REMARK    2  A    between atoms: C_3  and  N_2 
REMARK    3  A    between atoms: N_6  and  C_3 
REMARK    4  A    between atoms: C_4  and  C_8 
REMARK    5  A    between atoms: C_5  and  N_6 
ROOT
ATOM      1  N   UNL d   1      -0.729  -2.326   5.962  0.00  0.00    -0.299 N 
ATOM      2  C   UNL d   1       0.132  -1.332   5.503  0.00  0.00     0.257 C 
ATOM      3  O   UNL d   1      -0.014  -0.645   4.497  0.00  0.00    -0.267 OA
ATOM      4  H   UNL d   1      -0.504  -2.747   6.848  0.00  0.00     0.171 HD
ENDROOT
BRANCH   1   5
ATOM      5  C   UNL d   1      -1.766  -2.929   5.282  0.00  0.00     0.179 C 
ATOM      6  S   UNL d   1      -2.185  -2.694   3.675  0.00  0.00    -0.040 SA
BRANCH   5   7
ATOM      7  N   UNL d   1      -2.467  -3.917   5.911  0.00  0.00    -0.330 N 
ATOM      8  H   UNL d   1      -2.960  -4.491   5.226  0.00  0.00     0.168 HD
BRANCH   7   9
ATOM      9  C   UNL d   1      -2.581  -4.398   7.239  0.00  0.00     0.078 A 
ATOM     10  C   UNL d   1      -2.428  -3.650   8.416  0.00  0.00     0.062 A 
ATOM     11 CL   UNL d   1      -2.310  -1.928   8.445  0.00  0.00    -0.082 Cl
ATOM     12  C   UNL d   1      -2.522  -4.269   9.673  0.00  0.00     0.026 A 
ATOM     13  C   UNL d   1      -2.821  -5.625   9.781  0.00  0.00     0.003 A 
ATOM     14  C   UNL d   1      -3.061  -6.366   8.631  0.00  0.00     0.026 A 
ATOM     15  C   UNL d   1      -2.954  -5.755   7.378  0.00  0.00     0.062 A 
ATOM     16 CL   UNL d   1      -3.278  -6.742   5.988  0.00  0.00    -0.082 Cl
ENDBRANCH   7   9
ENDBRANCH   5   7
ENDBRANCH   1   5
BRANCH   2  17
ATOM     17  C   UNL d   1       1.345  -1.063   6.314  0.00  0.00     0.034 A 
ATOM     18  C   UNL d   1       1.310  -0.900   7.701  0.00  0.00     0.053 A 
ATOM     19  C   UNL d   1       2.494  -0.532   8.351  0.00  0.00     0.103 A 
ATOM     20  C   UNL d   1       3.700  -0.335   7.671  0.00  0.00     0.036 A 
ATOM     21  C   UNL d   1       3.724  -0.514   6.291  0.00  0.00     0.003 A 
ATOM     22  C   UNL d   1       2.552  -0.868   5.618  0.00  0.00     0.017 A 
BRANCH  19  23
ATOM     23  N   UNL d   1       2.469  -0.331   9.784  0.00  0.00    -0.116 N 
ATOM     24  O   UNL d   1       2.297  -1.337  10.483  0.00  0.00    -0.532 OA
ATOM     25  O   UNL d   1       2.616   0.827  10.194  0.00  0.00    -0.532 OA
ENDBRANCH  19  23
ENDBRANCH   2  17
TORSDOF 5
