REMARK  6 active torsions:
REMARK  status: ('A' for Active; 'I' for Inactive)
REMARK    1  A    between atoms: N_2  and  C_1 
REMARK    2  A    between atoms: N_6  and  C_1 
REMARK    3  A    between atoms: C_7  and  N_2 
REMARK    4  A    between atoms: N_3  and  N_6 
REMARK    5  A    between atoms: C_9  and  C_8 
REMARK    6  A    between atoms: O_15  and  C_10 
ROOT
ATOM      1  N   UNL d   1       3.155   0.748  -0.927  0.00  0.00    -0.309 N 
ATOM      2  HN  UNL d   1       2.613   1.390  -1.504  1.00  0.00     0.186 HD
ATOM      3  C   UNL d   1       4.447   0.776  -0.877  0.00  0.00     0.118 C 
ENDROOT
BRANCH   1   4
ATOM      4  N   UNL d   1       2.572  -0.211  -0.145  0.00  0.00    -0.277 N 
ATOM      5  H   UNL d   1       3.138  -0.885   0.362  0.00  0.00     0.189 HD
BRANCH   4   6
ATOM      6  C   UNL d   1       1.201  -0.269   0.024  0.00  0.00     0.187 C 
ATOM      7  S   UNL d   1       0.568  -1.456   1.004  0.00  0.00    -0.040 SA
BRANCH   6   8
ATOM      8  N   UNL d   1       0.546   0.724  -0.656  0.00  0.00    -0.358 N 
ATOM      9  H   UNL d   1       1.232   1.297  -1.144  0.00  0.00     0.162 HD
BRANCH   8  10
ATOM     10  C   UNL d   1      -0.843   1.216  -0.610  0.00  0.00     0.021 C 
ATOM     11  C   UNL d   1      -1.223   1.656   0.812  0.00  0.00     0.037 C 
ATOM     12  C   UNL d   1      -0.927   2.454  -1.527  0.00  0.00     0.037 C 
ATOM     13  C   UNL d   1      -1.842   0.176  -1.138  0.00  0.00     0.037 C 
ENDBRANCH   8  10
ENDBRANCH   6   8
ENDBRANCH   4   6
ENDBRANCH   1   4
BRANCH   3  14
ATOM     14  C   UNL d   1       5.237   1.730  -1.682  0.00  0.00    -0.019 A 
ATOM     15  C   UNL d   1       4.614   2.547  -2.631  0.00  0.00     0.015 A 
ATOM     16  C   UNL d   1       5.379   3.434  -3.389  0.00  0.00     0.037 A 
ATOM     17  C   UNL d   1       6.754   3.501  -3.192  0.00  0.00     0.065 A 
ATOM     18  C   UNL d   1       7.383   2.693  -2.248  0.00  0.00     0.037 A 
ATOM     19  C   UNL d   1       6.620   1.800  -1.490  0.00  0.00     0.015 A 
BRANCH  17  20
ATOM     20  O   UNL d   1       7.459   4.384  -3.955  0.00  0.00    -0.361 OA
ATOM     21  H   UNL d   1       8.398   4.332  -3.712  0.00  0.00     0.217 HD
ENDBRANCH  17  20
ENDBRANCH   3  14
TORSDOF 6
