REMARK  2 active torsions:
REMARK  status: ('A' for Active; 'I' for Inactive)
REMARK       I    between atoms: N_2  and  C_1 
REMARK       I    between atoms: N_4  and  C_1 
REMARK    1  A    between atoms: N_3  and  C_5 
REMARK    2  A    between atoms: C_15  and  N_4 
ROOT
ATOM      1  C   UNL d   1       0.871   0.106  -0.303  0.00  0.00     0.322 C 
ATOM      2  N   UNL d   1       0.142   0.947   0.535  0.00  0.00    -0.334 N 
ATOM      3  N   UNL d   1       0.572  -1.236  -0.222  0.00  0.00    -0.309 N 
ATOM      4  C   UNL d   1      -1.711   2.986   1.482  0.00  0.00     0.091 C 
ATOM      5  C   UNL d   1      -2.073   1.496   1.466  0.00  0.00     0.045 C 
ATOM      6  C   UNL d   1      -0.541   3.321   0.550  0.00  0.00     0.045 C 
ATOM      7  C   UNL d   1      -0.862   0.569   1.531  0.00  0.00     0.129 C 
ATOM      8  C   UNL d   1       0.609   2.331   0.641  0.00  0.00     0.129 C 
ATOM      9  O   UNL d   1       1.731   0.562  -1.053  0.00  0.00    -0.247 OA
ATOM     10  H   UNL d   1      -0.284  -1.499   0.228  0.00  0.00     0.170 HD
ENDROOT
BRANCH   3  11
ATOM     11  C   UNL d   1       1.296  -2.301  -0.809  0.00  0.00     0.036 A 
ATOM     12  C   UNL d   1       2.542  -2.149  -1.425  0.00  0.00     0.031 A 
ATOM     13  C   UNL d   1       3.235  -3.261  -1.917  0.00  0.00     0.026 A 
ATOM     14  C   UNL d   1       2.682  -4.530  -1.800  0.00  0.00     0.034 A 
ATOM     15  C   UNL d   1       1.433  -4.696  -1.213  0.00  0.00     0.026 A 
ATOM     16 CL   UNL d   1       3.555  -5.900  -2.366  0.00  0.00    -0.084 Cl
ATOM     17  C   UNL d   1       0.742  -3.585  -0.717  0.00  0.00     0.031 A 
ENDBRANCH   3  11
BRANCH   4  18
ATOM     18  N   UNL d   1      -1.568   3.520   2.837  0.00  0.00    -0.362 N 
ATOM     19  C   UNL d   1      -0.583   3.247   3.748  0.00  0.00     0.091 A 
ATOM     20  C   UNL d   1      -0.856   3.942   4.905  0.00  0.00     0.019 A 
ATOM     21  C   UNL d   1      -2.053   4.659   4.695  0.00  0.00     0.019 A 
ATOM     22  C   UNL d   1      -2.472   4.383   3.413  0.00  0.00     0.091 A 
ENDBRANCH   4  18
TORSDOF 2
