REMARK  2 active torsions:
REMARK  status: ('A' for Active; 'I' for Inactive)
REMARK    1  A    between atoms: C_4  and  C_1 
REMARK       I    between atoms: N_6  and  C_1 
REMARK    2  A    between atoms: C_10  and  N_6 
ROOT
ATOM      1  C   UNL d   1      -4.369   0.260   1.620  0.00  0.00     0.294 A 
ATOM      2  C   UNL d   1      -3.363   0.658   0.645  0.00  0.00     0.050 A 
ATOM      3  O   UNL d   1      -5.585   0.530   1.055  0.00  0.00    -0.313 OA
ATOM      4  C   UNL d   1      -3.996   1.176  -0.463  0.00  0.00    -0.018 A 
ATOM      5  C   UNL d   1      -1.985   0.552   0.742  0.00  0.00     0.048 A 
ATOM      6  C   UNL d   1      -1.214   0.986  -0.339  0.00  0.00     0.036 A 
ATOM      7  C   UNL d   1      -5.456   1.092  -0.269  0.00  0.00     0.218 A 
ATOM      8  O   UNL d   1      -4.173  -0.213   2.720  0.00  0.00    -0.259 OA
ATOM      9  C   UNL d   1      -3.256   1.652  -1.529  0.00  0.00     0.012 A 
ATOM     10  C   UNL d   1      -1.857   1.564  -1.457  0.00  0.00     0.030 A 
ENDROOT
BRANCH   6  11
ATOM     11  N   UNL d   1       0.190   0.861  -0.394  0.00  0.00    -0.322 N 
ATOM     12  C   UNL d   1       0.994   0.113   0.456  0.00  0.00     0.263 C 
ATOM     13  O   UNL d   1       0.569  -0.535   1.409  0.00  0.00    -0.267 OA
ATOM     14  H   UNL d   1       0.662   1.270  -1.191  0.00  0.00     0.169 HD
BRANCH  12  15
ATOM     15  C   UNL d   1       2.417   0.092   0.123  0.00  0.00     0.072 A 
ATOM     16  S   UNL d   1       3.098   1.022  -1.143  0.00  0.00    -0.097 SA
ATOM     17  C   UNL d   1       4.669   0.419  -0.835  0.00  0.00     0.050 A 
ATOM     18  C   UNL d   1       4.684  -0.477   0.209  0.00  0.00     0.009 A 
ATOM     19  C   UNL d   1       3.387  -0.663   0.761  0.00  0.00     0.025 A 
ENDBRANCH  12  15
ENDBRANCH   6  11
TORSDOF 2
