REMARK  7 active torsions:
REMARK  status: ('A' for Active; 'I' for Inactive)
REMARK    1  A    between atoms: S_6  and  C_1 
REMARK    2  A    between atoms: C_3  and  S_6 
REMARK    3  A    between atoms: C_18  and  C_5 
REMARK    4  A    between atoms: C_17  and  C_9 
REMARK    5  A    between atoms: O_26  and  C_17 
REMARK    6  A    between atoms: C_19  and  C_20 
REMARK    7  A    between atoms: C_32  and  O_26 
ROOT
ATOM      1  N   UNL d   1      -3.943   2.216   1.114  0.00  0.00    -0.320 N 
ATOM      2  C   UNL d   1      -3.225   2.812   0.124  0.00  0.00     0.167 A 
ATOM      3  C   UNL d   1      -5.237   2.120   0.655  0.00  0.00     0.132 A 
ATOM      4  N   UNL d   1      -5.286   2.712  -0.529  0.00  0.00    -0.283 N 
ATOM      5  HN  UNL d   1      -6.122   2.826  -1.102  1.00  0.00     0.188 HD
ATOM      6  N   UNL d   1      -4.019   3.151  -0.862  0.00  0.00    -0.278 N 
ATOM      7  HN  UNL d   1      -3.752   3.645  -1.713  1.00  0.00     0.189 HD
ATOM      8  H   UNL d   1      -3.570   1.810   1.957  0.00  0.00     0.169 HD
ENDROOT
BRANCH   2   9
ATOM      9  S   UNL d   1      -1.504   2.796   0.147  0.00  0.00    -0.034 SA
BRANCH   9  10
ATOM     10  C   UNL d   1      -1.159   4.549   0.074  0.00  0.00     0.087 A 
ATOM     11  C   UNL d   1      -0.818   5.208  -1.102  0.00  0.00     0.005 A 
ATOM     12  C   UNL d   1      -0.303   6.487  -0.906  0.00  0.00     0.118 A 
ATOM     13  C   UNL d   1      -0.936   4.588  -2.459  0.00  0.00     0.054 C 
ATOM     14  N   UNL d   1      -0.214   7.084   0.308  0.00  0.00    -0.341 N 
ATOM     15  C   UNL d   1      -0.630   6.381   1.361  0.00  0.00     0.078 A 
ATOM     16  HN  UNL d   1       0.154   8.030   0.411  1.00  0.00     0.167 HD
ATOM     17  N   UNL d   1      -1.082   5.123   1.296  0.00  0.00    -0.340 N 
ATOM     18  C   UNL d   1      -0.557   7.031   2.707  0.00  0.00     0.089 C 
ATOM     19  HN  UNL d   1      -1.359   4.617   2.137  1.00  0.00     0.167 HD
BRANCH  12  20
ATOM     20  C   UNL d   1       0.279   7.288  -2.039  0.00  0.00     0.310 C 
ATOM     21  O   UNL d   1       0.728   6.815  -3.071  0.00  0.00    -0.258 OA
BRANCH  20  22
ATOM     22  O   UNL d   1       0.232   8.613  -1.733  0.00  0.00    -0.317 OA
BRANCH  22  23
ATOM     23  C   UNL d   1       0.747   9.518  -2.720  0.00  0.00     0.175 C 
ATOM     24  C   UNL d   1       2.243   9.698  -2.548  0.00  0.00     0.034 C 
ENDBRANCH  22  23
ENDBRANCH  20  22
ENDBRANCH  12  20
ENDBRANCH   9  10
ENDBRANCH   2   9
BRANCH   3  25
ATOM     25  C   UNL d   1      -6.321   1.404   1.332  0.00  0.00     0.009 A 
ATOM     26  C   UNL d   1      -6.426   1.340   2.723  0.00  0.00     0.016 A 
ATOM     27  C   UNL d   1      -7.483   0.637   3.332  0.00  0.00     0.009 A 
ATOM     28  C   UNL d   1      -8.467  -0.031   2.575  0.00  0.00    -0.051 A 
ATOM     29  C   UNL d   1      -8.343   0.043   1.178  0.00  0.00     0.009 A 
ATOM     30  C   UNL d   1      -7.295   0.752   0.571  0.00  0.00     0.016 A 
BRANCH  28  31
ATOM     31  C   UNL d   1      -9.615  -0.789   3.270  0.00  0.00    -0.024 C 
ATOM     32  C   UNL d   1     -10.600  -1.468   2.290  0.00  0.00     0.019 C 
ATOM     33  C   UNL d   1      -9.041  -1.899   4.177  0.00  0.00     0.019 C 
ATOM     34  C   UNL d   1     -10.441   0.187   4.138  0.00  0.00     0.019 C 
ENDBRANCH  28  31
ENDBRANCH   3  25
TORSDOF 7
