REMARK  3 active torsions:
REMARK  status: ('A' for Active; 'I' for Inactive)
REMARK    1  A    between atoms: C_9  and  N_1 
REMARK    2  A    between atoms: N_8  and  C_3 
REMARK    3  A    between atoms: C_6  and  C_12 
REMARK       I    between atoms: C_10  and  N_8 
ROOT
ATOM      1  C   UNL d   1      -2.508  -1.220   5.474  0.00  0.00     0.081 A 
ATOM      2  C   UNL d   1      -3.265  -2.013   6.299  0.00  0.00     0.124 A 
ATOM      3  N   UNL d   1      -2.501  -3.313   4.596  0.00  0.00    -0.298 N 
ATOM      4  HN  UNL d   1      -2.317  -4.129   4.012  1.00  0.00     0.187 HD
ATOM      5  C   UNL d   1      -2.069  -2.056   4.412  0.00  0.00     0.062 A 
ATOM      6  N   UNL d   1      -3.230  -3.256   5.721  0.00  0.00    -0.285 N 
ATOM      7  H   UNL d   1      -3.678  -4.110   6.032  0.00  0.00     0.188 HD
ENDROOT
BRANCH   5   8
ATOM      8  C   UNL d   1      -1.275  -1.665   3.248  0.00  0.00    -0.008 A 
ATOM      9  C   UNL d   1      -0.428  -2.586   2.615  0.00  0.00     0.016 A 
ATOM     10  C   UNL d   1       0.315  -2.215   1.488  0.00  0.00     0.037 A 
ATOM     11  C   UNL d   1       0.204  -0.912   0.985  0.00  0.00     0.102 A 
ATOM     12  C   UNL d   1      -0.630   0.021   1.611  0.00  0.00     0.037 A 
ATOM     13  C   UNL d   1      -1.363  -0.357   2.740  0.00  0.00     0.016 A 
BRANCH  11  14
ATOM     14  N   UNL d   1       0.952  -0.523  -0.216  0.00  0.00    -0.116 N 
ATOM     15  O   UNL d   1       0.796   0.630  -0.644  0.00  0.00    -0.532 OA
ATOM     16  O   UNL d   1       1.692  -1.372  -0.733  0.00  0.00    -0.532 OA
ENDBRANCH  11  14
ENDBRANCH   5   8
BRANCH   2  17
ATOM     17  N   UNL d   1      -3.943  -1.675   7.465  0.00  0.00    -0.312 N 
ATOM     18  C   UNL d   1      -3.943  -0.347   8.025  0.00  0.00     0.219 C 
ATOM     19  O   UNL d   1      -3.336   0.572   7.500  0.00  0.00    -0.274 OA
ATOM     20  C   UNL d   1      -4.740  -0.187   9.284  0.00  0.00     0.117 C 
ATOM     21  H   UNL d   1      -4.465  -2.400   7.940  0.00  0.00     0.170 HD
ENDBRANCH   2  17
TORSDOF 3
