REMARK  4 active torsions:
REMARK  status: ('A' for Active; 'I' for Inactive)
REMARK    1  A    between atoms: C_2  and  N_1 
REMARK    2  A    between atoms: C_12  and  C_3 
REMARK    3  A    between atoms: O_15  and  C_7 
REMARK    4  A    between atoms: O_16  and  C_9 
ROOT
ATOM      1  N   UNL d   1      -0.619  -1.281   0.342  0.00  0.00    -0.296 N 
ATOM      2  C   UNL d   1       0.712  -1.421  -0.210  0.00  0.00     0.188 C 
ATOM      3  S   UNL d   1       1.380   0.256  -0.399  0.00  0.00    -0.129 SA
ATOM      4  C   UNL d   1      -1.217  -0.029   0.189  0.00  0.00     0.235 C 
ATOM      5  C   UNL d   1      -0.239   1.026  -0.272  0.00  0.00     0.179 C 
ATOM      6  O   UNL d   1      -2.411   0.219   0.338  0.00  0.00    -0.272 OA
ENDROOT
BRANCH   1   7
ATOM      7  C   UNL d   1      -1.435  -2.418   0.581  0.00  0.00     0.074 A 
ATOM      8  C   UNL d   1      -1.647  -3.360  -0.437  0.00  0.00     0.071 A 
ATOM      9  C   UNL d   1      -2.462  -4.479  -0.226  0.00  0.00     0.092 A 
ATOM     10  C   UNL d   1      -3.006  -4.692   1.045  0.00  0.00     0.070 A 
ATOM     11  C   UNL d   1      -2.802  -3.751   2.065  0.00  0.00     0.065 A 
ATOM     12 CL   UNL d   1      -3.867  -6.124   1.494  0.00  0.00    -0.081 Cl
ATOM     13  C   UNL d   1      -2.035  -2.603   1.841  0.00  0.00     0.097 A 
BRANCH   9  14
ATOM     14  O   UNL d   1      -2.567  -5.299  -1.320  0.00  0.00    -0.354 OA
ATOM     15  C   UNL d   1      -3.863  -5.828  -1.589  0.00  0.00     0.210 C 
ENDBRANCH   9  14
BRANCH  13  16
ATOM     16  O   UNL d   1      -1.752  -1.663   2.800  0.00  0.00    -0.354 OA
ATOM     17  C   UNL d   1      -2.453  -1.764   4.035  0.00  0.00     0.210 C 
ENDBRANCH  13  16
ENDBRANCH   1   7
BRANCH   2  18
ATOM     18  C   UNL d   1       1.653  -2.300   0.600  0.00  0.00    -0.025 A 
ATOM     19  C   UNL d   1       2.313  -3.369  -0.021  0.00  0.00     0.010 A 
ATOM     20  C   UNL d   1       3.237  -4.150   0.680  0.00  0.00     0.001 A 
ATOM     21  C   UNL d   1       3.514  -3.868   2.017  0.00  0.00     0.000 A 
ATOM     22  C   UNL d   1       2.858  -2.821   2.657  0.00  0.00     0.001 A 
ATOM     23  C   UNL d   1       1.927  -2.044   1.957  0.00  0.00     0.010 A 
ENDBRANCH   2  18
TORSDOF 4
