REMARK  3 active torsions:
REMARK  status: ('A' for Active; 'I' for Inactive)
REMARK    1  A    between atoms: C_7  and  N_1 
REMARK    2  A    between atoms: C_9  and  C_2 
REMARK    3  A    between atoms: O_17  and  C_14 
ROOT
ATOM      1  N   UNL d   1       0.959  -0.699  -0.003  0.00  0.00    -0.271 N 
ATOM      2  C   UNL d   1       0.933   0.682  -0.009  0.00  0.00     0.139 A 
ATOM      3  N   UNL d   1      -0.268   1.197   0.019  0.00  0.00    -0.282 N 
ATOM      4  HN  UNL d   1      -0.523   2.185   0.040  1.00  0.00     0.188 HD
ATOM      5  C   UNL d   1      -0.383  -1.063   0.020  0.00  0.00     0.199 A 
ATOM      6  N   UNL d   1      -1.100   0.128   0.014  0.00  0.00    -0.274 N 
ATOM      7  S   UNL d   1      -1.165  -2.524   0.141  0.00  0.00    -0.039 SA
ATOM      8  H   UNL d   1      -2.108   0.224   0.079  0.00  0.00     0.189 HD
ENDROOT
BRANCH   1   9
ATOM      9  C   UNL d   1       2.081  -1.571   0.081  0.00  0.00     0.043 A 
ATOM     10  C   UNL d   1       3.221  -1.229   0.826  0.00  0.00     0.033 A 
ATOM     11  C   UNL d   1       4.374  -2.029   0.814  0.00  0.00     0.039 A 
ATOM     12  C   UNL d   1       4.390  -3.220   0.097  0.00  0.00     0.068 A 
ATOM     13  C   UNL d   1       3.240  -3.614  -0.583  0.00  0.00     0.039 A 
ATOM     14  C   UNL d   1       2.107  -2.792  -0.607  0.00  0.00     0.033 A 
BRANCH  12  15
ATOM     15  O   UNL d   1       5.440  -4.090   0.028  0.00  0.00    -0.356 OA
ATOM     16  C   UNL d   1       6.735  -3.507   0.123  0.00  0.00     0.210 C 
ENDBRANCH  12  15
ENDBRANCH   1   9
BRANCH   2  17
ATOM     17  C   UNL d   1       2.118   1.564  -0.078  0.00  0.00     0.013 A 
ATOM     18  C   UNL d   1       3.216   1.277  -0.883  0.00  0.00     0.032 A 
ATOM     19  C   UNL d   1       4.313   2.117  -0.805  0.00  0.00     0.088 A 
ATOM     20  N   UNL d   1       4.352   3.228  -0.038  0.00  0.00    -0.375 N 
ATOM     21  C   UNL d   1       3.240   3.527   0.667  0.00  0.00     0.088 A 
ATOM     22  HN  UNL d   1       5.185   3.815   0.006  1.00  0.00     0.164 HD
ATOM     23  C   UNL d   1       2.109   2.735   0.684  0.00  0.00     0.032 A 
ENDBRANCH   2  17
TORSDOF 3
