REMARK  1 active torsions:
REMARK  status: ('A' for Active; 'I' for Inactive)
REMARK    1  A    between atoms: C_8  and  C_4 
ROOT
ATOM      1  C   UNL d   1      -0.038   0.695   0.053  0.00  0.00     0.024 C 
ATOM      2  C   UNL d   1      -0.064  -0.651   0.124  0.00  0.00     0.021 C 
ATOM      3  C   UNL d   1      -2.589   0.676   0.058  0.00  0.00     0.057 C 
ATOM      4  C   UNL d   1      -1.313   1.504  -0.114  0.00  0.00     0.104 C 
ATOM      5  N   UNL d   1      -1.282  -1.310   0.155  0.00  0.00    -0.362 N 
ATOM      6  C   UNL d   1      -2.519  -0.675   0.145  0.00  0.00     0.023 C 
ATOM      7  C   UNL d   1       1.257   1.423   0.164  0.00  0.00     0.159 C 
ATOM      8  C   UNL d   1      -3.832   1.382   0.082  0.00  0.00     0.098 C 
ATOM      9  N   UNL d   1      -4.831   1.966   0.107  0.00  0.00    -0.192 NA
ATOM     10  C   UNL d   1       1.194  -1.495   0.123  0.00  0.00     0.067 C 
ATOM     11  C   UNL d   1       2.450  -0.731  -0.365  0.00  0.00    -0.036 C 
ATOM     12  C   UNL d   1       2.518   0.613   0.372  0.00  0.00     0.092 C 
ATOM     13  O   UNL d   1       1.289   2.652   0.168  0.00  0.00    -0.293 OA
ATOM     14  C   UNL d   1      -3.726  -1.581   0.164  0.00  0.00     0.069 C 
ATOM     15  C   UNL d   1       2.413  -0.501  -1.892  0.00  0.00     0.015 C 
ATOM     16  C   UNL d   1       3.713  -1.549  -0.047  0.00  0.00     0.015 C 
ATOM     17  H   UNL d   1      -1.274  -2.327   0.141  0.00  0.00     0.165 HD
ENDROOT
BRANCH   4  18
ATOM     18  C   UNL d   1      -1.323   2.272  -1.448  0.00  0.00    -0.022 A 
ATOM     19  C   UNL d   1      -1.388   1.673  -2.724  0.00  0.00     0.043 A 
ATOM     20  C   UNL d   1      -1.356   2.452  -3.884  0.00  0.00     0.048 A 
ATOM     21 CL   UNL d   1      -1.514  -0.031  -2.985  0.00  0.00    -0.084 Cl
ATOM     22  C   UNL d   1      -1.265   3.834  -3.790  0.00  0.00     0.035 A 
ATOM     23  C   UNL d   1      -1.209   4.453  -2.547  0.00  0.00     0.024 A 
ATOM     24 CL   UNL d   1      -1.217   4.782  -5.225  0.00  0.00    -0.084 Cl
ATOM     25  C   UNL d   1      -1.238   3.679  -1.386  0.00  0.00     0.011 A 
ENDBRANCH   4  18
TORSDOF 1
