REMARK  3 active torsions:
REMARK  status: ('A' for Active; 'I' for Inactive)
REMARK    1  A    between atoms: C_4  and  C_1 
REMARK       I    between atoms: N_5  and  C_4 
REMARK    2  A    between atoms: C_7  and  N_5 
REMARK    3  A    between atoms: C_10  and  C_7 
ROOT
ATOM      1  C   UNL d   1      -4.476  -1.843   0.385  0.00  0.00     0.275 C 
ATOM      2  N   UNL d   1      -3.612  -0.776   0.187  0.00  0.00    -0.307 N 
ATOM      3  O   UNL d   1      -5.689  -1.725   0.552  0.00  0.00    -0.266 OA
ATOM      4  H   UNL d   1      -2.636  -1.040   0.133  0.00  0.00     0.170 HD
ENDROOT
BRANCH   2   5
ATOM      5  C   UNL d   1      -3.966   0.545   0.017  0.00  0.00     0.112 C 
ATOM      6  N   UNL d   1      -5.188   0.943   0.120  0.00  0.00    -0.385 N 
ATOM      7  H   UNL d   1      -5.801   0.139   0.330  0.00  0.00     0.157 HD
ATOM      8  HN  UNL d   1      -5.501   1.908   0.011  1.00  0.00     0.157 HD
BRANCH   5   9
ATOM      9  C   UNL d   1      -2.884   1.520  -0.299  0.00  0.00     0.008 A 
ATOM     10  C   UNL d   1      -1.698   1.142  -0.944  0.00  0.00     0.017 A 
ATOM     11  C   UNL d   1      -0.744   2.111  -1.277  0.00  0.00     0.025 A 
ATOM     12  C   UNL d   1      -0.974   3.452  -0.972  0.00  0.00     0.034 A 
ATOM     13  C   UNL d   1      -2.146   3.837  -0.328  0.00  0.00     0.025 A 
ATOM     14 CL   UNL d   1       0.190   4.640  -1.414  0.00  0.00    -0.084 Cl
ATOM     15  C   UNL d   1      -3.101   2.873   0.005  0.00  0.00     0.017 A 
ENDBRANCH   5   9
ENDBRANCH   2   5
BRANCH   1  16
ATOM     16  C   UNL d   1      -3.819  -3.147   0.363  0.00  0.00     0.125 A 
ATOM     17  N   UNL d   1      -2.490  -3.269   0.185  0.00  0.00    -0.256 N 
ATOM     18  O   UNL d   1      -2.239  -4.632   0.156  0.00  0.00    -0.242 OA
ATOM     19  HN  UNL d   1      -1.810  -2.515   0.090  1.00  0.00     0.195 HD
ATOM     20  C   UNL d   1      -3.404  -5.314   0.321  0.00  0.00     0.075 A 
ATOM     21  C   UNL d   1      -4.432  -4.420   0.479  0.00  0.00     0.071 A 
ATOM     22  C   UNL d   1      -3.330  -6.785   0.268  0.00  0.00     0.079 C 
ENDBRANCH   1  16
TORSDOF 3
