REMARK  5 active torsions:
REMARK  status: ('A' for Active; 'I' for Inactive)
REMARK       I    between atoms: N_6  and  C_1 
REMARK       I    between atoms: N_7  and  C_1 
REMARK    1  A    between atoms: C_2  and  C_8 
REMARK    2  A    between atoms: C_3  and  O_10 
REMARK    3  A    between atoms: C_18  and  N_6 
REMARK    4  A    between atoms: C_17  and  N_7 
REMARK    5  A    between atoms: O_10  and  C_19 
ROOT
ATOM      1  C   UNL d   1       0.980   0.008  -0.098  0.00  0.00     0.325 C 
ATOM      2  N   UNL d   1       2.334  -0.212   0.051  0.00  0.00    -0.309 N 
ATOM      3  N   UNL d   1       0.226  -0.647   0.861  0.00  0.00    -0.309 N 
ATOM      4  O   UNL d   1       0.480   0.684  -0.992  0.00  0.00    -0.247 OA
ATOM      5  H   UNL d   1       2.605  -0.928   0.712  0.00  0.00     0.170 HD
ATOM      6  H   UNL d   1       0.650  -0.759   1.774  0.00  0.00     0.170 HD
ENDROOT
BRANCH   2   7
ATOM      7  C   UNL d   1       3.343   0.264  -0.823  0.00  0.00     0.036 A 
ATOM      8  C   UNL d   1       3.112   1.208  -1.827  0.00  0.00     0.032 A 
ATOM      9  C   UNL d   1       4.126   1.607  -2.706  0.00  0.00     0.039 A 
ATOM     10  C   UNL d   1       5.412   1.109  -2.557  0.00  0.00     0.078 A 
ATOM     11  C   UNL d   1       5.652   0.159  -1.559  0.00  0.00     0.039 A 
ATOM     12  C   UNL d   1       4.632  -0.257  -0.693  0.00  0.00     0.032 A 
BRANCH  10  13
ATOM     13  O   UNL d   1       6.503   1.449  -3.296  0.00  0.00    -0.255 OA
BRANCH  13  14
ATOM     14  C   UNL d   1       6.472   2.643  -4.066  0.00  0.00     0.530 C 
ATOM     15  F   UNL d   1       5.695   3.607  -3.529  0.00  0.00    -0.144 F 
ATOM     16  F   UNL d   1       7.732   3.131  -4.138  0.00  0.00    -0.144 F 
ATOM     17  F   UNL d   1       6.052   2.377  -5.321  0.00  0.00    -0.144 F 
ENDBRANCH  13  14
ENDBRANCH  10  13
ENDBRANCH   2   7
BRANCH   3  18
ATOM     18  C   UNL d   1      -1.171  -0.842   0.765  0.00  0.00     0.036 A 
ATOM     19  C   UNL d   1      -1.842  -0.800  -0.463  0.00  0.00     0.030 A 
ATOM     20  C   UNL d   1      -3.217  -1.019  -0.541  0.00  0.00     0.018 A 
ATOM     21  C   UNL d   1      -3.946  -1.304   0.613  0.00  0.00     0.015 A 
ATOM     22  C   UNL d   1      -3.285  -1.349   1.848  0.00  0.00     0.018 A 
ATOM     23  C   UNL d   1      -1.902  -1.128   1.922  0.00  0.00     0.030 A 
BRANCH  21  24
ATOM     24  C   UNL d   1      -5.385  -1.605   0.533  0.00  0.00     0.148 C 
ATOM     25  N   UNL d   1      -6.165  -1.897   1.525  0.00  0.00    -0.368 N 
ATOM     26  C   UNL d   1      -7.447  -2.201   0.875  0.00  0.00     0.148 C 
ATOM     27  HN  UNL d   1      -5.942  -1.913   2.520  1.00  0.00     0.161 HD
ATOM     28  C   UNL d   1      -7.273  -1.820  -0.577  0.00  0.00     0.197 C 
ATOM     29  O   UNL d   1      -5.883  -1.585  -0.725  0.00  0.00    -0.334 OA
ENDBRANCH  21  24
ENDBRANCH   3  18
TORSDOF 5
