REMARK  2 active torsions:
REMARK  status: ('A' for Active; 'I' for Inactive)
REMARK    1  A    between atoms: C_6  and  C_2 
REMARK       I    between atoms: C_7  and  N_8 
REMARK    2  A    between atoms: N_8  and  C_14 
ROOT
ATOM      1  N   UNL d   1      -2.171  -1.660  -0.742  0.00  0.00    -0.260 NA
ATOM      2  C   UNL d   1      -2.380  -0.508   0.152  0.00  0.00     0.239 C 
ATOM      3  O   UNL d   1      -3.020   0.597  -0.538  0.00  0.00    -0.324 OA
ATOM      4  C   UNL d   1      -3.051   0.172  -1.837  0.00  0.00     0.093 A 
ATOM      5  C   UNL d   1      -2.510  -1.092  -1.981  0.00  0.00     0.044 A 
ATOM      6  C   UNL d   1      -3.578   0.880  -2.895  0.00  0.00     0.045 A 
ATOM      7  C   UNL d   1      -2.450  -1.692  -3.221  0.00  0.00     0.027 A 
ATOM      8  C   UNL d   1      -3.559   0.279  -4.161  0.00  0.00    -0.059 A 
ATOM      9  C   UNL d   1      -2.976  -0.998  -4.318  0.00  0.00     0.009 A 
ATOM     10  C   UNL d   1      -4.199   0.982  -5.322  0.00  0.00     0.048 C 
ATOM     11  H   UNL d   1      -1.234  -2.041  -0.732  0.00  0.00     0.130 HD
ENDROOT
BRANCH   2  12
ATOM     12  C   UNL d   1      -3.242  -0.920   1.329  0.00  0.00    -0.015 A 
ATOM     13  C   UNL d   1      -2.781  -0.806   2.647  0.00  0.00     0.013 A 
ATOM     14  C   UNL d   1      -3.567  -1.252   3.718  0.00  0.00     0.030 A 
ATOM     15  C   UNL d   1      -4.832  -1.816   3.496  0.00  0.00     0.034 A 
ATOM     16  C   UNL d   1      -5.312  -1.880   2.190  0.00  0.00     0.030 A 
ATOM     17  C   UNL d   1      -4.529  -1.439   1.121  0.00  0.00     0.013 A 
BRANCH  15  18
ATOM     18  N   UNL d   1      -5.540  -2.305   4.616  0.00  0.00    -0.328 N 
ATOM     19  C   UNL d   1      -6.774  -2.930   4.609  0.00  0.00     0.218 C 
ATOM     20  O   UNL d   1      -7.482  -3.150   3.634  0.00  0.00    -0.274 OA
ATOM     21  C   UNL d   1      -7.245  -3.365   5.975  0.00  0.00     0.117 C 
ATOM     22  H   UNL d   1      -5.071  -2.217   5.508  0.00  0.00     0.169 HD
ENDBRANCH  15  18
ENDBRANCH   2  12
TORSDOF 2
