REMARK  2 active torsions:
REMARK  status: ('A' for Active; 'I' for Inactive)
REMARK    1  A    between atoms: S_6  and  C_1 
REMARK    2  A    between atoms: C_11  and  S_6 
ROOT
ATOM      1  C   UNL d   1       2.467  -0.467  -0.019  0.00  0.00     0.098 A 
ATOM      2  C   UNL d   1       2.419   0.923  -0.111  0.00  0.00     0.085 A 
ATOM      3  N   UNL d   1       1.341  -1.224   0.073  0.00  0.00    -0.349 N 
ATOM      4  HN  UNL d   1       1.408  -2.239   0.138  1.00  0.00     0.166 HD
ATOM      5  C   UNL d   1       1.166   1.568   0.006  0.00  0.00    -0.026 A 
ATOM      6  C   UNL d   1      -0.012   0.776   0.055  0.00  0.00    -0.002 A 
ATOM      7  C   UNL d   1       3.598   1.679  -0.418  0.00  0.00     0.103 C 
ATOM      8  C   UNL d   1       0.142  -0.626   0.076  0.00  0.00     0.043 A 
ATOM      9  N   UNL d   1       4.519   2.321  -0.718  0.00  0.00    -0.191 NA
ATOM     10  C   UNL d   1       1.060   3.076   0.037  0.00  0.00     0.050 C 
ATOM     11  C   UNL d   1      -1.324   1.311   0.043  0.00  0.00     0.014 A 
ATOM     12  C   UNL d   1      -0.991  -1.430   0.071  0.00  0.00     0.030 A 
ATOM     13  C   UNL d   1      -2.446   0.483   0.019  0.00  0.00     0.001 A 
ATOM     14  C   UNL d   1      -2.279  -0.893   0.031  0.00  0.00     0.002 A 
ENDROOT
BRANCH   1  15
ATOM     15  S   UNL d   1       3.946  -1.456  -0.168  0.00  0.00    -0.053 SA
BRANCH  15  16
ATOM     16  C   UNL d   1       5.007  -0.894   1.153  0.00  0.00     0.075 A 
ATOM     17  N   UNL d   1       4.591   0.104   1.966  0.00  0.00    -0.360 N 
ATOM     18  C   UNL d   1       5.472   0.557   2.888  0.00  0.00     0.089 A 
ATOM     19  HN  UNL d   1       3.654   0.497   1.888  1.00  0.00     0.166 HD
ATOM     20  C   UNL d   1       6.750   0.050   3.055  0.00  0.00     0.017 A 
ATOM     21  C   UNL d   1       7.149  -0.995   2.235  0.00  0.00     0.004 A 
ATOM     22  C   UNL d   1       6.267  -1.476   1.270  0.00  0.00     0.037 A 
ENDBRANCH  15  16
ENDBRANCH   1  15
TORSDOF 2
