REMARK  8 active torsions:
REMARK  status: ('A' for Active; 'I' for Inactive)
REMARK    1  A    between atoms: C_10  and  N_1 
REMARK    2  A    between atoms: C_2  and  C_3 
REMARK    3  A    between atoms: C_4  and  N_13 
REMARK    4  A    between atoms: C_9  and  C_15 
REMARK    5  A    between atoms: O_25  and  C_9 
REMARK    6  A    between atoms: N_13  and  C_27 
REMARK    7  A    between atoms: C_26  and  O_25 
REMARK    8  A    between atoms: C_27  and  C_26 
ROOT
ATOM      1  N   UNL d   1      -2.778   5.887   7.412  0.00  0.00    -0.368 N 
ATOM      2  C   UNL d   1      -2.280   5.449   8.709  0.00  0.00     0.151 C 
ENDROOT
BRANCH   1   3
ATOM      3  C   UNL d   1      -3.695   6.919   7.301  0.00  0.00     0.125 A 
ATOM      4  N   UNL d   1      -3.472   7.823   6.312  0.00  0.00    -0.350 N 
ATOM      5  C   UNL d   1      -4.337   8.849   6.126  0.00  0.00     0.106 A 
ATOM      6  HN  UNL d   1      -2.654   7.729   5.709  1.00  0.00     0.166 HD
ATOM      7  C   UNL d   1      -5.481   9.039   6.875  0.00  0.00     0.065 A 
ATOM      8  C   UNL d   1      -5.725   8.122   7.894  0.00  0.00     0.045 A 
ATOM      9  C   UNL d   1      -4.840   7.057   8.112  0.00  0.00     0.078 A 
ATOM     10 CL   UNL d   1      -5.324   5.905   9.311  0.00  0.00    -0.080 Cl
BRANCH   7  11
ATOM     11  C   UNL d   1      -6.413  10.162   6.550  0.00  0.00     0.418 C 
ATOM     12  F   UNL d   1      -7.531  10.180   7.327  0.00  0.00    -0.166 F 
ATOM     13  F   UNL d   1      -5.835  11.385   6.698  0.00  0.00    -0.166 F 
ATOM     14  F   UNL d   1      -6.856  10.111   5.263  0.00  0.00    -0.166 F 
ENDBRANCH   7  11
ENDBRANCH   1   3
BRANCH   1  15
ATOM     15  C   UNL d   1      -1.993   5.498   6.234  0.00  0.00     0.151 C 
BRANCH  15  16
ATOM     16  C   UNL d   1      -2.698   4.367   5.466  0.00  0.00     0.199 C 
BRANCH  16  17
ATOM     17  O   UNL d   1      -1.882   3.843   4.396  0.00  0.00    -0.316 OA
BRANCH  17  18
ATOM     18  C   UNL d   1      -0.893   3.009   4.804  0.00  0.00     0.293 C 
ATOM     19  O   UNL d   1      -0.633   2.713   5.958  0.00  0.00    -0.259 OA
BRANCH  18  20
ATOM     20  C   UNL d   1      -0.085   2.527   3.654  0.00  0.00     0.039 A 
ATOM     21  C   UNL d   1       1.239   2.139   3.913  0.00  0.00     0.020 A 
ATOM     22  C   UNL d   1       2.047   1.641   2.888  0.00  0.00     0.037 A 
ATOM     23  C   UNL d   1       1.524   1.520   1.596  0.00  0.00     0.102 A 
ATOM     24  C   UNL d   1       0.201   1.904   1.324  0.00  0.00     0.037 A 
ATOM     25  C   UNL d   1      -0.602   2.412   2.355  0.00  0.00     0.020 A 
BRANCH  23  26
ATOM     26  N   UNL d   1       2.366   0.977   0.521  0.00  0.00    -0.116 N 
ATOM     27  O   UNL d   1       1.852   0.835  -0.597  0.00  0.00    -0.532 OA
ATOM     28  O   UNL d   1       3.539   0.691   0.798  0.00  0.00    -0.532 OA
ENDBRANCH  23  26
ENDBRANCH  18  20
ENDBRANCH  17  18
ENDBRANCH  16  17
ENDBRANCH  15  16
ENDBRANCH   1  15
TORSDOF 8
