REMARK  4 active torsions:
REMARK  status: ('A' for Active; 'I' for Inactive)
REMARK    1  A    between atoms: N_2  and  C_1 
REMARK    2  A    between atoms: N_7  and  C_1 
REMARK    3  A    between atoms: C_4  and  N_3 
REMARK    4  A    between atoms: C_20  and  N_7 
ROOT
ATOM      1  C   UNL d   1      -2.586   1.567  -4.316  0.00  0.00     0.103 A 
ATOM      2  N   UNL d   1      -3.794   2.047  -3.953  0.00  0.00    -0.351 N 
ATOM      3  HN  UNL d   1      -4.173   1.862  -3.024  1.00  0.00     0.166 HD
ATOM      4  N   UNL d   1      -5.399   4.632  -7.692  0.00  0.00    -0.191 NA
ATOM      5  C   UNL d   1      -4.792   3.936  -6.993  0.00  0.00     0.101 C 
ATOM      6  C   UNL d   1      -4.034   3.090  -6.125  0.00  0.00     0.060 A 
ATOM      7  C   UNL d   1      -2.082   1.790  -5.599  0.00  0.00     0.050 A 
ATOM      8  C   UNL d   1      -4.492   2.783  -4.855  0.00  0.00     0.112 A 
ATOM      9  C   UNL d   1      -2.801   2.572  -6.505  0.00  0.00     0.028 A 
ENDROOT
BRANCH   1  10
ATOM     10  N   UNL d   1      -1.758   0.954  -3.379  0.00  0.00    -0.366 N 
ATOM     11  C   UNL d   1      -1.938   1.392  -1.983  0.00  0.00     0.144 C 
ATOM     12  C   UNL d   1      -0.566   1.730  -1.368  0.00  0.00     0.145 C 
ATOM     13  N   UNL d   1       0.389   0.612  -1.385  0.00  0.00    -0.357 N 
ATOM     14  C   UNL d   1       0.831   0.110  -2.684  0.00  0.00     0.127 C 
ATOM     15  C   UNL d   1      -0.092  -0.878  -3.396  0.00  0.00     0.040 C 
ATOM     16  C   UNL d   1      -1.563  -0.488  -3.538  0.00  0.00     0.126 C 
BRANCH  13  17
ATOM     17  C   UNL d   1       0.888   0.127  -0.206  0.00  0.00     0.170 C 
ATOM     18  S   UNL d   1       0.668  -1.438   0.327  0.00  0.00    -0.041 SA
BRANCH  17  19
ATOM     19  N   UNL d   1       1.538   1.022   0.602  0.00  0.00    -0.363 N 
ATOM     20  H   UNL d   1       1.714   0.618   1.514  0.00  0.00     0.162 HD
BRANCH  19  21
ATOM     21  C   UNL d   1       2.616   1.887   0.119  0.00  0.00     0.083 C 
ATOM     22  C   UNL d   1       3.878   1.700   0.970  0.00  0.00     0.025 C 
ATOM     23  C   UNL d   1       4.686   2.978   0.795  0.00  0.00     0.002 C 
ATOM     24  C   UNL d   1       3.703   4.040   0.314  0.00  0.00     0.002 C 
ATOM     25  C   UNL d   1       2.328   3.375   0.281  0.00  0.00     0.025 C 
ENDBRANCH  19  21
ENDBRANCH  17  19
ENDBRANCH  13  17
ENDBRANCH   1  10
TORSDOF 4
