REMARK  7 active torsions:
REMARK  status: ('A' for Active; 'I' for Inactive)
REMARK    1  A    between atoms: C_7  and  C_1 
REMARK    2  A    between atoms: C_3  and  C_2 
REMARK    3  A    between atoms: S_11  and  C_6 
REMARK    4  A    between atoms: O_13  and  C_7 
REMARK    5  A    between atoms: C_21  and  S_11 
REMARK    6  A    between atoms: C_12  and  C_20 
REMARK    7  A    between atoms: C_20  and  O_13 
ROOT
ATOM      1  C   UNL d   1      -0.019  -1.538  -0.097  0.00  0.00     0.086 A 
ATOM      2  C   UNL d   1       1.208  -0.905  -0.085  0.00  0.00     0.136 A 
ATOM      3  N   UNL d   1       1.298   0.467  -0.064  0.00  0.00    -0.332 N 
ATOM      4  HN  UNL d   1       2.208   0.927  -0.034  1.00  0.00     0.168 HD
ATOM      5  C   UNL d   1       0.164   1.190  -0.083  0.00  0.00     0.149 A 
ATOM      6  N   UNL d   1      -1.060   0.652  -0.117  0.00  0.00    -0.345 N 
ATOM      7  HN  UNL d   1      -1.901   1.229  -0.133  1.00  0.00     0.167 HD
ATOM      8  C   UNL d   1      -1.120  -0.697  -0.129  0.00  0.00     0.110 A 
ENDROOT
BRANCH   5   9
ATOM      9  S   UNL d   1       0.301   2.954   0.023  0.00  0.00    -0.054 SA
BRANCH   9  10
ATOM     10  C   UNL d   1       0.307   3.422  -1.697  0.00  0.00     0.008 A 
ATOM     11  C   UNL d   1      -0.662   4.318  -2.169  0.00  0.00     0.021 A 
ATOM     12  C   UNL d   1      -0.650   4.738  -3.504  0.00  0.00     0.025 A 
ATOM     13  C   UNL d   1       0.336   4.267  -4.368  0.00  0.00     0.034 A 
ATOM     14  C   UNL d   1       1.313   3.388  -3.908  0.00  0.00     0.025 A 
ATOM     15 CL   UNL d   1       0.354   4.783  -6.010  0.00  0.00    -0.084 Cl
ATOM     16  C   UNL d   1       1.301   2.971  -2.573  0.00  0.00     0.021 A 
ENDBRANCH   9  10
ENDBRANCH   5   9
BRANCH   2  17
ATOM     17  C   UNL d   1       2.528  -1.647  -0.123  0.00  0.00     0.433 C 
ATOM     18  F   UNL d   1       2.454  -2.958  -0.464  0.00  0.00    -0.165 F 
ATOM     19  F   UNL d   1       3.387  -1.103  -1.038  0.00  0.00    -0.165 F 
ATOM     20  F   UNL d   1       3.186  -1.599   1.070  0.00  0.00    -0.165 F 
ENDBRANCH   2  17
BRANCH   1  21
ATOM     21  C   UNL d   1      -0.306  -2.982  -0.098  0.00  0.00     0.297 C 
ATOM     22  O   UNL d   1      -1.252  -3.432  -0.734  0.00  0.00    -0.259 OA
BRANCH  21  23
ATOM     23  O   UNL d   1       0.435  -3.646   0.816  0.00  0.00    -0.317 OA
BRANCH  23  24
ATOM     24  C   UNL d   1      -0.108  -4.918   1.225  0.00  0.00     0.183 C 
BRANCH  24  25
ATOM     25  C   UNL d   1       0.607  -6.086   0.617  0.00  0.00     0.010 A 
ATOM     26  C   UNL d   1       0.549  -6.461  -0.846  0.00  0.00     0.007 A 
ATOM     27  C   UNL d   1      -0.233  -7.259   0.155  0.00  0.00     0.007 A 
ENDBRANCH  24  25
ENDBRANCH  23  24
ENDBRANCH  21  23
ENDBRANCH   1  21
TORSDOF 7
