REMARK  4 active torsions:
REMARK  status: ('A' for Active; 'I' for Inactive)
REMARK    1  A    between atoms: C_14  and  C_1 
REMARK    2  A    between atoms: N_8  and  C_2 
REMARK    3  A    between atoms: C_4  and  C_5 
REMARK       I    between atoms: C_5  and  N_8 
REMARK    4  A    between atoms: O_22  and  C_14 
ROOT
ATOM      1  C   UNL d   1       3.007   2.837  -0.293  0.00  0.00     0.256 C 
ATOM      2  N   UNL d   1       2.745   1.481  -0.324  0.00  0.00    -0.321 N 
ATOM      3  O   UNL d   1       2.186   3.714  -0.053  0.00  0.00    -0.267 OA
ATOM      4  H   UNL d   1       3.514   0.852  -0.142  0.00  0.00     0.169 HD
ENDROOT
BRANCH   1   5
ATOM      5  C   UNL d   1       4.443   3.222  -0.509  0.00  0.00     0.034 A 
ATOM      6  C   UNL d   1       5.341   2.330  -1.141  0.00  0.00     0.051 A 
ATOM      7  C   UNL d   1       6.646   2.829  -1.314  0.00  0.00     0.086 A 
ATOM      8  N   UNL d   1       7.707   2.230  -1.869  0.00  0.00    -0.240 N 
ATOM      9  C   UNL d   1       7.043   4.162  -0.889  0.00  0.00     0.085 A 
ATOM     10  O   UNL d   1       8.738   3.154  -1.800  0.00  0.00    -0.156 OA
ATOM     11  HN  UNL d   1       7.748   1.289  -2.260  1.00  0.00     0.197 HD
ATOM     12  N   UNL d   1       8.333   4.334  -1.199  0.00  0.00    -0.240 N 
ATOM     13  HN  UNL d   1       8.901   5.164  -1.027  1.00  0.00     0.197 HD
ATOM     14  C   UNL d   1       6.146   5.048  -0.269  0.00  0.00     0.035 A 
ATOM     15  C   UNL d   1       4.842   4.533  -0.099  0.00  0.00     0.019 A 
ENDBRANCH   1   5
BRANCH   2  16
ATOM     16  C   UNL d   1       1.486   0.878  -0.319  0.00  0.00     0.058 A 
ATOM     17  C   UNL d   1       0.254   1.391  -0.709  0.00  0.00     0.106 A 
ATOM     18  S   UNL d   1      -1.020   0.270  -0.388  0.00  0.00    -0.094 SA
ATOM     19  C   UNL d   1       0.066  -0.942   0.107  0.00  0.00     0.053 A 
ATOM     20  C   UNL d   1       1.365  -0.493   0.093  0.00  0.00     0.038 A 
BRANCH  17  21
ATOM     21  C   UNL d   1      -0.130   2.624  -1.369  0.00  0.00     0.302 C 
ATOM     22  O   UNL d   1      -1.188   3.223  -1.216  0.00  0.00    -0.259 OA
BRANCH  21  23
ATOM     23  O   UNL d   1       0.816   2.958  -2.297  0.00  0.00    -0.322 OA
ATOM     24  C   UNL d   1       0.624   4.202  -2.973  0.00  0.00     0.213 C 
ENDBRANCH  21  23
ENDBRANCH  17  21
ENDBRANCH   2  16
TORSDOF 4
