REMARK  6 active torsions:
REMARK  status: ('A' for Active; 'I' for Inactive)
REMARK    1  A    between atoms: C_9  and  N_1 
REMARK    2  A    between atoms: C_22  and  N_3 
REMARK    3  A    between atoms: C_14  and  N_5 
REMARK    4  A    between atoms: N_7  and  C_17 
REMARK    5  A    between atoms: C_25  and  C_22 
REMARK    6  A    between atoms: C_26  and  C_25 
ROOT
ATOM      1  C   UNL d   1      -3.572   9.498  -0.629  0.00  0.00     0.036 A 
ATOM      2  N   UNL d   1      -4.205  10.735  -0.610  0.00  0.00    -0.380 N 
ATOM      3  C   UNL d   1      -3.182   8.907  -1.849  0.00  0.00    -0.029 A 
ATOM      4  C   UNL d   1      -3.277   8.797   0.548  0.00  0.00     0.032 A 
ATOM      5  C   UNL d   1      -2.519   7.662  -1.864  0.00  0.00     0.040 A 
ATOM      6  C   UNL d   1      -2.224   6.981  -0.681  0.00  0.00     0.048 A 
ATOM      7  C   UNL d   1      -2.609   7.568   0.527  0.00  0.00     0.033 A 
ATOM      8  C   UNL d   1      -4.825  11.201  -1.847  0.00  0.00     0.123 C 
ATOM      9  C   UNL d   1      -3.463   9.590  -3.167  0.00  0.00     0.042 C 
ATOM     10  C   UNL d   1      -3.849  11.055  -3.001  0.00  0.00     0.024 C 
ENDROOT
BRANCH   6  11
ATOM     11  N   UNL d   1      -1.487   5.780  -0.748  0.00  0.00    -0.300 N 
ATOM     12  N   UNL d   1      -1.882   4.941   0.090  0.00  0.00    -0.300 N 
ATOM     13  HN  UNL d   1      -2.692   5.078   0.695  1.00  0.00     0.187 HD
ATOM     14  HN  UNL d   1      -0.723   5.616  -1.403  1.00  0.00     0.187 HD
BRANCH  12  15
ATOM     15  C   UNL d   1      -1.081   3.782   0.102  0.00  0.00     0.048 A 
ATOM     16  C   UNL d   1      -0.850   3.152   1.334  0.00  0.00     0.033 A 
ATOM     17  C   UNL d   1      -0.082   1.986   1.419  0.00  0.00     0.038 A 
ATOM     18  C   UNL d   1       0.462   1.434   0.253  0.00  0.00     0.103 A 
ATOM     19  C   UNL d   1       0.236   2.041  -0.990  0.00  0.00     0.038 A 
ATOM     20  C   UNL d   1      -0.536   3.206  -1.058  0.00  0.00     0.033 A 
BRANCH  18  21
ATOM     21  N   UNL d   1       1.267   0.209   0.330  0.00  0.00    -0.116 N 
ATOM     22  O   UNL d   1       1.723  -0.248  -0.730  0.00  0.00    -0.532 OA
ATOM     23  O   UNL d   1       1.442  -0.296   1.446  0.00  0.00    -0.532 OA
ENDBRANCH  18  21
ENDBRANCH  12  15
ENDBRANCH   6  11
BRANCH   2  24
ATOM     24  C   UNL d   1      -4.138  11.638   0.541  0.00  0.00     0.123 C 
BRANCH  24  25
ATOM     25  C   UNL d   1      -2.700  12.112   0.795  0.00  0.00     0.019 C 
BRANCH  25  26
ATOM     26  C   UNL d   1      -2.612  13.027   2.016  0.00  0.00    -0.003 C 
ATOM     27  C   UNL d   1      -1.174  13.438   2.296  0.00  0.00     0.005 C 
ENDBRANCH  25  26
ENDBRANCH  24  25
ENDBRANCH   2  24
TORSDOF 6
