REMARK  9 active torsions:
REMARK  status: ('A' for Active; 'I' for Inactive)
REMARK    1  A    between atoms: C_12  and  C_1 
REMARK    2  A    between atoms: C_7  and  C_2 
REMARK    3  A    between atoms: S_11  and  C_5 
REMARK    4  A    between atoms: C_9  and  C_16 
REMARK       I    between atoms: C_10  and  N_13 
REMARK       I    between atoms: N_19  and  C_10 
REMARK    5  A    between atoms: C_17  and  S_11 
REMARK    6  A    between atoms: O_30  and  C_12 
REMARK    7  A    between atoms: N_13  and  C_18 
REMARK    8  A    between atoms: C_22  and  N_19 
REMARK    9  A    between atoms: C_36  and  O_30 
ROOT
ATOM      1  C   UNL d   1      -2.706  -5.272  -0.508  0.00  0.00     0.072 C 
ATOM      2  C   UNL d   1      -2.945  -4.566   0.654  0.00  0.00     0.134 C 
ATOM      3  N   UNL d   1      -1.913  -3.895   1.275  0.00  0.00    -0.345 N 
ATOM      4  HN  UNL d   1      -2.128  -3.272   2.054  1.00  0.00     0.166 HD
ATOM      5  C   UNL d   1      -0.610  -4.036   0.882  0.00  0.00     0.096 C 
ATOM      6  C   UNL d   1      -0.310  -5.013  -0.055  0.00  0.00     0.079 C 
ATOM      7  C   UNL d   1      -1.367  -5.570  -0.802  0.00  0.00     0.045 C 
ATOM      8  C   UNL d   1       0.997  -5.564  -0.226  0.00  0.00     0.102 C 
ATOM      9  N   UNL d   1       2.011  -6.094  -0.353  0.00  0.00    -0.191 NA
ENDROOT
BRANCH   5  10
ATOM     10  S   UNL d   1       0.396  -2.876   1.730  0.00  0.00    -0.069 SA
BRANCH  10  11
ATOM     11  C   UNL d   1       2.146  -2.639   1.447  0.00  0.00     0.034 C 
ATOM     12  C   UNL d   1       2.821  -1.907   2.477  0.00  0.00     0.053 C 
ATOM     13  C   UNL d   1       4.216  -1.753   2.486  0.00  0.00     0.031 C 
ATOM     14  C   UNL d   1       4.953  -2.169   1.380  0.00  0.00     0.002 C 
ATOM     15  C   UNL d   1       4.292  -2.734   0.289  0.00  0.00     0.002 C 
ATOM     16  C   UNL d   1       2.905  -2.983   0.328  0.00  0.00     0.021 C 
BRANCH  12  17
ATOM     17  N   UNL d   1       2.000  -1.066   3.288  0.00  0.00    -0.312 N 
ATOM     18  C   UNL d   1       2.368  -0.391   4.413  0.00  0.00     0.303 C 
ATOM     19  N   UNL d   1       2.644  -1.216   5.486  0.00  0.00    -0.210 NA
ATOM     20  O   UNL d   1       2.247   0.829   4.450  0.00  0.00    -0.253 OA
ATOM     21  H   UNL d   1       1.738  -1.569   5.785  0.00  0.00     0.138 HD
ATOM     22  H   UNL d   1       1.469  -0.448   2.682  0.00  0.00     0.170 HD
BRANCH  19  23
ATOM     23  C   UNL d   1       3.361  -0.722   6.596  0.00  0.00     0.017 A 
ATOM     24  C   UNL d   1       3.131   0.545   7.125  0.00  0.00     0.040 A 
ATOM     25  C   UNL d   1       4.055   1.115   8.006  0.00  0.00     0.049 A 
ATOM     26  C   UNL d   1       5.128   0.335   8.466  0.00  0.00     0.016 A 
ATOM     27  C   UNL d   1       5.291  -0.978   8.020  0.00  0.00     0.003 A 
ATOM     28  C   UNL d   1       4.418  -1.501   7.067  0.00  0.00     0.024 A 
BRANCH  25  29
ATOM     29  C   UNL d   1       3.976   2.586   8.325  0.00  0.00     0.417 C 
ATOM     30  F   UNL d   1       2.830   3.183   7.893  0.00  0.00    -0.166 F 
ATOM     31  F   UNL d   1       4.053   2.848   9.658  0.00  0.00    -0.166 F 
ATOM     32  F   UNL d   1       4.996   3.282   7.748  0.00  0.00    -0.166 F 
ENDBRANCH  25  29
ENDBRANCH  19  23
ENDBRANCH  12  17
ENDBRANCH  10  11
ENDBRANCH   5  10
BRANCH   1  33
ATOM     33  C   UNL d   1      -3.769  -5.703  -1.444  0.00  0.00     0.295 C 
ATOM     34  O   UNL d   1      -3.678  -6.688  -2.158  0.00  0.00    -0.259 OA
BRANCH  33  35
ATOM     35  O   UNL d   1      -4.722  -4.742  -1.498  0.00  0.00    -0.318 OA
BRANCH  35  36
ATOM     36  C   UNL d   1      -5.724  -4.868  -2.526  0.00  0.00     0.174 C 
ATOM     37  C   UNL d   1      -6.814  -5.854  -2.146  0.00  0.00     0.034 C 
ENDBRANCH  35  36
ENDBRANCH  33  35
ENDBRANCH   1  33
BRANCH   2  38
ATOM     38  C   UNL d   1      -4.297  -4.647   1.358  0.00  0.00     0.433 C 
ATOM     39  F   UNL d   1      -5.147  -5.588   0.844  0.00  0.00    -0.165 F 
ATOM     40  F   UNL d   1      -4.163  -5.014   2.670  0.00  0.00    -0.165 F 
ATOM     41  F   UNL d   1      -4.987  -3.477   1.365  0.00  0.00    -0.165 F 
ENDBRANCH   2  38
TORSDOF 9
