REMARK  6 active torsions:
REMARK  status: ('A' for Active; 'I' for Inactive)
REMARK    1  A    between atoms: C_14  and  N_3 
REMARK    2  A    between atoms: N_7  and  C_6 
REMARK    3  A    between atoms: C_15  and  N_7 
REMARK    4  A    between atoms: C_16  and  N_7 
REMARK    5  A    between atoms: C_18  and  C_15 
REMARK    6  A    between atoms: C_17  and  C_16 
ROOT
ATOM      1  C   UNL d   1       1.744   0.708   1.424  0.00  0.00     0.071 A 
ATOM      2  C   UNL d   1       1.562  -0.664   1.532  0.00  0.00     0.143 A 
ATOM      3  N   UNL d   1       2.316  -1.078   2.629  0.00  0.00    -0.239 N 
ATOM      4  N   UNL d   1       3.094  -0.057   3.103  0.00  0.00    -0.302 N 
ATOM      5  HN  UNL d   1       3.814  -0.103   3.825  1.00  0.00     0.186 HD
ATOM      6  C   UNL d   1       0.959   1.415   0.490  0.00  0.00     0.120 A 
ATOM      7  C   UNL d   1       2.700   1.008   2.410  0.00  0.00     0.127 C 
ATOM      8  N   UNL d   1       0.754  -1.404   0.740  0.00  0.00    -0.336 N 
ATOM      9  HN  UNL d   1       0.645  -2.414   0.826  1.00  0.00     0.168 HD
ATOM     10  N   UNL d   1       0.170   0.673  -0.328  0.00  0.00    -0.338 N 
ATOM     11  HN  UNL d   1      -0.379   1.125  -1.060  1.00  0.00     0.168 HD
ATOM     12  C   UNL d   1       0.115  -0.659  -0.168  0.00  0.00     0.183 A 
ENDROOT
BRANCH   6  13
ATOM     13  N   UNL d   1       0.834   2.807   0.509  0.00  0.00    -0.358 N 
BRANCH  13  14
ATOM     14  C   UNL d   1      -0.357   3.372  -0.149  0.00  0.00     0.163 C 
BRANCH  14  15
ATOM     15  C   UNL d   1      -1.701   3.102   0.516  0.00  0.00    -0.040 A 
ATOM     16  C   UNL d   1      -1.885   2.288   1.644  0.00  0.00     0.009 A 
ATOM     17  C   UNL d   1      -3.166   1.981   2.110  0.00  0.00     0.001 A 
ATOM     18  C   UNL d   1      -4.287   2.517   1.482  0.00  0.00     0.000 A 
ATOM     19  C   UNL d   1      -4.126   3.380   0.403  0.00  0.00     0.001 A 
ATOM     20  C   UNL d   1      -2.846   3.670  -0.075  0.00  0.00     0.009 A 
ENDBRANCH  14  15
ENDBRANCH  13  14
BRANCH  13  21
ATOM     21  C   UNL d   1       2.081   3.536   0.244  0.00  0.00     0.163 C 
BRANCH  21  22
ATOM     22  C   UNL d   1       2.399   4.547   1.333  0.00  0.00    -0.040 A 
ATOM     23  C   UNL d   1       1.616   4.693   2.489  0.00  0.00     0.009 A 
ATOM     24  C   UNL d   1       1.960   5.620   3.475  0.00  0.00     0.001 A 
ATOM     25  C   UNL d   1       3.091   6.415   3.320  0.00  0.00     0.000 A 
ATOM     26  C   UNL d   1       3.878   6.286   2.179  0.00  0.00     0.001 A 
ATOM     27  C   UNL d   1       3.537   5.359   1.192  0.00  0.00     0.009 A 
ENDBRANCH  21  22
ENDBRANCH  13  21
ENDBRANCH   6  13
BRANCH   3  28
ATOM     28  C   UNL d   1       2.340  -2.346   3.292  0.00  0.00     0.058 A 
ATOM     29  C   UNL d   1       1.504  -3.402   2.907  0.00  0.00     0.031 A 
ATOM     30  C   UNL d   1       1.561  -4.627   3.580  0.00  0.00     0.002 A 
ATOM     31  C   UNL d   1       2.442  -4.808   4.644  0.00  0.00     0.000 A 
ATOM     32  C   UNL d   1       3.260  -3.758   5.051  0.00  0.00     0.002 A 
ATOM     33  C   UNL d   1       3.208  -2.532   4.383  0.00  0.00     0.031 A 
ENDBRANCH   3  28
TORSDOF 6
