REMARK  6 active torsions:
REMARK  status: ('A' for Active; 'I' for Inactive)
REMARK    1  A    between atoms: C_3  and  C_1 
REMARK    2  A    between atoms: O_17  and  C_2 
REMARK    3  A    between atoms: O_18  and  C_3 
REMARK    4  A    between atoms: N_6  and  C_12 
REMARK    5  A    between atoms: N_9  and  C_8 
REMARK    6  A    between atoms: C_15  and  C_10 
ROOT
ATOM      1  C   UNL d   1      -1.008   2.018  -1.151  0.00  0.00     0.070 A 
ATOM      2  C   UNL d   1      -1.767   1.569  -2.234  0.00  0.00     0.084 A 
ATOM      3  C   UNL d   1      -1.114   1.348   0.073  0.00  0.00     0.023 A 
ATOM      4  C   UNL d   1      -2.576   0.439  -2.123  0.00  0.00     0.067 A 
ATOM      5  C   UNL d   1      -2.671  -0.252  -0.909  0.00  0.00     0.034 A 
ATOM      6  C   UNL d   1      -1.947   0.228   0.191  0.00  0.00     0.030 A 
ENDROOT
BRANCH   5   7
ATOM      7  N   UNL d   1      -3.552  -1.344  -0.840  0.00  0.00    -0.365 N 
ATOM      8  C   UNL d   1      -3.210  -2.395  -0.164  0.00  0.00     0.099 C 
ATOM      9  HN  UNL d   1      -4.453  -1.309  -1.317  1.00  0.00     0.165 HD
BRANCH   8  10
ATOM     10  C   UNL d   1      -4.092  -3.576  -0.048  0.00  0.00    -0.021 A 
ATOM     11  C   UNL d   1      -5.270  -3.679  -0.782  0.00  0.00     0.015 A 
ATOM     12  C   UNL d   1      -6.062  -4.834  -0.679  0.00  0.00     0.030 A 
ATOM     13  C   UNL d   1      -5.711  -5.913   0.152  0.00  0.00     0.029 A 
ATOM     14  C   UNL d   1      -4.518  -5.766   0.883  0.00  0.00     0.030 A 
ATOM     15  C   UNL d   1      -3.717  -4.618   0.794  0.00  0.00     0.015 A 
BRANCH  13  16
ATOM     16  N   UNL d   1      -6.436  -7.102   0.201  0.00  0.00    -0.390 N 
ATOM     17  C   UNL d   1      -6.615  -7.784   1.484  0.00  0.00     0.149 C 
ATOM     18  C   UNL d   1      -7.500  -7.365  -0.766  0.00  0.00     0.149 C 
ENDBRANCH  13  16
ENDBRANCH   8  10
ENDBRANCH   5   7
BRANCH   2  19
ATOM     19  O   UNL d   1      -1.743   2.220  -3.438  0.00  0.00    -0.360 OA
ATOM     20  H   UNL d   1      -2.175   3.088  -3.294  0.00  0.00     0.217 HD
ENDBRANCH   2  19
BRANCH   1  21
ATOM     21  C   UNL d   1      -0.098   3.187  -1.230  0.00  0.00     0.178 C 
ATOM     22  O   UNL d   1       0.204   3.856  -0.253  0.00  0.00    -0.646 OA
BRANCH  21  23
ATOM     23  O   UNL d   1       0.386   3.427  -2.470  0.00  0.00    -0.773 OA
ATOM     24  H   UNL d   1       0.095   2.772  -3.139  0.00  0.00     0.167 HD
ENDBRANCH  21  23
ENDBRANCH   1  21
TORSDOF 6
