REMARK  4 active torsions:
REMARK  status: ('A' for Active; 'I' for Inactive)
REMARK    1  A    between atoms: C_8  and  N_4 
REMARK    2  A    between atoms: C_7  and  C_8 
REMARK    3  A    between atoms: O_13  and  C_7 
REMARK    4  A    between atoms: C_14  and  O_13 
ROOT
ATOM      1  C   UNL d   1      -0.711  -0.043   1.345  0.00  0.00     0.101 A 
ATOM      2  C   UNL d   1      -0.827   0.020  -1.187  0.00  0.00     0.101 A 
ATOM      3  C   UNL d   1      -1.561   0.040   0.116  0.00  0.00     0.217 A 
ATOM      4  N   UNL d   1       1.288  -0.065  -0.019  0.00  0.00    -0.354 N 
ATOM      5  C   UNL d   1       0.512  -0.032  -1.174  0.00  0.00     0.119 A 
ATOM      6  C   UNL d   1       0.621  -0.089   1.204  0.00  0.00     0.119 A 
ATOM      7  O   UNL d   1      -2.785   0.123   0.175  0.00  0.00    -0.285 OA
ATOM      8 CL   UNL d   1      -1.721   0.071  -2.653  0.00  0.00    -0.079 Cl
ATOM      9 CL   UNL d   1      -1.466  -0.069   2.886  0.00  0.00    -0.079 Cl
ENDROOT
BRANCH   4  10
ATOM     10  C   UNL d   1       2.766  -0.140  -0.088  0.00  0.00     0.238 C 
BRANCH  10  11
ATOM     11  C   UNL d   1       3.287  -1.564   0.078  0.00  0.00     0.277 C 
ATOM     12  O   UNL d   1       2.610  -2.580   0.154  0.00  0.00    -0.263 OA
BRANCH  11  13
ATOM     13  O   UNL d   1       4.650  -1.521   0.181  0.00  0.00    -0.321 OA
BRANCH  13  14
ATOM     14  C   UNL d   1       5.280  -2.739   0.605  0.00  0.00     0.174 C 
ATOM     15  C   UNL d   1       5.346  -2.744   2.121  0.00  0.00     0.034 C 
ENDBRANCH  13  14
ENDBRANCH  11  13
ENDBRANCH  10  11
ENDBRANCH   4  10
TORSDOF 4
