REMARK  5 active torsions:
REMARK  status: ('A' for Active; 'I' for Inactive)
REMARK    1  A    between atoms: C_6  and  C_1 
REMARK    2  A    between atoms: C_11  and  C_6 
REMARK    3  A    between atoms: C_7  and  O_9 
REMARK    4  A    between atoms: C_8  and  C_7 
REMARK    5  A    between atoms: O_9  and  C_11 
ROOT
ATOM      1  C   UNL d   1       3.760  -0.009  -0.008  0.00  0.00     0.191 C 
ATOM      2  O   UNL d   1       4.098   1.095   0.429  0.00  0.00    -0.289 OA
ENDROOT
BRANCH   1   3
ATOM      3  C   UNL d   1       2.557  -0.179  -0.832  0.00  0.00     0.060 A 
ATOM      4  S   UNL d   1       2.404  -1.521  -1.876  0.00  0.00    -0.085 SA
ATOM      5  C   UNL d   1       0.901  -0.995  -2.502  0.00  0.00     0.016 A 
ATOM      6  C   UNL d   1       0.118  -1.652  -3.473  0.00  0.00     0.021 A 
ATOM      7  C   UNL d   1       0.508   0.215  -1.930  0.00  0.00    -0.010 A 
ATOM      8  C   UNL d   1      -1.087  -1.074  -3.875  0.00  0.00     0.025 A 
ATOM      9  C   UNL d   1      -1.493   0.136  -3.334  0.00  0.00     0.035 A 
ATOM     10  C   UNL d   1      -0.714   0.787  -2.374  0.00  0.00     0.037 A 
ATOM     11 CL   UNL d   1      -2.978   0.842  -3.844  0.00  0.00    -0.084 Cl
ATOM     12  C   UNL d   1       1.463   0.676  -0.938  0.00  0.00    -0.029 A 
ATOM     13  C   UNL d   1       1.269   1.934  -0.143  0.00  0.00     0.050 C 
ENDBRANCH   1   3
BRANCH   1  14
ATOM     14  C   UNL d   1       4.676  -1.220   0.239  0.00  0.00     0.263 C 
BRANCH  14  15
ATOM     15  O   UNL d   1       4.073  -2.404   0.765  0.00  0.00    -0.310 OA
BRANCH  15  16
ATOM     16  C   UNL d   1       3.715  -2.323   2.069  0.00  0.00     0.294 C 
ATOM     17  O   UNL d   1       3.797  -1.324   2.762  0.00  0.00    -0.259 OA
BRANCH  16  18
ATOM     18  C   UNL d   1       3.207  -3.645   2.545  0.00  0.00     0.045 A 
ATOM     19  C   UNL d   1       2.212  -3.746   3.539  0.00  0.00    -0.046 A 
ATOM     20  C   UNL d   1       1.525  -2.566   4.169  0.00  0.00     0.049 C 
ATOM     21  C   UNL d   1       1.857  -5.026   4.009  0.00  0.00     0.008 A 
ATOM     22  C   UNL d   1       2.450  -6.177   3.490  0.00  0.00     0.001 A 
ATOM     23  C   UNL d   1       3.414  -6.072   2.495  0.00  0.00     0.001 A 
ATOM     24  C   UNL d   1       3.794  -4.813   2.026  0.00  0.00     0.018 A 
ENDBRANCH  16  18
ENDBRANCH  15  16
ENDBRANCH  14  15
ENDBRANCH   1  14
TORSDOF 5
