REMARK  7 active torsions:
REMARK  status: ('A' for Active; 'I' for Inactive)
REMARK       I    between atoms: N_3  and  C_1 
REMARK    1  A    between atoms: C_8  and  C_1 
REMARK    2  A    between atoms: C_2  and  C_7 
REMARK    3  A    between atoms: O_11  and  C_2 
REMARK    4  A    between atoms: C_7  and  N_3 
REMARK    5  A    between atoms: S_4  and  C_8 
REMARK    6  A    between atoms: C_9  and  S_4 
REMARK    7  A    between atoms: C_17  and  O_11 
ROOT
ATOM      1  C   UNL d   1       0.932   0.188  -0.005  0.00  0.00     0.227 C 
ATOM      2  N   UNL d   1       0.276   0.281  -1.203  0.00  0.00    -0.351 N 
ATOM      3  O   UNL d   1       0.324   0.073   1.060  0.00  0.00    -0.273 OA
ATOM      4  H   UNL d   1       0.806   0.492  -2.046  0.00  0.00     0.163 HD
ENDROOT
BRANCH   1   5
ATOM      5  C   UNL d   1       2.452   0.179  -0.040  0.00  0.00     0.182 C 
BRANCH   5   6
ATOM      6  S   UNL d   1       3.185   1.006  -1.488  0.00  0.00    -0.121 SA
BRANCH   6   7
ATOM      7  C   UNL d   1       2.826   2.744  -1.258  0.00  0.00     0.001 A 
ATOM      8  C   UNL d   1       2.007   3.284  -0.262  0.00  0.00     0.020 A 
ATOM      9  C   UNL d   1       1.727   4.657  -0.235  0.00  0.00     0.025 A 
ATOM     10  C   UNL d   1       2.281   5.501  -1.192  0.00  0.00     0.034 A 
ATOM     11  C   UNL d   1       3.126   4.988  -2.169  0.00  0.00     0.025 A 
ATOM     12 CL   UNL d   1       1.914   7.181  -1.171  0.00  0.00    -0.084 Cl
ATOM     13  C   UNL d   1       3.395   3.616  -2.200  0.00  0.00     0.020 A 
ENDBRANCH   6   7
ENDBRANCH   5   6
ENDBRANCH   1   5
BRANCH   2  14
ATOM     14  C   UNL d   1      -1.177   0.327  -1.265  0.00  0.00     0.233 C 
BRANCH  14  15
ATOM     15  C   UNL d   1      -1.742   0.375  -2.675  0.00  0.00     0.276 C 
ATOM     16  O   UNL d   1      -2.939   0.332  -2.929  0.00  0.00    -0.263 OA
BRANCH  15  17
ATOM     17  O   UNL d   1      -0.743   0.425  -3.604  0.00  0.00    -0.321 OA
BRANCH  17  18
ATOM     18  C   UNL d   1      -1.140   0.115  -4.947  0.00  0.00     0.174 C 
ATOM     19  C   UNL d   1      -1.045  -1.389  -5.125  0.00  0.00     0.034 C 
ENDBRANCH  17  18
ENDBRANCH  15  17
ENDBRANCH  14  15
ENDBRANCH   2  14
TORSDOF 7
