REMARK  1 active torsions:
REMARK  status: ('A' for Active; 'I' for Inactive)
REMARK    1  A    between atoms: C_6  and  N_5 
ROOT
ATOM      1  C   UNL d   1       1.626   0.229  -0.149  0.00  0.00     0.141 C 
ATOM      2  N   UNL d   1       0.611   0.858  -0.637  0.00  0.00    -0.369 N 
ATOM      3  HN  UNL d   1       0.622   1.836  -0.927  1.00  0.00     0.161 HD
ATOM      4  S   UNL d   1       1.403  -1.473   0.206  0.00  0.00    -0.083 SA
ATOM      5  N   UNL d   1       2.878   0.710   0.092  0.00  0.00    -0.337 N 
ATOM      6  C   UNL d   1      -0.135  -1.492  -0.765  0.00  0.00     0.024 C 
ATOM      7  C   UNL d   1      -0.566  -0.023  -0.719  0.00  0.00     0.142 C 
ATOM      8  C   UNL d   1       0.186  -1.954  -2.189  0.00  0.00     0.029 C 
ATOM      9  C   UNL d   1      -1.180  -2.401  -0.123  0.00  0.00     0.029 C 
ATOM     10  H   UNL d   1       3.529   0.033   0.468  0.00  0.00     0.168 HD
ENDROOT
BRANCH   5  11
ATOM     11  C   UNL d   1       3.182   2.031   0.486  0.00  0.00     0.040 A 
ATOM     12  C   UNL d   1       4.449   2.584   0.208  0.00  0.00    -0.035 A 
ATOM     13  C   UNL d   1       5.507   1.850  -0.569  0.00  0.00     0.050 C 
ATOM     14  C   UNL d   1       4.750   3.885   0.654  0.00  0.00     0.009 A 
ATOM     15  C   UNL d   1       3.810   4.638   1.354  0.00  0.00     0.001 A 
ATOM     16  C   UNL d   1       2.555   4.104   1.615  0.00  0.00     0.002 A 
ATOM     17  C   UNL d   1       2.245   2.814   1.182  0.00  0.00     0.030 A 
ENDBRANCH   5  11
TORSDOF 1
