REMARK  6 active torsions:
REMARK  status: ('A' for Active; 'I' for Inactive)
REMARK    1  A    between atoms: C_4  and  C_1 
REMARK    2  A    between atoms: O_5  and  C_2 
REMARK    3  A    between atoms: C_3  and  C_7 
REMARK    4  A    between atoms: O_20  and  C_4 
REMARK    5  A    between atoms: C_9  and  O_5 
REMARK    6  A    between atoms: N_19  and  C_10 
ROOT
ATOM      1  C   UNL d   1       2.681   5.739   0.205  0.00  0.00     0.049 C 
ATOM      2  C   UNL d   1       2.619   2.950   0.050  0.00  0.00     0.097 C 
ATOM      3  C   UNL d   1       2.108   3.586   1.197  0.00  0.00     0.041 C 
ATOM      4  C   UNL d   1       2.103   4.983   1.237  0.00  0.00     0.042 C 
ATOM      5  C   UNL d   1       3.330   5.074  -0.846  0.00  0.00     0.019 C 
ATOM      6  C   UNL d   1       3.318   3.683  -0.913  0.00  0.00     0.040 C 
ENDROOT
BRANCH   2   7
ATOM      7  O   UNL d   1       2.420   1.592  -0.048  0.00  0.00    -0.307 OA
BRANCH   7   8
ATOM      8  C   UNL d   1       2.295   0.910  -1.216  0.00  0.00     0.099 A 
ATOM      9  C   UNL d   1       1.705   1.321  -2.406  0.00  0.00     0.114 A 
ATOM     10  S   UNL d   1       1.844   0.087  -3.610  0.00  0.00    -0.093 SA
ATOM     11  C   UNL d   1       2.609  -0.990  -2.537  0.00  0.00     0.053 A 
ATOM     12  C   UNL d   1       2.784  -0.431  -1.295  0.00  0.00     0.046 A 
BRANCH   9  13
ATOM     13  C   UNL d   1       1.054   2.546  -2.830  0.00  0.00     0.302 C 
ATOM     14  O   UNL d   1       1.117   3.026  -3.961  0.00  0.00    -0.259 OA
BRANCH  13  15
ATOM     15  O   UNL d   1       0.347   3.114  -1.814  0.00  0.00    -0.322 OA
ATOM     16  C   UNL d   1      -0.216   4.385  -2.146  0.00  0.00     0.213 C 
ENDBRANCH  13  15
ENDBRANCH   9  13
ENDBRANCH   7   8
ENDBRANCH   2   7
BRANCH   3  17
ATOM     17  N   UNL d   1       1.389   2.874   2.174  0.00  0.00    -0.300 NA
ATOM     18  H   UNL d   1       1.657   1.893   2.210  0.00  0.00     0.124 HD
ATOM     19  H   UNL d   1       1.395   3.310   3.091  0.00  0.00     0.124 HD
ENDBRANCH   3  17
BRANCH   1  20
ATOM     20  C   UNL d   1       2.557   7.240   0.184  0.00  0.00     0.417 C 
ATOM     21  F   UNL d   1       1.895   7.751   1.259  0.00  0.00    -0.166 F 
ATOM     22  F   UNL d   1       3.764   7.868   0.152  0.00  0.00    -0.166 F 
ATOM     23  F   UNL d   1       1.876   7.680  -0.913  0.00  0.00    -0.166 F 
ENDBRANCH   1  20
TORSDOF 6
