REMARK  4 active torsions:
REMARK  status: ('A' for Active; 'I' for Inactive)
REMARK    1  A    between atoms: C_13  and  N_3 
REMARK    2  A    between atoms: C_14  and  N_5 
REMARK    3  A    between atoms: C_16  and  C_9 
REMARK    4  A    between atoms: N_11  and  C_15 
ROOT
ATOM      1  C   UNL d   1       0.053  -0.763  -0.018  0.00  0.00     0.116 A 
ATOM      2  C   UNL d   1      -0.198   0.609   0.018  0.00  0.00     0.155 A 
ATOM      3  N   UNL d   1       0.855   1.518   0.050  0.00  0.00    -0.246 N 
ATOM      4  C   UNL d   1       2.190   1.055   0.086  0.00  0.00     0.343 A 
ATOM      5  N   UNL d   1       2.382  -0.347  -0.031  0.00  0.00    -0.229 N 
ATOM      6  C   UNL d   1       1.365  -1.314  -0.037  0.00  0.00     0.273 A 
ATOM      7  N   UNL d   1      -1.516   0.843   0.078  0.00  0.00    -0.243 N 
ATOM      8  HN  UNL d   1      -1.978   1.752   0.121  1.00  0.00     0.196 HD
ATOM      9  C   UNL d   1      -1.171  -1.381  -0.011  0.00  0.00     0.128 A 
ATOM     10  O   UNL d   1      -2.126  -0.407   0.069  0.00  0.00    -0.234 OA
ATOM     11  O   UNL d   1       3.150   1.831   0.141  0.00  0.00    -0.245 OA
ATOM     12  O   UNL d   1       1.551  -2.524  -0.007  0.00  0.00    -0.266 OA
ENDROOT
BRANCH   9  13
ATOM     13  C   UNL d   1      -1.640  -2.757  -0.118  0.00  0.00     0.001 A 
ATOM     14  C   UNL d   1      -2.735  -3.229   0.622  0.00  0.00     0.017 A 
ATOM     15  C   UNL d   1      -3.169  -4.558   0.487  0.00  0.00     0.037 A 
ATOM     16  C   UNL d   1      -2.500  -5.424  -0.390  0.00  0.00     0.102 A 
ATOM     17  C   UNL d   1      -1.395  -4.977  -1.115  0.00  0.00     0.037 A 
ATOM     18  C   UNL d   1      -0.984  -3.650  -0.983  0.00  0.00     0.017 A 
BRANCH  16  19
ATOM     19  N   UNL d   1      -2.969  -6.803  -0.577  0.00  0.00    -0.116 N 
ATOM     20  O   UNL d   1      -2.355  -7.521  -1.375  0.00  0.00    -0.532 OA
ATOM     21  O   UNL d   1      -3.965  -7.161   0.072  0.00  0.00    -0.532 OA
ENDBRANCH  16  19
ENDBRANCH   9  13
BRANCH   3  22
ATOM     22  C   UNL d   1       0.567   2.914  -0.007  0.00  0.00     0.045 A 
ATOM     23  C   UNL d   1      -0.271   3.443  -1.001  0.00  0.00     0.030 A 
ATOM     24  C   UNL d   1      -0.432   4.827  -1.134  0.00  0.00     0.002 A 
ATOM     25  C   UNL d   1       0.215   5.696  -0.258  0.00  0.00     0.000 A 
ATOM     26  C   UNL d   1       1.026   5.184   0.751  0.00  0.00     0.002 A 
ATOM     27  C   UNL d   1       1.211   3.804   0.867  0.00  0.00     0.030 A 
ENDBRANCH   3  22
BRANCH   5  28
ATOM     28  C   UNL d   1       3.717  -0.856  -0.076  0.00  0.00     0.047 A 
ATOM     29  C   UNL d   1       4.621  -0.568   0.950  0.00  0.00     0.030 A 
ATOM     30  C   UNL d   1       5.869  -1.193   0.976  0.00  0.00     0.002 A 
ATOM     31  C   UNL d   1       6.234  -2.078  -0.040  0.00  0.00     0.000 A 
ATOM     32  C   UNL d   1       5.354  -2.341  -1.086  0.00  0.00     0.002 A 
ATOM     33  C   UNL d   1       4.095  -1.742  -1.099  0.00  0.00     0.030 A 
ENDBRANCH   5  28
TORSDOF 4
