REMARK  4 active torsions:
REMARK  status: ('A' for Active; 'I' for Inactive)
REMARK    1  A    between atoms: C_2  and  C_1 
REMARK       I    between atoms: N_3  and  C_1 
REMARK       I    between atoms: C_4  and  N_5 
REMARK    2  A    between atoms: O_8  and  C_4 
REMARK    3  A    between atoms: N_5  and  C_16 
REMARK    4  A    between atoms: C_13  and  O_8 
ROOT
ATOM      1  C   UNL d   1       1.209   0.075   0.462  0.00  0.00     0.260 C 
ATOM      2  N   UNL d   1       0.721  -1.165   0.021  0.00  0.00    -0.348 N 
ATOM      3  O   UNL d   1       1.835   0.184   1.518  0.00  0.00    -0.267 OA
ATOM      4  C   UNL d   1      -0.002  -1.452  -1.214  0.00  0.00     0.128 C 
ATOM      5  C   UNL d   1       0.901  -2.342   0.874  0.00  0.00     0.128 C 
ATOM      6  C   UNL d   1      -1.400  -1.951  -0.915  0.00  0.00     0.045 C 
ATOM      7  C   UNL d   1      -0.438  -2.988   1.228  0.00  0.00     0.045 C 
ATOM      8  C   UNL d   1      -1.426  -3.123   0.062  0.00  0.00     0.089 C 
ENDROOT
BRANCH   1   9
ATOM      9  C   UNL d   1       0.950   1.332  -0.282  0.00  0.00     0.109 A 
ATOM     10  C   UNL d   1       0.555   2.470   0.434  0.00  0.00     0.135 A 
ATOM     11  F   UNL d   1       0.401   2.434   1.766  0.00  0.00    -0.205 F 
ATOM     12  C   UNL d   1       0.291   3.681  -0.212  0.00  0.00     0.043 A 
ATOM     13  C   UNL d   1       0.387   3.768  -1.597  0.00  0.00     0.006 A 
ATOM     14  C   UNL d   1       0.815   2.656  -2.319  0.00  0.00     0.043 A 
ATOM     15  C   UNL d   1       1.145   1.472  -1.654  0.00  0.00     0.135 A 
ATOM     16  F   UNL d   1       1.669   0.478  -2.387  0.00  0.00    -0.205 F 
ENDBRANCH   1   9
BRANCH   8  17
ATOM     17  N   UNL d   1      -1.487  -4.428  -0.598  0.00  0.00    -0.332 N 
ATOM     18  C   UNL d   1      -0.608  -5.165  -1.323  0.00  0.00     0.361 C 
ATOM     19  O   UNL d   1      -1.010  -6.173  -1.902  0.00  0.00    -0.238 OA
ATOM     20  H   UNL d   1      -2.410  -4.837  -0.670  0.00  0.00     0.165 HD
BRANCH  18  21
ATOM     21  O   UNL d   1       0.661  -4.720  -1.331  0.00  0.00    -0.294 OA
BRANCH  21  22
ATOM     22  C   UNL d   1       1.683  -5.500  -2.031  0.00  0.00     0.061 C 
ATOM     23  C   UNL d   1       1.394  -5.607  -3.539  0.00  0.00     0.046 C 
ATOM     24  C   UNL d   1       2.993  -4.722  -1.837  0.00  0.00     0.046 C 
ATOM     25  C   UNL d   1       1.857  -6.892  -1.401  0.00  0.00     0.046 C 
ENDBRANCH  21  22
ENDBRANCH  18  21
ENDBRANCH   8  17
TORSDOF 4
