REMARK  4 active torsions:
REMARK  status: ('A' for Active; 'I' for Inactive)
REMARK    1  A    between atoms: O_9  and  C_1 
REMARK    2  A    between atoms: C_10  and  C_1 
REMARK    3  A    between atoms: C_14  and  C_10 
REMARK    4  A    between atoms: C_15  and  C_14 
ROOT
ATOM      1  C   UNL d   1      -2.400   0.693  -0.384  0.00  0.00     0.204 C 
ATOM      2  C   UNL d   1      -2.407  -0.761   0.124  0.00  0.00     0.266 C 
ATOM      3  N   UNL d   1      -1.195  -1.432  -0.115  0.00  0.00    -0.318 N 
ATOM      4  C   UNL d   1      -1.166   1.404   0.156  0.00  0.00     0.205 C 
ATOM      5  C   UNL d   1       0.096   0.655   0.052  0.00  0.00     0.040 A 
ATOM      6  C   UNL d   1       0.055  -0.738  -0.116  0.00  0.00     0.050 A 
ATOM      7  O   UNL d   1      -3.402  -1.320   0.574  0.00  0.00    -0.269 OA
ATOM      8  O   UNL d   1      -1.142   2.541   0.627  0.00  0.00    -0.288 OA
ATOM      9  C   UNL d   1      -1.238  -2.879  -0.251  0.00  0.00     0.159 C 
ATOM     10  C   UNL d   1       1.309   1.351   0.121  0.00  0.00     0.017 A 
ATOM     11  C   UNL d   1       1.279  -1.413  -0.219  0.00  0.00     0.031 A 
ATOM     12  C   UNL d   1       2.510   0.662   0.021  0.00  0.00     0.001 A 
ATOM     13  C   UNL d   1       2.494  -0.721  -0.145  0.00  0.00     0.002 A 
ENDROOT
BRANCH   1  14
ATOM     14  O   UNL d   1      -2.328   0.615  -1.825  0.00  0.00    -0.373 OA
ATOM     15  H   UNL d   1      -1.641  -0.032  -2.059  0.00  0.00     0.211 HD
ENDBRANCH   1  14
BRANCH   1  16
ATOM     16  C   UNL d   1      -3.715   1.420  -0.034  0.00  0.00     0.056 C 
BRANCH  16  17
ATOM     17  C   UNL d   1      -3.847   2.789  -0.720  0.00  0.00     0.004 C 
BRANCH  17  18
ATOM     18  C   UNL d   1      -5.162   3.489  -0.390  0.00  0.00    -0.004 C 
ATOM     19  C   UNL d   1      -5.187   4.876  -1.017  0.00  0.00     0.005 C 
ENDBRANCH  17  18
ENDBRANCH  16  17
ENDBRANCH   1  16
TORSDOF 4
