REMARK  3 active torsions:
REMARK  status: ('A' for Active; 'I' for Inactive)
REMARK    1  A    between atoms: C_12  and  C_3 
REMARK    2  A    between atoms: C_11  and  C_6 
REMARK       I    between atoms: N_13  and  C_11 
REMARK    3  A    between atoms: C_18  and  N_13 
ROOT
ATOM      1  C   UNL d   1      -0.530  -0.632   0.085  0.00  0.00     0.172 A 
ATOM      2  N   UNL d   1       0.163   0.534   0.216  0.00  0.00    -0.235 N 
ATOM      3  C   UNL d   1      -1.889   0.907   0.491  0.00  0.00     0.207 A 
ATOM      4  N   UNL d   1      -1.812  -0.467   0.248  0.00  0.00    -0.316 N 
ATOM      5  HN  UNL d   1      -2.562  -1.157   0.209  1.00  0.00     0.169 HD
ATOM      6  C   UNL d   1       1.905  -0.867  -0.083  0.00  0.00     0.100 A 
ATOM      7  N   UNL d   1      -0.692   1.544   0.459  0.00  0.00    -0.273 N 
ATOM      8  HN  UNL d   1      -0.491   2.536   0.586  1.00  0.00     0.189 HD
ATOM      9  C   UNL d   1       1.538   0.419   0.122  0.00  0.00     0.055 A 
ATOM     10  S   UNL d   1       0.523  -1.979  -0.193  0.00  0.00    -0.044 SA
ATOM     11  C   UNL d   1       2.376   1.641   0.296  0.00  0.00     0.072 C 
ENDROOT
BRANCH   6  12
ATOM     12  C   UNL d   1       3.315  -1.371  -0.071  0.00  0.00     0.265 C 
ATOM     13  N   UNL d   1       3.459  -2.736  -0.218  0.00  0.00    -0.322 N 
ATOM     14  H   UNL d   1       2.631  -3.266  -0.464  0.00  0.00     0.169 HD
ATOM     15  O   UNL d   1       4.237  -0.576   0.093  0.00  0.00    -0.267 OA
BRANCH  13  16
ATOM     16  C   UNL d   1       4.614  -3.492   0.099  0.00  0.00     0.035 A 
ATOM     17  C   UNL d   1       5.762  -2.944   0.675  0.00  0.00     0.030 A 
ATOM     18  C   UNL d   1       6.796  -3.766   1.133  0.00  0.00     0.009 A 
ATOM     19  C   UNL d   1       6.705  -5.154   1.017  0.00  0.00    -0.062 A 
ATOM     20  C   UNL d   1       5.602  -5.702   0.356  0.00  0.00     0.009 A 
ATOM     21  C   UNL d   1       7.774  -6.022   1.610  0.00  0.00     0.048 C 
ATOM     22  C   UNL d   1       4.561  -4.877  -0.094  0.00  0.00     0.030 A 
ENDBRANCH  13  16
ENDBRANCH   6  12
BRANCH   3  23
ATOM     23  C   UNL d   1      -3.189   1.628   0.790  0.00  0.00     0.450 C 
ATOM     24  F   UNL d   1      -4.266   0.796   0.801  0.00  0.00    -0.163 F 
ATOM     25  F   UNL d   1      -3.164   2.239   2.007  0.00  0.00    -0.163 F 
ATOM     26  F   UNL d   1      -3.460   2.598  -0.126  0.00  0.00    -0.163 F 
ENDBRANCH   3  23
TORSDOF 3
