REMARK  5 active torsions:
REMARK  status: ('A' for Active; 'I' for Inactive)
REMARK    1  A    between atoms: C_2  and  C_1 
REMARK    2  A    between atoms: N_5  and  C_3 
REMARK    3  A    between atoms: C_4  and  S_12 
REMARK       I    between atoms: C_6  and  N_5 
REMARK    4  A    between atoms: C_18  and  C_6 
REMARK    5  A    between atoms: S_12  and  C_18 
ROOT
ATOM      1  N   UNL d   1      -3.385  -0.097   0.155  0.00  0.00    -0.326 N 
ATOM      2  C   UNL d   1      -4.134  -1.219  -0.181  0.00  0.00     0.231 C 
ATOM      3  O   UNL d   1      -3.644  -2.325  -0.396  0.00  0.00    -0.272 OA
ATOM      4  H   UNL d   1      -3.854   0.777  -0.072  0.00  0.00     0.169 HD
ENDROOT
BRANCH   1   5
ATOM      5  C   UNL d   1      -1.981  -0.090   0.063  0.00  0.00     0.050 A 
ATOM      6  C   UNL d   1      -1.136  -0.980   0.747  0.00  0.00     0.077 A 
ATOM      7  C   UNL d   1       0.254  -0.894   0.508  0.00  0.00     0.060 A 
ATOM      8  C   UNL d   1       0.771   0.058  -0.362  0.00  0.00     0.117 A 
ATOM      9  C   UNL d   1      -0.062   0.960  -1.002  0.00  0.00     0.044 A 
ATOM     10  F   UNL d   1       2.092   0.120  -0.566  0.00  0.00    -0.206 F 
ATOM     11  C   UNL d   1      -1.435   0.897  -0.777  0.00  0.00     0.033 A 
BRANCH   6  12
ATOM     12  C   UNL d   1      -1.577  -1.956   1.813  0.00  0.00     0.419 C 
ATOM     13  F   UNL d   1      -2.895  -1.938   2.151  0.00  0.00    -0.166 F 
ATOM     14  F   UNL d   1      -1.269  -3.248   1.509  0.00  0.00    -0.166 F 
ATOM     15  F   UNL d   1      -0.924  -1.708   2.992  0.00  0.00    -0.166 F 
ENDBRANCH   6  12
ENDBRANCH   1   5
BRANCH   2  16
ATOM     16  C   UNL d   1      -5.644  -1.003  -0.216  0.00  0.00     0.185 C 
BRANCH  16  17
ATOM     17  S   UNL d   1      -6.144   0.695  -0.654  0.00  0.00    -0.085 SA
BRANCH  17  18
ATOM     18  C   UNL d   1      -5.381   0.835  -2.249  0.00  0.00     0.144 A 
ATOM     19  N   UNL d   1      -5.370  -0.234  -3.055  0.00  0.00    -0.347 N 
ATOM     20  C   UNL d   1      -4.736  -0.085  -4.233  0.00  0.00     0.091 A 
ATOM     21  HN  UNL d   1      -5.817  -1.112  -2.791  1.00  0.00     0.167 HD
ATOM     22  C   UNL d   1      -4.123   1.082  -4.624  0.00  0.00     0.034 A 
ATOM     23  C   UNL d   1      -4.184   2.112  -3.718  0.00  0.00     0.091 A 
ATOM     24  N   UNL d   1      -4.787   2.011  -2.519  0.00  0.00    -0.347 N 
ATOM     25  HN  UNL d   1      -4.793   2.782  -1.852  1.00  0.00     0.167 HD
ENDBRANCH  17  18
ENDBRANCH  16  17
ENDBRANCH   2  16
TORSDOF 5
