REMARK  8 active torsions:
REMARK  status: ('A' for Active; 'I' for Inactive)
REMARK       I    between atoms: N_2  and  C_1 
REMARK    1  A    between atoms: C_3  and  C_1 
REMARK    2  A    between atoms: C_7  and  N_2 
REMARK    3  A    between atoms: C_17  and  C_11 
REMARK    4  A    between atoms: C_18  and  C_17 
REMARK    5  A    between atoms: C_21  and  C_18 
REMARK    6  A    between atoms: C_19  and  C_20 
REMARK    7  A    between atoms: C_20  and  C_22 
REMARK    8  A    between atoms: C_22  and  C_21 
ROOT
ATOM      1  C   UNL d   1       0.254   0.660   0.958  0.00  0.00     0.032 A 
ATOM      2  C   UNL d   1       0.653   1.959   1.289  0.00  0.00     0.017 A 
ATOM      3  C   UNL d   1      -0.965   0.165   1.432  0.00  0.00     0.017 A 
ATOM      4  C   UNL d   1      -0.149   2.744   2.119  0.00  0.00     0.008 A 
ATOM      5  C   UNL d   1      -1.768   0.954   2.254  0.00  0.00     0.008 A 
ATOM      6  C   UNL d   1      -1.361   2.244   2.618  0.00  0.00    -0.058 A 
ENDROOT
BRANCH   1   7
ATOM      7  C   UNL d   1       1.080  -0.216   0.086  0.00  0.00     0.256 C 
ATOM      8  N   UNL d   1       2.447  -0.068   0.234  0.00  0.00    -0.323 N 
ATOM      9  H   UNL d   1       2.766   0.497   1.009  0.00  0.00     0.169 HD
ATOM     10  O   UNL d   1       0.504  -1.022  -0.639  0.00  0.00    -0.267 OA
BRANCH   8  11
ATOM     11  C   UNL d   1       3.445  -0.775  -0.467  0.00  0.00     0.035 A 
ATOM     12  C   UNL d   1       3.189  -1.551  -1.601  0.00  0.00     0.031 A 
ATOM     13  C   UNL d   1       4.218  -2.268  -2.217  0.00  0.00     0.026 A 
ATOM     14  C   UNL d   1       5.510  -2.206  -1.704  0.00  0.00     0.034 A 
ATOM     15  C   UNL d   1       5.786  -1.411  -0.595  0.00  0.00     0.026 A 
ATOM     16 CL   UNL d   1       6.768  -3.119  -2.439  0.00  0.00    -0.084 Cl
ATOM     17  C   UNL d   1       4.757  -0.690   0.017  0.00  0.00     0.031 A 
ENDBRANCH   8  11
ENDBRANCH   1   7
BRANCH   6  18
ATOM     18  C   UNL d   1      -2.213   3.092   3.530  0.00  0.00     0.038 C 
BRANCH  18  19
ATOM     19  C   UNL d   1      -2.465   2.462   4.904  0.00  0.00     0.005 C 
BRANCH  19  20
ATOM     20  C   UNL d   1      -1.179   2.234   5.706  0.00  0.00     0.000 C 
BRANCH  20  21
ATOM     21  C   UNL d   1      -1.493   1.608   7.064  0.00  0.00     0.000 C 
BRANCH  21  22
ATOM     22  C   UNL d   1      -0.221   1.360   7.873  0.00  0.00    -0.000 C 
BRANCH  22  23
ATOM     23  C   UNL d   1      -0.549   0.730   9.226  0.00  0.00    -0.005 C 
ATOM     24  C   UNL d   1       0.707   0.485  10.046  0.00  0.00     0.005 C 
ENDBRANCH  22  23
ENDBRANCH  21  22
ENDBRANCH  20  21
ENDBRANCH  19  20
ENDBRANCH  18  19
ENDBRANCH   6  18
TORSDOF 8
