REMARK  5 active torsions:
REMARK  status: ('A' for Active; 'I' for Inactive)
REMARK    1  A    between atoms: N_2  and  C_1 
REMARK    2  A    between atoms: N_13  and  C_1 
REMARK    3  A    between atoms: C_3  and  N_2 
REMARK    4  A    between atoms: C_6  and  C_12 
REMARK    5  A    between atoms: N_7  and  N_13 
ROOT
ATOM      1  C   UNL d   1       1.137  -0.220  -0.027  0.00  0.00     0.186 C 
ATOM      2  S   UNL d   1       2.130   0.941  -0.696  0.00  0.00    -0.040 SA
ENDROOT
BRANCH   1   3
ATOM      3  N   UNL d   1       0.603  -1.310  -0.661  0.00  0.00    -0.361 N 
ATOM      4  H   UNL d   1      -0.065  -1.819  -0.088  0.00  0.00     0.162 HD
BRANCH   3   5
ATOM      5  C   UNL d   1       0.992  -1.852  -1.950  0.00  0.00     0.092 C 
ATOM      6  C   UNL d   1       0.534  -3.314  -2.212  0.00  0.00     0.031 C 
ATOM      7  C   UNL d   1      -0.979  -3.404  -2.251  0.00  0.00    -0.024 C 
ATOM      8  C   UNL d   1       0.804  -3.397  -3.720  0.00  0.00     0.019 C 
ATOM      9  C   UNL d   1      -1.387  -2.766  -3.358  0.00  0.00    -0.026 C 
ATOM     10  C   UNL d   1      -0.149  -2.244  -4.051  0.00  0.00     0.010 C 
ATOM     11  C   UNL d   1       0.423  -1.096  -3.187  0.00  0.00     0.034 C 
ENDBRANCH   3   5
ENDBRANCH   1   3
BRANCH   1  12
ATOM     12  N   UNL d   1       0.833  -0.147   1.319  0.00  0.00    -0.277 N 
ATOM     13  H   UNL d   1       1.266   0.610   1.840  0.00  0.00     0.189 HD
BRANCH  12  14
ATOM     14  N   UNL d   1       0.398  -1.268   1.970  0.00  0.00    -0.308 N 
ATOM     15  C   UNL d   1       0.425  -1.209   3.268  0.00  0.00     0.126 C 
ATOM     16  HN  UNL d   1       0.074  -2.096   1.471  1.00  0.00     0.186 HD
BRANCH  15  17
ATOM     17  C   UNL d   1       0.092  -2.383   4.035  0.00  0.00     0.021 A 
ATOM     18  S   UNL d   1      -0.052  -2.286   5.732  0.00  0.00    -0.101 SA
ATOM     19  C   UNL d   1      -0.429  -3.953   5.858  0.00  0.00     0.050 A 
ATOM     20  C   UNL d   1      -0.423  -4.576   4.630  0.00  0.00     0.008 A 
ATOM     21  C   UNL d   1      -0.123  -3.666   3.578  0.00  0.00     0.021 A 
ENDBRANCH  15  17
ENDBRANCH  12  14
ENDBRANCH   1  12
TORSDOF 5
