REMARK  2 active torsions:
REMARK  status: ('A' for Active; 'I' for Inactive)
REMARK    1  A    between atoms: C_2  and  N_1 
REMARK       I    between atoms: C_6  and  N_1 
REMARK    2  A    between atoms: C_7  and  C_3 
ROOT
ATOM      1  C   UNL d   1       0.382  -0.963   0.759  0.00  0.00     0.056 A 
ATOM      2  C   UNL d   1      -1.088  -3.158   1.811  0.00  0.00    -0.049 A 
ATOM      3  C   UNL d   1       0.667  -1.465   2.031  0.00  0.00     0.061 A 
ATOM      4  C   UNL d   1      -0.075  -2.525   2.561  0.00  0.00     0.034 A 
ATOM      5  C   UNL d   1      -0.627  -1.571   0.003  0.00  0.00     0.032 A 
ATOM      6  C   UNL d   1      -1.343  -2.659   0.523  0.00  0.00     0.010 A 
ATOM      7 CL   UNL d   1       1.892  -0.745   3.021  0.00  0.00    -0.082 Cl
ENDROOT
BRANCH   1   8
ATOM      8  N   UNL d   1       1.154   0.082   0.227  0.00  0.00    -0.326 N 
ATOM      9  C   UNL d   1       0.752   1.182  -0.471  0.00  0.00     0.218 C 
ATOM     10  O   UNL d   1       1.596   1.913  -0.996  0.00  0.00    -0.274 OA
ATOM     11  C   UNL d   1      -0.707   1.559  -0.489  0.00  0.00     0.117 C 
ATOM     12  H   UNL d   1       2.127   0.132   0.520  0.00  0.00     0.169 HD
ENDBRANCH   1   8
BRANCH   2  13
ATOM     13  C   UNL d   1      -1.840  -4.363   2.405  0.00  0.00    -0.024 C 
ATOM     14  C   UNL d   1      -2.883  -4.979   1.446  0.00  0.00     0.019 C 
ATOM     15  C   UNL d   1      -0.830  -5.478   2.756  0.00  0.00     0.019 C 
ATOM     16  C   UNL d   1      -2.590  -3.938   3.685  0.00  0.00     0.019 C 
ENDBRANCH   2  13
TORSDOF 2
