REMARK  3 active torsions:
REMARK  status: ('A' for Active; 'I' for Inactive)
REMARK       I    between atoms: N_2  and  C_1 
REMARK       I    between atoms: N_8  and  C_1 
REMARK    1  A    between atoms: C_6  and  N_2 
REMARK    2  A    between atoms: C_3  and  C_5 
REMARK    3  A    between atoms: C_7  and  N_8 
ROOT
ATOM      1  C   UNL d   1       1.032  -0.108   0.029  0.00  0.00     0.324 C 
ATOM      2  N   UNL d   1       0.456   1.099  -0.269  0.00  0.00    -0.307 N 
ATOM      3  N   UNL d   1       0.192  -1.066   0.536  0.00  0.00    -0.319 N 
ATOM      4  O   UNL d   1       2.227  -0.375  -0.087  0.00  0.00    -0.247 OA
ATOM      5  H   UNL d   1      -0.289   1.370   0.362  0.00  0.00     0.170 HD
ATOM      6  H   UNL d   1       0.699  -1.880   0.869  0.00  0.00     0.170 HD
ENDROOT
BRANCH   2   7
ATOM      7  C   UNL d   1       1.149   2.176  -0.874  0.00  0.00     0.058 A 
ATOM      8  C   UNL d   1       0.857   3.493  -0.488  0.00  0.00     0.060 A 
ATOM      9 CL   UNL d   1      -0.324   3.824   0.733  0.00  0.00    -0.082 Cl
ATOM     10  C   UNL d   1       1.550   4.568  -1.051  0.00  0.00     0.026 A 
ATOM     11  C   UNL d   1       2.514   4.337  -2.033  0.00  0.00     0.002 A 
ATOM     12  C   UNL d   1       2.784   3.034  -2.448  0.00  0.00     0.002 A 
ATOM     13  C   UNL d   1       2.108   1.957  -1.868  0.00  0.00     0.031 A 
ENDBRANCH   2   7
BRANCH   3  14
ATOM     14  C   UNL d   1      -1.178  -1.112   0.506  0.00  0.00     0.094 C 
ATOM     15  C   UNL d   1      -1.860  -2.133   1.045  0.00  0.00     0.036 C 
BRANCH  15  16
ATOM     16  C   UNL d   1      -3.282  -2.189   0.977  0.00  0.00     0.006 A 
ATOM     17  S   UNL d   1      -4.143  -3.055   2.194  0.00  0.00    -0.102 SA
ATOM     18  C   UNL d   1      -5.658  -2.656   1.515  0.00  0.00     0.050 A 
ATOM     19  C   UNL d   1      -5.529  -1.915   0.365  0.00  0.00     0.008 A 
ATOM     20  C   UNL d   1      -4.164  -1.655   0.051  0.00  0.00     0.019 A 
ENDBRANCH  15  16
ENDBRANCH   3  14
TORSDOF 3
