REMARK  2 active torsions:
REMARK  status: ('A' for Active; 'I' for Inactive)
REMARK    1  A    between atoms: O_10  and  C_4 
REMARK    2  A    between atoms: O_11  and  C_6 
ROOT
ATOM      1  C   UNL d   1       0.434   0.228   0.001  0.00  0.00     0.101 A 
ATOM      2  N   UNL d   1      -1.772   1.239   0.026  0.00  0.00    -0.316 N 
ATOM      3  HN  UNL d   1      -2.362   2.070   0.027  1.00  0.00     0.170 HD
ATOM      4  C   UNL d   1      -0.420   1.332   0.009  0.00  0.00     0.165 A 
ATOM      5  C   UNL d   1      -0.145  -1.055   0.003  0.00  0.00    -0.033 A 
ATOM      6  C   UNL d   1      -2.301   0.004   0.042  0.00  0.00     0.144 A 
ATOM      7  C   UNL d   1       1.856   0.415  -0.004  0.00  0.00     0.104 C 
ATOM      8  N   UNL d   1       3.013   0.517  -0.003  0.00  0.00    -0.191 NA
ATOM      9  C   UNL d   1      -1.543  -1.153   0.028  0.00  0.00     0.064 A 
ATOM     10  C   UNL d   1       0.646  -2.333  -0.015  0.00  0.00     0.050 C 
ENDROOT
BRANCH   4  11
ATOM     11  O   UNL d   1       0.139   2.596   0.008  0.00  0.00    -0.340 OA
ATOM     12  C   UNL d   1      -0.832   3.643  -0.009  0.00  0.00     0.211 C 
ENDBRANCH   4  11
BRANCH   6  13
ATOM     13  O   UNL d   1      -3.671  -0.157   0.079  0.00  0.00    -0.341 OA
ATOM     14  C   UNL d   1      -4.376   1.080   0.108  0.00  0.00     0.211 C 
ENDBRANCH   6  13
TORSDOF 2
