REMARK  8 active torsions:
REMARK  status: ('A' for Active; 'I' for Inactive)
REMARK    1  A    between atoms: N_2  and  S_1 
REMARK    2  A    between atoms: C_6  and  S_1 
REMARK       I    between atoms: C_5  and  N_2 
REMARK       I    between atoms: C_3  and  N_4 
REMARK    3  A    between atoms: O_7  and  C_3 
REMARK       I    between atoms: N_15  and  C_5 
REMARK    4  A    between atoms: C_14  and  O_7 
REMARK    5  A    between atoms: N_10  and  C_25 
REMARK    6  A    between atoms: C_27  and  N_15 
REMARK    7  A    between atoms: C_25  and  C_26 
REMARK    8  A    between atoms: C_26  and  C_27 
ROOT
ATOM      1  C   UNL d   1       2.350   4.042   8.061  0.00  0.00     0.126 C 
ENDROOT
BRANCH   1   2
ATOM      2  C   UNL d   1       1.970   4.069   6.583  0.00  0.00     0.050 C 
BRANCH   2   3
ATOM      3  C   UNL d   1       0.468   4.302   6.368  0.00  0.00     0.274 C 
BRANCH   3   4
ATOM      4  N   UNL d   1      -0.061   5.543   6.974  0.00  0.00     0.090 N 
ATOM      5  C   UNL d   1       0.535   6.739   6.324  0.00  0.00     0.292 C 
ATOM      6  C   UNL d   1       0.243   8.075   7.022  0.00  0.00     0.158 C 
ATOM      7  N   UNL d   1      -1.176   8.411   7.064  0.00  0.00    -0.326 N 
ATOM      8  C   UNL d   1      -1.807   9.170   6.088  0.00  0.00     0.363 C 
ATOM      9  C   UNL d   1      -1.935   7.815   8.150  0.00  0.00     0.130 C 
ATOM     10  O   UNL d   1      -2.991   9.478   6.131  0.00  0.00    -0.238 OA
ATOM     11  C   UNL d   1      -2.221   6.320   7.999  0.00  0.00     0.050 C 
ATOM     12  C   UNL d   1      -1.534   5.569   6.858  0.00  0.00     0.274 C 
BRANCH   8  13
ATOM     13  O   UNL d   1      -0.962   9.540   5.089  0.00  0.00    -0.294 OA
BRANCH  13  14
ATOM     14  C   UNL d   1      -1.356  10.490   4.058  0.00  0.00     0.061 C 
ATOM     15  C   UNL d   1      -1.694  11.856   4.673  0.00  0.00     0.046 C 
ATOM     16  C   UNL d   1      -0.118  10.627   3.151  0.00  0.00     0.046 C 
ATOM     17  C   UNL d   1      -2.515   9.979   3.195  0.00  0.00     0.046 C 
ENDBRANCH  13  14
ENDBRANCH   8  13
ENDBRANCH   3   4
ENDBRANCH   2   3
ENDBRANCH   1   2
BRANCH   1  18
ATOM     18  N   UNL d   1       3.788   3.981   8.246  0.00  0.00    -0.342 N 
ATOM     19  C   UNL d   1       4.532   5.124   8.206  0.00  0.00     0.329 C 
ATOM     20  N   UNL d   1       5.877   4.904   8.441  0.00  0.00    -0.232 N 
ATOM     21  O   UNL d   1       4.067   6.229   8.009  0.00  0.00    -0.246 OA
ATOM     22  H   UNL d   1       6.242   4.008   8.730  0.00  0.00     0.183 HD
ATOM     23  H   UNL d   1       4.248   3.085   8.258  0.00  0.00     0.164 HD
BRANCH  20  24
ATOM     24  S   UNL d   1       7.012   6.125   8.491  0.00  0.00     0.266 S 
ATOM     25  O   UNL d   1       7.076   6.741   7.183  0.00  0.00    -0.200 OA
ATOM     26  O   UNL d   1       8.193   5.532   9.085  0.00  0.00    -0.200 OA
BRANCH  24  27
ATOM     27  C   UNL d   1       6.375   7.295   9.665  0.00  0.00     0.080 A 
ATOM     28  C   UNL d   1       6.186   6.913  10.997  0.00  0.00     0.026 A 
ATOM     29  C   UNL d   1       5.729   7.854  11.924  0.00  0.00     0.008 A 
ATOM     30  C   UNL d   1       5.472   9.177  11.532  0.00  0.00    -0.062 A 
ATOM     31  C   UNL d   1       5.658   9.541  10.192  0.00  0.00     0.008 A 
ATOM     32  C   UNL d   1       5.019  10.190  12.543  0.00  0.00     0.048 C 
ATOM     33  C   UNL d   1       6.107   8.604   9.259  0.00  0.00     0.026 A 
ENDBRANCH  24  27
ENDBRANCH  20  24
ENDBRANCH   1  18
TORSDOF 8
