REMARK  5 active torsions:
REMARK  status: ('A' for Active; 'I' for Inactive)
REMARK    1  A    between atoms: C_9  and  C_1 
REMARK    2  A    between atoms: C_5  and  C_2 
REMARK    3  A    between atoms: O_10  and  N_3 
REMARK    4  A    between atoms: C_6  and  C_8 
REMARK    5  A    between atoms: N_7  and  C_9 
ROOT
ATOM      1  C   UNL d   1      -0.004   0.011  -0.093  0.00  0.00     0.017 A 
ATOM      2  C   UNL d   1      -2.790   0.055   0.030  0.00  0.00    -0.019 A 
ATOM      3  C   UNL d   1      -0.720  -1.189  -0.059  0.00  0.00     0.021 A 
ATOM      4  C   UNL d   1      -0.682   1.232  -0.063  0.00  0.00     0.021 A 
ATOM      5  C   UNL d   1      -2.075   1.255  -0.003  0.00  0.00     0.014 A 
ATOM      6  C   UNL d   1      -2.117  -1.170   0.003  0.00  0.00     0.014 A 
ENDROOT
BRANCH   1   7
ATOM      7  C   UNL d   1       1.423   0.007  -0.115  0.00  0.00    -0.065 C 
ATOM      8  C   UNL d   1       2.624   0.032  -0.053  0.00  0.00    -0.071 C 
BRANCH   8   9
ATOM      9  C   UNL d   1       4.082   0.055   0.122  0.00  0.00     0.365 C 
BRANCH   9  10
ATOM     10  N   UNL d   1       4.455   0.138   1.544  0.00  0.00     0.090 N 
ATOM     11  C   UNL d   1       3.984  -1.025   2.302  0.00  0.00     0.310 C 
ATOM     12  C   UNL d   1       5.907   0.258   1.675  0.00  0.00     0.310 C 
ENDBRANCH   9  10
ENDBRANCH   8   9
ENDBRANCH   1   7
BRANCH   2  13
ATOM     13  C   UNL d   1      -4.263   0.068   0.098  0.00  0.00     0.125 C 
ATOM     14  N   UNL d   1      -4.934   1.176   0.125  0.00  0.00    -0.280 N 
ATOM     15  HN  UNL d   1      -4.530   2.112   0.104  1.00  0.00     0.193 HD
BRANCH  14  16
ATOM     16  O   UNL d   1      -6.300   0.884   0.187  0.00  0.00    -0.290 OA
ATOM     17  H   UNL d   1      -6.700   1.774   0.204  0.00  0.00     0.244 HD
ENDBRANCH  14  16
ENDBRANCH   2  13
TORSDOF 5
