REMARK  5 active torsions:
REMARK  status: ('A' for Active; 'I' for Inactive)
REMARK    1  A    between atoms: N_2  and  C_1 
REMARK    2  A    between atoms: N_5  and  C_1 
REMARK    3  A    between atoms: C_3  and  N_2 
REMARK    4  A    between atoms: C_10  and  N_5 
REMARK    5  A    between atoms: C_9  and  C_10 
ROOT
ATOM      1  C   UNL d   1       1.094  -0.083  -0.086  0.00  0.00     0.172 C 
ATOM      2  S   UNL d   1       0.341   0.625  -1.399  0.00  0.00    -0.041 SA
ENDROOT
BRANCH   1   3
ATOM      3  N   UNL d   1       0.486  -0.638   1.011  0.00  0.00    -0.333 N 
ATOM      4  H   UNL d   1       0.885  -0.350   1.894  0.00  0.00     0.168 HD
BRANCH   3   5
ATOM      5  C   UNL d   1      -0.735  -1.343   1.062  0.00  0.00     0.040 A 
ATOM      6  C   UNL d   1      -1.545  -1.299   2.212  0.00  0.00    -0.035 A 
ATOM      7  C   UNL d   1      -1.323  -0.356   3.362  0.00  0.00     0.050 C 
ATOM      8  C   UNL d   1      -2.666  -2.149   2.288  0.00  0.00     0.009 A 
ATOM      9  C   UNL d   1      -2.987  -3.009   1.238  0.00  0.00     0.001 A 
ATOM     10  C   UNL d   1      -2.201  -3.028   0.094  0.00  0.00     0.002 A 
ATOM     11  C   UNL d   1      -1.081  -2.199   0.007  0.00  0.00     0.030 A 
ENDBRANCH   3   5
ENDBRANCH   1   3
BRANCH   1  12
ATOM     12  N   UNL d   1       2.463  -0.048  -0.035  0.00  0.00    -0.363 N 
ATOM     13  H   UNL d   1       2.877   0.423  -0.831  0.00  0.00     0.162 HD
BRANCH  12  14
ATOM     14  C   UNL d   1       3.279  -1.099   0.552  0.00  0.00     0.162 C 
BRANCH  14  15
ATOM     15  C   UNL d   1       4.334  -0.576   1.479  0.00  0.00    -0.025 A 
ATOM     16  C   UNL d   1       5.590  -1.175   1.520  0.00  0.00     0.096 A 
ATOM     17  N   UNL d   1       6.575  -0.823   2.377  0.00  0.00    -0.375 N 
ATOM     18  C   UNL d   1       6.296   0.172   3.245  0.00  0.00     0.087 A 
ATOM     19  HN  UNL d   1       7.484  -1.286   2.367  1.00  0.00     0.164 HD
ATOM     20  C   UNL d   1       5.080   0.832   3.293  0.00  0.00     0.018 A 
ATOM     21  C   UNL d   1       4.086   0.447   2.398  0.00  0.00     0.011 A 
ENDBRANCH  14  15
ENDBRANCH  12  14
ENDBRANCH   1  12
TORSDOF 5
