REMARK  6 active torsions:
REMARK  status: ('A' for Active; 'I' for Inactive)
REMARK    1  A    between atoms: N_7  and  C_5 
REMARK    2  A    between atoms: N_8  and  C_6 
REMARK    3  A    between atoms: C_9  and  N_7 
REMARK    4  A    between atoms: C_10  and  N_8 
REMARK    5  A    between atoms: O_18  and  C_13 
REMARK    6  A    between atoms: O_17  and  C_14 
ROOT
ATOM      1  N   UNL d   1      -1.072  -0.601  -0.014  0.00  0.00    -0.284 N 
ATOM      2  HN  UNL d   1      -1.997  -1.029  -0.049  1.00  0.00     0.188 HD
ATOM      3  N   UNL d   1      -0.961   0.769   0.073  0.00  0.00    -0.284 N 
ATOM      4  HN  UNL d   1      -1.804   1.339   0.136  1.00  0.00     0.188 HD
ATOM      5  C   UNL d   1       0.245   1.369   0.078  0.00  0.00     0.120 A 
ATOM      6  C   UNL d   1       0.022  -1.384  -0.056  0.00  0.00     0.120 A 
ATOM      7  C   UNL d   1       1.280  -0.800  -0.030  0.00  0.00     0.053 A 
ATOM      8  C   UNL d   1       1.392   0.592   0.015  0.00  0.00     0.053 A 
ENDROOT
BRANCH   5   9
ATOM      9  N   UNL d   1       0.366   2.774   0.149  0.00  0.00    -0.341 N 
ATOM     10  H   UNL d   1       0.853   3.117  -0.671  0.00  0.00     0.167 HD
BRANCH   9  11
ATOM     11  C   UNL d   1      -0.663   3.646   0.578  0.00  0.00     0.036 A 
ATOM     12  C   UNL d   1      -1.455   3.335   1.693  0.00  0.00     0.066 A 
ATOM     13  C   UNL d   1      -2.448   4.212   2.120  0.00  0.00     0.067 A 
ATOM     14  C   UNL d   1      -2.668   5.412   1.459  0.00  0.00     0.036 A 
ATOM     15  C   UNL d   1      -1.881   5.741   0.357  0.00  0.00     0.005 A 
ATOM     16  C   UNL d   1      -0.876   4.868  -0.074  0.00  0.00     0.029 A 
BRANCH  13  17
ATOM     17  O   UNL d   1      -3.229   3.924   3.202  0.00  0.00    -0.361 OA
ATOM     18  H   UNL d   1      -3.011   3.024   3.500  0.00  0.00     0.217 HD
ENDBRANCH  13  17
ENDBRANCH   9  11
ENDBRANCH   5   9
BRANCH   6  19
ATOM     19  N   UNL d   1      -0.085  -2.792  -0.128  0.00  0.00    -0.341 N 
ATOM     20  H   UNL d   1       0.370  -3.210   0.676  0.00  0.00     0.167 HD
BRANCH  19  21
ATOM     21  C   UNL d   1      -1.255  -3.485  -0.518  0.00  0.00     0.036 A 
ATOM     22  C   UNL d   1      -2.023  -3.050  -1.609  0.00  0.00     0.066 A 
ATOM     23  C   UNL d   1      -3.159  -3.755  -1.997  0.00  0.00     0.067 A 
ATOM     24  C   UNL d   1      -3.550  -4.901  -1.319  0.00  0.00     0.036 A 
ATOM     25  C   UNL d   1      -2.791  -5.352  -0.241  0.00  0.00     0.005 A 
ATOM     26  C   UNL d   1      -1.643  -4.655   0.150  0.00  0.00     0.029 A 
BRANCH  23  27
ATOM     27  O   UNL d   1      -3.919  -3.345  -3.053  0.00  0.00    -0.361 OA
ATOM     28  H   UNL d   1      -3.571  -2.491  -3.362  0.00  0.00     0.217 HD
ENDBRANCH  23  27
ENDBRANCH  19  21
ENDBRANCH   6  19
TORSDOF 6
