REMARK  9 active torsions:
REMARK  status: ('A' for Active; 'I' for Inactive)
REMARK    1  A    between atoms: C_2  and  N_1 
REMARK    2  A    between atoms: C_3  and  C_21 
REMARK       I    between atoms: N_8  and  C_3 
REMARK    3  A    between atoms: C_26  and  N_4 
REMARK    4  A    between atoms: N_5  and  N_8 
REMARK    5  A    between atoms: C_16  and  C_14 
REMARK    6  A    between atoms: S_18  and  C_30 
REMARK    7  A    between atoms: C_21  and  S_18 
REMARK    8  A    between atoms: C_27  and  C_26 
REMARK    9  A    between atoms: C_30  and  C_27 
ROOT
ATOM      1  S   UNL d   1       3.262  -2.871  -4.213  0.00  0.00    -0.160 SA
ENDROOT
BRANCH   1   2
ATOM      2  C   UNL d   1       2.409  -1.305  -3.792  0.00  0.00     0.076 C 
BRANCH   2   3
ATOM      3  C   UNL d   1       2.259  -1.248  -2.274  0.00  0.00     0.040 C 
BRANCH   3   4
ATOM      4  C   UNL d   1       1.489  -0.020  -1.769  0.00  0.00     0.273 C 
BRANCH   4   5
ATOM      5  N   UNL d   1       0.107   0.101  -2.264  0.00  0.00     0.091 N 
ATOM      6  C   UNL d   1      -0.750  -1.051  -1.891  0.00  0.00     0.292 C 
ATOM      7  C   UNL d   1      -1.015  -1.210  -0.375  0.00  0.00     0.153 C 
ATOM      8  N   UNL d   1      -1.542   0.043   0.186  0.00  0.00    -0.377 N 
ATOM      9  C   UNL d   1      -0.839   1.279  -0.189  0.00  0.00     0.153 C 
ATOM     10  C   UNL d   1      -0.544   1.321  -1.709  0.00  0.00     0.292 C 
BRANCH   8  11
ATOM     11  C   UNL d   1      -2.728   0.040   0.896  0.00  0.00     0.031 A 
ATOM     12  C   UNL d   1      -3.695   1.037   0.726  0.00  0.00     0.053 A 
ATOM     13  C   UNL d   1      -4.902   1.001   1.430  0.00  0.00     0.036 A 
ATOM     14 CL   UNL d   1      -6.076   2.233   1.167  0.00  0.00    -0.084 Cl
ATOM     15  C   UNL d   1      -5.170  -0.025   2.329  0.00  0.00     0.024 A 
ATOM     16  C   UNL d   1      -4.221  -1.023   2.523  0.00  0.00     0.004 A 
ATOM     17  C   UNL d   1      -3.018  -0.986   1.812  0.00  0.00     0.029 A 
ENDBRANCH   8  11
ENDBRANCH   4   5
ENDBRANCH   3   4
ENDBRANCH   2   3
ENDBRANCH   1   2
BRANCH   1  18
ATOM     18  C   UNL d   1       3.393  -2.650  -6.016  0.00  0.00     0.178 C 
BRANCH  18  19
ATOM     19  C   UNL d   1       4.016  -3.831  -6.753  0.00  0.00     0.245 C 
ATOM     20  N   UNL d   1       4.491  -4.867  -5.962  0.00  0.00    -0.270 N 
ATOM     21  H   UNL d   1       4.380  -4.814  -4.953  0.00  0.00     0.190 HD
ATOM     22  O   UNL d   1       4.084  -3.813  -7.982  0.00  0.00    -0.271 OA
BRANCH  20  23
ATOM     23  N   UNL d   1       4.994  -5.985  -6.553  0.00  0.00    -0.308 N 
ATOM     24  C   UNL d   1       5.444  -6.915  -5.775  0.00  0.00     0.118 C 
ATOM     25  HN  UNL d   1       5.015  -6.085  -7.568  1.00  0.00     0.186 HD
BRANCH  24  26
ATOM     26  C   UNL d   1       5.976  -8.173  -6.348  0.00  0.00    -0.019 A 
ATOM     27  C   UNL d   1       5.915  -8.395  -7.730  0.00  0.00     0.014 A 
ATOM     28  C   UNL d   1       6.407  -9.584  -8.272  0.00  0.00     0.024 A 
ATOM     29  C   UNL d   1       6.961 -10.548  -7.433  0.00  0.00     0.034 A 
ATOM     30  C   UNL d   1       7.026 -10.333  -6.054  0.00  0.00     0.024 A 
ATOM     31 CL   UNL d   1       7.569 -12.012  -8.100  0.00  0.00    -0.084 Cl
ATOM     32  C   UNL d   1       6.531  -9.143  -5.507  0.00  0.00     0.014 A 
ENDBRANCH  24  26
ENDBRANCH  20  23
ENDBRANCH  18  19
ENDBRANCH   1  18
TORSDOF 9
