REMARK  5 active torsions:
REMARK  status: ('A' for Active; 'I' for Inactive)
REMARK    1  A    between atoms: C_8  and  N_1 
REMARK    2  A    between atoms: C_7  and  C_2 
REMARK    3  A    between atoms: N_10  and  C_9 
REMARK    4  A    between atoms: C_12  and  N_10 
REMARK    5  A    between atoms: C_11  and  C_12 
ROOT
ATOM      1  N   UNL d   1       0.874   0.599  -0.133  0.00  0.00    -0.225 N 
ATOM      2  C   UNL d   1       1.054  -0.778  -0.021  0.00  0.00     0.139 C 
ATOM      3  N   UNL d   1      -1.003  -0.278   0.393  0.00  0.00    -0.007 NA
ATOM      4  N   UNL d   1      -0.394   0.888   0.255  0.00  0.00     0.001 NA
ATOM      5  N   UNL d   1      -0.132  -1.318   0.217  0.00  0.00    -0.270 N 
ATOM      6  HN  UNL d   1      -0.353  -2.313   0.260  1.00  0.00     0.185 HD
ENDROOT
BRANCH   2   7
ATOM      7  C   UNL d   1       2.345  -1.363  -0.027  0.00  0.00     0.062 C 
ATOM      8  C   UNL d   1       2.535  -2.669  -0.235  0.00  0.00     0.061 C 
BRANCH   8   9
ATOM      9  N   UNL d   1       3.766  -3.301  -0.199  0.00  0.00    -0.298 NA
ATOM     10  H   UNL d   1       3.674  -4.262   0.132  0.00  0.00     0.127 HD
BRANCH   9  11
ATOM     11  C   UNL d   1       4.668  -3.284  -1.352  0.00  0.00     0.130 C 
BRANCH  11  12
ATOM     12  C   UNL d   1       6.105  -3.361  -0.897  0.00  0.00    -0.045 A 
ATOM     13  C   UNL d   1       6.933  -4.426  -1.283  0.00  0.00     0.008 A 
ATOM     14  C   UNL d   1       8.276  -4.457  -0.897  0.00  0.00     0.001 A 
ATOM     15  C   UNL d   1       8.807  -3.426  -0.125  0.00  0.00     0.000 A 
ATOM     16  C   UNL d   1       7.995  -2.366   0.270  0.00  0.00     0.001 A 
ATOM     17  C   UNL d   1       6.653  -2.334  -0.113  0.00  0.00     0.008 A 
ENDBRANCH  11  12
ENDBRANCH   9  11
ENDBRANCH   8   9
ENDBRANCH   2   7
BRANCH   1  18
ATOM     18  C   UNL d   1       1.759   1.617  -0.572  0.00  0.00     0.056 A 
ATOM     19  C   UNL d   1       2.785   1.331  -1.486  0.00  0.00     0.031 A 
ATOM     20  C   UNL d   1       3.687   2.329  -1.861  0.00  0.00     0.002 A 
ATOM     21  C   UNL d   1       3.564   3.610  -1.334  0.00  0.00     0.000 A 
ATOM     22  C   UNL d   1       2.519   3.911  -0.460  0.00  0.00     0.002 A 
ATOM     23  C   UNL d   1       1.604   2.923  -0.091  0.00  0.00     0.031 A 
ENDBRANCH   1  18
TORSDOF 5
