REMARK  5 active torsions:
REMARK  status: ('A' for Active; 'I' for Inactive)
REMARK       I    between atoms: N_4  and  C_1 
REMARK    1  A    between atoms: O_7  and  C_1 
REMARK    2  A    between atoms: N_2  and  N_4 
REMARK    3  A    between atoms: C_9  and  C_6 
REMARK    4  A    between atoms: C_15  and  O_7 
REMARK    5  A    between atoms: O_11  and  C_10 
ROOT
ATOM      1  N   UNL d   1       1.091  -2.363  -0.530  0.00  0.00    -0.307 N 
ATOM      2  HN  UNL d   1       2.087  -2.435  -0.322  1.00  0.00     0.186 HD
ATOM      3  C   UNL d   1       0.423  -3.340  -1.057  0.00  0.00     0.118 C 
ENDROOT
BRANCH   1   4
ATOM      4  N   UNL d   1       0.376  -1.232  -0.271  0.00  0.00    -0.246 N 
ATOM      5  C   UNL d   1       0.949  -0.089   0.243  0.00  0.00     0.379 C 
ATOM      6  O   UNL d   1       0.298   0.941   0.388  0.00  0.00    -0.237 OA
ATOM      7  H   UNL d   1      -0.599  -1.165  -0.532  0.00  0.00     0.192 HD
BRANCH   5   8
ATOM      8  O   UNL d   1       2.264  -0.231   0.557  0.00  0.00    -0.303 OA
BRANCH   8   9
ATOM      9  C   UNL d   1       2.921   0.942   1.054  0.00  0.00     0.176 C 
ATOM     10  C   UNL d   1       2.684   1.102   2.544  0.00  0.00     0.034 C 
ENDBRANCH   8   9
ENDBRANCH   5   8
ENDBRANCH   1   4
BRANCH   3  11
ATOM     11  C   UNL d   1       1.089  -4.604  -1.430  0.00  0.00    -0.017 A 
ATOM     12  C   UNL d   1       2.459  -4.768  -1.199  0.00  0.00     0.049 A 
ATOM     13  C   UNL d   1       3.076  -5.949  -1.593  0.00  0.00     0.066 A 
ATOM     14  C   UNL d   1       2.351  -6.963  -2.208  0.00  0.00     0.036 A 
ATOM     15  C   UNL d   1       0.982  -6.801  -2.430  0.00  0.00     0.004 A 
ATOM     16  C   UNL d   1       0.346  -5.620  -2.041  0.00  0.00     0.013 A 
BRANCH  13  17
ATOM     17  O   UNL d   1       4.411  -6.148  -1.396  0.00  0.00    -0.361 OA
ATOM     18  H   UNL d   1       4.781  -5.357  -0.966  0.00  0.00     0.217 HD
ENDBRANCH  13  17
ENDBRANCH   3  11
TORSDOF 5
