REMARK  2 active torsions:
REMARK  status: ('A' for Active; 'I' for Inactive)
REMARK       I    between atoms: N_2  and  C_1 
REMARK    1  A    between atoms: C_8  and  C_1 
REMARK    2  A    between atoms: C_5  and  N_2 
ROOT
ATOM      1  C   UNL d   1       1.129   0.036  -0.223  0.00  0.00     0.256 C 
ATOM      2  N   UNL d   1       0.511  -1.173   0.047  0.00  0.00    -0.323 N 
ATOM      3  O   UNL d   1       0.566   1.110  -0.409  0.00  0.00    -0.267 OA
ATOM      4  H   UNL d   1       1.099  -1.923   0.388  0.00  0.00     0.169 HD
ENDROOT
BRANCH   2   5
ATOM      5  C   UNL d   1      -0.885  -1.391   0.092  0.00  0.00     0.036 A 
ATOM      6  C   UNL d   1      -1.822  -0.494  -0.430  0.00  0.00     0.055 A 
ATOM      7  C   UNL d   1      -3.196  -0.738  -0.308  0.00  0.00     0.058 A 
ATOM      8 CL   UNL d   1      -4.284   0.428  -0.975  0.00  0.00    -0.082 Cl
ATOM      9  C   UNL d   1      -3.643  -1.893   0.337  0.00  0.00     0.055 A 
ATOM     10  C   UNL d   1      -2.714  -2.812   0.830  0.00  0.00     0.028 A 
ATOM     11 CL   UNL d   1      -5.320  -2.243   0.560  0.00  0.00    -0.083 Cl
ATOM     12  C   UNL d   1      -1.342  -2.567   0.698  0.00  0.00     0.031 A 
ENDBRANCH   2   5
BRANCH   1  13
ATOM     13  C   UNL d   1       2.616   0.026  -0.214  0.00  0.00     0.032 A 
ATOM     14  C   UNL d   1       3.355  -1.050  -0.719  0.00  0.00     0.017 A 
ATOM     15  C   UNL d   1       4.751  -0.978  -0.746  0.00  0.00     0.001 A 
ATOM     16  C   UNL d   1       5.407   0.161  -0.273  0.00  0.00     0.000 A 
ATOM     17  C   UNL d   1       4.672   1.233   0.230  0.00  0.00     0.001 A 
ATOM     18  C   UNL d   1       3.279   1.168   0.256  0.00  0.00     0.017 A 
ENDBRANCH   1  13
TORSDOF 2
