REMARK  3 active torsions:
REMARK  status: ('A' for Active; 'I' for Inactive)
REMARK    1  A    between atoms: C_2  and  S_1 
REMARK    2  A    between atoms: N_7  and  S_1 
REMARK    3  A    between atoms: C_12  and  N_7 
ROOT
ATOM      1  S   UNL d   1       1.107   0.063   0.092  0.00  0.00     0.253 S 
ATOM      2  O   UNL d   1       1.746  -0.129   1.375  0.00  0.00    -0.205 OA
ATOM      3  O   UNL d   1      -0.064   0.907  -0.027  0.00  0.00    -0.205 OA
ENDROOT
BRANCH   1   4
ATOM      4  C   UNL d   1       0.643  -1.570  -0.481  0.00  0.00     0.122 A 
ATOM      5  S   UNL d   1      -0.579  -1.602  -1.675  0.00  0.00    -0.076 SA
ATOM      6  C   UNL d   1      -0.549  -3.312  -1.797  0.00  0.00     0.017 A 
ATOM      7  C   UNL d   1      -1.344  -4.118  -2.638  0.00  0.00     0.021 A 
ATOM      8  C   UNL d   1       0.400  -3.864  -0.934  0.00  0.00    -0.009 A 
ATOM      9  C   UNL d   1      -1.177  -5.505  -2.606  0.00  0.00     0.025 A 
ATOM     10  C   UNL d   1      -0.248  -6.075  -1.750  0.00  0.00     0.035 A 
ATOM     11  C   UNL d   1       0.538  -5.276  -0.917  0.00  0.00     0.037 A 
ATOM     12 CL   UNL d   1      -0.053  -7.785  -1.712  0.00  0.00    -0.084 Cl
ATOM     13  C   UNL d   1       1.113  -2.844  -0.190  0.00  0.00    -0.021 A 
ATOM     14  C   UNL d   1       2.218  -3.167   0.765  0.00  0.00     0.051 C 
ENDBRANCH   1   4
BRANCH   1  15
ATOM     15  N   UNL d   1       2.256   0.690  -0.993  0.00  0.00    -0.181 NA
ATOM     16  H   UNL d   1       2.303   1.701  -0.856  0.00  0.00     0.146 HD
BRANCH  15  17
ATOM     17  C   UNL d   1       3.523   0.037  -1.044  0.00  0.00     0.024 A 
ATOM     18  C   UNL d   1       3.723  -0.957  -1.999  0.00  0.00     0.050 A 
ATOM     19  C   UNL d   1       4.950  -1.623  -2.074  0.00  0.00     0.057 A 
ATOM     20 CL   UNL d   1       5.128  -2.836  -3.289  0.00  0.00    -0.082 Cl
ATOM     21  C   UNL d   1       5.979  -1.293  -1.182  0.00  0.00     0.055 A 
ATOM     22  C   UNL d   1       5.768  -0.306  -0.215  0.00  0.00     0.027 A 
ATOM     23 CL   UNL d   1       7.524  -2.064  -1.228  0.00  0.00    -0.083 Cl
ATOM     24  C   UNL d   1       4.537   0.356  -0.140  0.00  0.00     0.026 A 
ENDBRANCH  15  17
ENDBRANCH   1  15
TORSDOF 3
