REMARK  2 active torsions:
REMARK  status: ('A' for Active; 'I' for Inactive)
REMARK    1  A    between atoms: C_8  and  N_1 
REMARK    2  A    between atoms: C_12  and  C_5 
ROOT
ATOM      1  N   UNL d   1       2.332  -0.662  -0.015  0.00  0.00    -0.220 N 
ATOM      2  N   UNL d   1       2.312   0.712   0.068  0.00  0.00    -0.289 N 
ATOM      3  HN  UNL d   1       3.191   1.227   0.135  1.00  0.00     0.188 HD
ATOM      4  C   UNL d   1       1.176  -1.445   0.062  0.00  0.00     0.278 C 
ATOM      5  C   UNL d   1       1.182   1.362   0.061  0.00  0.00     0.070 C 
ATOM      6  C   UNL d   1      -0.108  -0.725   0.021  0.00  0.00     0.046 A 
ATOM      7  C   UNL d   1      -0.122   0.662  -0.063  0.00  0.00     0.009 A 
ATOM      8  O   UNL d   1       1.135  -2.671   0.156  0.00  0.00    -0.265 OA
ATOM      9  C   UNL d   1      -1.307  -1.458   0.003  0.00  0.00     0.018 A 
ATOM     10  C   UNL d   1      -1.352   1.305  -0.281  0.00  0.00     0.015 A 
ATOM     11  C   UNL d   1      -2.529  -0.802  -0.131  0.00  0.00     0.001 A 
ATOM     12  C   UNL d   1      -2.548   0.578  -0.290  0.00  0.00     0.001 A 
ENDROOT
BRANCH   1  13
ATOM     13  C   UNL d   1       3.643  -1.232  -0.140  0.00  0.00     0.061 A 
ATOM     14  C   UNL d   1       3.844  -2.505  -0.698  0.00  0.00     0.057 A 
ATOM     15  C   UNL d   1       5.127  -3.057  -0.814  0.00  0.00     0.058 A 
ATOM     16 CL   UNL d   1       5.269  -4.618  -1.543  0.00  0.00    -0.082 Cl
ATOM     17  C   UNL d   1       6.236  -2.342  -0.359  0.00  0.00     0.055 A 
ATOM     18  C   UNL d   1       6.059  -1.070   0.184  0.00  0.00     0.028 A 
ATOM     19 CL   UNL d   1       7.844  -2.969  -0.443  0.00  0.00    -0.083 Cl
ATOM     20  C   UNL d   1       4.776  -0.515   0.277  0.00  0.00     0.033 A 
ENDBRANCH   1  13
BRANCH   5  21
ATOM     21  C   UNL d   1       1.268   2.858   0.173  0.00  0.00    -0.007 A 
ATOM     22  C   UNL d   1       2.316   3.518  -0.482  0.00  0.00     0.014 A 
ATOM     23  C   UNL d   1       2.405   4.912  -0.449  0.00  0.00     0.001 A 
ATOM     24  C   UNL d   1       1.445   5.656   0.234  0.00  0.00     0.000 A 
ATOM     25  C   UNL d   1       0.425   5.006   0.926  0.00  0.00     0.001 A 
ATOM     26  C   UNL d   1       0.355   3.610   0.922  0.00  0.00     0.014 A 
ENDBRANCH   5  21
TORSDOF 2
