REMARK  2 active torsions:
REMARK  status: ('A' for Active; 'I' for Inactive)
REMARK    1  A    between atoms: C_9  and  C_2 
REMARK    2  A    between atoms: C_8  and  C_11 
ROOT
ATOM      1  N   UNL d   1      -0.808   1.237   0.006  0.00  0.00    -0.292 N 
ATOM      2  C   UNL d   1       1.311  -0.003   0.004  0.00  0.00     0.127 A 
ATOM      3  C   UNL d   1      -1.506   0.022   0.011  0.00  0.00     0.197 A 
ATOM      4  N   UNL d   1       0.668  -1.128   0.001  0.00  0.00    -0.291 N 
ATOM      5  HN  UNL d   1       1.183  -2.008   0.017  1.00  0.00     0.187 HD
ATOM      6  C   UNL d   1       0.575   1.310  -0.072  0.00  0.00     0.278 A 
ATOM      7  N   UNL d   1      -0.705  -1.137  -0.024  0.00  0.00    -0.271 N 
ATOM      8  S   UNL d   1      -3.199  -0.054   0.049  0.00  0.00    -0.039 SA
ATOM      9  O   UNL d   1       1.206   2.350  -0.223  0.00  0.00    -0.265 OA
ATOM     10  C   UNL d   1      -1.457   2.548   0.001  0.00  0.00     0.162 C 
ATOM     11  C   UNL d   1      -1.229  -2.513  -0.028  0.00  0.00     0.180 C 
ENDROOT
BRANCH   2  12
ATOM     12  C   UNL d   1       2.802  -0.028   0.059  0.00  0.00    -0.002 A 
ATOM     13  C   UNL d   1       3.534   0.963   0.721  0.00  0.00     0.015 A 
ATOM     14  C   UNL d   1       4.932   0.916   0.740  0.00  0.00     0.017 A 
ATOM     15  C   UNL d   1       5.622  -0.128   0.107  0.00  0.00     0.048 A 
ATOM     16  C   UNL d   1       4.882  -1.136  -0.530  0.00  0.00     0.017 A 
ATOM     17  C   UNL d   1       3.484  -1.090  -0.550  0.00  0.00     0.015 A 
BRANCH  15  18
ATOM     18  C   UNL d   1       7.131  -0.179   0.105  0.00  0.00     0.417 C 
ATOM     19  F   UNL d   1       7.713   0.882   0.732  0.00  0.00    -0.166 F 
ATOM     20  F   UNL d   1       7.615  -1.290   0.726  0.00  0.00    -0.166 F 
ATOM     21  F   UNL d   1       7.649  -0.197  -1.154  0.00  0.00    -0.166 F 
ENDBRANCH  15  18
ENDBRANCH   2  12
TORSDOF 2
