REMARK  3 active torsions:
REMARK  status: ('A' for Active; 'I' for Inactive)
REMARK    1  A    between atoms: C_6  and  N_4 
REMARK    2  A    between atoms: C_15  and  C_8 
REMARK    3  A    between atoms: O_14  and  C_9 
ROOT
ATOM      1  C   UNL d   1       0.794   0.269  -0.111  0.00  0.00     0.141 C 
ATOM      2  N   UNL d   1       0.010  -0.846  -0.220  0.00  0.00    -0.365 N 
ATOM      3  S   UNL d   1      -0.227   1.706  -0.157  0.00  0.00    -0.092 SA
ATOM      4  N   UNL d   1       2.080   0.195   0.012  0.00  0.00    -0.337 N 
ATOM      5  HN  UNL d   1       2.507  -0.732   0.032  1.00  0.00     0.168 HD
ATOM      6  C   UNL d   1      -1.652   0.748  -0.764  0.00  0.00     0.107 C 
ATOM      7  C   UNL d   1      -1.427  -0.657  -0.192  0.00  0.00     0.093 C 
ATOM      8  H   UNL d   1       0.432  -1.728   0.037  0.00  0.00     0.162 HD
ENDROOT
BRANCH   4   9
ATOM      9  C   UNL d   1       2.923   1.312   0.120  0.00  0.00     0.034 A 
ATOM     10  C   UNL d   1       3.953   1.274   1.064  0.00  0.00     0.032 A 
ATOM     11  C   UNL d   1       4.846   2.347   1.218  0.00  0.00     0.039 A 
ATOM     12  C   UNL d   1       4.707   3.483   0.426  0.00  0.00     0.068 A 
ATOM     13  C   UNL d   1       3.709   3.513  -0.548  0.00  0.00     0.039 A 
ATOM     14  C   UNL d   1       2.856   2.421  -0.727  0.00  0.00     0.032 A 
BRANCH  12  15
ATOM     15  O   UNL d   1       5.463   4.620   0.490  0.00  0.00    -0.356 OA
ATOM     16  C   UNL d   1       6.556   4.616   1.399  0.00  0.00     0.210 C 
ENDBRANCH  12  15
ENDBRANCH   4   9
BRANCH   7  17
ATOM     17  C   UNL d   1      -1.995  -0.785   1.231  0.00  0.00     0.021 C 
ATOM     18  C   UNL d   1      -1.816  -2.172   1.827  0.00  0.00     0.007 C 
ENDBRANCH   7  17
TORSDOF 3
