REMARK  1 active torsions:
REMARK  status: ('A' for Active; 'I' for Inactive)
REMARK    1  A    between atoms: C_6  and  N_1 
ROOT
ATOM      1  N   UNL d   1       2.431  -0.654  -0.046  0.00  0.00    -0.264 N 
ATOM      2  C   UNL d   1       1.280  -1.455   0.018  0.00  0.00     0.266 A 
ATOM      3  C   UNL d   1       2.341   0.728  -0.018  0.00  0.00     0.087 A 
ATOM      4  N   UNL d   1       1.216   1.371   0.046  0.00  0.00    -0.345 N 
ATOM      5  HN  UNL d   1       1.205   2.390   0.096  1.00  0.00     0.167 HD
ATOM      6  C   UNL d   1      -0.009  -0.742   0.036  0.00  0.00     0.059 A 
ATOM      7  C   UNL d   1       0.021   0.648   0.046  0.00  0.00     0.049 A 
ATOM      8  O   UNL d   1       1.274  -2.682   0.076  0.00  0.00    -0.267 OA
ATOM      9  C   UNL d   1       3.580   1.593  -0.139  0.00  0.00     0.089 C 
ATOM     10  C   UNL d   1      -1.223  -1.439   0.012  0.00  0.00     0.019 A 
ATOM     11  C   UNL d   1      -1.187   1.347   0.010  0.00  0.00     0.030 A 
ATOM     12  C   UNL d   1      -2.423  -0.731  -0.034  0.00  0.00     0.001 A 
ATOM     13  C   UNL d   1      -2.405   0.663  -0.040  0.00  0.00     0.002 A 
ENDROOT
BRANCH   1  14
ATOM     14  C   UNL d   1       3.678  -1.346  -0.083  0.00  0.00     0.085 A 
ATOM     15  C   UNL d   1       3.945  -2.235  -1.133  0.00  0.00     0.075 A 
ATOM     16  C   UNL d   1       5.136  -2.952  -1.143  0.00  0.00     0.118 A 
ATOM     17  F   UNL d   1       5.390  -3.791  -2.156  0.00  0.00    -0.206 F 
ATOM     18  C   UNL d   1       6.069  -2.814  -0.120  0.00  0.00     0.045 A 
ATOM     19  C   UNL d   1       5.811  -1.933   0.930  0.00  0.00     0.047 A 
ATOM     20  C   UNL d   1       4.622  -1.205   0.942  0.00  0.00     0.143 A 
ATOM     21  F   UNL d   1       4.380  -0.385   1.975  0.00  0.00    -0.204 F 
ENDBRANCH   1  14
TORSDOF 1
