REMARK  2 active torsions:
REMARK  status: ('A' for Active; 'I' for Inactive)
REMARK    1  A    between atoms: C_2  and  C_1 
REMARK       I    between atoms: N_4  and  C_2 
REMARK    2  A    between atoms: C_7  and  N_4 
ROOT
ATOM      1  C   UNL d   1       2.232  -3.508   2.434  0.00  0.00     0.250 C 
ATOM      2  N   UNL d   1       2.690  -4.608   1.742  0.00  0.00    -0.348 N 
ATOM      3  O   UNL d   1       1.041  -3.274   2.606  0.00  0.00    -0.268 OA
ATOM      4  H   UNL d   1       3.674  -4.822   1.764  0.00  0.00     0.163 HD
ENDROOT
BRANCH   1   5
ATOM      5  C   UNL d   1       3.255  -2.533   2.908  0.00  0.00     0.034 C 
ATOM      6  C   UNL d   1       4.446  -2.400   2.302  0.00  0.00     0.029 C 
ATOM      7  C   UNL d   1       5.265  -1.248   2.655  0.00  0.00    -0.000 A 
ATOM      8  C   UNL d   1       6.517  -1.055   2.058  0.00  0.00     0.038 A 
ATOM      9  C   UNL d   1       4.764  -0.280   3.529  0.00  0.00     0.079 A 
ATOM     10  C   UNL d   1       7.245   0.104   2.326  0.00  0.00     0.035 A 
ATOM     11 CL   UNL d   1       8.775   0.342   1.575  0.00  0.00    -0.084 Cl
ATOM     12  C   UNL d   1       6.736   1.079   3.182  0.00  0.00     0.026 A 
ATOM     13  C   UNL d   1       5.494   0.883   3.786  0.00  0.00     0.039 A 
ATOM     14  O   UNL d   1       3.555  -0.372   4.153  0.00  0.00    -0.346 OA
ATOM     15  C   UNL d   1       2.769  -1.559   3.946  0.00  0.00     0.220 C 
ENDBRANCH   1   5
BRANCH   2  16
ATOM     16  C   UNL d   1       1.968  -4.988   0.534  0.00  0.00     0.118 C 
ATOM     17  C   UNL d   1       0.953  -6.109   0.656  0.00  0.00    -0.029 A 
ATOM     18  C   UNL d   1       0.508  -6.756  -0.521  0.00  0.00    -0.050 A 
ATOM     19  C   UNL d   1       0.327  -6.423   1.872  0.00  0.00     0.010 A 
ATOM     20  C   UNL d   1      -0.584  -7.637  -0.464  0.00  0.00     0.007 A 
ATOM     21  C   UNL d   1       1.219  -6.589  -1.845  0.00  0.00     0.039 C 
ATOM     22  C   UNL d   1      -1.212  -7.910   0.749  0.00  0.00     0.001 A 
ATOM     23  C   UNL d   1      -0.740  -7.324   1.919  0.00  0.00     0.001 A 
ATOM     24  C   UNL d   1       2.212  -5.431  -1.904  0.00  0.00     0.007 C 
ATOM     25  C   UNL d   1       2.967  -5.278  -0.594  0.00  0.00     0.030 C 
ENDBRANCH   2  16
TORSDOF 2
