REMARK  12 active torsions:
REMARK  status: ('A' for Active; 'I' for Inactive)
REMARK    1  A    between atoms: C_5  and  N_7 
REMARK    2  A    between atoms: N_8  and  C_6 
REMARK    3  A    between atoms: N_7  and  C_29 
REMARK    4  A    between atoms: C_28  and  N_8 
REMARK    5  A    between atoms: C_31  and  N_9 
REMARK    6  A    between atoms: N_11  and  C_30 
REMARK    7  A    between atoms: C_17  and  C_22 
REMARK    8  A    between atoms: C_21  and  C_18 
REMARK    9  A    between atoms: C_29  and  C_19 
REMARK   10  A    between atoms: C_20  and  C_28 
REMARK   11  A    between atoms: C_27  and  C_31 
REMARK   12  A    between atoms: C_30  and  C_27 
ROOT
ATOM      1  N   UNL d   1      18.187  12.027  -5.137  0.00  0.00    -0.197 NA
ATOM      2  C   UNL d   1      17.402  11.269  -4.762  0.00  0.00     0.060 C 
ATOM      3  C   UNL d   1      16.409  10.290  -4.291  0.00  0.00     0.143 C 
ENDROOT
BRANCH   3   4
ATOM      4  C   UNL d   1      16.795   8.885  -4.761  0.00  0.00     0.136 C 
BRANCH   4   5
ATOM      5  N   UNL d   1      15.910   7.861  -4.179  0.00  0.00    -0.384 N 
ATOM      6  C   UNL d   1      16.534   6.952  -3.219  0.00  0.00     0.149 C 
BRANCH   5   7
ATOM      7  C   UNL d   1      14.576   7.736  -4.536  0.00  0.00     0.029 A 
ATOM      8  C   UNL d   1      14.068   8.224  -5.756  0.00  0.00     0.030 A 
ATOM      9  C   UNL d   1      12.712   8.102  -6.114  0.00  0.00     0.015 A 
ATOM     10  C   UNL d   1      11.828   7.484  -5.239  0.00  0.00    -0.021 A 
ATOM     11  C   UNL d   1      12.299   6.985  -4.026  0.00  0.00     0.015 A 
ATOM     12  C   UNL d   1      13.647   7.120  -3.684  0.00  0.00     0.030 A 
BRANCH  10  13
ATOM     13  C   UNL d   1      10.392   7.351  -5.566  0.00  0.00     0.094 C 
ATOM     14  N   UNL d   1       9.598   6.842  -4.695  0.00  0.00    -0.398 N 
ATOM     15  HN  UNL d   1       9.943   6.569  -3.775  1.00  0.00     0.158 HD
BRANCH  14  16
ATOM     16  C   UNL d   1       8.195   6.662  -5.045  0.00  0.00     0.120 C 
BRANCH  16  17
ATOM     17  C   UNL d   1       7.578   5.744  -3.972  0.00  0.00     0.039 C 
BRANCH  17  18
ATOM     18  C   UNL d   1       8.236   4.371  -4.072  0.00  0.00     0.120 C 
BRANCH  18  19
ATOM     19  N   UNL d   1       7.684   3.389  -3.141  0.00  0.00    -0.398 N 
ATOM     20  C   UNL d   1       8.245   2.220  -3.068  0.00  0.00     0.094 C 
ATOM     21  HN  UNL d   1       6.876   3.616  -2.562  1.00  0.00     0.158 HD
BRANCH  20  22
ATOM     22  C   UNL d   1       9.384   1.647  -3.843  0.00  0.00    -0.021 C 
ATOM     23  C   UNL d   1      10.237   0.750  -3.197  0.00  0.00     0.015 C 
ATOM     24  C   UNL d   1      11.410   0.315  -3.833  0.00  0.00     0.030 C 
ATOM     25  C   UNL d   1      11.765   0.777  -5.111  0.00  0.00     0.029 C 
ATOM     26  C   UNL d   1      10.824   1.544  -5.797  0.00  0.00     0.030 C 
ATOM     27  C   UNL d   1       9.643   1.958  -5.177  0.00  0.00     0.015 C 
BRANCH  25  28
ATOM     28  N   UNL d   1      13.049   0.523  -5.609  0.00  0.00    -0.384 N 
ATOM     29  C   UNL d   1      13.259  -0.870  -6.015  0.00  0.00     0.149 C 
BRANCH  28  30
ATOM     30  C   UNL d   1      13.680   1.540  -6.487  0.00  0.00     0.136 C 
BRANCH  30  31
ATOM     31  C   UNL d   1      13.860   2.898  -5.786  0.00  0.00     0.143 C 
ATOM     32  C   UNL d   1      14.513   3.874  -6.670  0.00  0.00     0.060 C 
ATOM     33  N   UNL d   1      15.020   4.644  -7.370  0.00  0.00    -0.197 NA
ENDBRANCH  30  31
ENDBRANCH  28  30
ENDBRANCH  25  28
ENDBRANCH  20  22
ENDBRANCH  18  19
ENDBRANCH  17  18
ENDBRANCH  16  17
ENDBRANCH  14  16
ENDBRANCH  10  13
ENDBRANCH   5   7
ENDBRANCH   4   5
ENDBRANCH   3   4
TORSDOF 12
