REMARK  6 active torsions:
REMARK  status: ('A' for Active; 'I' for Inactive)
REMARK    1  A    between atoms: C_2  and  C_10 
REMARK    2  A    between atoms: C_3  and  C_11 
REMARK    3  A    between atoms: O_9  and  C_6 
REMARK    4  A    between atoms: O_8  and  C_7 
REMARK    5  A    between atoms: C_11  and  O_8 
REMARK    6  A    between atoms: C_10  and  O_9 
ROOT
ATOM      1  C   UNL d   1      -0.435   0.006  -0.232  0.00  0.00     0.111 A 
ATOM      2  C   UNL d   1      -1.872   0.014  -0.357  0.00  0.00     0.105 C 
ATOM      3  N   UNL d   1      -3.029   0.021  -0.443  0.00  0.00    -0.191 NA
ATOM      4  C   UNL d   1       0.274   1.221  -0.180  0.00  0.00     0.092 A 
ATOM      5  C   UNL d   1       0.260  -1.216  -0.172  0.00  0.00     0.092 A 
ATOM      6  C   UNL d   1       2.335  -0.009   0.158  0.00  0.00     0.006 A 
ATOM      7  C   UNL d   1       1.657   1.201   0.041  0.00  0.00     0.038 A 
ATOM      8  C   UNL d   1       1.643  -1.212   0.046  0.00  0.00     0.038 A 
ENDROOT
BRANCH   4   9
ATOM      9  O   UNL d   1      -0.446   2.377  -0.364  0.00  0.00    -0.341 OA
BRANCH   9  10
ATOM     10  C   UNL d   1       0.301   3.555  -0.705  0.00  0.00     0.293 C 
BRANCH  10  11
ATOM     11  C   UNL d   1      -0.587   4.655  -1.277  0.00  0.00     0.408 C 
ATOM     12  F   UNL d   1      -1.874   4.550  -0.892  0.00  0.00    -0.169 F 
ATOM     13  F   UNL d   1      -0.141   5.870  -0.872  0.00  0.00    -0.169 F 
ATOM     14  F   UNL d   1      -0.552   4.650  -2.630  0.00  0.00    -0.169 F 
ENDBRANCH  10  11
ENDBRANCH   9  10
ENDBRANCH   4   9
BRANCH   5  15
ATOM     15  O   UNL d   1      -0.472  -2.367  -0.339  0.00  0.00    -0.341 OA
BRANCH  15  16
ATOM     16  C   UNL d   1       0.261  -3.539  -0.730  0.00  0.00     0.293 C 
BRANCH  16  17
ATOM     17  C   UNL d   1      -0.646  -4.637  -1.278  0.00  0.00     0.408 C 
ATOM     18  F   UNL d   1      -1.948  -4.444  -0.991  0.00  0.00    -0.169 F 
ATOM     19  F   UNL d   1      -0.526  -4.731  -2.623  0.00  0.00    -0.169 F 
ATOM     20  F   UNL d   1      -0.290  -5.839  -0.762  0.00  0.00    -0.169 F 
ENDBRANCH  16  17
ENDBRANCH  15  16
ENDBRANCH   5  15
TORSDOF 6
