REMARK  4 active torsions:
REMARK  status: ('A' for Active; 'I' for Inactive)
REMARK    1  A    between atoms: S_11  and  C_1 
REMARK    2  A    between atoms: C_4  and  C_15 
REMARK       I    between atoms: N_9  and  C_4 
REMARK    3  A    between atoms: C_10  and  N_9 
REMARK    4  A    between atoms: C_15  and  S_11 
ROOT
ATOM      1  C   UNL d   1      -1.355   5.181   0.384  0.00  0.00     0.231 C 
ATOM      2  N   UNL d   1      -0.148   5.777   0.058  0.00  0.00    -0.326 N 
ATOM      3  O   UNL d   1      -2.379   5.779   0.709  0.00  0.00    -0.272 OA
ATOM      4  H   UNL d   1       0.586   5.143  -0.243  0.00  0.00     0.169 HD
ENDROOT
BRANCH   1   5
ATOM      5  C   UNL d   1      -1.381   3.669   0.191  0.00  0.00     0.185 C 
BRANCH   5   6
ATOM      6  S   UNL d   1       0.186   2.862   0.640  0.00  0.00    -0.085 SA
BRANCH   6   7
ATOM      7  C   UNL d   1       0.215   3.261   2.369  0.00  0.00     0.144 A 
ATOM      8  N   UNL d   1      -0.914   3.099   3.075  0.00  0.00    -0.347 N 
ATOM      9  C   UNL d   1      -0.842   3.400   4.387  0.00  0.00     0.091 A 
ATOM     10  HN  UNL d   1      -1.777   2.768   2.644  1.00  0.00     0.167 HD
ATOM     11  C   UNL d   1       0.303   3.845   5.001  0.00  0.00     0.034 A 
ATOM     12  C   UNL d   1       1.399   3.979   4.183  0.00  0.00     0.091 A 
ATOM     13  N   UNL d   1       1.384   3.698   2.865  0.00  0.00    -0.347 N 
ATOM     14  HN  UNL d   1       2.211   3.810   2.280  1.00  0.00     0.167 HD
ENDBRANCH   6   7
ENDBRANCH   5   6
ENDBRANCH   1   5
BRANCH   2  15
ATOM     15  C   UNL d   1       0.199   7.139   0.158  0.00  0.00     0.036 A 
ATOM     16  C   UNL d   1      -0.644   8.124   0.683  0.00  0.00     0.056 A 
ATOM     17  C   UNL d   1      -0.206   9.447   0.774  0.00  0.00     0.074 A 
ATOM     18 CL   UNL d   1      -1.249  10.642   1.448  0.00  0.00    -0.081 Cl
ATOM     19  C   UNL d   1       1.069   9.793   0.333  0.00  0.00     0.138 A 
ATOM     20  C   UNL d   1       1.915   8.827  -0.197  0.00  0.00     0.046 A 
ATOM     21  F   UNL d   1       1.506  11.058   0.415  0.00  0.00    -0.204 F 
ATOM     22  C   UNL d   1       1.482   7.501  -0.280  0.00  0.00     0.032 A 
ENDBRANCH   2  15
TORSDOF 4
