REMARK  4 active torsions:
REMARK  status: ('A' for Active; 'I' for Inactive)
REMARK    1  A    between atoms: N_2  and  C_1 
REMARK    2  A    between atoms: N_3  and  C_1 
REMARK    3  A    between atoms: C_5  and  N_2 
REMARK    4  A    between atoms: C_6  and  N_3 
ROOT
ATOM      1  C   UNL d   1       0.961   0.095  -0.065  0.00  0.00     0.176 C 
ATOM      2  S   UNL d   1       2.585   0.485   0.011  0.00  0.00    -0.041 SA
ENDROOT
BRANCH   1   3
ATOM      3  N   UNL d   1       0.422  -1.171  -0.085  0.00  0.00    -0.333 N 
ATOM      4  H   UNL d   1      -0.315  -1.284  -0.773  0.00  0.00     0.168 HD
BRANCH   3   5
ATOM      5  C   UNL d   1       0.886  -2.343   0.534  0.00  0.00     0.034 A 
ATOM      6  C   UNL d   1       1.561  -2.311   1.761  0.00  0.00     0.032 A 
ATOM      7  C   UNL d   1       1.905  -3.503   2.398  0.00  0.00     0.044 A 
ATOM      8  C   UNL d   1       1.593  -4.719   1.802  0.00  0.00     0.116 A 
ATOM      9  C   UNL d   1       0.926  -4.765   0.583  0.00  0.00     0.044 A 
ATOM     10  F   UNL d   1       1.923  -5.861   2.418  0.00  0.00    -0.206 F 
ATOM     11  C   UNL d   1       0.554  -3.575  -0.043  0.00  0.00     0.032 A 
ENDBRANCH   3   5
ENDBRANCH   1   3
BRANCH   1  12
ATOM     12  N   UNL d   1       0.053   1.102  -0.295  0.00  0.00    -0.333 N 
ATOM     13  H   UNL d   1       0.454   1.964  -0.652  0.00  0.00     0.168 HD
BRANCH  12  14
ATOM     14  C   UNL d   1      -1.276   1.177   0.170  0.00  0.00     0.034 A 
ATOM     15  C   UNL d   1      -1.735   0.420   1.256  0.00  0.00     0.032 A 
ATOM     16  C   UNL d   1      -3.041   0.579   1.724  0.00  0.00     0.044 A 
ATOM     17  C   UNL d   1      -3.886   1.482   1.095  0.00  0.00     0.116 A 
ATOM     18  C   UNL d   1      -3.444   2.246   0.020  0.00  0.00     0.044 A 
ATOM     19  F   UNL d   1      -5.142   1.630   1.537  0.00  0.00    -0.206 F 
ATOM     20  C   UNL d   1      -2.128   2.108  -0.429  0.00  0.00     0.032 A 
ENDBRANCH  12  14
ENDBRANCH   1  12
TORSDOF 4
