REMARK  4 active torsions:
REMARK  status: ('A' for Active; 'I' for Inactive)
REMARK    1  A    between atoms: C_7  and  C_1 
REMARK    2  A    between atoms: C_8  and  N_2 
REMARK       I    between atoms: N_9  and  C_7 
REMARK    3  A    between atoms: C_15  and  N_9 
REMARK    4  A    between atoms: C_21  and  C_15 
ROOT
ATOM      1  C   UNL d   1      -0.223   1.156   0.075  0.00  0.00     0.073 A 
ATOM      2  N   UNL d   1       1.023  -0.696   0.017  0.00  0.00    -0.260 N 
ATOM      3  C   UNL d   1       1.095   0.702   0.039  0.00  0.00     0.048 A 
ATOM      4  N   UNL d   1      -0.251  -1.128  -0.119  0.00  0.00    -0.304 N 
ATOM      5  HN  UNL d   1      -0.573  -2.085  -0.263  1.00  0.00     0.186 HD
ATOM      6  C   UNL d   1      -0.989  -0.029  -0.022  0.00  0.00     0.126 A 
ATOM      7  C   UNL d   1       2.372   1.450  -0.122  0.00  0.00     0.071 C 
ENDROOT
BRANCH   1   8
ATOM      8  C   UNL d   1      -0.816   2.489   0.074  0.00  0.00     0.255 C 
ATOM      9  N   UNL d   1       0.020   3.566   0.258  0.00  0.00    -0.353 N 
ATOM     10  H   UNL d   1       0.988   3.429   0.496  0.00  0.00     0.163 HD
ATOM     11  O   UNL d   1      -2.025   2.633  -0.095  0.00  0.00    -0.268 OA
BRANCH   9  12
ATOM     12  C   UNL d   1      -0.442   4.918   0.021  0.00  0.00     0.161 C 
BRANCH  12  13
ATOM     13  C   UNL d   1      -0.712   5.726   1.265  0.00  0.00    -0.038 A 
ATOM     14  C   UNL d   1      -0.618   7.122   1.204  0.00  0.00     0.025 A 
ATOM     15  C   UNL d   1      -0.948   7.870   2.325  0.00  0.00     0.088 A 
ATOM     16  N   UNL d   1      -1.361   7.332   3.489  0.00  0.00    -0.375 N 
ATOM     17  C   UNL d   1      -1.467   5.986   3.526  0.00  0.00     0.088 A 
ATOM     18  HN  UNL d   1      -1.583   7.910   4.299  1.00  0.00     0.164 HD
ATOM     19  C   UNL d   1      -1.165   5.154   2.458  0.00  0.00     0.025 A 
ENDBRANCH  12  13
ENDBRANCH   9  12
ENDBRANCH   1   8
BRANCH   2  20
ATOM     20  C   UNL d   1       2.080  -1.651   0.032  0.00  0.00     0.056 A 
ATOM     21  C   UNL d   1       3.264  -1.415   0.745  0.00  0.00     0.034 A 
ATOM     22  C   UNL d   1       4.324  -2.318   0.648  0.00  0.00     0.044 A 
ATOM     23  C   UNL d   1       4.195  -3.451  -0.148  0.00  0.00     0.116 A 
ATOM     24  C   UNL d   1       3.006  -3.727  -0.813  0.00  0.00     0.044 A 
ATOM     25  F   UNL d   1       5.233  -4.287  -0.275  0.00  0.00    -0.206 F 
ATOM     26  C   UNL d   1       1.934  -2.838  -0.705  0.00  0.00     0.034 A 
ENDBRANCH   2  20
TORSDOF 4
