REMARK  5 active torsions:
REMARK  status: ('A' for Active; 'I' for Inactive)
REMARK    1  A    between atoms: C_5  and  C_1 
REMARK    2  A    between atoms: C_11  and  C_3 
REMARK    3  A    between atoms: C_6  and  C_5 
REMARK    4  A    between atoms: N_12  and  C_8 
REMARK    5  A    between atoms: C_16  and  N_12 
ROOT
ATOM      1  C   UNL d   1      -1.053  -3.699   0.619  0.00  0.00     0.110 C 
ATOM      2  C   UNL d   1      -0.770  -5.021   0.650  0.00  0.00     0.115 C 
ATOM      3  C   UNL d   1      -0.141  -2.778   1.214  0.00  0.00     0.105 C 
ATOM      4  N   UNL d   1       0.635  -2.055   1.688  0.00  0.00    -0.191 NA
ENDROOT
BRANCH   1   5
ATOM      5  C   UNL d   1      -2.344  -3.266  -0.014  0.00  0.00     0.206 C 
ATOM      6  O   UNL d   1      -3.140  -4.098  -0.448  0.00  0.00    -0.286 OA
BRANCH   5   7
ATOM      7  C   UNL d   1      -2.639  -1.832  -0.054  0.00  0.00     0.048 A 
ATOM      8  C   UNL d   1      -1.760  -0.712  -0.146  0.00  0.00     0.056 A 
ATOM      9  C   UNL d   1      -2.518   0.432  -0.058  0.00  0.00     0.086 A 
ATOM     10  O   UNL d   1      -3.836   0.097  -0.031  0.00  0.00    -0.314 OA
ATOM     11  C   UNL d   1      -3.913  -1.268  -0.041  0.00  0.00     0.064 A 
ATOM     12  C   UNL d   1      -5.295  -1.802   0.001  0.00  0.00     0.077 C 
BRANCH   9  13
ATOM     13  C   UNL d   1      -2.177   1.842   0.045  0.00  0.00    -0.002 A 
ATOM     14  C   UNL d   1      -2.976   2.837  -0.531  0.00  0.00     0.016 A 
ATOM     15  C   UNL d   1      -2.615   4.186  -0.426  0.00  0.00     0.024 A 
ATOM     16  C   UNL d   1      -1.460   4.546   0.266  0.00  0.00     0.034 A 
ATOM     17  C   UNL d   1      -0.655   3.570   0.846  0.00  0.00     0.024 A 
ATOM     18 CL   UNL d   1      -1.025   6.205   0.409  0.00  0.00    -0.084 Cl
ATOM     19  C   UNL d   1      -1.011   2.224   0.731  0.00  0.00     0.016 A 
ENDBRANCH   9  13
ENDBRANCH   5   7
ENDBRANCH   1   5
BRANCH   2  20
ATOM     20  N   UNL d   1       0.309  -5.649   1.239  0.00  0.00    -0.364 N 
ATOM     21  H   UNL d   1       0.950  -5.068   1.776  0.00  0.00     0.165 HD
BRANCH  20  22
ATOM     22  C   UNL d   1       0.714  -6.993   1.135  0.00  0.00     0.032 A 
ATOM     23  C   UNL d   1       0.291  -7.849   0.112  0.00  0.00     0.031 A 
ATOM     24  C   UNL d   1       0.699  -9.188   0.081  0.00  0.00     0.026 A 
ATOM     25  C   UNL d   1       1.514  -9.691   1.092  0.00  0.00     0.034 A 
ATOM     26  C   UNL d   1       1.927  -8.864   2.131  0.00  0.00     0.026 A 
ATOM     27 CL   UNL d   1       2.007 -11.339   1.057  0.00  0.00    -0.084 Cl
ATOM     28  C   UNL d   1       1.526  -7.526   2.151  0.00  0.00     0.031 A 
ENDBRANCH  20  22
ENDBRANCH   2  20
TORSDOF 5
