REMARK  3 active torsions:
REMARK  status: ('A' for Active; 'I' for Inactive)
REMARK    1  A    between atoms: C_4  and  N_1 
REMARK    2  A    between atoms: C_2  and  O_6 
REMARK    3  A    between atoms: O_6  and  C_11 
ROOT
ATOM      1  C   UNL d   1      -2.017  -5.649  -0.530  0.00  0.00     0.163 A 
ATOM      2  C   UNL d   1      -1.927  -6.830  -1.272  0.00  0.00     0.042 A 
ATOM      3  C   UNL d   1      -1.939  -8.004  -0.510  0.00  0.00     0.049 A 
ATOM      4  N   UNL d   1      -2.155  -5.605   0.808  0.00  0.00    -0.332 N 
ATOM      5  HN  UNL d   1      -2.283  -4.730   1.316  1.00  0.00     0.168 HD
ATOM      6  N   UNL d   1      -2.017  -7.990   0.826  0.00  0.00    -0.351 N 
ATOM      7  HN  UNL d   1      -2.005  -8.854   1.368  1.00  0.00     0.166 HD
ATOM      8  C   UNL d   1      -1.844  -6.892  -2.683  0.00  0.00     0.020 A 
ATOM      9  C   UNL d   1      -1.876  -9.222  -1.176  0.00  0.00     0.054 A 
ATOM     10  C   UNL d   1      -2.112  -6.791   1.423  0.00  0.00     0.182 A 
ATOM     11  C   UNL d   1      -1.796  -9.284  -2.569  0.00  0.00     0.036 A 
ATOM     12  C   UNL d   1      -1.777  -8.122  -3.328  0.00  0.00     0.025 A 
ATOM     13 CL   UNL d   1      -1.721 -10.813  -3.354  0.00  0.00    -0.084 Cl
ENDROOT
BRANCH   1  14
ATOM     14  O   UNL d   1      -2.115  -4.470  -1.261  0.00  0.00    -0.276 OA
BRANCH  14  15
ATOM     15  C   UNL d   1      -1.642  -3.312  -0.676  0.00  0.00     0.149 A 
ATOM     16  C   UNL d   1      -2.335  -2.147  -0.983  0.00  0.00     0.059 A 
ATOM     17  C   UNL d   1      -1.879  -0.941  -0.456  0.00  0.00     0.041 A 
ATOM     18  C   UNL d   1      -0.740  -0.954   0.352  0.00  0.00     0.118 A 
ATOM     19  C   UNL d   1      -0.079  -2.155   0.567  0.00  0.00     0.126 A 
ATOM     20  N   UNL d   1      -0.495  -3.335   0.042  0.00  0.00    -0.344 N 
ATOM     21  HN  UNL d   1       0.032  -4.197   0.182  1.00  0.00     0.167 HD
BRANCH  18  22
ATOM     22  N   UNL d   1      -0.251   0.268   0.974  0.00  0.00    -0.114 N 
ATOM     23  O   UNL d   1       0.746   0.185   1.703  0.00  0.00    -0.532 OA
ATOM     24  O   UNL d   1      -0.867   1.317   0.739  0.00  0.00    -0.532 OA
ENDBRANCH  18  22
ENDBRANCH  14  15
ENDBRANCH   1  14
TORSDOF 3
