REMARK  2 active torsions:
REMARK  status: ('A' for Active; 'I' for Inactive)
REMARK    1  A    between atoms: C_2  and  N_1 
REMARK    2  A    between atoms: C_5  and  C_3 
ROOT
ATOM      1  C   UNL d   1      -0.024  -2.337  -0.284  0.00  0.00     0.124 A 
ATOM      2  C   UNL d   1       0.827  -3.125   0.487  0.00  0.00     0.092 A 
ATOM      3  N   UNL d   1      -0.534  -2.816  -1.451  0.00  0.00    -0.351 N 
ATOM      4  HN  UNL d   1      -1.168  -2.238  -2.003  1.00  0.00     0.166 HD
ATOM      5  C   UNL d   1       1.135  -4.426   0.015  0.00  0.00     0.021 A 
ATOM      6  C   UNL d   1      -0.206  -4.050  -1.881  0.00  0.00     0.089 A 
ATOM      7  C   UNL d   1       0.619  -4.896  -1.185  0.00  0.00     0.018 A 
ENDROOT
BRANCH   1   8
ATOM      8  N   UNL d   1      -0.469  -1.035   0.066  0.00  0.00    -0.308 N 
ATOM      9  C   UNL d   1      -0.884  -0.048  -0.862  0.00  0.00     0.175 C 
ATOM     10  N   UNL d   1      -1.738   0.835  -0.200  0.00  0.00    -0.365 N 
ATOM     11  S   UNL d   1      -0.476   0.204  -2.452  0.00  0.00    -0.041 SA
ATOM     12  C   UNL d   1      -2.131   0.295   1.067  0.00  0.00     0.142 C 
ATOM     13  H   UNL d   1      -2.254   1.528  -0.729  0.00  0.00     0.161 HD
ATOM     14  C   UNL d   1      -1.038  -0.723   1.366  0.00  0.00     0.153 C 
ENDBRANCH   1   8
BRANCH   2  15
ATOM     15  C   UNL d   1       1.543  -2.720   1.739  0.00  0.00     0.421 C 
ATOM     16  F   UNL d   1       1.397  -1.438   2.150  0.00  0.00    -0.166 F 
ATOM     17  F   UNL d   1       1.163  -3.488   2.803  0.00  0.00    -0.166 F 
ATOM     18  F   UNL d   1       2.893  -2.902   1.635  0.00  0.00    -0.166 F 
ENDBRANCH   2  15
TORSDOF 2
