REMARK  4 active torsions:
REMARK  status: ('A' for Active; 'I' for Inactive)
REMARK    1  A    between atoms: C_2  and  N_1 
REMARK    2  A    between atoms: C_3  and  N_1 
REMARK    3  A    between atoms: N_4  and  C_2 
REMARK    4  A    between atoms: C_5  and  N_4 
ROOT
ATOM      1  C   UNL d   1       0.389  -1.573   0.461  0.00  0.00     0.177 C 
ATOM      2  S   UNL d   1      -1.242  -1.657   0.091  0.00  0.00    -0.040 SA
ENDROOT
BRANCH   1   3
ATOM      3  N   UNL d   1       1.155  -0.443   0.533  0.00  0.00    -0.319 N 
ATOM      4  H   UNL d   1       2.096  -0.547   0.186  0.00  0.00     0.170 HD
BRANCH   3   5
ATOM      5  C   UNL d   1       0.776   0.829   0.998  0.00  0.00     0.113 A 
ATOM      6  N   UNL d   1      -0.312   0.922   1.791  0.00  0.00    -0.352 N 
ATOM      7  C   UNL d   1      -0.596   2.113   2.353  0.00  0.00     0.089 A 
ATOM      8  HN  UNL d   1      -0.906   0.110   1.961  1.00  0.00     0.166 HD
ATOM      9  C   UNL d   1       0.183   3.242   2.186  0.00  0.00     0.018 A 
ATOM     10  C   UNL d   1       1.296   3.144   1.365  0.00  0.00     0.012 A 
ATOM     11  C   UNL d   1       1.606   1.928   0.741  0.00  0.00    -0.018 A 
ATOM     12  C   UNL d   1       2.777   1.859  -0.195  0.00  0.00     0.052 C 
ENDBRANCH   3   5
ENDBRANCH   1   3
BRANCH   1  13
ATOM     13  N   UNL d   1       1.064  -2.765   0.553  0.00  0.00    -0.332 N 
ATOM     14  H   UNL d   1       0.532  -3.556   0.194  0.00  0.00     0.168 HD
BRANCH  13  15
ATOM     15  C   UNL d   1       2.177  -3.135   1.351  0.00  0.00     0.056 A 
ATOM     16  C   UNL d   1       2.630  -4.468   1.287  0.00  0.00     0.060 A 
ATOM     17 CL   UNL d   1       1.925  -5.599   0.180  0.00  0.00    -0.082 Cl
ATOM     18  C   UNL d   1       3.648  -4.927   2.128  0.00  0.00     0.026 A 
ATOM     19  C   UNL d   1       4.233  -4.059   3.046  0.00  0.00     0.002 A 
ATOM     20  C   UNL d   1       3.802  -2.736   3.118  0.00  0.00     0.002 A 
ATOM     21  C   UNL d   1       2.778  -2.277   2.279  0.00  0.00     0.031 A 
ENDBRANCH  13  15
ENDBRANCH   1  13
TORSDOF 4
