REMARK  4 active torsions:
REMARK  status: ('A' for Active; 'I' for Inactive)
REMARK    1  A    between atoms: C_3  and  CA_1 
REMARK    2  A    between atoms: N_4  and  CA_1 
REMARK    3  A    between atoms: C_7  and  C_2 
REMARK    4  A    between atoms: OXT_13  and  C_3 
REMARK       I    between atoms: C_5  and  N_4 
ROOT
ATOM      1  CA  UNL d   1      -0.705  -0.276   1.117  0.00  0.00     0.110 C 
ATOM      2  C   UNL d   1       0.353  -1.054   0.816  0.00  0.00     0.048 C 
ENDROOT
BRANCH   1   3
ATOM      3  C   UNL d   1      -1.526  -0.312   2.381  0.00  0.00     0.193 C 
ATOM      4  O   UNL d   1      -2.307   0.608   2.621  0.00  0.00    -0.645 OA
BRANCH   3   5
ATOM      5  OXT UNL d   1      -1.444  -1.380   3.189  0.00  0.00    -0.772 OA
ATOM      6  HXT UNL d   1      -0.839  -2.087   2.909  0.00  0.00     0.167 HD
ENDBRANCH   3   5
ENDBRANCH   1   3
BRANCH   1   7
ATOM      7  N   UNL d   1      -1.167   0.720   0.251  0.00  0.00    -0.322 N 
ATOM      8  C   UNL d   1      -0.726   1.074  -1.007  0.00  0.00     0.218 C 
ATOM      9  O   UNL d   1       0.214   0.570  -1.615  0.00  0.00    -0.274 OA
ATOM     10  C   UNL d   1      -1.528   2.181  -1.641  0.00  0.00     0.117 C 
ATOM     11  H   UNL d   1      -1.955   1.242   0.638  0.00  0.00     0.169 HD
ENDBRANCH   1   7
BRANCH   2  12
ATOM     12  C   UNL d   1       0.971  -2.144   1.567  0.00  0.00    -0.033 A 
ATOM     13  C   UNL d   1       2.030  -1.903   2.446  0.00  0.00     0.018 A 
ATOM     14  C   UNL d   1       2.656  -2.965   3.120  0.00  0.00    -0.055 A 
ATOM     15  C   UNL d   1       3.849  -2.683   3.994  0.00  0.00     0.049 C 
ATOM     16  C   UNL d   1       2.172  -4.278   2.943  0.00  0.00    -0.056 A 
ATOM     17  C   UNL d   1       1.107  -4.506   2.059  0.00  0.00     0.008 A 
ATOM     18  C   UNL d   1       2.791  -5.448   3.659  0.00  0.00     0.049 C 
ATOM     19  C   UNL d   1       0.521  -3.451   1.364  0.00  0.00     0.012 A 
ENDBRANCH   2  12
TORSDOF 4
