REMARK  4 active torsions:
REMARK  status: ('A' for Active; 'I' for Inactive)
REMARK    1  A    between atoms: C_2  and  S_1 
REMARK    2  A    between atoms: C_8  and  S_1 
REMARK    3  A    between atoms: N_6  and  C_3 
REMARK    4  A    between atoms: C_13  and  N_4 
ROOT
ATOM      1  C   UNL d   1      -0.714   0.583   3.400  0.00  0.00     0.159 C 
ATOM      2  C   UNL d   1      -0.247   0.949   2.194  0.00  0.00     0.121 C 
ATOM      3  C   UNL d   1      -1.801   1.240   4.025  0.00  0.00     0.113 C 
ATOM      4  N   UNL d   1      -2.723   1.764   4.494  0.00  0.00    -0.191 NA
ENDROOT
BRANCH   1   5
ATOM      5  S   UNL d   1       0.022  -0.741   4.231  0.00  0.00     0.218 S 
ATOM      6  O   UNL d   1       0.437  -0.309   5.557  0.00  0.00    -0.216 OA
ATOM      7  O   UNL d   1       0.978  -1.423   3.376  0.00  0.00    -0.216 OA
BRANCH   5   8
ATOM      8  C   UNL d   1      -1.329  -1.880   4.470  0.00  0.00     0.065 A 
ATOM      9  C   UNL d   1      -1.529  -2.917   3.553  0.00  0.00     0.025 A 
ATOM     10  C   UNL d   1      -2.577  -3.817   3.756  0.00  0.00     0.025 A 
ATOM     11  C   UNL d   1      -3.406  -3.679   4.871  0.00  0.00     0.034 A 
ATOM     12  C   UNL d   1      -3.190  -2.658   5.796  0.00  0.00     0.025 A 
ATOM     13 CL   UNL d   1      -4.701  -4.786   5.111  0.00  0.00    -0.084 Cl
ATOM     14  C   UNL d   1      -2.140  -1.758   5.604  0.00  0.00     0.025 A 
ENDBRANCH   5   8
ENDBRANCH   1   5
BRANCH   2  15
ATOM     15  N   UNL d   1      -0.607   2.047   1.433  0.00  0.00    -0.385 N 
ATOM     16  C   UNL d   1      -0.602   3.436   1.958  0.00  0.00     0.142 C 
ATOM     17  C   UNL d   1       0.187   4.363   1.007  0.00  0.00     0.143 C 
ATOM     18  N   UNL d   1      -0.372   4.264  -0.356  0.00  0.00    -0.378 N 
ATOM     19  C   UNL d   1      -0.359   2.897  -0.908  0.00  0.00     0.143 C 
ATOM     20  C   UNL d   1      -1.118   1.947   0.048  0.00  0.00     0.142 C 
BRANCH  18  21
ATOM     21  C   UNL d   1      -0.462   5.387  -1.154  0.00  0.00     0.030 A 
ATOM     22  C   UNL d   1      -0.977   6.586  -0.636  0.00  0.00     0.029 A 
ATOM     23  C   UNL d   1      -1.139   7.728  -1.426  0.00  0.00     0.002 A 
ATOM     24  C   UNL d   1      -0.782   7.697  -2.768  0.00  0.00     0.000 A 
ATOM     25  C   UNL d   1      -0.267   6.525  -3.311  0.00  0.00     0.002 A 
ATOM     26  C   UNL d   1      -0.113   5.385  -2.511  0.00  0.00     0.029 A 
ENDBRANCH  18  21
ENDBRANCH   2  15
TORSDOF 4
