REMARK  6 active torsions:
REMARK  status: ('A' for Active; 'I' for Inactive)
REMARK    1  A    between atoms: C_5  and  C_1 
REMARK    2  A    between atoms: C_6  and  C_5 
REMARK    3  A    between atoms: S_13  and  C_6 
REMARK    4  A    between atoms: C_14  and  N_7 
REMARK    5  A    between atoms: C_15  and  S_13 
REMARK    6  A    between atoms: C_17  and  C_15 
ROOT
ATOM      1  C   UNL d   1      -3.944   2.131  -1.474  0.00  0.00     0.217 C 
ATOM      2  C   UNL d   1      -3.549   2.328  -2.876  0.00  0.00     0.078 C 
ATOM      3  N   UNL d   1      -3.234   2.495  -3.985  0.00  0.00    -0.196 NA
ENDROOT
BRANCH   1   4
ATOM      4  C   UNL d   1      -5.163   2.946  -1.141  0.00  0.00     0.106 A 
ATOM      5  N   UNL d   1      -5.255   3.843  -0.175  0.00  0.00    -0.343 N 
ATOM      6  C   UNL d   1      -6.523   4.373  -0.276  0.00  0.00     0.060 A 
ATOM      7  HN  UNL d   1      -4.537   4.092   0.504  1.00  0.00     0.167 HD
ATOM      8  C   UNL d   1      -7.138   5.381   0.479  0.00  0.00     0.032 A 
ATOM      9  C   UNL d   1      -7.232   3.766  -1.304  0.00  0.00     0.060 A 
ATOM     10  C   UNL d   1      -8.455   5.745   0.172  0.00  0.00     0.002 A 
ATOM     11  C   UNL d   1      -9.146   5.117  -0.866  0.00  0.00     0.002 A 
ATOM     12  C   UNL d   1      -8.549   4.107  -1.632  0.00  0.00     0.032 A 
ATOM     13  N   UNL d   1      -6.354   2.855  -1.831  0.00  0.00    -0.343 N 
ATOM     14  H   UNL d   1      -6.547   2.218  -2.597  0.00  0.00     0.167 HD
ENDBRANCH   1   4
BRANCH   1  15
ATOM     15  C   UNL d   1      -4.233   0.653  -1.208  0.00  0.00     0.072 C 
ATOM     16  N   UNL d   1      -5.183   0.090  -1.900  0.00  0.00    -0.353 N 
ATOM     17  HN  UNL d   1      -5.657   0.689  -2.576  1.00  0.00     0.166 HD
BRANCH  16  18
ATOM     18  C   UNL d   1      -5.636  -1.237  -1.832  0.00  0.00     0.032 A 
ATOM     19  C   UNL d   1      -7.005  -1.438  -2.042  0.00  0.00     0.029 A 
ATOM     20  C   UNL d   1      -7.577  -2.715  -1.975  0.00  0.00     0.002 A 
ATOM     21  C   UNL d   1      -6.775  -3.815  -1.694  0.00  0.00     0.000 A 
ATOM     22  C   UNL d   1      -5.402  -3.643  -1.547  0.00  0.00     0.002 A 
ATOM     23  C   UNL d   1      -4.836  -2.366  -1.652  0.00  0.00     0.029 A 
ENDBRANCH  16  18
BRANCH  15  24
ATOM     24  S   UNL d   1      -3.158  -0.141  -0.052  0.00  0.00    -0.110 SA
BRANCH  24  25
ATOM     25  C   UNL d   1      -3.441   0.793   1.477  0.00  0.00     0.119 C 
BRANCH  25  26
ATOM     26  C   UNL d   1      -2.599   0.254   2.618  0.00  0.00    -0.048 A 
ATOM     27  C   UNL d   1      -1.354   0.824   2.931  0.00  0.00     0.009 A 
ATOM     28  C   UNL d   1      -0.587   0.337   3.995  0.00  0.00     0.024 A 
ATOM     29  C   UNL d   1      -1.052  -0.735   4.751  0.00  0.00     0.034 A 
ATOM     30  C   UNL d   1      -2.277  -1.326   4.447  0.00  0.00     0.024 A 
ATOM     31 CL   UNL d   1      -0.114  -1.331   6.065  0.00  0.00    -0.084 Cl
ATOM     32  C   UNL d   1      -3.044  -0.837   3.385  0.00  0.00     0.009 A 
ENDBRANCH  25  26
ENDBRANCH  24  25
ENDBRANCH  15  24
ENDBRANCH   1  15
TORSDOF 6
