REMARK  4 active torsions:
REMARK  status: ('A' for Active; 'I' for Inactive)
REMARK    1  A    between atoms: O_5  and  C_1 
REMARK    2  A    between atoms: C_8  and  C_2 
REMARK    3  A    between atoms: C_7  and  O_5 
REMARK    4  A    between atoms: O_9  and  C_8 
ROOT
ATOM      1  C   UNL d   1       1.209   0.843   0.035  0.00  0.00     0.091 A 
ATOM      2  C   UNL d   1       0.944  -0.360  -0.586  0.00  0.00     0.040 A 
ATOM      3  S   UNL d   1      -0.632  -0.926  -0.203  0.00  0.00    -0.101 SA
ATOM      4  C   UNL d   1       0.151   1.245   0.909  0.00  0.00     0.045 A 
ATOM      5  C   UNL d   1      -0.924   0.388   0.848  0.00  0.00     0.053 A 
ENDROOT
BRANCH   1   6
ATOM      6  O   UNL d   1       2.384   1.495  -0.170  0.00  0.00    -0.310 OA
BRANCH   6   7
ATOM      7  C   UNL d   1       2.481   2.848   0.055  0.00  0.00     0.076 A 
ATOM      8  C   UNL d   1       3.567   3.312   0.794  0.00  0.00     0.037 A 
ATOM      9  C   UNL d   1       3.684   4.675   1.074  0.00  0.00     0.003 A 
ATOM     10  C   UNL d   1       2.721   5.570   0.605  0.00  0.00     0.000 A 
ATOM     11  C   UNL d   1       1.656   5.109  -0.170  0.00  0.00     0.003 A 
ATOM     12  C   UNL d   1       1.545   3.750  -0.461  0.00  0.00     0.037 A 
ENDBRANCH   6   7
ENDBRANCH   1   6
BRANCH   2  13
ATOM     13  C   UNL d   1       1.815  -1.161  -1.495  0.00  0.00     0.213 C 
BRANCH  13  14
ATOM     14  O   UNL d   1       1.444  -0.862  -2.834  0.00  0.00    -0.396 OA
ATOM     15  H   UNL d   1       0.499  -1.077  -2.916  0.00  0.00     0.209 HD
ENDBRANCH  13  14
ENDBRANCH   2  13
TORSDOF 4
