REMARK  5 active torsions:
REMARK  status: ('A' for Active; 'I' for Inactive)
REMARK    1  A    between atoms: C_5  and  C_1 
REMARK    2  A    between atoms: N_4  and  C_2 
REMARK       I    between atoms: C_3  and  N_4 
REMARK    3  A    between atoms: C_6  and  C_3 
REMARK    4  A    between atoms: O_14  and  C_5 
REMARK    5  A    between atoms: C_20  and  O_14 
ROOT
ATOM      1  C   UNL d   1       1.151  -0.010   0.215  0.00  0.00     0.066 A 
ATOM      2  C   UNL d   1       0.513   1.191  -0.146  0.00  0.00     0.051 A 
ATOM      3  C   UNL d   1       0.390  -1.194   0.298  0.00  0.00     0.026 A 
ATOM      4  C   UNL d   1      -0.881   1.207  -0.284  0.00  0.00     0.031 A 
ATOM      5  C   UNL d   1      -0.994  -1.181   0.082  0.00  0.00    -0.061 A 
ATOM      6  C   UNL d   1      -1.630   0.037  -0.158  0.00  0.00     0.009 A 
ATOM      7  C   UNL d   1      -1.792  -2.450   0.115  0.00  0.00     0.048 C 
ENDROOT
BRANCH   2   8
ATOM      8  N   UNL d   1       1.264   2.372  -0.370  0.00  0.00    -0.322 N 
ATOM      9  C   UNL d   1       0.940   3.313  -1.335  0.00  0.00     0.256 C 
ATOM     10  O   UNL d   1       0.011   3.202  -2.132  0.00  0.00    -0.267 OA
ATOM     11  H   UNL d   1       2.210   2.363   0.005  0.00  0.00     0.169 HD
BRANCH   9  12
ATOM     12  C   UNL d   1       1.779   4.545  -1.403  0.00  0.00     0.032 A 
ATOM     13  C   UNL d   1       3.046   4.664  -0.817  0.00  0.00     0.018 A 
ATOM     14  C   UNL d   1       3.712   5.896  -0.836  0.00  0.00     0.025 A 
ATOM     15  C   UNL d   1       3.122   7.002  -1.448  0.00  0.00     0.034 A 
ATOM     16  C   UNL d   1       1.889   6.883  -2.081  0.00  0.00     0.025 A 
ATOM     17 CL   UNL d   1       3.918   8.525  -1.411  0.00  0.00    -0.084 Cl
ATOM     18  C   UNL d   1       1.224   5.656  -2.064  0.00  0.00     0.018 A 
ENDBRANCH   9  12
ENDBRANCH   2   8
BRANCH   1  19
ATOM     19  C   UNL d   1       2.629  -0.043   0.459  0.00  0.00     0.295 C 
ATOM     20  O   UNL d   1       3.330   0.959   0.517  0.00  0.00    -0.259 OA
BRANCH  19  21
ATOM     21  O   UNL d   1       3.046  -1.318   0.615  0.00  0.00    -0.318 OA
BRANCH  21  22
ATOM     22  C   UNL d   1       4.437  -1.516   0.907  0.00  0.00     0.174 C 
ATOM     23  C   UNL d   1       5.246  -1.551  -0.376  0.00  0.00     0.034 C 
ENDBRANCH  21  22
ENDBRANCH  19  21
ENDBRANCH   1  19
TORSDOF 5
