REMARK  2 active torsions:
REMARK  status: ('A' for Active; 'I' for Inactive)
REMARK    1  A    between atoms: C_6  and  C_2 
REMARK    2  A    between atoms: O_18  and  C_7 
ROOT
ATOM      1  C   UNL d   1       0.204  -0.614  -0.319  0.00  0.00     0.060 A 
ATOM      2  C   UNL d   1       1.601  -1.015  -0.284  0.00  0.00    -0.002 A 
ATOM      3  C   UNL d   1       2.410  -0.072  -0.897  0.00  0.00     0.065 A 
ATOM      4  C   UNL d   1       0.058   0.596  -0.988  0.00  0.00     0.090 A 
ATOM      5  S   UNL d   1       1.536   1.257  -1.510  0.00  0.00    -0.082 SA
ATOM      6  C   UNL d   1      -1.004  -1.146   0.158  0.00  0.00     0.155 A 
ATOM      7  N   UNL d   1      -1.089   1.252  -1.230  0.00  0.00    -0.346 N 
ATOM      8  HN  UNL d   1      -1.137   2.145  -1.721  1.00  0.00     0.167 HD
ATOM      9  N   UNL d   1      -2.176  -0.545  -0.084  0.00  0.00    -0.332 N 
ATOM     10  HN  UNL d   1      -3.054  -0.955   0.236  1.00  0.00     0.168 HD
ATOM     11  C   UNL d   1      -2.159   0.609  -0.757  0.00  0.00     0.183 A 
ENDROOT
BRANCH   2  12
ATOM     12  C   UNL d   1       2.193  -2.219   0.301  0.00  0.00    -0.024 A 
ATOM     13  C   UNL d   1       3.330  -2.125   1.119  0.00  0.00     0.024 A 
ATOM     14  C   UNL d   1       3.859  -3.257   1.765  0.00  0.00    -0.025 A 
ATOM     15  C   UNL d   1       4.999  -3.167   2.581  0.00  0.00     0.012 A 
ATOM     16  C   UNL d   1       3.220  -4.506   1.606  0.00  0.00    -0.026 A 
ATOM     17  C   UNL d   1       5.478  -4.287   3.261  0.00  0.00     0.001 A 
ATOM     18  C   UNL d   1       4.823  -5.508   3.138  0.00  0.00     0.001 A 
ATOM     19  C   UNL d   1       3.705  -5.620   2.310  0.00  0.00     0.012 A 
ATOM     20  C   UNL d   1       2.113  -4.604   0.748  0.00  0.00     0.013 A 
ATOM     21  C   UNL d   1       1.622  -3.477   0.084  0.00  0.00     0.013 A 
ENDBRANCH   2  12
BRANCH   6  22
ATOM     22  O   UNL d   1      -1.104  -2.285   0.917  0.00  0.00    -0.345 OA
ATOM     23  H   UNL d   1      -0.245  -2.424   1.339  0.00  0.00     0.219 HD
ENDBRANCH   6  22
TORSDOF 2
