REMARK  5 active torsions:
REMARK  status: ('A' for Active; 'I' for Inactive)
REMARK       I    between atoms: C_2  and  N_1 
REMARK       I    between atoms: N_8  and  C_2 
REMARK    1  A    between atoms: C_6  and  C_3 
REMARK    2  A    between atoms: C_4  and  C_10 
REMARK    3  A    between atoms: C_7  and  C_6 
REMARK       I    between atoms: N_11  and  C_7 
REMARK    4  A    between atoms: C_18  and  N_8 
REMARK    5  A    between atoms: C_21  and  N_11 
ROOT
ATOM      1  N   UNL d   1      -1.428  -1.061   0.370  0.00  0.00    -0.318 N 
ATOM      2  C   UNL d   1      -2.240  -1.954   1.049  0.00  0.00     0.323 C 
ATOM      3  C   UNL d   1       0.070  -1.165   0.413  0.00  0.00     0.189 C 
ATOM      4  C   UNL d   1       0.683   0.051   1.165  0.00  0.00     0.241 C 
ATOM      5  N   UNL d   1      -3.598  -1.745   0.956  0.00  0.00    -0.309 N 
ATOM      6  N   UNL d   1       0.082   1.272   0.964  0.00  0.00    -0.358 N 
ATOM      7  O   UNL d   1      -1.769  -2.905   1.671  0.00  0.00    -0.247 OA
ATOM      8  O   UNL d   1       1.755   0.026   1.766  0.00  0.00    -0.271 OA
ATOM      9  C   UNL d   1      -1.876   0.238  -0.170  0.00  0.00     0.148 C 
ATOM     10  C   UNL d   1      -1.329   1.396   0.671  0.00  0.00     0.142 C 
ATOM     11  H   UNL d   1      -3.931  -1.215   0.174  0.00  0.00     0.170 HD
ATOM     12  H   UNL d   1       0.541   2.022   1.471  0.00  0.00     0.162 HD
ENDROOT
BRANCH   3  13
ATOM     13  C   UNL d   1       0.763  -2.445   0.908  0.00  0.00     0.138 C 
BRANCH  13  14
ATOM     14  C   UNL d   1       0.694  -3.569  -0.102  0.00  0.00     0.224 C 
ATOM     15  N   UNL d   1      -0.257  -4.527   0.190  0.00  0.00    -0.327 N 
ATOM     16  H   UNL d   1      -0.963  -4.248   0.875  0.00  0.00     0.169 HD
ATOM     17  O   UNL d   1       1.427  -3.560  -1.088  0.00  0.00    -0.273 OA
BRANCH  15  18
ATOM     18  C   UNL d   1      -0.483  -5.720  -0.523  0.00  0.00     0.034 A 
ATOM     19  C   UNL d   1       0.484  -6.307  -1.346  0.00  0.00     0.032 A 
ATOM     20  C   UNL d   1       0.191  -7.465  -2.070  0.00  0.00     0.044 A 
ATOM     21  C   UNL d   1      -1.071  -8.035  -1.967  0.00  0.00     0.116 A 
ATOM     22  C   UNL d   1      -2.032  -7.490  -1.125  0.00  0.00     0.044 A 
ATOM     23  F   UNL d   1      -1.365  -9.123  -2.691  0.00  0.00    -0.206 F 
ATOM     24  C   UNL d   1      -1.732  -6.340  -0.387  0.00  0.00     0.032 A 
ENDBRANCH  15  18
ENDBRANCH  13  14
ENDBRANCH   3  13
BRANCH   5  25
ATOM     25  C   UNL d   1      -4.603  -2.388   1.727  0.00  0.00     0.036 A 
ATOM     26  C   UNL d   1      -4.335  -3.244   2.800  0.00  0.00     0.030 A 
ATOM     27  C   UNL d   1      -5.371  -3.761   3.585  0.00  0.00     0.018 A 
ATOM     28  C   UNL d   1      -6.701  -3.420   3.326  0.00  0.00     0.048 A 
ATOM     29  C   UNL d   1      -6.976  -2.603   2.220  0.00  0.00     0.018 A 
ATOM     30  C   UNL d   1      -5.938  -2.097   1.427  0.00  0.00     0.030 A 
BRANCH  28  31
ATOM     31  C   UNL d   1      -7.809  -3.875   4.243  0.00  0.00     0.417 C 
ATOM     32  F   UNL d   1      -7.376  -4.639   5.285  0.00  0.00    -0.166 F 
ATOM     33  F   UNL d   1      -8.473  -2.826   4.805  0.00  0.00    -0.166 F 
ATOM     34  F   UNL d   1      -8.754  -4.616   3.603  0.00  0.00    -0.166 F 
ENDBRANCH  28  31
ENDBRANCH   5  25
TORSDOF 5
