REMARK  6 active torsions:
REMARK  status: ('A' for Active; 'I' for Inactive)
REMARK    1  A    between atoms: O_6  and  N_1 
REMARK    2  A    between atoms: C_5  and  C_3 
REMARK    3  A    between atoms: N_20  and  C_3 
REMARK    4  A    between atoms: C_4  and  O_6 
REMARK    5  A    between atoms: C_9  and  C_4 
REMARK    6  A    between atoms: C_10  and  C_11 
ROOT
ATOM      1  N   UNL d   1      -0.649  -3.551  -1.855  0.00  0.00    -0.246 N 
ATOM      2  HN  UNL d   1      -0.968  -3.911  -0.956  1.00  0.00     0.196 HD
ATOM      3  C   UNL d   1      -1.152  -3.892  -3.004  0.00  0.00     0.109 C 
ENDROOT
BRANCH   1   4
ATOM      4  O   UNL d   1       0.395  -2.618  -2.014  0.00  0.00    -0.193 OA
BRANCH   4   5
ATOM      5  C   UNL d   1       0.843  -2.239  -0.782  0.00  0.00     0.315 C 
ATOM      6  O   UNL d   1       0.161  -1.973   0.198  0.00  0.00    -0.257 OA
BRANCH   5   7
ATOM      7  C   UNL d   1       2.332  -2.199  -0.779  0.00  0.00     0.041 A 
ATOM      8  C   UNL d   1       2.987  -1.709   0.352  0.00  0.00     0.018 A 
ATOM      9  C   UNL d   1       4.387  -1.717   0.419  0.00  0.00     0.009 A 
ATOM     10  C   UNL d   1       5.173  -2.212  -0.642  0.00  0.00    -0.051 A 
ATOM     11  C   UNL d   1       4.494  -2.710  -1.766  0.00  0.00     0.009 A 
ATOM     12  C   UNL d   1       3.096  -2.704  -1.838  0.00  0.00     0.018 A 
BRANCH  10  13
ATOM     13  C   UNL d   1       6.709  -2.192  -0.545  0.00  0.00    -0.024 C 
ATOM     14  C   UNL d   1       7.416  -2.760  -1.797  0.00  0.00     0.019 C 
ATOM     15  C   UNL d   1       7.193  -0.734  -0.370  0.00  0.00     0.019 C 
ATOM     16  C   UNL d   1       7.181  -3.030   0.661  0.00  0.00     0.019 C 
ENDBRANCH  10  13
ENDBRANCH   5   7
ENDBRANCH   4   5
ENDBRANCH   1   4
BRANCH   3  17
ATOM     17  C   UNL d   1      -2.141  -5.014  -3.019  0.00  0.00     0.007 A 
ATOM     18  C   UNL d   1      -2.283  -5.803  -4.164  0.00  0.00     0.057 A 
ATOM     19  C   UNL d   1      -3.170  -6.873  -4.149  0.00  0.00     0.123 A 
ATOM     20  F   UNL d   1      -3.285  -7.628  -5.251  0.00  0.00    -0.206 F 
ATOM     21  C   UNL d   1      -3.928  -7.180  -3.016  0.00  0.00    -0.023 A 
ATOM     22  C   UNL d   1      -3.776  -6.391  -1.870  0.00  0.00     0.011 A 
ATOM     23  C   UNL d   1      -4.869  -8.345  -3.040  0.00  0.00     0.051 C 
ATOM     24  C   UNL d   1      -2.883  -5.315  -1.870  0.00  0.00     0.015 A 
ENDBRANCH   3  17
BRANCH   3  25
ATOM     25  N   UNL d   1      -0.821  -3.285  -4.194  0.00  0.00    -0.286 NA
ATOM     26  H   UNL d   1      -0.381  -2.380  -4.038  0.00  0.00     0.125 HD
ATOM     27  H   UNL d   1      -1.579  -3.215  -4.864  0.00  0.00     0.125 HD
ENDBRANCH   3  25
TORSDOF 6
