REMARK  3 active torsions:
REMARK  status: ('A' for Active; 'I' for Inactive)
REMARK       I    between atoms: C_2  and  N_1 
REMARK    1  A    between atoms: C_3  and  N_1 
REMARK    2  A    between atoms: C_4  and  C_2 
REMARK    3  A    between atoms: O_13  and  N_7 
ROOT
ATOM      1  N   UNL d   1       1.093  -0.336   0.067  0.00  0.00    -0.320 N 
ATOM      2  C   UNL d   1       0.409  -1.535   0.108  0.00  0.00     0.263 C 
ATOM      3  O   UNL d   1       0.842  -2.675   0.150  0.00  0.00    -0.267 OA
ATOM      4  H   UNL d   1       0.547   0.499   0.243  0.00  0.00     0.169 HD
ENDROOT
BRANCH   1   5
ATOM      5  C   UNL d   1       2.498  -0.174  -0.001  0.00  0.00     0.074 A 
ATOM      6  C   UNL d   1       3.409  -1.171  -0.389  0.00  0.00     0.146 A 
ATOM      7  C   UNL d   1       4.783  -0.949  -0.365  0.00  0.00     0.086 A 
ATOM      8  F   UNL d   1       3.001  -2.349  -0.875  0.00  0.00    -0.204 F 
ATOM      9  C   UNL d   1       5.261   0.292   0.022  0.00  0.00     0.119 A 
ATOM     10  C   UNL d   1       4.387   1.318   0.360  0.00  0.00     0.044 A 
ATOM     11  F   UNL d   1       6.582   0.511   0.055  0.00  0.00    -0.206 F 
ATOM     12  C   UNL d   1       3.007   1.089   0.341  0.00  0.00     0.036 A 
ENDBRANCH   1   5
BRANCH   2  13
ATOM     13  C   UNL d   1      -1.087  -1.359   0.125  0.00  0.00     0.188 C 
ATOM     14  N   UNL d   1      -1.772  -1.709   1.161  0.00  0.00    -0.275 N 
ATOM     15  HN  UNL d   1      -1.385  -2.084   2.027  1.00  0.00     0.193 HD
BRANCH  14  16
ATOM     16  O   UNL d   1      -3.131  -1.491   0.904  0.00  0.00    -0.290 OA
ATOM     17  H   UNL d   1      -3.561  -1.979   1.634  0.00  0.00     0.244 HD
ENDBRANCH  14  16
ENDBRANCH   2  13
TORSDOF 3
