REMARK  4 active torsions:
REMARK  status: ('A' for Active; 'I' for Inactive)
REMARK    1  A    between atoms: C_8  and  C_1 
REMARK    2  A    between atoms: C_3  and  C_5 
REMARK    3  A    between atoms: C_9  and  C_4 
REMARK    4  A    between atoms: O_11  and  C_9 
ROOT
ATOM      1  C   UNL d   1      -0.391  -1.233   0.004  0.00  0.00     0.051 A 
ATOM      2  S   UNL d   1       1.300  -0.934  -0.004  0.00  0.00    -0.078 SA
ATOM      3  C   UNL d   1       1.089   0.755  -0.003  0.00  0.00     0.059 A 
ATOM      4  C   UNL d   1      -1.097  -0.042   0.004  0.00  0.00     0.025 A 
ATOM      5  C   UNL d   1      -0.242   1.106   0.000  0.00  0.00     0.029 A 
ENDROOT
BRANCH   3   6
ATOM      6  C   UNL d   1       2.193   1.655  -0.004  0.00  0.00    -0.056 C 
ATOM      7  C   UNL d   1       3.168   2.356  -0.003  0.00  0.00    -0.063 C 
BRANCH   7   8
ATOM      8  C   UNL d   1       4.385   3.180   0.003  0.00  0.00     0.114 C 
ATOM      9  C   UNL d   1       4.469   4.019  -1.270  0.00  0.00     0.060 C 
ATOM     10  C   UNL d   1       4.421   4.065   1.246  0.00  0.00     0.060 C 
BRANCH   8  11
ATOM     11  O   UNL d   1       5.529   2.329   0.050  0.00  0.00    -0.378 OA
ATOM     12  H   UNL d   1       5.460   1.711  -0.698  0.00  0.00     0.211 HD
ENDBRANCH   8  11
ENDBRANCH   7   8
ENDBRANCH   3   6
BRANCH   1  13
ATOM     13  C   UNL d   1      -0.840  -2.621   0.009  0.00  0.00     0.162 C 
ATOM     14  O   UNL d   1      -0.070  -3.586   0.009  0.00  0.00    -0.292 OA
ATOM     15  C   UNL d   1      -2.321  -2.907   0.016  0.00  0.00     0.097 C 
ENDBRANCH   1  13
TORSDOF 4
