REMARK  3 active torsions:
REMARK  status: ('A' for Active; 'I' for Inactive)
REMARK    1  A    between atoms: C_2  and  C_1 
REMARK       I    between atoms: N_4  and  C_2 
REMARK    2  A    between atoms: N_7  and  N_4 
REMARK    3  A    between atoms: C_11  and  N_7 
ROOT
ATOM      1  C   UNL d   1       2.381  -2.009   0.163  0.00  0.00     0.269 C 
ATOM      2  N   UNL d   1       2.536  -3.382   0.189  0.00  0.00    -0.283 N 
ATOM      3  O   UNL d   1       1.310  -1.466  -0.097  0.00  0.00    -0.266 OA
ATOM      4  H   UNL d   1       3.450  -3.823   0.186  0.00  0.00     0.184 HD
ENDROOT
BRANCH   2   5
ATOM      5  N   UNL d   1       1.444  -4.176  -0.191  0.00  0.00    -0.203 NA
ATOM      6  H   UNL d   1       0.613  -3.589  -0.344  0.00  0.00     0.153 HD
BRANCH   5   7
ATOM      7  C   UNL d   1       1.162  -5.243   0.700  0.00  0.00     0.027 A 
ATOM      8  C   UNL d   1      -0.139  -5.769   0.733  0.00  0.00     0.027 A 
ATOM      9  C   UNL d   1      -0.453  -6.878   1.527  0.00  0.00     0.026 A 
ATOM     10  C   UNL d   1       0.543  -7.494   2.278  0.00  0.00     0.034 A 
ATOM     11  C   UNL d   1       1.849  -7.018   2.231  0.00  0.00     0.026 A 
ATOM     12 CL   UNL d   1       0.164  -8.859   3.253  0.00  0.00    -0.084 Cl
ATOM     13  C   UNL d   1       2.157  -5.909   1.435  0.00  0.00     0.027 A 
ENDBRANCH   5   7
ENDBRANCH   2   5
BRANCH   1  14
ATOM     14  C   UNL d   1       3.588  -1.191   0.473  0.00  0.00     0.072 A 
ATOM     15  C   UNL d   1       4.792  -1.758   0.906  0.00  0.00     0.135 A 
ATOM     16  C   UNL d   1       5.887  -0.964   1.235  0.00  0.00     0.085 A 
ATOM     17  F   UNL d   1       4.929  -3.088   1.020  0.00  0.00    -0.205 F 
ATOM     18  C   UNL d   1       5.779   0.415   1.124  0.00  0.00     0.119 A 
ATOM     19  C   UNL d   1       4.600   1.008   0.684  0.00  0.00     0.043 A 
ATOM     20  F   UNL d   1       6.825   1.186   1.447  0.00  0.00    -0.206 F 
ATOM     21  C   UNL d   1       3.502   0.206   0.359  0.00  0.00     0.023 A 
ENDBRANCH   1  14
TORSDOF 3
