REMARK  4 active torsions:
REMARK  status: ('A' for Active; 'I' for Inactive)
REMARK    1  A    between atoms: S_2  and  N_1 
REMARK    2  A    between atoms: C_10  and  S_2 
REMARK    3  A    between atoms: C_7  and  C_3 
REMARK    4  A    between atoms: O_12  and  C_7 
ROOT
ATOM      1  N   UNL d   1       1.516   1.120  -0.045  0.00  0.00    -0.245 N 
ATOM      2  C   UNL d   1       1.665  -1.114   0.069  0.00  0.00     0.066 A 
ATOM      3  C   UNL d   1       2.396   0.064   0.056  0.00  0.00     0.129 A 
ATOM      4  C   UNL d   1       0.210   0.679  -0.060  0.00  0.00     0.061 A 
ATOM      5  C   UNL d   1       0.279  -0.722   0.039  0.00  0.00     0.010 A 
ATOM      6  C   UNL d   1      -1.029   1.338  -0.174  0.00  0.00     0.031 A 
ATOM      7  C   UNL d   1      -0.927  -1.460   0.069  0.00  0.00     0.015 A 
ATOM      8  C   UNL d   1      -2.156  -0.804  -0.011  0.00  0.00     0.001 A 
ATOM      9  C   UNL d   1      -2.203   0.576  -0.144  0.00  0.00     0.002 A 
ENDROOT
BRANCH   1  10
ATOM     10  S   UNL d   1       2.057   2.747  -0.022  0.00  0.00     0.269 S 
ATOM     11  O   UNL d   1       3.359   2.701  -0.663  0.00  0.00    -0.200 OA
ATOM     12  O   UNL d   1       0.982   3.572  -0.533  0.00  0.00    -0.200 OA
BRANCH  10  13
ATOM     13  C   UNL d   1       2.296   3.140   1.692  0.00  0.00     0.080 A 
ATOM     14  C   UNL d   1       3.572   3.497   2.146  0.00  0.00     0.025 A 
ATOM     15  C   UNL d   1       3.772   3.780   3.498  0.00  0.00     0.002 A 
ATOM     16  C   UNL d   1       2.700   3.724   4.388  0.00  0.00     0.000 A 
ATOM     17  C   UNL d   1       1.420   3.413   3.924  0.00  0.00     0.002 A 
ATOM     18  C   UNL d   1       1.211   3.125   2.573  0.00  0.00     0.025 A 
ENDBRANCH  10  13
ENDBRANCH   1  10
BRANCH   2  19
ATOM     19  C   UNL d   1       2.169  -2.491   0.107  0.00  0.00     0.178 C 
ATOM     20  O   UNL d   1       1.448  -3.474   0.152  0.00  0.00    -0.646 OA
BRANCH  19  21
ATOM     21  O   UNL d   1       3.520  -2.619   0.081  0.00  0.00    -0.773 OA
ATOM     22  H   UNL d   1       3.996  -1.777   0.003  0.00  0.00     0.167 HD
ENDBRANCH  19  21
ENDBRANCH   2  19
TORSDOF 4
