REMARK  6 active torsions:
REMARK  status: ('A' for Active; 'I' for Inactive)
REMARK    1  A    between atoms: C_2  and  S_1 
REMARK    2  A    between atoms: O_5  and  S_1 
REMARK    3  A    between atoms: C_10  and  C_4 
REMARK    4  A    between atoms: C_6  and  O_5 
REMARK    5  A    between atoms: N_8  and  C_11 
REMARK    6  A    between atoms: O_16  and  C_10 
ROOT
ATOM      1  O   UNL d   1       0.126  -0.943  -1.327  0.00  0.00    -0.225 OA
ENDROOT
BRANCH   1   2
ATOM      2  S   UNL d   1      -1.306  -0.371  -0.793  0.00  0.00     0.325 S 
ATOM      3  O   UNL d   1      -1.185   1.023  -0.409  0.00  0.00    -0.191 OA
ATOM      4  O   UNL d   1      -2.405  -0.868  -1.599  0.00  0.00    -0.191 OA
BRANCH   2   5
ATOM      5  C   UNL d   1      -1.519  -1.242   0.765  0.00  0.00     0.198 A 
ATOM      6  O   UNL d   1      -0.817  -2.388   1.081  0.00  0.00    -0.291 OA
ATOM      7  C   UNL d   1      -1.282  -2.865   2.278  0.00  0.00     0.152 A 
ATOM      8  C   UNL d   1      -2.261  -2.020   2.759  0.00  0.00     0.047 A 
ATOM      9  C   UNL d   1      -2.409  -0.989   1.804  0.00  0.00     0.055 A 
BRANCH   7  10
ATOM     10  C   UNL d   1      -0.760  -4.093   2.833  0.00  0.00     0.317 C 
ATOM     11  O   UNL d   1      -1.121  -4.599   3.888  0.00  0.00    -0.257 OA
BRANCH  10  12
ATOM     12  O   UNL d   1       0.188  -4.624   2.004  0.00  0.00    -0.321 OA
ATOM     13  C   UNL d   1       0.726  -5.865   2.454  0.00  0.00     0.213 C 
ENDBRANCH  10  12
ENDBRANCH   7  10
ENDBRANCH   2   5
ENDBRANCH   1   2
BRANCH   1  14
ATOM     14  C   UNL d   1       0.644  -0.475  -2.523  0.00  0.00     0.116 A 
ATOM     15  C   UNL d   1       2.032  -0.207  -2.607  0.00  0.00     0.065 A 
ATOM     16  C   UNL d   1       2.531   0.193  -3.863  0.00  0.00     0.032 A 
ATOM     17  C   UNL d   1       1.709   0.301  -4.988  0.00  0.00     0.002 A 
ATOM     18  C   UNL d   1       0.358   0.004  -4.889  0.00  0.00     0.003 A 
ATOM     19  C   UNL d   1      -0.171  -0.388  -3.663  0.00  0.00     0.040 A 
BRANCH  15  20
ATOM     20  N   UNL d   1       2.882  -0.398  -1.511  0.00  0.00    -0.374 N 
ATOM     21  C   UNL d   1       4.321  -0.643  -1.748  0.00  0.00     0.149 C 
ATOM     22  C   UNL d   1       4.941  -1.239  -0.473  0.00  0.00     0.187 C 
ATOM     23  O   UNL d   1       4.744  -0.378   0.663  0.00  0.00    -0.388 OA
ATOM     24  C   UNL d   1       3.340  -0.143   0.877  0.00  0.00     0.187 C 
ATOM     25  C   UNL d   1       2.682   0.502  -0.356  0.00  0.00     0.149 C 
ENDBRANCH  15  20
ENDBRANCH   1  14
TORSDOF 6
