REMARK  5 active torsions:
REMARK  status: ('A' for Active; 'I' for Inactive)
REMARK    1  A    between atoms: N_5  and  C_1 
REMARK    2  A    between atoms: C_11  and  C_4 
REMARK       I    between atoms: C_6  and  N_5 
REMARK    3  A    between atoms: C_9  and  C_6 
REMARK    4  A    between atoms: O_13  and  C_10 
REMARK    5  A    between atoms: C_22  and  O_13 
ROOT
ATOM      1  N   UNL d   1      -2.722   0.660   0.250  0.00  0.00    -0.303 N 
ATOM      2  C   UNL d   1      -3.953   0.079   0.503  0.00  0.00     0.261 C 
ATOM      3  O   UNL d   1      -4.918   0.801   0.745  0.00  0.00    -0.267 OA
ATOM      4  H   UNL d   1      -2.768   1.644   0.019  0.00  0.00     0.171 HD
ENDROOT
BRANCH   1   5
ATOM      5  C   UNL d   1      -1.505   0.074   0.013  0.00  0.00     0.152 C 
ATOM      6  N   UNL d   1      -0.600   0.607  -0.771  0.00  0.00    -0.335 N 
ATOM      7  C   UNL d   1       0.391  -0.331  -1.030  0.00  0.00     0.057 C 
ATOM      8  HN  UNL d   1      -0.621   1.560  -1.133  1.00  0.00     0.168 HD
ATOM      9  C   UNL d   1       0.270  -1.520  -0.325  0.00  0.00     0.010 C 
ATOM     10  S   UNL d   1      -1.022  -1.360   0.799  0.00  0.00    -0.057 SA
ATOM     11  C   UNL d   1       1.049  -2.787  -0.385  0.00  0.00     0.059 C 
BRANCH   7  12
ATOM     12  C   UNL d   1       1.449  -0.035  -1.986  0.00  0.00    -0.007 A 
ATOM     13  C   UNL d   1       2.146   1.174  -1.883  0.00  0.00     0.038 A 
ATOM     14  C   UNL d   1       3.180   1.476  -2.775  0.00  0.00     0.040 A 
ATOM     15 CL   UNL d   1       4.005   2.982  -2.575  0.00  0.00    -0.084 Cl
ATOM     16  C   UNL d   1       3.533   0.581  -3.796  0.00  0.00    -0.040 A 
ATOM     17  C   UNL d   1       2.810  -0.615  -3.915  0.00  0.00     0.009 A 
ATOM     18  C   UNL d   1       4.647   0.871  -4.762  0.00  0.00     0.050 C 
ATOM     19  C   UNL d   1       1.774  -0.917  -3.023  0.00  0.00     0.014 A 
ENDBRANCH   7  12
ENDBRANCH   1   5
BRANCH   2  20
ATOM     20  C   UNL d   1      -4.172  -1.376   0.342  0.00  0.00     0.083 C 
ATOM     21  C   UNL d   1      -4.887  -2.124   1.269  0.00  0.00     0.163 C 
ATOM     22  N   UNL d   1      -4.921  -3.488   1.247  0.00  0.00    -0.346 N 
ATOM     23  C   UNL d   1      -4.336  -4.114   0.208  0.00  0.00     0.090 C 
ATOM     24  HN  UNL d   1      -5.374  -4.016   1.993  1.00  0.00     0.167 HD
ATOM     25  C   UNL d   1      -3.740  -3.444  -0.841  0.00  0.00     0.018 C 
ATOM     26  C   UNL d   1      -3.676  -2.054  -0.782  0.00  0.00     0.023 C 
BRANCH  21  27
ATOM     27  O   UNL d   1      -5.640  -1.496   2.248  0.00  0.00    -0.293 OA
BRANCH  27  28
ATOM     28  C   UNL d   1      -6.902  -2.020   2.469  0.00  0.00     0.077 A 
ATOM     29  C   UNL d   1      -7.377  -2.005   3.780  0.00  0.00     0.037 A 
ATOM     30  C   UNL d   1      -8.625  -2.563   4.080  0.00  0.00     0.003 A 
ATOM     31  C   UNL d   1      -9.404  -3.126   3.068  0.00  0.00     0.000 A 
ATOM     32  C   UNL d   1      -8.954  -3.102   1.750  0.00  0.00     0.003 A 
ATOM     33  C   UNL d   1      -7.716  -2.531   1.448  0.00  0.00     0.037 A 
ENDBRANCH  27  28
ENDBRANCH  21  27
ENDBRANCH   2  20
TORSDOF 5
