REMARK  3 active torsions:
REMARK  status: ('A' for Active; 'I' for Inactive)
REMARK       I    between atoms: N_2  and  C_1 
REMARK    1  A    between atoms: C_5  and  C_1 
REMARK    2  A    between atoms: N_3  and  N_2 
REMARK    3  A    between atoms: C_6  and  N_3 
ROOT
ATOM      1  N   UNL d   1       0.873   1.982   1.610  0.00  0.00    -0.203 NA
ATOM      2  H   UNL d   1       1.414   2.462   0.877  0.00  0.00     0.153 HD
ENDROOT
BRANCH   1   3
ATOM      3  N   UNL d   1       0.086   0.971   1.022  0.00  0.00    -0.287 N 
ATOM      4  C   UNL d   1       0.565   0.429  -0.161  0.00  0.00     0.236 C 
ATOM      5  O   UNL d   1       1.497   0.980  -0.770  0.00  0.00    -0.272 OA
ATOM      6  H   UNL d   1      -0.589   0.497   1.609  0.00  0.00     0.184 HD
BRANCH   4   7
ATOM      7  C   UNL d   1      -0.105  -0.864  -0.666  0.00  0.00     0.079 C 
ATOM      8  C   UNL d   1      -0.951  -0.729  -1.961  0.00  0.00     0.014 C 
ATOM      9  C   UNL d   1      -1.874  -1.829  -1.414  0.00  0.00     0.002 C 
ATOM     10  C   UNL d   1      -1.376  -1.458  -0.003  0.00  0.00     0.014 C 
ENDBRANCH   4   7
ENDBRANCH   1   3
BRANCH   1  11
ATOM     11  C   UNL d   1       0.183   2.896   2.443  0.00  0.00     0.028 A 
ATOM     12  C   UNL d   1      -0.801   2.491   3.358  0.00  0.00     0.032 A 
ATOM     13  C   UNL d   1      -1.389   3.404   4.250  0.00  0.00    -0.060 A 
ATOM     14  C   UNL d   1      -2.447   2.962   5.219  0.00  0.00     0.048 C 
ATOM     15  C   UNL d   1      -0.966   4.736   4.244  0.00  0.00     0.007 A 
ATOM     16  C   UNL d   1       0.040   5.146   3.374  0.00  0.00     0.002 A 
ATOM     17  C   UNL d   1       0.617   4.229   2.492  0.00  0.00     0.025 A 
ENDBRANCH   1  11
TORSDOF 3
