REMARK  7 active torsions:
REMARK  status: ('A' for Active; 'I' for Inactive)
REMARK       I    between atoms: N_4  and  C_1 
REMARK    1  A    between atoms: C_5  and  C_1 
REMARK    2  A    between atoms: C_2  and  C_5 
REMARK    3  A    between atoms: C_7  and  C_2 
REMARK    4  A    between atoms: C_3  and  C_7 
REMARK    5  A    between atoms: O_12  and  C_3 
REMARK    6  A    between atoms: C_9  and  N_4 
REMARK    7  A    between atoms: C_13  and  C_9 
ROOT
ATOM      1  C   UNL d   1       0.965  -1.785   0.480  0.00  0.00     0.218 C 
ATOM      2  N   UNL d   1       2.138  -1.528  -0.191  0.00  0.00    -0.357 N 
ATOM      3  O   UNL d   1       0.621  -2.900   0.863  0.00  0.00    -0.274 OA
ATOM      4  H   UNL d   1       2.426  -0.569  -0.334  0.00  0.00     0.162 HD
ENDROOT
BRANCH   1   5
ATOM      5  C   UNL d   1       0.178  -0.526   0.823  0.00  0.00     0.112 C 
BRANCH   5   6
ATOM      6  C   UNL d   1      -1.379  -0.622   0.815  0.00  0.00    -0.023 C 
ATOM      7  C   UNL d   1      -1.917  -0.855  -0.625  0.00  0.00     0.010 C 
ATOM      8  C   UNL d   1      -1.758   0.338  -1.566  0.00  0.00     0.001 C 
ATOM      9  C   UNL d   1      -2.337   1.616  -0.970  0.00  0.00     0.000 C 
ATOM     10  C   UNL d   1      -1.750   1.908   0.404  0.00  0.00     0.001 C 
ATOM     11  C   UNL d   1      -1.946   0.727   1.353  0.00  0.00     0.010 C 
BRANCH   6  12
ATOM     12  C   UNL d   1      -1.938  -1.772   1.699  0.00  0.00     0.119 C 
BRANCH  12  13
ATOM     13  C   UNL d   1      -1.464  -1.754   3.132  0.00  0.00     0.140 C 
ATOM     14  O   UNL d   1      -1.987  -1.095   4.016  0.00  0.00    -0.650 OA
BRANCH  13  15
ATOM     15  O   UNL d   1      -0.368  -2.518   3.344  0.00  0.00    -0.776 OA
ATOM     16  H   UNL d   1      -0.042  -2.967   2.525  0.00  0.00     0.167 HD
ENDBRANCH  13  15
ENDBRANCH  12  13
ENDBRANCH   6  12
ENDBRANCH   5   6
ENDBRANCH   1   5
BRANCH   2  17
ATOM     17  C   UNL d   1       3.100  -2.553  -0.542  0.00  0.00     0.161 C 
BRANCH  17  18
ATOM     18  C   UNL d   1       3.584  -2.369  -1.959  0.00  0.00    -0.039 A 
ATOM     19  C   UNL d   1       2.682  -2.480  -3.029  0.00  0.00     0.032 A 
ATOM     20  C   UNL d   1       3.120  -2.325  -4.344  0.00  0.00     0.034 A 
ATOM     21 CL   UNL d   1       1.995  -2.461  -5.639  0.00  0.00    -0.084 Cl
ATOM     22  C   UNL d   1       4.460  -2.063  -4.617  0.00  0.00     0.024 A 
ATOM     23  C   UNL d   1       5.368  -1.952  -3.564  0.00  0.00     0.002 A 
ATOM     24  C   UNL d   1       4.934  -2.103  -2.243  0.00  0.00     0.009 A 
ENDBRANCH  17  18
ENDBRANCH   2  17
TORSDOF 7
