REMARK  6 active torsions:
REMARK  status: ('A' for Active; 'I' for Inactive)
REMARK    1  A    between atoms: C_2  and  C_1 
REMARK    2  A    between atoms: O_8  and  C_1 
REMARK    3  A    between atoms: N_3  and  O_8 
REMARK    4  A    between atoms: C_5  and  C_6 
REMARK    5  A    between atoms: C_7  and  C_5 
REMARK    6  A    between atoms: N_18  and  C_6 
ROOT
ATOM      1  N   UNL d   1      -0.984   1.056   0.579  0.00  0.00    -0.250 N 
ATOM      2  HN  UNL d   1       0.027   1.094   0.449  1.00  0.00     0.196 HD
ATOM      3  C   UNL d   1      -1.663   1.923   1.267  0.00  0.00     0.080 C 
ENDROOT
BRANCH   1   4
ATOM      4  O   UNL d   1      -1.819   0.051   0.032  0.00  0.00    -0.192 OA
BRANCH   4   5
ATOM      5  C   UNL d   1      -1.061  -0.839  -0.698  0.00  0.00     0.339 C 
ATOM      6  O   UNL d   1       0.138  -0.739  -0.935  0.00  0.00    -0.255 OA
BRANCH   5   7
ATOM      7  C   UNL d   1      -1.882  -1.935  -1.167  0.00  0.00     0.151 A 
ATOM      8  O   UNL d   1      -3.200  -2.042  -0.797  0.00  0.00    -0.317 OA
ATOM      9  C   UNL d   1      -3.689  -3.171  -1.374  0.00  0.00     0.143 A 
ATOM     10  C   UNL d   1      -2.719  -3.793  -2.123  0.00  0.00     0.027 A 
ATOM     11  C   UNL d   1      -1.555  -3.002  -1.988  0.00  0.00     0.045 A 
ENDBRANCH   5   7
ENDBRANCH   4   5
ENDBRANCH   1   4
BRANCH   3  12
ATOM     12  C   UNL d   1      -0.877   3.014   1.990  0.00  0.00     0.117 C 
BRANCH  12  13
ATOM     13  C   UNL d   1      -0.809   4.279   1.186  0.00  0.00    -0.011 A 
ATOM     14  S   UNL d   1      -1.950   5.535   1.440  0.00  0.00    -0.106 SA
ATOM     15  C   UNL d   1      -1.125   6.589   0.374  0.00  0.00     0.050 A 
ATOM     16  C   UNL d   1      -0.028   5.988  -0.199  0.00  0.00     0.008 A 
ATOM     17  C   UNL d   1       0.145   4.648   0.256  0.00  0.00     0.015 A 
ENDBRANCH  12  13
ENDBRANCH   3  12
BRANCH   3  18
ATOM     18  N   UNL d   1      -3.031   1.907   1.412  0.00  0.00    -0.290 NA
ATOM     19  H   UNL d   1      -3.476   2.807   1.563  0.00  0.00     0.125 HD
ATOM     20  H   UNL d   1      -3.507   1.326   0.732  0.00  0.00     0.125 HD
ENDBRANCH   3  18
TORSDOF 6
