REMARK  9 active torsions:
REMARK  status: ('A' for Active; 'I' for Inactive)
REMARK    1  A    between atoms: C_2  and  C_1 
REMARK    2  A    between atoms: C_12  and  C_1 
REMARK    3  A    between atoms: C_13  and  C_1 
REMARK    4  A    between atoms: O_17  and  C_1 
REMARK    5  A    between atoms: C_3  and  N_5 
REMARK    6  A    between atoms: N_6  and  C_3 
REMARK    7  A    between atoms: N_5  and  C_4 
REMARK    8  A    between atoms: C_7  and  N_6 
REMARK    9  A    between atoms: C_18  and  C_12 
ROOT
ATOM      1  C   UNL d   1       0.849  -0.881   1.583  0.00  0.00     0.008 A 
ATOM      2  C   UNL d   1       1.105  -2.281   1.690  0.00  0.00     0.043 A 
ATOM      3  C   UNL d   1       0.131  -0.236   2.619  0.00  0.00     0.013 A 
ATOM      4  C   UNL d   1       0.628  -2.966   2.815  0.00  0.00     0.030 A 
ATOM      5  C   UNL d   1      -0.329  -0.933   3.727  0.00  0.00     0.001 A 
ATOM      6  C   UNL d   1      -0.076  -2.293   3.821  0.00  0.00     0.002 A 
ENDROOT
BRANCH   1   7
ATOM      7  C   UNL d   1       1.416   0.027   0.467  0.00  0.00     0.118 C 
BRANCH   7   8
ATOM      8  C   UNL d   1       1.325  -0.507  -1.015  0.00  0.00     0.086 C 
BRANCH   8   9
ATOM      9  C   UNL d   1      -0.046  -0.914  -1.598  0.00  0.00    -0.055 A 
ATOM     10  C   UNL d   1      -0.403  -0.460  -2.881  0.00  0.00     0.007 A 
ATOM     11  C   UNL d   1      -1.597  -0.860  -3.498  0.00  0.00     0.001 A 
ATOM     12  C   UNL d   1      -2.465  -1.733  -2.849  0.00  0.00     0.000 A 
ATOM     13  C   UNL d   1      -2.130  -2.204  -1.586  0.00  0.00     0.001 A 
ATOM     14  C   UNL d   1      -0.934  -1.804  -0.974  0.00  0.00     0.007 A 
ENDBRANCH   8   9
ENDBRANCH   7   8
BRANCH   7  15
ATOM     15  C   UNL d   1       2.825   0.505   0.980  0.00  0.00    -0.019 A 
ATOM     16  C   UNL d   1       3.786  -0.394   1.518  0.00  0.00     0.010 A 
ATOM     17  C   UNL d   1       4.864   0.033   2.303  0.00  0.00     0.001 A 
ATOM     18  C   UNL d   1       5.042   1.381   2.559  0.00  0.00     0.000 A 
ATOM     19  C   UNL d   1       4.165   2.299   1.988  0.00  0.00     0.001 A 
ATOM     20  C   UNL d   1       3.085   1.867   1.203  0.00  0.00     0.010 A 
ENDBRANCH   7  15
BRANCH   7  21
ATOM     21  O   UNL d   1       0.589   1.224   0.393  0.00  0.00    -0.380 OA
ATOM     22  H   UNL d   1      -0.298   0.928   0.120  0.00  0.00     0.211 HD
ENDBRANCH   7  21
ENDBRANCH   1   7
BRANCH   2  23
ATOM     23  N   UNL d   1       1.927  -2.915   0.718  0.00  0.00    -0.333 N 
ATOM     24  H   UNL d   1       2.492  -2.287   0.188  0.00  0.00     0.168 HD
BRANCH  23  25
ATOM     25  C   UNL d   1       1.980  -4.165   0.176  0.00  0.00     0.172 C 
ATOM     26  S   UNL d   1       0.958  -5.452   0.465  0.00  0.00    -0.041 SA
BRANCH  25  27
ATOM     27  N   UNL d   1       2.956  -4.344  -0.785  0.00  0.00    -0.362 N 
ATOM     28  H   UNL d   1       2.877  -5.239  -1.260  0.00  0.00     0.162 HD
BRANCH  27  29
ATOM     29  C   UNL d   1       4.057  -3.483  -1.247  0.00  0.00     0.092 C 
ATOM     30  C   UNL d   1       5.377  -4.248  -1.553  0.00  0.00     0.031 C 
ATOM     31  C   UNL d   1       5.168  -5.234  -2.687  0.00  0.00    -0.024 C 
ATOM     32  C   UNL d   1       6.137  -3.165  -2.334  0.00  0.00     0.019 C 
ATOM     33  C   UNL d   1       4.997  -4.524  -3.811  0.00  0.00    -0.026 C 
ATOM     34  C   UNL d   1       5.069  -3.067  -3.427  0.00  0.00     0.010 C 
ATOM     35  C   UNL d   1       3.800  -2.741  -2.601  0.00  0.00     0.034 C 
ENDBRANCH  27  29
ENDBRANCH  25  27
ENDBRANCH  23  25
ENDBRANCH   2  23
TORSDOF 9
