REMARK  2 active torsions:
REMARK  status: ('A' for Active; 'I' for Inactive)
REMARK    1  A    between atoms: C_7  and  N_1 
REMARK    2  A    between atoms: C_5  and  C_2 
ROOT
ATOM      1  N   UNL d   1      -0.592  -1.192   0.176  0.00  0.00    -0.299 N 
ATOM      2  C   UNL d   1       0.796  -1.353  -0.231  0.00  0.00     0.188 A 
ATOM      3  S   UNL d   1       1.507   0.294  -0.483  0.00  0.00    -0.129 SA
ATOM      4  C   UNL d   1      -1.088   0.116   0.160  0.00  0.00     0.235 A 
ATOM      5  C   UNL d   1      -0.061   1.133  -0.275  0.00  0.00     0.179 A 
ATOM      6  O   UNL d   1      -2.243   0.465   0.394  0.00  0.00    -0.272 OA
ENDROOT
BRANCH   2   7
ATOM      7  C   UNL d   1       1.651  -2.145   0.751  0.00  0.00    -0.022 A 
ATOM      8  C   UNL d   1       1.688  -1.828   2.124  0.00  0.00     0.049 A 
ATOM      9  C   UNL d   1       2.515  -2.564   2.947  0.00  0.00     0.105 A 
ATOM     10  O   UNL d   1       2.682  -2.374   4.284  0.00  0.00    -0.323 OA
ATOM     11  C   UNL d   1       3.288  -3.594   2.466  0.00  0.00     0.105 A 
ATOM     12  C   UNL d   1       3.663  -3.390   4.585  0.00  0.00     0.352 A 
ATOM     13  O   UNL d   1       4.031  -4.184   3.437  0.00  0.00    -0.323 OA
ATOM     14  C   UNL d   1       3.277  -3.945   1.136  0.00  0.00     0.040 A 
ATOM     15  C   UNL d   1       2.460  -3.208   0.273  0.00  0.00     0.013 A 
ENDBRANCH   2   7
BRANCH   1  16
ATOM     16  C   UNL d   1      -1.437  -2.327   0.397  0.00  0.00     0.039 A 
ATOM     17  C   UNL d   1      -1.177  -3.561  -0.224  0.00  0.00     0.033 A 
ATOM     18  C   UNL d   1      -2.024  -4.658  -0.031  0.00  0.00     0.044 A 
ATOM     19  C   UNL d   1      -3.125  -4.538   0.804  0.00  0.00     0.116 A 
ATOM     20  C   UNL d   1      -3.394  -3.342   1.448  0.00  0.00     0.044 A 
ATOM     21  F   UNL d   1      -3.935  -5.589   0.986  0.00  0.00    -0.206 F 
ATOM     22  C   UNL d   1      -2.557  -2.241   1.241  0.00  0.00     0.033 A 
ENDBRANCH   1  16
TORSDOF 2
