REMARK  5 active torsions:
REMARK  status: ('A' for Active; 'I' for Inactive)
REMARK    1  A    between atoms: S_5  and  C_1 
REMARK       I    between atoms: N_3  and  C_4 
REMARK    2  A    between atoms: C_6  and  N_3 
REMARK    3  A    between atoms: C_4  and  C_9 
REMARK    4  A    between atoms: C_9  and  S_5 
REMARK    5  A    between atoms: C_18  and  C_9 
ROOT
ATOM      1  C   UNL d   1      -0.083   1.444   0.615  0.00  0.00     0.092 A 
ATOM      2  C   UNL d   1       0.554   0.488   1.419  0.00  0.00     0.084 A 
ATOM      3  N   UNL d   1      -1.341   1.289   0.129  0.00  0.00    -0.353 N 
ATOM      4  HN  UNL d   1      -1.762   1.990  -0.481  1.00  0.00     0.166 HD
ATOM      5  C   UNL d   1      -0.153  -0.679   1.759  0.00  0.00    -0.037 A 
ATOM      6  C   UNL d   1       1.898   0.688   1.877  0.00  0.00     0.103 C 
ATOM      7  N   UNL d   1       2.993   0.802   2.258  0.00  0.00    -0.191 NA
ATOM      8  C   UNL d   1      -2.017   0.172   0.485  0.00  0.00     0.006 A 
ATOM      9  C   UNL d   1      -1.460  -0.824   1.282  0.00  0.00     0.033 A 
ATOM     10  C   UNL d   1       0.416  -1.776   2.618  0.00  0.00     0.050 C 
ATOM     11  C   UNL d   1      -3.427   0.028  -0.005  0.00  0.00     0.068 C 
ENDROOT
BRANCH   1  12
ATOM     12  S   UNL d   1       0.779   2.914   0.087  0.00  0.00    -0.091 SA
BRANCH  12  13
ATOM     13  C   UNL d   1      -0.580   4.179  -0.013  0.00  0.00     0.179 C 
BRANCH  13  14
ATOM     14  C   UNL d   1      -1.388   4.276   1.307  0.00  0.00     0.241 C 
ATOM     15  N   UNL d   1      -2.420   5.223   1.280  0.00  0.00    -0.321 N 
ATOM     16  H   UNL d   1      -2.228   6.050   0.723  0.00  0.00     0.169 HD
ATOM     17  O   UNL d   1      -1.122   3.621   2.318  0.00  0.00    -0.272 OA
BRANCH  15  18
ATOM     18  C   UNL d   1      -3.219   5.438   2.437  0.00  0.00     0.112 A 
ATOM     19  C   UNL d   1      -3.350   6.733   2.939  0.00  0.00     0.146 A 
ATOM     20  F   UNL d   1      -2.755   7.756   2.303  0.00  0.00    -0.204 F 
ATOM     21  C   UNL d   1      -4.034   6.985   4.130  0.00  0.00     0.045 A 
ATOM     22  C   UNL d   1      -4.645   5.935   4.814  0.00  0.00     0.006 A 
ATOM     23  C   UNL d   1      -4.582   4.643   4.290  0.00  0.00     0.045 A 
ATOM     24  C   UNL d   1      -3.870   4.401   3.113  0.00  0.00     0.146 A 
ATOM     25  F   UNL d   1      -3.884   3.158   2.607  0.00  0.00    -0.204 F 
ENDBRANCH  15  18
ENDBRANCH  13  14
BRANCH  13  26
ATOM     26  C   UNL d   1       0.117   5.482  -0.428  0.00  0.00    -0.035 A 
ATOM     27  C   UNL d   1       0.594   6.409   0.516  0.00  0.00     0.009 A 
ATOM     28  C   UNL d   1       1.395   7.483   0.119  0.00  0.00     0.001 A 
ATOM     29  C   UNL d   1       1.747   7.641  -1.219  0.00  0.00     0.000 A 
ATOM     30  C   UNL d   1       1.277   6.739  -2.170  0.00  0.00     0.001 A 
ATOM     31  C   UNL d   1       0.461   5.674  -1.781  0.00  0.00     0.009 A 
ENDBRANCH  13  26
ENDBRANCH  12  13
ENDBRANCH   1  12
TORSDOF 5
