REMARK  5 active torsions:
REMARK  status: ('A' for Active; 'I' for Inactive)
REMARK    1  A    between atoms: C_7  and  S_1 
REMARK    2  A    between atoms: N_13  and  S_1 
REMARK    3  A    between atoms: C_2  and  C_3 
REMARK       I    between atoms: C_3  and  N_8 
REMARK    4  A    between atoms: C_18  and  C_6 
REMARK    5  A    between atoms: N_8  and  C_11 
ROOT
ATOM      1  C   UNL d   1      -0.727   2.937   4.392  0.00  0.00     0.261 C 
ATOM      2  N   UNL d   1      -0.894   1.560   4.520  0.00  0.00    -0.322 N 
ATOM      3  O   UNL d   1      -0.401   3.502   3.360  0.00  0.00    -0.267 OA
ATOM      4  H   UNL d   1      -1.221   1.220   5.412  0.00  0.00     0.169 HD
ENDROOT
BRANCH   1   5
ATOM      5  C   UNL d   1      -0.956   3.711   5.603  0.00  0.00     0.093 A 
ATOM      6  C   UNL d   1      -0.277   4.904   6.042  0.00  0.00     0.083 A 
ATOM      7  N   UNL d   1      -0.814   5.343   7.194  0.00  0.00    -0.259 N 
ATOM      8  O   UNL d   1      -1.851   4.501   7.494  0.00  0.00    -0.241 OA
ATOM      9  HN  UNL d   1      -0.508   6.149   7.739  1.00  0.00     0.195 HD
ATOM     10  C   UNL d   1      -1.961   3.547   6.539  0.00  0.00     0.090 A 
ATOM     11  C   UNL d   1      -3.123   2.650   6.699  0.00  0.00     0.080 C 
BRANCH   6  12
ATOM     12  C   UNL d   1       0.838   5.649   5.444  0.00  0.00    -0.006 A 
ATOM     13  C   UNL d   1       1.909   5.005   4.812  0.00  0.00     0.014 A 
ATOM     14  C   UNL d   1       2.960   5.747   4.261  0.00  0.00     0.001 A 
ATOM     15  C   UNL d   1       2.959   7.139   4.342  0.00  0.00     0.000 A 
ATOM     16  C   UNL d   1       1.910   7.793   4.977  0.00  0.00     0.001 A 
ATOM     17  C   UNL d   1       0.858   7.054   5.526  0.00  0.00     0.014 A 
ENDBRANCH   6  12
ENDBRANCH   1   5
BRANCH   2  18
ATOM     18  C   UNL d   1      -0.549   0.562   3.561  0.00  0.00     0.042 A 
ATOM     19  C   UNL d   1       0.128   0.877   2.372  0.00  0.00     0.055 A 
ATOM     20  C   UNL d   1       0.484  -0.125   1.459  0.00  0.00     0.081 A 
ATOM     21  C   UNL d   1       0.267  -1.465   1.758  0.00  0.00     0.026 A 
ATOM     22  C   UNL d   1      -0.403  -1.796   2.931  0.00  0.00     0.010 A 
ATOM     23  C   UNL d   1      -0.854  -0.796   3.817  0.00  0.00    -0.035 A 
ATOM     24  C   UNL d   1      -1.708  -1.239   4.976  0.00  0.00     0.050 C 
BRANCH  20  25
ATOM     25  S   UNL d   1       1.241   0.318  -0.091  0.00  0.00     0.260 S 
ATOM     26  O   UNL d   1       1.536  -0.919  -0.788  0.00  0.00    -0.200 OA
ATOM     27  O   UNL d   1       2.287   1.272   0.198  0.00  0.00    -0.200 OA
BRANCH  25  28
ATOM     28  N   UNL d   1      -0.005   1.094  -0.952  0.00  0.00    -0.315 N 
ATOM     29  C   UNL d   1      -1.191   0.288  -1.282  0.00  0.00     0.162 C 
ATOM     30  C   UNL d   1      -0.316   2.491  -0.609  0.00  0.00     0.162 C 
ENDBRANCH  25  28
ENDBRANCH  20  25
ENDBRANCH   2  18
TORSDOF 5
