REMARK  3 active torsions:
REMARK  status: ('A' for Active; 'I' for Inactive)
REMARK    1  A    between atoms: C_4  and  C_1 
REMARK    2  A    between atoms: O_10  and  C_4 
REMARK    3  A    between atoms: O_11  and  C_7 
ROOT
ATOM      1  C   UNL d   1       1.255   1.473   0.013  0.00  0.00     0.054 A 
ATOM      2  N   UNL d   1       1.266  -1.310   0.004  0.00  0.00    -0.336 N 
ATOM      3  HN  UNL d   1       1.292  -2.329   0.022  1.00  0.00     0.168 HD
ATOM      4  C   UNL d   1       0.018   0.769   0.016  0.00  0.00     0.008 A 
ATOM      5  C   UNL d   1       0.101  -0.643   0.009  0.00  0.00     0.045 A 
ATOM      6  C   UNL d   1       2.391  -0.588  -0.025  0.00  0.00     0.141 A 
ATOM      7  C   UNL d   1       2.463   0.776  -0.030  0.00  0.00     0.075 A 
ATOM      8  C   UNL d   1      -1.270   1.365   0.027  0.00  0.00     0.015 A 
ATOM      9  C   UNL d   1      -1.069  -1.390  -0.002  0.00  0.00     0.030 A 
ATOM     10  C   UNL d   1      -2.432   0.589   0.006  0.00  0.00     0.001 A 
ATOM     11  C   UNL d   1      -2.328  -0.794  -0.009  0.00  0.00     0.002 A 
ENDROOT
BRANCH   1  12
ATOM     12  C   UNL d   1       1.308   2.958  -0.013  0.00  0.00     0.177 C 
ATOM     13  O   UNL d   1       0.547   3.654  -0.661  0.00  0.00    -0.646 OA
BRANCH  12  14
ATOM     14  O   UNL d   1       2.287   3.476   0.763  0.00  0.00    -0.773 OA
ATOM     15  H   UNL d   1       2.764   2.845   1.334  0.00  0.00     0.167 HD
ENDBRANCH  12  14
ENDBRANCH   1  12
BRANCH   6  16
ATOM     16  O   UNL d   1       3.523  -1.333  -0.049  0.00  0.00    -0.346 OA
ATOM     17  H   UNL d   1       3.141  -2.231  -0.059  0.00  0.00     0.219 HD
ENDBRANCH   6  16
TORSDOF 3
