REMARK  13 active torsions:
REMARK  status: ('A' for Active; 'I' for Inactive)
REMARK    1  A    between atoms: O_3  and  C_1 
REMARK    2  A    between atoms: C_2  and  N_4 
REMARK    3  A    between atoms: C_19  and  C_2 
REMARK    4  A    between atoms: C_20  and  C_2 
REMARK    5  A    between atoms: C_9  and  O_3 
REMARK    6  A    between atoms: N_4  and  C_12 
REMARK    7  A    between atoms: O_8  and  C_11 
REMARK    8  A    between atoms: C_13  and  O_8 
REMARK    9  A    between atoms: C_10  and  C_13 
REMARK   10  A    between atoms: C_12  and  C_10 
REMARK   11  A    between atoms: O_18  and  C_10 
REMARK   12  A    between atoms: O_22  and  C_19 
REMARK   13  A    between atoms: O_21  and  C_20 
ROOT
ATOM      1  C   UNL d   1       3.558  -6.496   4.854  0.00  0.00     0.170 C 
ENDROOT
BRANCH   1   2
ATOM      2  C   UNL d   1       3.477  -5.222   3.991  0.00  0.00     0.209 C 
BRANCH   2   3
ATOM      3  O   UNL d   1       2.191  -4.623   4.136  0.00  0.00    -0.349 OA
BRANCH   3   4
ATOM      4  C   UNL d   1       1.976  -3.455   3.461  0.00  0.00     0.069 A 
ATOM      5  C   UNL d   1       0.976  -2.643   3.991  0.00  0.00     0.039 A 
ATOM      6  C   UNL d   1       0.629  -1.444   3.368  0.00  0.00     0.040 A 
ATOM      7  C   UNL d   1       1.258  -1.048   2.183  0.00  0.00     0.078 A 
ATOM      8  C   UNL d   1       2.275  -1.844   1.665  0.00  0.00     0.040 A 
ATOM      9  C   UNL d   1       2.628  -3.051   2.293  0.00  0.00     0.039 A 
BRANCH   7  10
ATOM     10  O   UNL d   1       0.770   0.111   1.657  0.00  0.00    -0.255 OA
BRANCH  10  11
ATOM     11  C   UNL d   1       1.095   0.450   0.320  0.00  0.00     0.530 C 
ATOM     12  F   UNL d   1       1.122  -0.625  -0.498  0.00  0.00    -0.144 F 
ATOM     13  F   UNL d   1       2.287   1.079   0.271  0.00  0.00    -0.144 F 
ATOM     14  F   UNL d   1       0.149   1.296  -0.148  0.00  0.00    -0.144 F 
ENDBRANCH  10  11
ENDBRANCH   7  10
ENDBRANCH   3   4
ENDBRANCH   2   3
ENDBRANCH   1   2
BRANCH   1  15
ATOM     15  C   UNL d   1       2.506  -7.540   4.408  0.00  0.00     0.304 C 
BRANCH  15  16
ATOM     16  N   UNL d   1       2.576  -8.761   5.226  0.00  0.00     0.099 N 
ATOM     17  H   UNL d   1       3.547  -9.075   5.293  0.00  0.00     0.317 HD
BRANCH  16  18
ATOM     18  C   UNL d   1       1.669  -9.870   4.806  0.00  0.00     0.195 C 
ATOM     19  C   UNL d   1       0.201  -9.419   4.939  0.00  0.00     0.053 C 
BRANCH  18  20
ATOM     20  C   UNL d   1       1.921 -10.375   3.360  0.00  0.00     0.207 C 
BRANCH  20  21
ATOM     21  O   UNL d   1       3.269 -10.796   3.171  0.00  0.00    -0.398 OA
ATOM     22  H   UNL d   1       3.839 -10.048   3.413  0.00  0.00     0.209 HD
ENDBRANCH  20  21
ENDBRANCH  18  20
BRANCH  18  23
ATOM     23  C   UNL d   1       1.919 -11.057   5.784  0.00  0.00     0.207 C 
BRANCH  23  24
ATOM     24  O   UNL d   1       1.702 -10.654   7.138  0.00  0.00    -0.398 OA
ATOM     25  H   UNL d   1       2.046  -9.744   7.188  0.00  0.00     0.209 HD
ENDBRANCH  23  24
ENDBRANCH  18  23
ENDBRANCH  16  18
ENDBRANCH  15  16
ENDBRANCH   1  15
BRANCH   1  26
ATOM     26  O   UNL d   1       4.870  -7.074   4.756  0.00  0.00    -0.392 OA
ATOM     27  H   UNL d   1       5.086  -7.180   3.814  0.00  0.00     0.210 HD
ENDBRANCH   1  26
TORSDOF 13
