REMARK  6 active torsions:
REMARK  status: ('A' for Active; 'I' for Inactive)
REMARK    1  A    between atoms: C_10  and  C_2 
REMARK    2  A    between atoms: S_11  and  C_5 
REMARK    3  A    between atoms: O_16  and  C_6 
REMARK    4  A    between atoms: C_9  and  C_7 
REMARK    5  A    between atoms: O_18  and  C_10 
REMARK    6  A    between atoms: C_22  and  O_18 
ROOT
ATOM      1  C   UNL d   1       0.399  -0.884  -0.026  0.00  0.00     0.061 A 
ATOM      2  C   UNL d   1      -2.349  -0.306  -0.034  0.00  0.00     0.106 A 
ATOM      3  N   UNL d   1      -0.515  -1.866  -0.044  0.00  0.00    -0.348 N 
ATOM      4  HN  UNL d   1      -0.197  -2.835  -0.058  1.00  0.00     0.166 HD
ATOM      5  C   UNL d   1      -1.853  -1.610  -0.045  0.00  0.00     0.089 A 
ATOM      6  C   UNL d   1      -1.389   0.728  -0.028  0.00  0.00     0.097 A 
ATOM      7  C   UNL d   1       1.763  -1.179  -0.010  0.00  0.00     0.075 A 
ATOM      8  C   UNL d   1      -0.005   0.460  -0.019  0.00  0.00     0.026 A 
ATOM      9  C   UNL d   1       2.718  -0.140   0.013  0.00  0.00     0.018 A 
ATOM     10  C   UNL d   1       0.966   1.485   0.004  0.00  0.00     0.016 A 
ATOM     11  C   UNL d   1       2.322   1.188   0.021  0.00  0.00     0.002 A 
ENDROOT
BRANCH   2  12
ATOM     12  C   UNL d   1      -3.778   0.098   0.030  0.00  0.00     0.298 C 
ATOM     13  O   UNL d   1      -4.103   1.283   0.016  0.00  0.00    -0.259 OA
BRANCH  12  14
ATOM     14  O   UNL d   1      -4.635  -0.923   0.218  0.00  0.00    -0.318 OA
BRANCH  14  15
ATOM     15  C   UNL d   1      -5.937  -0.582   0.717  0.00  0.00     0.174 C 
ATOM     16  C   UNL d   1      -5.872  -0.633   2.232  0.00  0.00     0.034 C 
ENDBRANCH  14  15
ENDBRANCH  12  14
ENDBRANCH   2  12
BRANCH   6  17
ATOM     17  O   UNL d   1      -1.741   2.065  -0.016  0.00  0.00    -0.359 OA
ATOM     18  H   UNL d   1      -2.721   2.155  -0.020  0.00  0.00     0.217 HD
ENDBRANCH   6  17
BRANCH   5  19
ATOM     19  S   UNL d   1      -2.843  -3.107  -0.062  0.00  0.00    -0.116 SA
ATOM     20  C   UNL d   1      -1.569  -4.402  -0.016  0.00  0.00     0.097 C 
ENDBRANCH   5  19
BRANCH   7  21
ATOM     21  C   UNL d   1       2.278  -2.595  -0.028  0.00  0.00     0.419 C 
ATOM     22  F   UNL d   1       1.358  -3.595   0.005  0.00  0.00    -0.166 F 
ATOM     23  F   UNL d   1       3.035  -2.838  -1.139  0.00  0.00    -0.166 F 
ATOM     24  F   UNL d   1       3.109  -2.840   1.028  0.00  0.00    -0.166 F 
ENDBRANCH   7  21
TORSDOF 6
