REMARK  3 active torsions:
REMARK  status: ('A' for Active; 'I' for Inactive)
REMARK    1  A    between atoms: C_12  and  C_3 
REMARK    2  A    between atoms: C_11  and  C_6 
REMARK       I    between atoms: N_13  and  C_11 
REMARK    3  A    between atoms: C_15  and  N_13 
ROOT
ATOM      1  C   UNL d   1       0.046   0.711  -0.251  0.00  0.00     0.172 A 
ATOM      2  N   UNL d   1      -0.295  -0.501   0.273  0.00  0.00    -0.235 N 
ATOM      3  C   UNL d   1      -2.028   0.661   0.011  0.00  0.00     0.207 A 
ATOM      4  N   UNL d   1      -0.987   1.477  -0.442  0.00  0.00    -0.316 N 
ATOM      5  HN  UNL d   1      -1.027   2.423  -0.821  1.00  0.00     0.169 HD
ATOM      6  C   UNL d   1       1.913  -0.860  -0.013  0.00  0.00     0.100 A 
ATOM      7  N   UNL d   1      -1.622  -0.544   0.484  0.00  0.00    -0.273 N 
ATOM      8  HN  UNL d   1      -2.180  -1.291   0.895  1.00  0.00     0.189 HD
ATOM      9  C   UNL d   1       0.749  -1.397   0.421  0.00  0.00     0.055 A 
ATOM     10  S   UNL d   1       1.740   0.813  -0.589  0.00  0.00    -0.044 SA
ATOM     11  C   UNL d   1       0.463  -2.752   0.974  0.00  0.00     0.072 C 
ENDROOT
BRANCH   6  12
ATOM     12  C   UNL d   1       3.229  -1.569  -0.082  0.00  0.00     0.265 C 
ATOM     13  N   UNL d   1       4.269  -0.831  -0.608  0.00  0.00    -0.322 N 
ATOM     14  H   UNL d   1       4.051   0.114  -0.907  0.00  0.00     0.169 HD
ATOM     15  O   UNL d   1       3.310  -2.730   0.309  0.00  0.00    -0.267 OA
BRANCH  13  16
ATOM     16  C   UNL d   1       5.622  -1.230  -0.728  0.00  0.00     0.036 A 
ATOM     17  C   UNL d   1       6.102  -2.489  -0.356  0.00  0.00     0.053 A 
ATOM     18  C   UNL d   1       7.466  -2.778  -0.444  0.00  0.00     0.036 A 
ATOM     19 CL   UNL d   1       8.044  -4.325   0.045  0.00  0.00    -0.084 Cl
ATOM     20  C   UNL d   1       8.366  -1.826  -0.910  0.00  0.00     0.024 A 
ATOM     21  C   UNL d   1       7.895  -0.578  -1.312  0.00  0.00     0.004 A 
ATOM     22  C   UNL d   1       6.530  -0.284  -1.225  0.00  0.00     0.029 A 
ENDBRANCH  13  16
ENDBRANCH   6  12
BRANCH   3  23
ATOM     23  C   UNL d   1      -3.490   1.054  -0.071  0.00  0.00     0.450 C 
ATOM     24  F   UNL d   1      -3.675   2.293  -0.607  0.00  0.00    -0.163 F 
ATOM     25  F   UNL d   1      -4.202   0.192  -0.848  0.00  0.00    -0.163 F 
ATOM     26  F   UNL d   1      -4.091   1.068   1.149  0.00  0.00    -0.163 F 
ENDBRANCH   3  23
TORSDOF 3
