REMARK  3 active torsions:
REMARK  status: ('A' for Active; 'I' for Inactive)
REMARK    1  A    between atoms: C_9  and  C_5 
REMARK    2  A    between atoms: C_10  and  C_6 
REMARK    3  A    between atoms: C_11  and  C_8 
ROOT
ATOM      1  N   UNL d   1      -0.338   1.290  -0.318  0.00  0.00    -0.358 N 
ATOM      2  HN  UNL d   1      -0.637   2.143  -0.792  1.00  0.00     0.162 HD
ATOM      3  N   UNL d   1      -0.767  -1.108  -0.288  0.00  0.00    -0.358 N 
ATOM      4  HN  UNL d   1      -1.346  -1.816  -0.739  1.00  0.00     0.162 HD
ATOM      5  C   UNL d   1       0.882   1.147   0.045  0.00  0.00     0.084 C 
ATOM      6  C   UNL d   1       0.429  -1.386   0.076  0.00  0.00     0.084 C 
ATOM      7  S   UNL d   1       1.494  -0.261   0.862  0.00  0.00    -0.053 SA
ATOM      8  C   UNL d   1      -1.294   0.228  -0.051  0.00  0.00     0.217 C 
ENDROOT
BRANCH   5   9
ATOM      9  C   UNL d   1       1.852   2.251  -0.180  0.00  0.00    -0.002 A 
ATOM     10  C   UNL d   1       1.438   3.567   0.068  0.00  0.00     0.016 A 
ATOM     11  C   UNL d   1       2.333   4.628  -0.097  0.00  0.00     0.024 A 
ATOM     12  C   UNL d   1       3.633   4.375  -0.531  0.00  0.00     0.034 A 
ATOM     13  C   UNL d   1       4.043   3.073  -0.814  0.00  0.00     0.024 A 
ATOM     14 CL   UNL d   1       4.742   5.677  -0.714  0.00  0.00    -0.084 Cl
ATOM     15  C   UNL d   1       3.154   2.009  -0.641  0.00  0.00     0.016 A 
ENDBRANCH   5   9
BRANCH   8  16
ATOM     16  C   UNL d   1      -2.497   0.434  -0.963  0.00  0.00    -0.016 A 
ATOM     17  C   UNL d   1      -3.773   0.713  -0.453  0.00  0.00     0.012 A 
ATOM     18  C   UNL d   1      -4.851   0.905  -1.321  0.00  0.00     0.024 A 
ATOM     19  C   UNL d   1      -4.661   0.819  -2.701  0.00  0.00     0.034 A 
ATOM     20  C   UNL d   1      -3.403   0.543  -3.224  0.00  0.00     0.024 A 
ATOM     21 CL   UNL d   1      -5.992   1.059  -3.766  0.00  0.00    -0.084 Cl
ATOM     22  C   UNL d   1      -2.328   0.353  -2.358  0.00  0.00     0.012 A 
ENDBRANCH   8  16
BRANCH   6  23
ATOM     23  C   UNL d   1       0.955  -2.759  -0.124  0.00  0.00    -0.002 A 
ATOM     24  C   UNL d   1       2.239  -2.988  -0.637  0.00  0.00     0.016 A 
ATOM     25  C   UNL d   1       2.706  -4.296  -0.794  0.00  0.00     0.024 A 
ATOM     26  C   UNL d   1       1.891  -5.372  -0.441  0.00  0.00     0.034 A 
ATOM     27  C   UNL d   1       0.603  -5.153   0.047  0.00  0.00     0.024 A 
ATOM     28 CL   UNL d   1       2.480  -6.979  -0.610  0.00  0.00    -0.084 Cl
ATOM     29  C   UNL d   1       0.130  -3.846   0.196  0.00  0.00     0.016 A 
ENDBRANCH   6  23
TORSDOF 3
