REMARK  8 active torsions:
REMARK  status: ('A' for Active; 'I' for Inactive)
REMARK    1  A    between atoms: C_2  and  C_1 
REMARK       I    between atoms: N_12  and  C_2 
REMARK    2  A    between atoms: C_3  and  C_4 
REMARK    3  A    between atoms: C_5  and  C_14 
REMARK    4  A    between atoms: O_21  and  C_6 
REMARK       I    between atoms: C_9  and  N_18 
REMARK       I    between atoms: N_19  and  C_9 
REMARK    5  A    between atoms: C_11  and  C_24 
REMARK    6  A    between atoms: N_18  and  N_12 
REMARK    7  A    between atoms: C_26  and  N_19 
REMARK    8  A    between atoms: C_24  and  O_21 
ROOT
ATOM      1  C   UNL d   1      -0.387   2.597   0.595  0.00  0.00     0.279 C 
ATOM      2  N   UNL d   1      -1.720   2.735   0.957  0.00  0.00    -0.261 N 
ATOM      3  O   UNL d   1       0.345   3.589   0.541  0.00  0.00    -0.265 OA
ATOM      4  H   UNL d   1      -2.381   1.963   0.870  0.00  0.00     0.190 HD
ENDROOT
BRANCH   1   5
ATOM      5  C   UNL d   1       0.038   1.228   0.318  0.00  0.00     0.107 A 
ATOM      6  C   UNL d   1       1.310   0.675   0.350  0.00  0.00     0.092 A 
ATOM      7  C   UNL d   1       1.292  -0.731   0.071  0.00  0.00     0.045 A 
ATOM      8  C   UNL d   1       0.036  -1.187  -0.252  0.00  0.00     0.053 A 
ATOM      9  S   UNL d   1      -1.130   0.049  -0.158  0.00  0.00    -0.094 SA
BRANCH   6  10
ATOM     10  O   UNL d   1       2.395   1.436   0.662  0.00  0.00    -0.344 OA
BRANCH  10  11
ATOM     11  C   UNL d   1       3.652   0.797   0.411  0.00  0.00     0.234 C 
BRANCH  11  12
ATOM     12  C   UNL d   1       4.791   1.789   0.460  0.00  0.00     0.055 A 
ATOM     13  N   UNL d   1       5.413   2.037  -0.731  0.00  0.00    -0.365 N 
ATOM     14  C   UNL d   1       6.445   2.909  -0.742  0.00  0.00     0.104 A 
ATOM     15  HN  UNL d   1       5.106   1.577  -1.588  1.00  0.00     0.165 HD
ATOM     16  C   UNL d   1       6.916   3.558   0.386  0.00  0.00     0.064 A 
ATOM     17  C   UNL d   1       6.285   3.280   1.604  0.00  0.00     0.043 A 
ATOM     18  C   UNL d   1       5.213   2.386   1.648  0.00  0.00     0.059 A 
ATOM     19 CL   UNL d   1       4.496   2.041   3.175  0.00  0.00    -0.082 Cl
BRANCH  16  20
ATOM     20  C   UNL d   1       8.063   4.511   0.263  0.00  0.00     0.418 C 
ATOM     21  F   UNL d   1       8.410   5.097   1.439  0.00  0.00    -0.166 F 
ATOM     22  F   UNL d   1       9.192   3.906  -0.201  0.00  0.00    -0.166 F 
ATOM     23  F   UNL d   1       7.804   5.529  -0.603  0.00  0.00    -0.166 F 
ENDBRANCH  16  20
ENDBRANCH  11  12
ENDBRANCH  10  11
ENDBRANCH   6  10
ENDBRANCH   1   5
BRANCH   2  24
ATOM     24  N   UNL d   1      -2.278   4.012   1.166  0.00  0.00    -0.248 N 
ATOM     25  C   UNL d   1      -3.628   4.148   0.858  0.00  0.00     0.339 C 
ATOM     26  N   UNL d   1      -4.072   5.439   1.065  0.00  0.00    -0.308 N 
ATOM     27  O   UNL d   1      -4.298   3.187   0.493  0.00  0.00    -0.245 OA
ATOM     28  H   UNL d   1      -3.436   6.040   1.568  0.00  0.00     0.170 HD
ATOM     29  H   UNL d   1      -1.645   4.780   0.949  0.00  0.00     0.192 HD
BRANCH  26  30
ATOM     30  C   UNL d   1      -5.348   5.966   0.773  0.00  0.00     0.037 A 
ATOM     31  C   UNL d   1      -6.344   5.261   0.091  0.00  0.00     0.045 A 
ATOM     32  C   UNL d   1      -7.574   5.867  -0.229  0.00  0.00     0.050 A 
ATOM     33  C   UNL d   1      -7.802   7.194   0.159  0.00  0.00     0.016 A 
ATOM     34  C   UNL d   1      -6.825   7.900   0.857  0.00  0.00     0.003 A 
ATOM     35  C   UNL d   1      -5.605   7.288   1.161  0.00  0.00     0.029 A 
BRANCH  32  36
ATOM     36  C   UNL d   1      -8.629   5.119  -1.008  0.00  0.00     0.417 C 
ATOM     37  F   UNL d   1      -8.323   3.813  -1.243  0.00  0.00    -0.166 F 
ATOM     38  F   UNL d   1      -9.836   5.110  -0.376  0.00  0.00    -0.166 F 
ATOM     39  F   UNL d   1      -8.856   5.674  -2.231  0.00  0.00    -0.166 F 
ENDBRANCH  32  36
ENDBRANCH  26  30
ENDBRANCH   2  24
TORSDOF 8
