REMARK  6 active torsions:
REMARK  status: ('A' for Active; 'I' for Inactive)
REMARK    1  A    between atoms: C_8  and  C_4 
REMARK    2  A    between atoms: C_9  and  C_5 
REMARK    3  A    between atoms: O_21  and  C_6 
REMARK    4  A    between atoms: O_22  and  C_7 
REMARK    5  A    between atoms: O_23  and  C_14 
REMARK    6  A    between atoms: O_24  and  C_15 
ROOT
ATOM      1  C   UNL d   1       0.809  -0.195   0.186  0.00  0.00    -0.006 A 
ATOM      2  C   UNL d   1       0.327   2.116  -0.127  0.00  0.00    -0.006 A 
ATOM      3  C   UNL d   1       1.422   1.120  -0.098  0.00  0.00     0.184 A 
ATOM      4  C   UNL d   1       1.568  -1.293   0.313  0.00  0.00     0.022 C 
ATOM      5  C   UNL d   1       0.591   3.423  -0.268  0.00  0.00     0.022 C 
ATOM      6  C   UNL d   1      -0.676  -0.050   0.301  0.00  0.00     0.047 A 
ATOM      7  C   UNL d   1      -0.989   1.429   0.062  0.00  0.00     0.047 A 
ATOM      8  O   UNL d   1       2.604   1.346  -0.260  0.00  0.00    -0.287 OA
ENDROOT
BRANCH   4   9
ATOM      9  C   UNL d   1       1.000  -2.615   0.573  0.00  0.00    -0.033 A 
ATOM     10  C   UNL d   1       0.636  -3.433  -0.503  0.00  0.00     0.051 A 
ATOM     11  C   UNL d   1       0.031  -4.681  -0.294  0.00  0.00     0.102 A 
ATOM     12  C   UNL d   1      -0.169  -5.123   1.027  0.00  0.00     0.101 A 
ATOM     13  C   UNL d   1       0.191  -4.293   2.099  0.00  0.00     0.040 A 
ATOM     14  C   UNL d   1       0.772  -3.046   1.878  0.00  0.00     0.014 A 
BRANCH  11  15
ATOM     15  O   UNL d   1      -0.415  -5.478  -1.315  0.00  0.00    -0.353 OA
ATOM     16  C   UNL d   1      -0.277  -4.998  -2.646  0.00  0.00     0.210 C 
ENDBRANCH  11  15
BRANCH  12  17
ATOM     17  O   UNL d   1      -0.756  -6.296   1.429  0.00  0.00    -0.353 OA
ATOM     18  C   UNL d   1      -0.556  -7.430   0.594  0.00  0.00     0.210 C 
ENDBRANCH  12  17
ENDBRANCH   4   9
BRANCH   5  19
ATOM     19  C   UNL d   1      -0.453   4.445  -0.211  0.00  0.00    -0.033 A 
ATOM     20  C   UNL d   1      -0.792   5.008   1.027  0.00  0.00     0.051 A 
ATOM     21  C   UNL d   1      -1.832   5.943   1.139  0.00  0.00     0.102 A 
ATOM     22  C   UNL d   1      -2.507   6.345  -0.028  0.00  0.00     0.101 A 
ATOM     23  C   UNL d   1      -2.165   5.772  -1.262  0.00  0.00     0.040 A 
ATOM     24  C   UNL d   1      -1.145   4.827  -1.357  0.00  0.00     0.014 A 
BRANCH  21  25
ATOM     25  O   UNL d   1      -2.253   6.455   2.337  0.00  0.00    -0.353 OA
ATOM     26  C   UNL d   1      -1.615   5.995   3.522  0.00  0.00     0.210 C 
ENDBRANCH  21  25
BRANCH  22  27
ATOM     27  O   UNL d   1      -3.552   7.229  -0.117  0.00  0.00    -0.353 OA
ATOM     28  C   UNL d   1      -3.558   8.308   0.811  0.00  0.00     0.210 C 
ENDBRANCH  22  27
ENDBRANCH   5  19
TORSDOF 6
