REMARK  5 active torsions:
REMARK  status: ('A' for Active; 'I' for Inactive)
REMARK    1  A    between atoms: C_3  and  S_1 
REMARK    2  A    between atoms: C_4  and  S_1 
REMARK    3  A    between atoms: C_2  and  S_11 
REMARK    4  A    between atoms: C_14  and  C_4 
REMARK    5  A    between atoms: S_11  and  C_14 
ROOT
ATOM      1  C   UNL d   1       0.365  -1.567   0.757  0.00  0.00     0.156 C 
ENDROOT
BRANCH   1   2
ATOM      2  S   UNL d   1       1.006  -0.102  -0.023  0.00  0.00     0.176 S 
ATOM      3  O   UNL d   1       2.379   0.082   0.407  0.00  0.00    -0.223 OA
ATOM      4  O   UNL d   1       0.669  -0.147  -1.433  0.00  0.00    -0.223 OA
BRANCH   2   5
ATOM      5  C   UNL d   1       0.048   1.222   0.699  0.00  0.00     0.059 A 
ATOM      6  C   UNL d   1       0.527   1.890   1.833  0.00  0.00     0.026 A 
ATOM      7  C   UNL d   1      -0.208   2.951   2.367  0.00  0.00     0.044 A 
ATOM      8  C   UNL d   1      -1.398   3.341   1.760  0.00  0.00     0.116 A 
ATOM      9  C   UNL d   1      -1.867   2.695   0.620  0.00  0.00     0.044 A 
ATOM     10  F   UNL d   1      -2.098   4.361   2.274  0.00  0.00    -0.206 F 
ATOM     11  C   UNL d   1      -1.140   1.632   0.079  0.00  0.00     0.026 A 
ENDBRANCH   2   5
ENDBRANCH   1   2
BRANCH   1  12
ATOM     12  C   UNL d   1       1.038  -2.815   0.199  0.00  0.00     0.097 C 
BRANCH  12  13
ATOM     13  S   UNL d   1       0.338  -4.274   1.048  0.00  0.00    -0.093 SA
BRANCH  13  14
ATOM     14  C   UNL d   1       1.245  -5.605   0.296  0.00  0.00     0.143 A 
ATOM     15  N   UNL d   1       2.175  -5.337  -0.635  0.00  0.00    -0.347 N 
ATOM     16  C   UNL d   1       2.823  -6.400  -1.153  0.00  0.00     0.091 A 
ATOM     17  HN  UNL d   1       2.379  -4.383  -0.934  1.00  0.00     0.167 HD
ATOM     18  C   UNL d   1       2.579  -7.702  -0.780  0.00  0.00     0.034 A 
ATOM     19  C   UNL d   1       1.609  -7.864   0.179  0.00  0.00     0.091 A 
ATOM     20  N   UNL d   1       0.933  -6.841   0.729  0.00  0.00    -0.347 N 
ATOM     21  HN  UNL d   1       0.217  -6.994   1.440  1.00  0.00     0.167 HD
ENDBRANCH  13  14
ENDBRANCH  12  13
ENDBRANCH   1  12
TORSDOF 5
