REMARK  4 active torsions:
REMARK  status: ('A' for Active; 'I' for Inactive)
REMARK    1  A    between atoms: C_1  and  C_4 
REMARK    2  A    between atoms: C_2  and  C_5 
REMARK       I    between atoms: N_9  and  C_4 
REMARK       I    between atoms: N_8  and  C_5 
REMARK    3  A    between atoms: N_13  and  N_8 
REMARK    4  A    between atoms: N_12  and  N_9 
ROOT
ATOM      1  C   UNL d   1       0.101   1.002  -0.104  0.00  0.00     0.056 A 
ATOM      2  C   UNL d   1       0.922  -0.306   0.051  0.00  0.00     0.056 A 
ATOM      3  C   UNL d   1      -0.591  -0.345  -0.073  0.00  0.00     0.040 A 
ATOM      4  C   UNL d   1      -0.102   1.893   1.107  0.00  0.00     0.027 C 
ATOM      5  C   UNL d   1       1.690  -0.868  -1.128  0.00  0.00     0.027 C 
ENDROOT
BRANCH   1   6
ATOM      6  C   UNL d   1       0.213   1.749  -1.397  0.00  0.00     0.241 C 
ATOM      7  O   UNL d   1       1.293   2.200  -1.764  0.00  0.00    -0.271 OA
ATOM      8  N   UNL d   1      -0.989   1.934  -2.057  0.00  0.00    -0.293 N 
ATOM      9  H   UNL d   1      -1.840   1.505  -1.701  0.00  0.00     0.183 HD
BRANCH   8  10
ATOM     10  N   UNL d   1      -1.035   2.671  -3.256  0.00  0.00    -0.247 NA
ATOM     11  H   UNL d   1      -0.062   2.808  -3.566  0.00  0.00     0.143 HD
ATOM     12  H   UNL d   1      -1.359   3.616  -3.036  0.00  0.00     0.143 HD
ENDBRANCH   8  10
ENDBRANCH   1   6
BRANCH   2  13
ATOM     13  C   UNL d   1       1.523  -0.590   1.398  0.00  0.00     0.241 C 
ATOM     14  O   UNL d   1       1.046  -1.443   2.137  0.00  0.00    -0.271 OA
ATOM     15  N   UNL d   1       2.617   0.196   1.709  0.00  0.00    -0.293 N 
ATOM     16  H   UNL d   1       3.005   0.836   1.017  0.00  0.00     0.183 HD
BRANCH  15  17
ATOM     17  N   UNL d   1       3.286   0.011   2.939  0.00  0.00    -0.247 NA
ATOM     18  H   UNL d   1       2.943  -0.877   3.333  0.00  0.00     0.143 HD
ATOM     19  H   UNL d   1       2.945   0.718   3.595  0.00  0.00     0.143 HD
ENDBRANCH  15  17
ENDBRANCH   2  13
TORSDOF 4
