REMARK  6 active torsions:
REMARK  status: ('A' for Active; 'I' for Inactive)
REMARK       I    between atoms: N_3  and  C_1 
REMARK    1  A    between atoms: C_5  and  C_1 
REMARK    2  A    between atoms: C_2  and  C_6 
REMARK    3  A    between atoms: C_4  and  N_3 
REMARK    4  A    between atoms: S_7  and  C_5 
REMARK    5  A    between atoms: C_12  and  C_5 
REMARK    6  A    between atoms: C_17  and  S_7 
ROOT
ATOM      1  C   UNL d   1       1.018  -0.100  -0.017  0.00  0.00     0.240 C 
ATOM      2  N   UNL d   1       1.902  -1.130  -0.300  0.00  0.00    -0.324 N 
ATOM      3  O   UNL d   1       0.875   0.376   1.113  0.00  0.00    -0.272 OA
ATOM      4  H   UNL d   1       2.135  -1.286  -1.276  0.00  0.00     0.169 HD
ENDROOT
BRANCH   1   5
ATOM      5  C   UNL d   1       0.196   0.486  -1.188  0.00  0.00     0.177 C 
BRANCH   5   6
ATOM      6  S   UNL d   1       0.663  -0.136  -2.860  0.00  0.00    -0.111 SA
BRANCH   6   7
ATOM      7  C   UNL d   1       2.357   0.397  -3.061  0.00  0.00     0.001 A 
ATOM      8  C   UNL d   1       3.165  -0.386  -3.898  0.00  0.00     0.020 A 
ATOM      9  C   UNL d   1       4.535  -0.138  -4.002  0.00  0.00     0.025 A 
ATOM     10  C   UNL d   1       5.104   0.905  -3.277  0.00  0.00     0.034 A 
ATOM     11  C   UNL d   1       4.305   1.721  -2.482  0.00  0.00     0.025 A 
ATOM     12 CL   UNL d   1       6.800   1.173  -3.346  0.00  0.00    -0.084 Cl
ATOM     13  C   UNL d   1       2.934   1.477  -2.384  0.00  0.00     0.020 A 
ENDBRANCH   6   7
ENDBRANCH   5   6
BRANCH   5  14
ATOM     14  C   UNL d   1      -1.311   0.337  -0.991  0.00  0.00    -0.035 A 
ATOM     15  C   UNL d   1      -2.168   1.354  -1.451  0.00  0.00     0.009 A 
ATOM     16  C   UNL d   1      -3.553   1.240  -1.315  0.00  0.00     0.001 A 
ATOM     17  C   UNL d   1      -4.103   0.110  -0.717  0.00  0.00     0.000 A 
ATOM     18  C   UNL d   1      -3.268  -0.905  -0.252  0.00  0.00     0.001 A 
ATOM     19  C   UNL d   1      -1.882  -0.797  -0.392  0.00  0.00     0.009 A 
ENDBRANCH   5  14
ENDBRANCH   1   5
BRANCH   2  20
ATOM     20  C   UNL d   1       2.688  -1.847   0.637  0.00  0.00     0.057 A 
ATOM     21  C   UNL d   1       2.329  -1.922   1.987  0.00  0.00     0.047 A 
ATOM     22  C   UNL d   1       3.094  -2.657   2.910  0.00  0.00     0.050 A 
ATOM     23  C   UNL d   1       4.249  -3.314   2.468  0.00  0.00     0.018 A 
ATOM     24  C   UNL d   1       4.619  -3.255   1.126  0.00  0.00     0.027 A 
ATOM     25  C   UNL d   1       3.836  -2.542   0.214  0.00  0.00     0.060 A 
ATOM     26 CL   UNL d   1       4.346  -2.532  -1.433  0.00  0.00    -0.082 Cl
BRANCH  22  27
ATOM     27  C   UNL d   1       2.665  -2.756   4.354  0.00  0.00     0.417 C 
ATOM     28  F   UNL d   1       1.542  -2.047   4.645  0.00  0.00    -0.166 F 
ATOM     29  F   UNL d   1       2.401  -4.042   4.721  0.00  0.00    -0.166 F 
ATOM     30  F   UNL d   1       3.623  -2.313   5.212  0.00  0.00    -0.166 F 
ENDBRANCH  22  27
ENDBRANCH   2  20
TORSDOF 6
