REMARK  0 active torsions:
REMARK  status: ('A' for Active; 'I' for Inactive)
ROOT
ATOM      1  N   UNL d   1       0.697   1.046  -0.409  0.00  0.00    -0.345 N 
ATOM      2  C   UNL d   1       1.547   0.039   0.043  0.00  0.00     0.139 C 
ATOM      3  S   UNL d   1       0.876  -1.580  -0.029  0.00  0.00    -0.070 SA
ATOM      4  C   UNL d   1      -0.652   1.104   0.112  0.00  0.00     0.399 C 
ATOM      5  N   UNL d   1      -1.378  -0.097  -0.258  0.00  0.00     0.111 N 
ATOM      6  C   UNL d   1      -0.815  -1.245   0.438  0.00  0.00     0.355 C 
ATOM      7  S   UNL d   1       3.145   0.245   0.517  0.00  0.00    -0.053 SA
ATOM      8  C   UNL d   1       1.226   2.321  -0.882  0.00  0.00     0.153 C 
ATOM      9  C   UNL d   1      -2.791   0.045   0.102  0.00  0.00     0.313 C 
ENDROOT
TORSDOF 0
