REMARK  0 active torsions:
REMARK  status: ('A' for Active; 'I' for Inactive)
ROOT
ATOM      1  S   UNL d   1       1.690  -0.783  -0.001  0.00  0.00    -0.034 SA
ATOM      2  C   UNL d   1       2.019   0.913   0.002  0.00  0.00     0.146 A 
ATOM      3  N   UNL d   1       0.961   1.692   0.003  0.00  0.00    -0.335 N 
ATOM      4  HN  UNL d   1       0.984   2.712   0.004  1.00  0.00     0.168 HD
ATOM      5  C   UNL d   1       0.023  -0.450  -0.001  0.00  0.00     0.104 A 
ATOM      6  C   UNL d   1      -0.187   0.924   0.001  0.00  0.00     0.068 A 
ATOM      7  N   UNL d   1      -0.919  -1.418  -0.002  0.00  0.00    -0.358 N 
ATOM      8  HN  UNL d   1      -0.700  -2.415  -0.003  1.00  0.00     0.166 HD
ATOM      9  N   UNL d   1       3.297   1.342   0.004  0.00  0.00    -0.375 N 
ATOM     10  C   UNL d   1      -1.519   1.371   0.002  0.00  0.00     0.034 A 
ATOM     11  C   UNL d   1      -2.180  -0.932  -0.002  0.00  0.00     0.089 A 
ATOM     12  C   UNL d   1       3.632   2.743   0.008  0.00  0.00     0.148 C 
ATOM     13  C   UNL d   1      -2.531   0.411   0.000  0.00  0.00     0.019 A 
ATOM     14  H   UNL d   1       4.059   0.674   0.003  0.00  0.00     0.161 HD
ENDROOT
TORSDOF 0
