REMARK  4 active torsions:
REMARK  status: ('A' for Active; 'I' for Inactive)
REMARK    1  A    between atoms: C_3  and  C_1 
REMARK    2  A    between atoms: C_15  and  N_2 
REMARK    3  A    between atoms: C_22  and  C_10 
REMARK    4  A    between atoms: N_18  and  C_11 
ROOT
ATOM      1  C   UNL d   1      -0.182  -1.361   0.274  0.00  0.00     0.152 C 
ATOM      2  N   UNL d   1       1.069  -0.739   0.232  0.00  0.00    -0.224 N 
ATOM      3  N   UNL d   1       0.869   0.601   0.235  0.00  0.00     0.001 NA
ATOM      4  N   UNL d   1      -0.418   0.779   0.467  0.00  0.00    -0.007 NA
ATOM      5  N   UNL d   1      -1.078  -0.414   0.494  0.00  0.00    -0.269 N 
ATOM      6  HN  UNL d   1      -2.076  -0.550   0.655  1.00  0.00     0.185 HD
ENDROOT
BRANCH   1   7
ATOM      7  C   UNL d   1      -0.496  -2.768   0.008  0.00  0.00     0.049 A 
ATOM      8  C   UNL d   1      -1.545  -3.464   0.604  0.00  0.00     0.026 A 
ATOM      9  N   UNL d   1      -1.754  -4.787   0.367  0.00  0.00    -0.336 N 
ATOM     10  C   UNL d   1      -0.961  -5.408  -0.506  0.00  0.00     0.154 A 
ATOM     11  HN  UNL d   1      -2.499  -5.293   0.847  1.00  0.00     0.168 HD
ATOM     12  N   UNL d   1       0.031  -4.824  -1.168  0.00  0.00    -0.342 N 
ATOM     13  C   UNL d   1       0.219  -3.511  -0.918  0.00  0.00     0.108 A 
ATOM     14  HN  UNL d   1       0.616  -5.337  -1.827  1.00  0.00     0.167 HD
BRANCH   8  15
ATOM     15  C   UNL d   1      -2.523  -2.792   1.548  0.00  0.00     0.054 C 
ATOM     16  C   UNL d   1      -3.651  -3.687   2.053  0.00  0.00     0.011 C 
ENDBRANCH   8  15
BRANCH  10  17
ATOM     17  N   UNL d   1      -1.144  -6.762  -0.693  0.00  0.00    -0.274 NA
ATOM     18  H   UNL d   1      -0.279  -7.189  -0.995  0.00  0.00     0.127 HD
ATOM     19  H   UNL d   1      -1.609  -7.160   0.109  0.00  0.00     0.127 HD
ENDBRANCH  10  17
ENDBRANCH   1   7
BRANCH   2  20
ATOM     20  C   UNL d   1       2.385  -1.266   0.196  0.00  0.00     0.056 A 
ATOM     21  C   UNL d   1       3.405  -0.512  -0.401  0.00  0.00     0.032 A 
ATOM     22  C   UNL d   1       4.698  -1.033  -0.494  0.00  0.00     0.009 A 
ATOM     23  C   UNL d   1       4.995  -2.297   0.030  0.00  0.00    -0.062 A 
ATOM     24  C   UNL d   1       3.983  -3.027   0.661  0.00  0.00     0.009 A 
ATOM     25  C   UNL d   1       6.394  -2.832  -0.051  0.00  0.00     0.048 C 
ATOM     26  C   UNL d   1       2.685  -2.516   0.752  0.00  0.00     0.032 A 
ENDBRANCH   2  20
TORSDOF 4
