REMARK  5 active torsions:
REMARK  status: ('A' for Active; 'I' for Inactive)
REMARK    1  A    between atoms: N_12  and  C_3 
REMARK    2  A    between atoms: C_13  and  C_10 
REMARK    3  A    between atoms: C_17  and  C_11 
REMARK       I    between atoms: C_14  and  N_16 
REMARK    4  A    between atoms: C_19  and  C_14 
REMARK    5  A    between atoms: C_15  and  C_18 
ROOT
ATOM      1  N   UNL d   1      -0.983   0.741   1.231  0.00  0.00    -0.224 N 
ATOM      2  C   UNL d   1      -1.095  -0.653   1.192  0.00  0.00     0.131 A 
ATOM      3  C   UNL d   1      -0.893   1.492   0.027  0.00  0.00     0.129 A 
ATOM      4  N   UNL d   1      -0.937   1.187   2.517  0.00  0.00    -0.294 N 
ATOM      5  HN  UNL d   1      -0.843   2.153   2.830  1.00  0.00     0.187 HD
ATOM      6  C   UNL d   1      -0.915   0.811  -1.137  0.00  0.00     0.084 A 
ATOM      7  N   UNL d   1      -1.151  -1.362   0.027  0.00  0.00    -0.337 N 
ATOM      8  HN  UNL d   1      -1.248  -2.378   0.024  1.00  0.00     0.167 HD
ATOM      9  C   UNL d   1      -1.135  -1.072   2.499  0.00  0.00     0.077 A 
ATOM     10  C   UNL d   1      -1.075  -0.679  -1.085  0.00  0.00     0.121 A 
ATOM     11  C   UNL d   1      -1.040   0.097   3.284  0.00  0.00     0.037 A 
ENDROOT
BRANCH   3  12
ATOM     12  N   UNL d   1      -0.758   2.899   0.041  0.00  0.00    -0.363 N 
ATOM     13  C   UNL d   1      -1.322   3.724   1.153  0.00  0.00     0.144 C 
ATOM     14  C   UNL d   1      -1.539   5.181   0.687  0.00  0.00     0.146 C 
ATOM     15  N   UNL d   1      -0.303   5.762   0.138  0.00  0.00    -0.345 N 
ATOM     16  C   UNL d   1       0.224   6.907   0.735  0.00  0.00     0.253 C 
ATOM     17  C   UNL d   1       0.313   4.924  -0.903  0.00  0.00     0.146 C 
ATOM     18  O   UNL d   1      -0.328   7.464   1.690  0.00  0.00    -0.267 OA
ATOM     19  C   UNL d   1       0.514   3.476  -0.446  0.00  0.00     0.144 C 
BRANCH  16  20
ATOM     20  C   UNL d   1       1.520   7.484   0.284  0.00  0.00     0.032 A 
ATOM     21  C   UNL d   1       1.890   7.556  -1.061  0.00  0.00     0.018 A 
ATOM     22  C   UNL d   1       3.176   7.966  -1.421  0.00  0.00     0.017 A 
ATOM     23  C   UNL d   1       4.076   8.424  -0.448  0.00  0.00     0.048 A 
ATOM     24  C   UNL d   1       3.656   8.474   0.890  0.00  0.00     0.017 A 
ATOM     25  C   UNL d   1       2.393   7.996   1.254  0.00  0.00     0.018 A 
BRANCH  23  26
ATOM     26  C   UNL d   1       5.458   8.892  -0.837  0.00  0.00     0.417 C 
ATOM     27  F   UNL d   1       5.753   8.668  -2.148  0.00  0.00    -0.166 F 
ATOM     28  F   UNL d   1       5.630  10.227  -0.637  0.00  0.00    -0.166 F 
ATOM     29  F   UNL d   1       6.440   8.273  -0.125  0.00  0.00    -0.166 F 
ENDBRANCH  23  26
ENDBRANCH  16  20
ENDBRANCH   3  12
BRANCH  10  30
ATOM     30  C   UNL d   1      -1.156  -1.408  -2.428  0.00  0.00     0.432 C 
ATOM     31  F   UNL d   1      -1.071  -0.563  -3.495  0.00  0.00    -0.165 F 
ATOM     32  F   UNL d   1      -0.154  -2.315  -2.587  0.00  0.00    -0.165 F 
ATOM     33  F   UNL d   1      -2.326  -2.087  -2.576  0.00  0.00    -0.165 F 
ENDBRANCH  10  30
BRANCH  11  34
ATOM     34  C   UNL d   1      -1.055   0.241   4.796  0.00  0.00    -0.007 C 
ATOM     35  C   UNL d   1      -2.259   1.102   5.230  0.00  0.00     0.021 C 
ATOM     36  C   UNL d   1      -1.169  -1.130   5.493  0.00  0.00     0.021 C 
ATOM     37  C   UNL d   1       0.243   0.918   5.284  0.00  0.00     0.021 C 
ENDBRANCH  11  34
TORSDOF 5
