REMARK  5 active torsions:
REMARK  status: ('A' for Active; 'I' for Inactive)
REMARK    1  A    between atoms: C_5  and  C_1 
REMARK    2  A    between atoms: C_8  and  C_2 
REMARK    3  A    between atoms: C_6  and  C_12 
REMARK       I    between atoms: N_13  and  C_8 
REMARK    4  A    between atoms: N_17  and  N_13 
REMARK    5  A    between atoms: C_14  and  N_17 
ROOT
ATOM      1  C   UNL d   1       0.278  -2.710  -0.284  0.00  0.00     0.271 C 
ATOM      2  N   UNL d   1       1.486  -3.167   0.215  0.00  0.00    -0.281 N 
ATOM      3  O   UNL d   1      -0.531  -3.431  -0.860  0.00  0.00    -0.266 OA
ATOM      4  H   UNL d   1       2.181  -2.583   0.670  0.00  0.00     0.184 HD
ENDROOT
BRANCH   1   5
ATOM      5  C   UNL d   1      -0.014  -1.321   0.020  0.00  0.00     0.094 A 
ATOM      6  C   UNL d   1      -1.302  -0.737   0.284  0.00  0.00     0.086 A 
ATOM      7  N   UNL d   1      -1.163   0.563   0.597  0.00  0.00    -0.259 N 
ATOM      8  O   UNL d   1       0.166   0.863   0.450  0.00  0.00    -0.241 OA
ATOM      9  HN  UNL d   1      -1.903   1.202   0.887  1.00  0.00     0.195 HD
ATOM     10  C   UNL d   1       0.858  -0.252   0.098  0.00  0.00     0.090 A 
ATOM     11  C   UNL d   1       2.298  -0.017  -0.138  0.00  0.00     0.080 C 
BRANCH   6  12
ATOM     12  C   UNL d   1      -2.635  -1.348   0.293  0.00  0.00     0.037 A 
ATOM     13  C   UNL d   1      -2.939  -2.454   1.109  0.00  0.00     0.048 A 
ATOM     14 CL   UNL d   1      -1.807  -3.142   2.231  0.00  0.00    -0.083 Cl
ATOM     15  C   UNL d   1      -4.220  -3.029   1.101  0.00  0.00     0.025 A 
ATOM     16  C   UNL d   1      -5.235  -2.485   0.319  0.00  0.00     0.003 A 
ATOM     17  C   UNL d   1      -4.968  -1.370  -0.466  0.00  0.00     0.025 A 
ATOM     18  C   UNL d   1      -3.680  -0.813  -0.496  0.00  0.00     0.048 A 
ATOM     19 CL   UNL d   1      -3.467   0.538  -1.564  0.00  0.00    -0.083 Cl
ENDBRANCH   6  12
ENDBRANCH   1   5
BRANCH   2  20
ATOM     20  N   UNL d   1       1.848  -4.514   0.029  0.00  0.00    -0.187 NA
ATOM     21  H   UNL d   1       1.352  -5.131   0.672  0.00  0.00     0.154 HD
BRANCH  20  22
ATOM     22  C   UNL d   1       3.249  -4.711   0.092  0.00  0.00     0.098 A 
ATOM     23  N   UNL d   1       4.078  -3.642   0.045  0.00  0.00    -0.342 N 
ATOM     24  C   UNL d   1       5.427  -3.860  -0.023  0.00  0.00     0.117 A 
ATOM     25  HN  UNL d   1       3.705  -2.692   0.060  1.00  0.00     0.167 HD
ATOM     26  C   UNL d   1       5.969  -5.144  -0.009  0.00  0.00     0.034 A 
ATOM     27  C   UNL d   1       5.111  -6.234   0.064  0.00  0.00     0.005 A 
ATOM     28  C   UNL d   1       3.737  -6.015   0.100  0.00  0.00     0.044 A 
BRANCH  24  29
ATOM     29  C   UNL d   1       6.367  -2.671  -0.165  0.00  0.00     0.432 C 
ATOM     30  F   UNL d   1       5.749  -1.459  -0.075  0.00  0.00    -0.165 F 
ATOM     31  F   UNL d   1       7.344  -2.660   0.789  0.00  0.00    -0.165 F 
ATOM     32  F   UNL d   1       7.026  -2.666  -1.361  0.00  0.00    -0.165 F 
ENDBRANCH  24  29
ENDBRANCH  20  22
ENDBRANCH   2  20
TORSDOF 5
