REMARK  9 active torsions:
REMARK  status: ('A' for Active; 'I' for Inactive)
REMARK    1  A    between atoms: N_2  and  C_1 
REMARK    2  A    between atoms: C_3  and  C_1 
REMARK    3  A    between atoms: C_4  and  C_1 
REMARK    4  A    between atoms: N_5  and  C_1 
REMARK       I    between atoms: C_6  and  N_2 
REMARK    5  A    between atoms: O_19  and  C_4 
REMARK    6  A    between atoms: C_9  and  N_5 
REMARK    7  A    between atoms: O_18  and  C_6 
REMARK    8  A    between atoms: C_22  and  O_18 
REMARK    9  A    between atoms: C_23  and  O_19 
ROOT
ATOM      1  C   UNL d   1       0.990  -0.004   0.017  0.00  0.00     0.298 C 
ENDROOT
BRANCH   1   2
ATOM      2  N   UNL d   1       0.476   1.242   0.550  0.00  0.00    -0.294 N 
ATOM      3  C   UNL d   1      -0.851   1.499   0.585  0.00  0.00     0.363 C 
ATOM      4  O   UNL d   1      -1.699   0.807   0.052  0.00  0.00    -0.238 OA
ATOM      5  H   UNL d   1       1.085   1.802   1.124  0.00  0.00     0.168 HD
BRANCH   3   6
ATOM      6  O   UNL d   1      -1.059   2.648   1.263  0.00  0.00    -0.304 OA
BRANCH   6   7
ATOM      7  C   UNL d   1      -2.378   3.191   1.146  0.00  0.00     0.176 C 
ATOM      8  C   UNL d   1      -2.397   4.102  -0.065  0.00  0.00     0.034 C 
ENDBRANCH   6   7
ENDBRANCH   3   6
ENDBRANCH   1   2
BRANCH   1   9
ATOM      9  C   UNL d   1       0.446  -0.504  -1.370  0.00  0.00     0.442 C 
ATOM     10  F   UNL d   1      -0.153   0.484  -2.083  0.00  0.00    -0.166 F 
ATOM     11  F   UNL d   1       1.464  -0.957  -2.156  0.00  0.00    -0.166 F 
ATOM     12  F   UNL d   1      -0.435  -1.527  -1.278  0.00  0.00    -0.166 F 
ENDBRANCH   1   9
BRANCH   1  13
ATOM     13  C   UNL d   1       0.617  -1.117   1.040  0.00  0.00     0.318 C 
ATOM     14  O   UNL d   1      -0.110  -0.968   2.017  0.00  0.00    -0.260 OA
BRANCH  13  15
ATOM     15  O   UNL d   1       1.278  -2.284   0.760  0.00  0.00    -0.318 OA
BRANCH  15  16
ATOM     16  C   UNL d   1       0.959  -3.371   1.645  0.00  0.00     0.174 C 
ATOM     17  C   UNL d   1       1.804  -3.285   2.902  0.00  0.00     0.034 C 
ENDBRANCH  15  16
ENDBRANCH  13  15
ENDBRANCH   1  13
BRANCH   1  18
ATOM     18  N   UNL d   1       2.478   0.201   0.084  0.00  0.00    -0.348 N 
ATOM     19  H   UNL d   1       2.956  -0.701   0.152  0.00  0.00     0.163 HD
BRANCH  18  20
ATOM     20  C   UNL d   1       3.191   1.088  -0.721  0.00  0.00     0.032 A 
ATOM     21  C   UNL d   1       4.596   1.085  -0.610  0.00  0.00     0.056 A 
ATOM     22  C   UNL d   1       5.383   2.003  -1.307  0.00  0.00     0.074 A 
ATOM     23 CL   UNL d   1       7.096   1.957  -1.130  0.00  0.00    -0.081 Cl
ATOM     24  C   UNL d   1       4.782   2.949  -2.126  0.00  0.00     0.138 A 
ATOM     25  C   UNL d   1       3.397   2.990  -2.237  0.00  0.00     0.046 A 
ATOM     26  F   UNL d   1       5.514   3.842  -2.807  0.00  0.00    -0.204 F 
ATOM     27  C   UNL d   1       2.613   2.077  -1.527  0.00  0.00     0.032 A 
ENDBRANCH  18  20
ENDBRANCH   1  18
TORSDOF 9
