REMARK  5 active torsions:
REMARK  status: ('A' for Active; 'I' for Inactive)
REMARK    1  A    between atoms: C_2  and  C_1 
REMARK    2  A    between atoms: C_4  and  C_1 
REMARK    3  A    between atoms: O_7  and  C_2 
REMARK    4  A    between atoms: C_3  and  C_4 
REMARK    5  A    between atoms: O_8  and  C_3 
ROOT
ATOM      1  C   UNL d   1       1.252  -0.138   0.332  0.00  0.00     0.054 C 
ATOM      2  C   UNL d   1       0.246  -1.239  -0.057  0.00  0.00     0.021 C 
ATOM      3  C   UNL d   1       0.548   1.110  -0.245  0.00  0.00     0.021 C 
ATOM      4  C   UNL d   1      -1.141  -0.607   0.042  0.00  0.00     0.001 C 
ATOM      5  C   UNL d   1      -0.930   0.900   0.059  0.00  0.00     0.001 C 
ENDROOT
BRANCH   1   6
ATOM      6  C   UNL d   1       1.453   0.042   1.842  0.00  0.00     0.149 C 
ATOM      7  O   UNL d   1       1.640   1.133   2.366  0.00  0.00    -0.649 OA
BRANCH   6   8
ATOM      8  O   UNL d   1       1.516  -1.093   2.566  0.00  0.00    -0.776 OA
ATOM      9  H   UNL d   1       1.638  -1.918   2.040  0.00  0.00     0.167 HD
ENDBRANCH   6   8
ENDBRANCH   1   6
BRANCH   1  10
ATOM     10  C   UNL d   1       2.638  -0.300  -0.320  0.00  0.00     0.130 C 
BRANCH  10  11
ATOM     11  C   UNL d   1       3.368  -1.521   0.182  0.00  0.00     0.140 C 
ATOM     12  O   UNL d   1       2.825  -2.463   0.738  0.00  0.00    -0.650 OA
BRANCH  11  13
ATOM     13  O   UNL d   1       4.698  -1.483  -0.052  0.00  0.00    -0.776 OA
ATOM     14  H   UNL d   1       5.016  -0.658  -0.466  0.00  0.00     0.167 HD
ENDBRANCH  11  13
ENDBRANCH  10  11
ENDBRANCH   1  10
TORSDOF 5
