REMARK  5 active torsions:
REMARK  status: ('A' for Active; 'I' for Inactive)
REMARK    1  A    between atoms: C_2  and  S_1 
REMARK    2  A    between atoms: N_3  and  S_1 
REMARK    3  A    between atoms: C_4  and  N_5 
REMARK    4  A    between atoms: C_6  and  O_8 
REMARK    5  A    between atoms: O_8  and  C_7 
ROOT
ATOM      1  N   UNL d   1       0.395  -1.482   1.101  0.00  0.00    -0.304 N 
ATOM      2  N   UNL d   1       0.523  -4.177   0.046  0.00  0.00    -0.375 N 
ATOM      3  C   UNL d   1       1.394  -2.456   1.613  0.00  0.00     0.155 C 
ATOM      4  C   UNL d   1      -0.828  -2.146   0.569  0.00  0.00     0.155 C 
ATOM      5  C   UNL d   1      -0.459  -3.202  -0.495  0.00  0.00     0.143 C 
ATOM      6  C   UNL d   1       1.760  -3.502   0.534  0.00  0.00     0.143 C 
ENDROOT
BRANCH   1   7
ATOM      7  S   UNL d   1       0.957  -0.081   0.338  0.00  0.00     0.263 S 
ATOM      8  O   UNL d   1       2.404  -0.126   0.298  0.00  0.00    -0.200 OA
ATOM      9  O   UNL d   1       0.172   0.122  -0.859  0.00  0.00    -0.200 OA
BRANCH   7  10
ATOM     10  C   UNL d   1       0.522   1.159   1.543  0.00  0.00     0.113 A 
ATOM     11  C   UNL d   1      -0.221   2.299   1.222  0.00  0.00     0.101 A 
ATOM     12  C   UNL d   1      -0.625   3.171   2.241  0.00  0.00     0.039 A 
ATOM     13  C   UNL d   1      -0.229   2.944   3.562  0.00  0.00     0.003 A 
ATOM     14  C   UNL d   1       0.573   1.848   3.870  0.00  0.00     0.002 A 
ATOM     15  C   UNL d   1       0.945   0.955   2.866  0.00  0.00     0.028 A 
BRANCH  11  16
ATOM     16  O   UNL d   1      -0.621   2.593  -0.050  0.00  0.00    -0.254 OA
BRANCH  16  17
ATOM     17  C   UNL d   1       0.345   3.414  -0.708  0.00  0.00     0.530 C 
ATOM     18  F   UNL d   1       1.603   2.963  -0.513  0.00  0.00    -0.144 F 
ATOM     19  F   UNL d   1       0.093   3.418  -2.034  0.00  0.00    -0.144 F 
ATOM     20  F   UNL d   1       0.259   4.686  -0.258  0.00  0.00    -0.144 F 
ENDBRANCH  16  17
ENDBRANCH  11  16
ENDBRANCH   7  10
ENDBRANCH   1   7
BRANCH   2  21
ATOM     21  C   UNL d   1       0.722  -5.435  -0.567  0.00  0.00     0.077 A 
ATOM     22  C   UNL d   1       0.469  -5.740  -1.930  0.00  0.00     0.077 A 
ATOM     23 CL   UNL d   1      -0.051  -4.617  -3.139  0.00  0.00    -0.080 Cl
ATOM     24  C   UNL d   1       0.684  -7.040  -2.405  0.00  0.00     0.113 A 
ATOM     25  N   UNL d   1       1.149  -8.068  -1.665  0.00  0.00    -0.372 N 
ATOM     26  C   UNL d   1       1.384  -7.786  -0.370  0.00  0.00     0.113 A 
ATOM     27  HN  UNL d   1       1.311  -8.994  -2.060  1.00  0.00     0.164 HD
ATOM     28  C   UNL d   1       1.173  -6.534   0.213  0.00  0.00     0.077 A 
ATOM     29 CL   UNL d   1       1.403  -6.447   1.933  0.00  0.00    -0.080 Cl
ENDBRANCH   2  21
TORSDOF 5
