REMARK  6 active torsions:
REMARK  status: ('A' for Active; 'I' for Inactive)
REMARK    1  A    between atoms: C_7  and  N_1 
REMARK    2  A    between atoms: C_2  and  C_20 
REMARK       I    between atoms: C_9  and  N_11 
REMARK    3  A    between atoms: C_25  and  C_9 
REMARK    4  A    between atoms: N_11  and  C_18 
REMARK    5  A    between atoms: S_17  and  C_25 
REMARK    6  A    between atoms: C_20  and  S_17 
ROOT
ATOM      1  C   UNL d   1      -2.549   1.905  -5.097  0.00  0.00     0.231 C 
ATOM      2  N   UNL d   1      -3.309   1.219  -4.163  0.00  0.00    -0.327 N 
ATOM      3  O   UNL d   1      -1.408   2.334  -4.923  0.00  0.00    -0.272 OA
ATOM      4  H   UNL d   1      -4.179   0.808  -4.492  0.00  0.00     0.169 HD
ENDROOT
BRANCH   1   5
ATOM      5  C   UNL d   1      -3.211   2.081  -6.448  0.00  0.00     0.177 C 
BRANCH   5   6
ATOM      6  S   UNL d   1      -4.758   3.025  -6.324  0.00  0.00    -0.155 SA
BRANCH   6   7
ATOM      7  C   UNL d   1      -4.107   4.581  -5.609  0.00  0.00     0.114 C 
BRANCH   7   8
ATOM      8  C   UNL d   1      -5.244   5.542  -5.406  0.00  0.00    -0.031 A 
ATOM      9  C   UNL d   1      -6.092   5.588  -4.229  0.00  0.00    -0.010 A 
ATOM     10  C   UNL d   1      -7.081   6.571  -4.344  0.00  0.00     0.015 A 
ATOM     11  C   UNL d   1      -6.070   4.810  -3.041  0.00  0.00     0.037 A 
ATOM     12  C   UNL d   1      -8.030   6.795  -3.325  0.00  0.00     0.021 A 
ATOM     13  S   UNL d   1      -6.964   7.412  -5.839  0.00  0.00    -0.101 SA
ATOM     14  C   UNL d   1      -7.979   6.017  -2.167  0.00  0.00     0.025 A 
ATOM     15  C   UNL d   1      -7.009   5.035  -2.031  0.00  0.00     0.035 A 
ATOM     16 CL   UNL d   1      -6.955   4.078  -0.600  0.00  0.00    -0.084 Cl
ATOM     17  C   UNL d   1      -5.621   6.493  -6.335  0.00  0.00     0.059 A 
ENDBRANCH   7   8
ENDBRANCH   6   7
ENDBRANCH   5   6
ENDBRANCH   1   5
BRANCH   2  18
ATOM     18  C   UNL d   1      -2.928   0.940  -2.832  0.00  0.00     0.034 A 
ATOM     19  C   UNL d   1      -1.858   1.589  -2.206  0.00  0.00     0.032 A 
ATOM     20  C   UNL d   1      -1.453   1.233  -0.917  0.00  0.00     0.038 A 
ATOM     21  C   UNL d   1      -2.135   0.220  -0.240  0.00  0.00     0.103 A 
ATOM     22  C   UNL d   1      -3.243  -0.404  -0.829  0.00  0.00     0.038 A 
ATOM     23  C   UNL d   1      -3.643  -0.031  -2.121  0.00  0.00     0.032 A 
BRANCH  21  24
ATOM     24  N   UNL d   1      -1.672  -0.199   1.090  0.00  0.00    -0.116 N 
ATOM     25  O   UNL d   1      -2.269  -1.137   1.637  0.00  0.00    -0.532 OA
ATOM     26  O   UNL d   1      -0.707   0.405   1.580  0.00  0.00    -0.532 OA
ENDBRANCH  21  24
ENDBRANCH   2  18
TORSDOF 6
