REMARK  3 active torsions:
REMARK  status: ('A' for Active; 'I' for Inactive)
REMARK    1  A    between atoms: C_4  and  C_1 
REMARK    2  A    between atoms: C_2  and  C_5 
REMARK    3  A    between atoms: O_11  and  C_2 
ROOT
ATOM      1  C   UNL d   1      -0.200   2.662  -0.032  0.00  0.00    -0.018 A 
ATOM      2  C   UNL d   1      -0.074   4.775  -1.253  0.00  0.00     0.038 A 
ATOM      3  C   UNL d   1       0.250   3.415  -1.132  0.00  0.00     0.031 A 
ATOM      4  C   UNL d   1      -0.872   5.388  -0.282  0.00  0.00     0.018 A 
ATOM      5  C   UNL d   1      -0.991   3.306   0.935  0.00  0.00     0.013 A 
ATOM      6  C   UNL d   1      -1.326   4.656   0.812  0.00  0.00     0.002 A 
ENDROOT
BRANCH   1   7
ATOM      7  C   UNL d   1       0.120   1.224   0.060  0.00  0.00     0.015 A 
ATOM      8  S   UNL d   1       0.345   0.462   1.587  0.00  0.00    -0.101 SA
ATOM      9  C   UNL d   1       0.619  -1.066   0.876  0.00  0.00     0.050 A 
ATOM     10  C   UNL d   1       0.579  -1.008  -0.497  0.00  0.00     0.008 A 
ATOM     11  C   UNL d   1       0.299   0.308  -0.965  0.00  0.00     0.020 A 
ENDBRANCH   1   7
BRANCH   2  12
ATOM     12  C   UNL d   1       0.345   5.592  -2.422  0.00  0.00     0.176 C 
ATOM     13  O   UNL d   1      -0.308   6.533  -2.835  0.00  0.00    -0.646 OA
BRANCH  12  14
ATOM     14  O   UNL d   1       1.525   5.223  -2.964  0.00  0.00    -0.773 OA
ATOM     15  H   UNL d   1       2.047   4.590  -2.438  0.00  0.00     0.167 HD
ENDBRANCH  12  14
ENDBRANCH   2  12
TORSDOF 3
