REMARK  7 active torsions:
REMARK  status: ('A' for Active; 'I' for Inactive)
REMARK       I    between atoms: NH1_5  and  CZ_1 
REMARK       I    between atoms: NH2_9  and  CZ_1 
REMARK    1  A    between atoms: C_2  and  CA_4 
REMARK    2  A    between atoms: OXT_10  and  C_2 
REMARK    3  A    between atoms: N_3  and  CA_4 
REMARK       I    between atoms: C3_20  and  N_3 
REMARK    4  A    between atoms: CA_4  and  CB_11 
REMARK    5  A    between atoms: CD_12  and  NE_8 
REMARK    6  A    between atoms: CB_11  and  CG_13 
REMARK    7  A    between atoms: CG_13  and  CD_12 
ROOT
ATOM      1  CB  ARG d   1      -3.079   1.933   1.854  0.00  0.00     0.038 C 
ENDROOT
BRANCH   1   2
ATOM      2  CA  ARG d   1      -3.561   3.033   2.804  0.00  0.00     0.182 C 
BRANCH   2   3
ATOM      3  C   ARG d   1      -5.098   3.123   2.790  0.00  0.00     0.163 C 
ATOM      4  O   ARG d   1      -5.847   2.180   2.591  0.00  0.00    -0.648 OA
BRANCH   3   5
ATOM      5  OXT ARG d   1      -5.548   4.362   3.116  0.00  0.00    -0.775 OA
ATOM      6  HXT ARG d   1      -4.830   4.965   3.426  0.00  0.00     0.167 HD
ENDBRANCH   3   5
ENDBRANCH   2   3
BRANCH   2   7
ATOM      7  N   ARG d   1      -3.120   2.783   4.170  0.00  0.00    -0.347 N 
ATOM      8  C3  <1> d   1      -2.954   3.828   5.045  0.00  0.00     0.214 C 
ATOM      9  O2  <1> d   1      -3.199   4.988   4.717  0.00  0.00    -0.274 OA
ATOM     10  C5  <1> d   1      -2.475   3.432   6.415  0.00  0.00     0.117 C 
ATOM     11  H   ARG d   1      -3.273   1.858   4.559  0.00  0.00     0.163 HD
ENDBRANCH   2   7
ENDBRANCH   1   2
BRANCH   1  12
ATOM     12  CG  ARG d   1      -1.550   1.853   1.775  0.00  0.00     0.022 C 
BRANCH  12  13
ATOM     13  CD  ARG d   1      -1.117   0.771   0.789  0.00  0.00     0.122 C 
BRANCH  13  14
ATOM     14  NE  ARG d   1       0.325   0.652   0.747  0.00  0.00    -0.367 N 
ATOM     15  CZ  ARG d   1       1.081  -0.055   1.615  0.00  0.00     0.143 C 
ATOM     16  NH1 ARG d   1       0.709  -0.842   2.548  0.00  0.00    -0.376 N 
ATOM     17  NH2 ARG d   1       2.396   0.123   1.381  0.00  0.00    -0.274 NA
ATOM     18  HH1 ARG d   1      -0.309  -0.882   2.582  0.00  0.00     0.158 HD
ATOM     19  HH1 ARG d   1       1.336  -1.355   3.168  1.00  0.00     0.158 HD
ATOM     20 1HH2 ARG d   1       2.921  -0.551   1.933  0.00  0.00     0.127 HD
ATOM     21 2HH2 ARG d   1       2.632   0.029   0.402  0.00  0.00     0.127 HD
ATOM     22  HE  ARG d   1       0.798   1.477   0.393  0.00  0.00     0.162 HD
ENDBRANCH  13  14
ENDBRANCH  12  13
ENDBRANCH   1  12
TORSDOF 7
