REMARK  2 active torsions:
REMARK  status: ('A' for Active; 'I' for Inactive)
REMARK    1  A    between atoms: C_14  and  C_4 
REMARK    2  A    between atoms: C_5  and  C_7 
REMARK       I    between atoms: N_15  and  C_5 
ROOT
ATOM      1  C   UNL d   1      -5.833  -0.595  -0.263  0.00  0.00     0.032 A 
ATOM      2  C   UNL d   1      -3.136  -1.360  -0.083  0.00  0.00    -0.034 A 
ATOM      3  C   UNL d   1      -5.095  -0.863  -1.422  0.00  0.00     0.018 A 
ATOM      4  C   UNL d   1      -5.212  -0.690   0.989  0.00  0.00     0.018 A 
ATOM      5  C   UNL d   1      -3.754  -1.248  -1.331  0.00  0.00     0.012 A 
ATOM      6  C   UNL d   1      -3.867  -1.074   1.077  0.00  0.00     0.012 A 
ENDROOT
BRANCH   2   7
ATOM      7  C   UNL d   1      -1.726  -1.745  -0.001  0.00  0.00     0.038 C 
ATOM      8  C   UNL d   1      -0.731  -0.850   0.011  0.00  0.00     0.058 C 
ATOM      9  C   UNL d   1       0.716  -1.304   0.079  0.00  0.00     0.174 C 
ATOM     10  N   UNL d   1      -0.812   0.560  -0.024  0.00  0.00    -0.280 NA
ATOM     11  C   UNL d   1       1.652  -0.095   0.120  0.00  0.00     0.064 C 
ATOM     12  O   UNL d   1       1.083  -2.469   0.100  0.00  0.00    -0.291 OA
ATOM     13  C   UNL d   1       1.378   0.732  -1.153  0.00  0.00     0.027 C 
ATOM     14  C   UNL d   1       1.233   0.742   1.347  0.00  0.00     0.027 C 
ATOM     15  C   UNL d   1      -0.113   1.137  -1.211  0.00  0.00     0.096 C 
ATOM     16  C   UNL d   1      -0.241   1.188   1.205  0.00  0.00     0.096 C 
ENDBRANCH   2   7
BRANCH   1  17
ATOM     17  C   UNL d   1      -7.258  -0.188  -0.420  0.00  0.00     0.251 C 
ATOM     18  O   UNL d   1      -7.621   0.378  -1.446  0.00  0.00    -0.268 OA
ATOM     19  N   UNL d   1      -8.111  -0.519   0.612  0.00  0.00    -0.361 N 
ATOM     20  C   UNL d   1      -9.527  -0.248   0.549  0.00  0.00     0.149 C 
ATOM     21  H   UNL d   1      -7.777  -1.098   1.369  0.00  0.00     0.162 HD
ENDBRANCH   1  17
TORSDOF 2
