REMARK  6 active torsions:
REMARK  status: ('A' for Active; 'I' for Inactive)
REMARK       I    between atoms: C_2  and  N_10 
REMARK    1  A    between atoms: C_8  and  C_2 
REMARK    2  A    between atoms: O_15  and  C_4 
REMARK    3  A    between atoms: O_16  and  C_5 
REMARK    4  A    between atoms: C_21  and  C_6 
REMARK    5  A    between atoms: N_10  and  C_20 
REMARK    6  A    between atoms: C_20  and  C_21 
ROOT
ATOM      1  C   UNL d   1      -1.321   2.320  -0.010  0.00  0.00     0.127 C 
ENDROOT
BRANCH   1   2
ATOM      2  N   UNL d   1      -2.004   3.609   0.040  0.00  0.00    -0.357 N 
ATOM      3  C   UNL d   1      -2.044   4.447  -1.054  0.00  0.00     0.251 C 
ATOM      4  O   UNL d   1      -1.383   4.264  -2.071  0.00  0.00    -0.268 OA
ATOM      5  H   UNL d   1      -2.499   3.862   0.884  0.00  0.00     0.162 HD
BRANCH   3   6
ATOM      6  C   UNL d   1      -2.952   5.627  -0.983  0.00  0.00     0.032 A 
ATOM      7  C   UNL d   1      -2.562   6.811  -1.627  0.00  0.00     0.018 A 
ATOM      8  C   UNL d   1      -3.428   7.905  -1.684  0.00  0.00     0.025 A 
ATOM      9  C   UNL d   1      -4.696   7.813  -1.109  0.00  0.00     0.034 A 
ATOM     10  C   UNL d   1      -5.094   6.643  -0.465  0.00  0.00     0.025 A 
ATOM     11 CL   UNL d   1      -5.785   9.141  -1.226  0.00  0.00    -0.084 Cl
ATOM     12  C   UNL d   1      -4.223   5.547  -0.397  0.00  0.00     0.018 A 
ENDBRANCH   3   6
ENDBRANCH   1   2
BRANCH   1  13
ATOM     13  C   UNL d   1       0.211   2.417  -0.050  0.00  0.00     0.060 C 
BRANCH  13  14
ATOM     14  C   UNL d   1       0.896   1.064  -0.103  0.00  0.00    -0.036 A 
ATOM     15  C   UNL d   1       1.295   0.344   1.027  0.00  0.00     0.020 A 
ATOM     16  C   UNL d   1       1.978  -0.878   0.900  0.00  0.00     0.059 A 
ATOM     17 BR   UNL d   1       0.946   0.953   2.794  0.00  0.00    -0.050 Br
ATOM     18  C   UNL d   1       2.260  -1.433  -0.357  0.00  0.00     0.102 A 
ATOM     19  C   UNL d   1       1.834  -0.744  -1.504  0.00  0.00     0.102 A 
ATOM     20  C   UNL d   1       1.164   0.489  -1.360  0.00  0.00     0.048 A 
BRANCH  18  21
ATOM     21  O   UNL d   1       2.932  -2.615  -0.518  0.00  0.00    -0.353 OA
ATOM     22  C   UNL d   1       3.385  -3.310   0.637  0.00  0.00     0.210 C 
ENDBRANCH  18  21
BRANCH  19  23
ATOM     23  O   UNL d   1       1.978  -1.100  -2.820  0.00  0.00    -0.353 OA
ATOM     24  C   UNL d   1       2.602  -2.334  -3.141  0.00  0.00     0.210 C 
ENDBRANCH  19  23
ENDBRANCH  13  14
ENDBRANCH   1  13
TORSDOF 6
