REMARK  3 active torsions:
REMARK  status: ('A' for Active; 'I' for Inactive)
REMARK       I    between atoms: N_2  and  C_1 
REMARK    1  A    between atoms: O_3  and  C_1 
REMARK    2  A    between atoms: C_9  and  N_2 
REMARK    3  A    between atoms: C_5  and  O_3 
ROOT
ATOM      1  O   UNL d   1       0.178  -0.426   0.904  0.00  0.00    -0.262 OA
ENDROOT
BRANCH   1   2
ATOM      2  C   UNL d   1       1.053   0.202   0.021  0.00  0.00     0.366 C 
ATOM      3  N   UNL d   1       0.343   0.802  -0.986  0.00  0.00    -0.333 N 
ATOM      4  H   UNL d   1      -0.663   0.773  -0.894  0.00  0.00     0.165 HD
ATOM      5  O   UNL d   1       2.269   0.241   0.120  0.00  0.00    -0.238 OA
BRANCH   3   6
ATOM      6  C   UNL d   1       0.954   1.793  -1.857  0.00  0.00     0.078 C 
ATOM      7  C   UNL d   1       0.349   1.746  -3.255  0.00  0.00     0.032 C 
ATOM      8  C   UNL d   1       0.793   3.183  -1.244  0.00  0.00     0.032 C 
ENDBRANCH   3   6
ENDBRANCH   1   2
BRANCH   1   9
ATOM      9  C   UNL d   1       0.611  -1.099   2.072  0.00  0.00     0.082 A 
ATOM     10  C   UNL d   1       1.793  -0.805   2.749  0.00  0.00     0.061 A 
ATOM     11  C   UNL d   1       2.128  -1.544   3.884  0.00  0.00     0.036 A 
ATOM     12 CL   UNL d   1       3.605  -1.221   4.708  0.00  0.00    -0.084 Cl
ATOM     13  C   UNL d   1       1.280  -2.545   4.360  0.00  0.00     0.024 A 
ATOM     14  C   UNL d   1       0.078  -2.806   3.701  0.00  0.00     0.004 A 
ATOM     15  C   UNL d   1      -0.259  -2.079   2.557  0.00  0.00     0.037 A 
ENDBRANCH   1   9
TORSDOF 3
