REMARK  6 active torsions:
REMARK  status: ('A' for Active; 'I' for Inactive)
REMARK    1  A    between atoms: C_5  and  C_1 
REMARK    2  A    between atoms: C_10  and  C_2 
REMARK    3  A    between atoms: C_8  and  C_4 
REMARK    4  A    between atoms: C_7  and  O_11 
REMARK       I    between atoms: N_9  and  C_7 
REMARK    5  A    between atoms: C_18  and  N_9 
REMARK    6  A    between atoms: O_11  and  C_10 
ROOT
ATOM      1  C   UNL d   1      -0.316   1.071   0.082  0.00  0.00     0.168 A 
ATOM      2  C   UNL d   1       1.021   0.713   0.191  0.00  0.00     0.008 A 
ATOM      3  O   UNL d   1      -1.096  -0.052   0.030  0.00  0.00    -0.304 OA
ATOM      4  C   UNL d   1      -0.273  -1.140   0.089  0.00  0.00     0.087 A 
ATOM      5  C   UNL d   1       1.034  -0.712   0.197  0.00  0.00     0.050 A 
ENDROOT
BRANCH   2   6
ATOM      6  C   UNL d   1       2.206   1.622   0.239  0.00  0.00     0.222 C 
BRANCH   6   7
ATOM      7  O   UNL d   1       3.277   1.050   1.007  0.00  0.00    -0.299 OA
BRANCH   7   8
ATOM      8  C   UNL d   1       4.462   0.906   0.370  0.00  0.00     0.365 C 
ATOM      9  N   UNL d   1       5.506   0.487   1.150  0.00  0.00    -0.303 N 
ATOM     10  H   UNL d   1       6.376   0.529   0.635  0.00  0.00     0.171 HD
ATOM     11  O   UNL d   1       4.652   1.166  -0.813  0.00  0.00    -0.238 OA
BRANCH   9  12
ATOM     12  C   UNL d   1       5.579   0.049   2.483  0.00  0.00     0.036 A 
ATOM     13  C   UNL d   1       4.476  -0.243   3.289  0.00  0.00     0.031 A 
ATOM     14  C   UNL d   1       4.658  -0.718   4.595  0.00  0.00     0.026 A 
ATOM     15  C   UNL d   1       5.943  -0.897   5.102  0.00  0.00     0.034 A 
ATOM     16  C   UNL d   1       7.050  -0.601   4.315  0.00  0.00     0.026 A 
ATOM     17 CL   UNL d   1       6.161  -1.496   6.699  0.00  0.00    -0.084 Cl
ATOM     18  C   UNL d   1       6.867  -0.136   3.010  0.00  0.00     0.031 A 
ENDBRANCH   9  12
ENDBRANCH   7   8
ENDBRANCH   6   7
ENDBRANCH   2   6
BRANCH   1  19
ATOM     19  C   UNL d   1      -1.026   2.375  -0.006  0.00  0.00     0.440 C 
ATOM     20  F   UNL d   1      -0.162   3.425   0.007  0.00  0.00    -0.164 F 
ATOM     21  F   UNL d   1      -1.751   2.489  -1.149  0.00  0.00    -0.164 F 
ATOM     22  F   UNL d   1      -1.882   2.565   1.030  0.00  0.00    -0.164 F 
ENDBRANCH   1  19
BRANCH   4  23
ATOM     23  C   UNL d   1      -0.909  -2.452   0.002  0.00  0.00    -0.002 A 
ATOM     24  C   UNL d   1      -2.303  -2.588  -0.103  0.00  0.00     0.016 A 
ATOM     25  C   UNL d   1      -2.895  -3.852  -0.214  0.00  0.00     0.024 A 
ATOM     26  C   UNL d   1      -2.098  -4.993  -0.218  0.00  0.00     0.034 A 
ATOM     27  C   UNL d   1      -0.715  -4.882  -0.107  0.00  0.00     0.024 A 
ATOM     28 CL   UNL d   1      -2.821  -6.546  -0.366  0.00  0.00    -0.084 Cl
ATOM     29  C   UNL d   1      -0.127  -3.619   0.003  0.00  0.00     0.016 A 
ENDBRANCH   4  23
TORSDOF 6
