REMARK  5 active torsions:
REMARK  status: ('A' for Active; 'I' for Inactive)
REMARK    1  A    between atoms: O_7  and  C_1 
REMARK    2  A    between atoms: C_2  and  C_6 
REMARK       I    between atoms: N_3  and  C_2 
REMARK    3  A    between atoms: C_19  and  N_3 
REMARK    4  A    between atoms: C_18  and  O_7 
REMARK    5  A    between atoms: C_17  and  C_19 
ROOT
ATOM      1  C   UNL d   1       1.774  -5.335  -4.586  0.00  0.00     0.251 C 
ATOM      2  N   UNL d   1       1.306  -6.472  -3.966  0.00  0.00    -0.353 N 
ATOM      3  O   UNL d   1       1.058  -4.384  -4.886  0.00  0.00    -0.268 OA
ATOM      4  H   UNL d   1       1.906  -7.275  -3.847  0.00  0.00     0.163 HD
ENDROOT
BRANCH   1   5
ATOM      5  C   UNL d   1       3.221  -5.294  -4.932  0.00  0.00     0.032 A 
ATOM      6  C   UNL d   1       3.607  -4.510  -6.025  0.00  0.00     0.020 A 
ATOM      7  C   UNL d   1       4.953  -4.412  -6.399  0.00  0.00     0.038 A 
ATOM      8  C   UNL d   1       5.922  -5.122  -5.699  0.00  0.00     0.078 A 
ATOM      9  C   UNL d   1       5.548  -5.858  -4.566  0.00  0.00     0.038 A 
ATOM     10  C   UNL d   1       4.203  -5.951  -4.182  0.00  0.00     0.020 A 
BRANCH   8  11
ATOM     11  O   UNL d   1       7.257  -5.097  -5.963  0.00  0.00    -0.255 OA
BRANCH  11  12
ATOM     12  C   UNL d   1       7.696  -5.069  -7.318  0.00  0.00     0.530 C 
ATOM     13  F   UNL d   1       6.702  -5.055  -8.231  0.00  0.00    -0.144 F 
ATOM     14  F   UNL d   1       8.453  -6.165  -7.549  0.00  0.00    -0.144 F 
ATOM     15  F   UNL d   1       8.469  -3.977  -7.508  0.00  0.00    -0.144 F 
ENDBRANCH  11  12
ENDBRANCH   8  11
ENDBRANCH   1   5
BRANCH   2  16
ATOM     16  C   UNL d   1      -0.091  -6.617  -3.615  0.00  0.00     0.161 C 
BRANCH  16  17
ATOM     17  C   UNL d   1      -0.709  -7.827  -4.273  0.00  0.00    -0.040 A 
ATOM     18  C   UNL d   1      -1.367  -7.702  -5.510  0.00  0.00     0.018 A 
ATOM     19  C   UNL d   1      -1.955  -8.827  -6.065  0.00  0.00    -0.022 A 
ATOM     20  C   UNL d   1      -2.672  -8.990  -7.349  0.00  0.00     0.068 C 
ATOM     21  C   UNL d   1      -1.871 -10.058  -5.434  0.00  0.00     0.075 A 
ATOM     22  C   UNL d   1      -3.285 -10.370  -7.106  0.00  0.00     0.180 C 
ATOM     23  O   UNL d   1      -2.495 -11.070  -6.117  0.00  0.00    -0.350 OA
ATOM     24  C   UNL d   1      -1.204 -10.222  -4.239  0.00  0.00     0.038 A 
ATOM     25  C   UNL d   1      -0.623  -9.094  -3.654  0.00  0.00     0.011 A 
ENDBRANCH  16  17
ENDBRANCH   2  16
TORSDOF 5
