REMARK  3 active torsions:
REMARK  status: ('A' for Active; 'I' for Inactive)
REMARK    1  A    between atoms: C_10  and  C_1 
REMARK       I    between atoms: C_5  and  N_8 
REMARK    2  A    between atoms: C_9  and  C_5 
REMARK    3  A    between atoms: N_8  and  C_17 
ROOT
ATOM      1  C   UNL d   1      -3.923  -0.545   0.130  0.00  0.00    -0.002 A 
ATOM      2  C   UNL d   1      -4.710   0.125  -0.817  0.00  0.00     0.016 A 
ATOM      3  C   UNL d   1      -4.581  -1.371   1.049  0.00  0.00     0.016 A 
ATOM      4  C   UNL d   1      -6.745  -0.929   0.030  0.00  0.00     0.035 A 
ATOM      5  C   UNL d   1      -6.105  -0.071  -0.875  0.00  0.00     0.030 A 
ATOM      6  C   UNL d   1      -5.963  -1.565   0.993  0.00  0.00     0.030 A 
ENDROOT
BRANCH   1   7
ATOM      7  C   UNL d   1      -2.455  -0.398   0.146  0.00  0.00     0.085 A 
ATOM      8  N   UNL d   1      -1.787   0.671  -0.241  0.00  0.00    -0.349 N 
ATOM      9  C   UNL d   1      -0.422   0.476  -0.060  0.00  0.00     0.050 A 
ATOM     10  HN  UNL d   1      -2.210   1.518  -0.619  1.00  0.00     0.166 HD
ATOM     11  C   UNL d   1       0.600   1.411  -0.319  0.00  0.00     0.031 A 
ATOM     12  C   UNL d   1      -0.058  -0.777   0.429  0.00  0.00     0.034 A 
ATOM     13  C   UNL d   1       1.940   1.069  -0.080  0.00  0.00     0.009 A 
ATOM     14  C   UNL d   1       2.284  -0.193   0.411  0.00  0.00    -0.061 A 
ATOM     15  C   UNL d   1       1.280  -1.135   0.670  0.00  0.00     0.028 A 
ATOM     16  C   UNL d   1       3.725  -0.539   0.654  0.00  0.00     0.048 C 
ATOM     17  S   UNL d   1      -1.468  -1.720   0.655  0.00  0.00    -0.070 SA
ENDBRANCH   1   7
BRANCH   4  18
ATOM     18  N   UNL d   1      -8.145  -1.143  -0.085  0.00  0.00    -0.323 N 
ATOM     19  C   UNL d   1      -8.920  -1.879   0.796  0.00  0.00     0.256 C 
ATOM     20  O   UNL d   1      -8.550  -2.305   1.889  0.00  0.00    -0.267 OA
ATOM     21  H   UNL d   1      -8.610  -0.696  -0.866  0.00  0.00     0.169 HD
BRANCH  19  22
ATOM     22  C   UNL d   1     -10.348  -2.126   0.435  0.00  0.00     0.038 A 
ATOM     23  C   UNL d   1     -10.826  -2.468  -0.844  0.00  0.00    -0.046 A 
ATOM     24  C   UNL d   1      -9.964  -2.640  -2.062  0.00  0.00     0.049 C 
ATOM     25  C   UNL d   1     -12.208  -2.705  -1.002  0.00  0.00     0.007 A 
ATOM     26  C   UNL d   1     -13.083  -2.675   0.085  0.00  0.00     0.001 A 
ATOM     27  C   UNL d   1     -12.598  -2.391   1.354  0.00  0.00     0.001 A 
ATOM     28  C   UNL d   1     -11.245  -2.110   1.524  0.00  0.00     0.017 A 
ENDBRANCH  19  22
ENDBRANCH   4  18
TORSDOF 3
