REMARK  3 active torsions:
REMARK  status: ('A' for Active; 'I' for Inactive)
REMARK       I    between atoms: C_2  and  N_1 
REMARK    1  A    between atoms: C_9  and  C_2 
REMARK    2  A    between atoms: C_3  and  C_7 
REMARK    3  A    between atoms: O_12  and  C_8 
ROOT
ATOM      1  N   UNL d   1       1.157   0.350   1.158  0.00  0.00    -0.352 N 
ATOM      2  C   UNL d   1       2.486   0.134   1.596  0.00  0.00     0.224 C 
ATOM      3  C   UNL d   1       0.684   1.660   0.719  0.00  0.00     0.126 C 
ATOM      4  C   UNL d   1       0.486  -0.823   0.583  0.00  0.00     0.126 C 
ATOM      5  O   UNL d   1       2.881  -0.999   1.887  0.00  0.00    -0.273 OA
ATOM      6  C   UNL d   1      -1.526   0.556  -0.165  0.00  0.00     0.024 C 
ATOM      7  C   UNL d   1      -0.811   1.786   0.429  0.00  0.00     0.029 C 
ATOM      8  C   UNL d   1      -1.031  -0.715   0.530  0.00  0.00     0.029 C 
ENDROOT
BRANCH   2   9
ATOM      9  C   UNL d   1       3.458   1.337   1.637  0.00  0.00     0.078 C 
ATOM     10  C   UNL d   1       4.914   0.921   1.380  0.00  0.00     0.014 C 
ATOM     11  C   UNL d   1       5.620   0.305   2.580  0.00  0.00     0.001 C 
ATOM     12  C   UNL d   1       5.493   1.115   3.861  0.00  0.00     0.000 C 
ATOM     13  C   UNL d   1       4.132   1.753   4.109  0.00  0.00     0.001 C 
ATOM     14  C   UNL d   1       3.358   2.223   2.879  0.00  0.00     0.014 C 
ENDBRANCH   2   9
BRANCH   6  15
ATOM     15  C   UNL d   1      -1.617   0.429  -1.684  0.00  0.00    -0.021 A 
ATOM     16  C   UNL d   1      -2.738  -0.065  -2.405  0.00  0.00     0.074 A 
ATOM     17  C   UNL d   1      -2.681  -0.152  -3.811  0.00  0.00     0.037 A 
ATOM     18  C   UNL d   1      -1.564   0.231  -4.529  0.00  0.00     0.003 A 
ATOM     19  C   UNL d   1      -0.454   0.694  -3.849  0.00  0.00     0.001 A 
ATOM     20  C   UNL d   1      -0.484   0.790  -2.455  0.00  0.00     0.010 A 
BRANCH  16  21
ATOM     21  O   UNL d   1      -3.943  -0.549  -1.972  0.00  0.00    -0.355 OA
ATOM     22  C   UNL d   1      -4.433  -0.330  -0.668  0.00  0.00     0.210 C 
ENDBRANCH  16  21
ENDBRANCH   6  15
TORSDOF 3
