REMARK  4 active torsions:
REMARK  status: ('A' for Active; 'I' for Inactive)
REMARK    1  A    between atoms: N_6  and  C_1 
REMARK    2  A    between atoms: C_10  and  C_1 
REMARK    3  A    between atoms: C_9  and  C_3 
REMARK    4  A    between atoms: C_13  and  N_6 
ROOT
ATOM      1  C   UNL d   1       0.093   3.614  -0.823  0.00  0.00     0.124 C 
ATOM      2  N   UNL d   1      -2.490   3.520  -0.876  0.00  0.00    -0.191 NA
ATOM      3  N   UNL d   1       1.269   5.835  -1.418  0.00  0.00    -0.191 NA
ATOM      4  C   UNL d   1       0.734   4.844  -1.143  0.00  0.00     0.110 C 
ATOM      5  C   UNL d   1      -1.332   3.579  -0.857  0.00  0.00     0.110 C 
ATOM      6  C   UNL d   1       0.846   2.532  -0.528  0.00  0.00     0.036 C 
ENDROOT
BRANCH   6   7
ATOM      7  C   UNL d   1       0.335   1.203  -0.237  0.00  0.00     0.027 C 
ATOM      8  C   UNL d   1       1.058   0.087   0.008  0.00  0.00     0.023 C 
BRANCH   8   9
ATOM      9  N   UNL d   1       2.447  -0.021   0.046  0.00  0.00    -0.259 NA
ATOM     10  H   UNL d   1       2.857   0.583  -0.668  0.00  0.00     0.134 HD
BRANCH   9  11
ATOM     11  C   UNL d   1       3.223   0.225   1.221  0.00  0.00     0.012 A 
ATOM     12  C   UNL d   1       4.479  -0.395   1.309  0.00  0.00     0.025 A 
ATOM     13  C   UNL d   1       5.360  -0.100   2.354  0.00  0.00     0.025 A 
ATOM     14  C   UNL d   1       5.003   0.849   3.307  0.00  0.00     0.034 A 
ATOM     15  C   UNL d   1       3.763   1.480   3.236  0.00  0.00     0.025 A 
ATOM     16 CL   UNL d   1       6.105   1.258   4.563  0.00  0.00    -0.084 Cl
ATOM     17  C   UNL d   1       2.874   1.166   2.199  0.00  0.00     0.025 A 
ENDBRANCH   9  11
ENDBRANCH   8   9
BRANCH   8  18
ATOM     18  C   UNL d   1       0.323  -1.222   0.059  0.00  0.00    -0.015 A 
ATOM     19  C   UNL d   1      -0.793  -1.465  -0.770  0.00  0.00     0.015 A 
ATOM     20  C   UNL d   1      -1.434  -2.708  -0.791  0.00  0.00     0.024 A 
ATOM     21  C   UNL d   1      -0.953  -3.743   0.000  0.00  0.00     0.034 A 
ATOM     22  C   UNL d   1       0.156  -3.541   0.817  0.00  0.00     0.024 A 
ATOM     23 CL   UNL d   1      -1.715  -5.283  -0.052  0.00  0.00    -0.084 Cl
ATOM     24  C   UNL d   1       0.786  -2.289   0.847  0.00  0.00     0.015 A 
ENDBRANCH   8  18
ENDBRANCH   6   7
TORSDOF 4
