REMARK  4 active torsions:
REMARK  status: ('A' for Active; 'I' for Inactive)
REMARK       I    between atoms: C_2  and  N_6 
REMARK    1  A    between atoms: C_5  and  C_2 
REMARK    2  A    between atoms: N_6  and  C_19 
REMARK    3  A    between atoms: C_18  and  N_7 
REMARK    4  A    between atoms: C_20  and  C_18 
ROOT
ATOM      1  C   UNL d   1      -4.228  -3.635   3.201  0.00  0.00     0.035 A 
ATOM      2  C   UNL d   1      -3.088  -1.190   2.299  0.00  0.00    -0.030 A 
ATOM      3  C   UNL d   1      -3.192  -3.618   2.264  0.00  0.00     0.030 A 
ATOM      4  C   UNL d   1      -4.714  -2.404   3.659  0.00  0.00     0.030 A 
ATOM      5  C   UNL d   1      -4.152  -1.192   3.211  0.00  0.00     0.011 A 
ATOM      6  C   UNL d   1      -2.629  -2.419   1.821  0.00  0.00     0.011 A 
ENDROOT
BRANCH   1   7
ATOM      7  N   UNL d   1      -4.770  -4.838   3.734  0.00  0.00    -0.323 N 
ATOM      8  C   UNL d   1      -4.406  -6.122   3.349  0.00  0.00     0.256 C 
ATOM      9  O   UNL d   1      -3.695  -6.397   2.383  0.00  0.00    -0.267 OA
ATOM     10  H   UNL d   1      -5.485  -4.737   4.440  0.00  0.00     0.169 HD
BRANCH   8  11
ATOM     11  C   UNL d   1      -4.902  -7.280   4.148  0.00  0.00     0.032 A 
ATOM     12  C   UNL d   1      -5.226  -7.210   5.508  0.00  0.00     0.024 A 
ATOM     13  C   UNL d   1      -5.513  -8.386   6.236  0.00  0.00    -0.055 A 
ATOM     14  C   UNL d   1      -5.767  -8.303   7.718  0.00  0.00     0.049 C 
ATOM     15  C   UNL d   1      -5.514  -9.639   5.580  0.00  0.00    -0.056 A 
ATOM     16  C   UNL d   1      -5.208  -9.694   4.216  0.00  0.00     0.008 A 
ATOM     17  C   UNL d   1      -5.777 -10.925   6.316  0.00  0.00     0.049 C 
ATOM     18  C   UNL d   1      -4.901  -8.531   3.513  0.00  0.00     0.017 A 
ENDBRANCH   8  11
ENDBRANCH   1   7
BRANCH   2  19
ATOM     19  C   UNL d   1      -2.444   0.084   1.794  0.00  0.00     0.311 C 
BRANCH  19  20
ATOM     20  N   UNL d   1      -1.800   0.916   2.828  0.00  0.00     0.094 N 
ATOM     21  C   UNL d   1      -0.762   0.239   3.622  0.00  0.00     0.287 C 
ATOM     22  C   UNL d   1       0.482  -0.180   2.859  0.00  0.00     0.170 C 
ATOM     23  S   UNL d   1       1.241   1.215   2.069  0.00  0.00     0.147 S 
ATOM     24  C   UNL d   1      -0.125   2.046   1.301  0.00  0.00     0.170 C 
ATOM     25  O   UNL d   1       2.100   0.714   1.013  0.00  0.00    -0.228 OA
ATOM     26  O   UNL d   1       1.777   2.087   3.099  0.00  0.00    -0.228 OA
ATOM     27  C   UNL d   1      -1.289   2.184   2.274  0.00  0.00     0.287 C 
ENDBRANCH  19  20
ENDBRANCH   2  19
TORSDOF 4
