REMARK  4 active torsions:
REMARK  status: ('A' for Active; 'I' for Inactive)
REMARK    1  A    between atoms: N_2  and  S_1 
REMARK    2  A    between atoms: C_12  and  S_1 
REMARK    3  A    between atoms: C_3  and  N_9 
REMARK    4  A    between atoms: C_7  and  C_4 
ROOT
ATOM      1  N   UNL d   1       0.552  -1.012  -0.708  0.00  0.00    -0.203 NA
ATOM      2  N   UNL d   1      -0.910  -3.088   0.757  0.00  0.00    -0.378 N 
ATOM      3  C   UNL d   1      -0.941  -0.994  -0.645  0.00  0.00     0.127 C 
ATOM      4  C   UNL d   1       1.027  -2.428  -0.699  0.00  0.00     0.127 C 
ATOM      5  C   UNL d   1      -1.451  -1.721   0.618  0.00  0.00     0.138 C 
ATOM      6  C   UNL d   1       0.568  -3.187   0.563  0.00  0.00     0.138 C 
ENDROOT
BRANCH   2   7
ATOM      7  C   UNL d   1      -1.479  -3.996   1.684  0.00  0.00     0.045 A 
ATOM      8  C   UNL d   1      -1.246  -5.361   1.423  0.00  0.00     0.064 A 
ATOM      9  C   UNL d   1      -1.806  -6.357   2.215  0.00  0.00     0.119 A 
ATOM     10  N   UNL d   1      -2.619  -6.062   3.252  0.00  0.00    -0.352 N 
ATOM     11  C   UNL d   1      -2.875  -4.780   3.533  0.00  0.00     0.045 A 
ATOM     12  HN  UNL d   1      -3.032  -6.806   3.814  1.00  0.00     0.166 HD
ATOM     13  C   UNL d   1      -2.330  -3.683   2.810  0.00  0.00     0.017 A 
ATOM     14  C   UNL d   1      -3.729  -4.567   4.610  0.00  0.00     0.030 A 
ATOM     15  C   UNL d   1      -2.686  -2.396   3.317  0.00  0.00     0.016 A 
ATOM     16  C   UNL d   1      -3.551  -2.200   4.397  0.00  0.00     0.001 A 
ATOM     17  C   UNL d   1      -4.083  -3.295   5.044  0.00  0.00     0.002 A 
BRANCH   9  18
ATOM     18  C   UNL d   1      -1.504  -7.811   1.883  0.00  0.00     0.432 C 
ATOM     19  F   UNL d   1      -2.076  -8.717   2.726  0.00  0.00    -0.165 F 
ATOM     20  F   UNL d   1      -1.920  -8.158   0.629  0.00  0.00    -0.165 F 
ATOM     21  F   UNL d   1      -0.165  -8.080   1.905  0.00  0.00    -0.165 F 
ENDBRANCH   9  18
ENDBRANCH   2   7
BRANCH   1  22
ATOM     22  S   UNL d   1       1.385   0.069   0.319  0.00  0.00     0.243 S 
ATOM     23  O   UNL d   1       2.730  -0.439   0.521  0.00  0.00    -0.206 OA
ATOM     24  O   UNL d   1       0.540   0.424   1.434  0.00  0.00    -0.206 OA
BRANCH  22  25
ATOM     25  C   UNL d   1       1.551   1.507  -0.714  0.00  0.00     0.074 A 
ATOM     26  C   UNL d   1       0.983   2.726  -0.331  0.00  0.00     0.026 A 
ATOM     27  C   UNL d   1       1.126   3.840  -1.162  0.00  0.00     0.025 A 
ATOM     28  C   UNL d   1       1.839   3.729  -2.357  0.00  0.00     0.034 A 
ATOM     29  C   UNL d   1       2.434   2.521  -2.720  0.00  0.00     0.025 A 
ATOM     30 CL   UNL d   1       1.981   5.093  -3.397  0.00  0.00    -0.084 Cl
ATOM     31  C   UNL d   1       2.295   1.404  -1.895  0.00  0.00     0.026 A 
ENDBRANCH  22  25
ENDBRANCH   1  22
TORSDOF 4
