REMARK  9 active torsions:
REMARK  status: ('A' for Active; 'I' for Inactive)
REMARK    1  A    between atoms: C_20  and  N_1 
REMARK    2  A    between atoms: S_9  and  C_2 
REMARK    3  A    between atoms: C_15  and  C_3 
REMARK    4  A    between atoms: N_10  and  C_6 
REMARK    5  A    between atoms: C_11  and  S_9 
REMARK    6  A    between atoms: C_18  and  C_19 
REMARK    7  A    between atoms: C_28  and  C_20 
REMARK    8  A    between atoms: C_33  and  C_28 
REMARK    9  A    between atoms: O_29  and  C_33 
ROOT
ATOM      1  N   UNL d   1      -0.154  -1.006   0.113  0.00  0.00    -0.310 N 
ATOM      2  C   UNL d   1       1.075  -0.374   0.094  0.00  0.00     0.169 A 
ATOM      3  C   UNL d   1      -1.105   0.016   0.105  0.00  0.00     0.134 A 
ATOM      4  N   UNL d   1      -0.446   1.163   0.041  0.00  0.00    -0.283 N 
ATOM      5  HN  UNL d   1      -0.878   2.085  -0.015  1.00  0.00     0.188 HD
ATOM      6  N   UNL d   1       0.906   0.923   0.061  0.00  0.00    -0.278 N 
ATOM      7  HN  UNL d   1       1.644   1.628   0.051  1.00  0.00     0.189 HD
ENDROOT
BRANCH   2   8
ATOM      8  S   UNL d   1       2.609  -1.192   0.037  0.00  0.00    -0.032 SA
BRANCH   8   9
ATOM      9  C   UNL d   1       3.609  -0.177   1.117  0.00  0.00     0.110 A 
ATOM     10  C   UNL d   1       3.352   0.153   2.447  0.00  0.00     0.138 A 
ATOM     11  C   UNL d   1       4.211   1.025   3.142  0.00  0.00     0.059 A 
ATOM     12  C   UNL d   1       5.353   1.493   2.510  0.00  0.00     0.028 A 
ATOM     13  C   UNL d   1       5.611   1.050   1.224  0.00  0.00     0.108 A 
ATOM     14 BR   UNL d   1       6.524   2.677   3.388  0.00  0.00    -0.050 Br
ATOM     15  N   UNL d   1       4.770   0.244   0.525  0.00  0.00    -0.357 N 
ATOM     16  HN  UNL d   1       5.001  -0.044  -0.426  1.00  0.00     0.166 HD
BRANCH  10  17
ATOM     17  N   UNL d   1       2.262  -0.451   3.194  0.00  0.00    -0.113 N 
ATOM     18  O   UNL d   1       1.937  -1.617   2.931  0.00  0.00    -0.532 OA
ATOM     19  O   UNL d   1       1.778   0.211   4.123  0.00  0.00    -0.532 OA
ENDBRANCH  10  17
ENDBRANCH   8   9
ENDBRANCH   2   8
BRANCH   1  20
ATOM     20  C   UNL d   1      -0.378  -2.437   0.176  0.00  0.00     0.135 C 
BRANCH  20  21
ATOM     21  C   UNL d   1      -0.816  -3.091  -1.137  0.00  0.00     0.046 C 
BRANCH  21  22
ATOM     22  C   UNL d   1       0.274  -3.157  -2.202  0.00  0.00     0.168 C 
BRANCH  22  23
ATOM     23  O   UNL d   1       1.302  -4.036  -1.752  0.00  0.00    -0.396 OA
ATOM     24  C   UNL d   1       2.330  -4.222  -2.720  0.00  0.00     0.201 C 
ENDBRANCH  22  23
ENDBRANCH  21  22
ENDBRANCH  20  21
ENDBRANCH   1  20
BRANCH   3  25
ATOM     25  C   UNL d   1      -2.587  -0.070   0.120  0.00  0.00     0.009 A 
ATOM     26  C   UNL d   1      -3.321  -0.947   0.913  0.00  0.00     0.016 A 
ATOM     27  C   UNL d   1      -4.732  -0.955   0.919  0.00  0.00     0.009 A 
ATOM     28  C   UNL d   1      -5.488  -0.048   0.146  0.00  0.00    -0.051 A 
ATOM     29  C   UNL d   1      -4.749   0.862  -0.622  0.00  0.00     0.009 A 
ATOM     30  C   UNL d   1      -3.337   0.855  -0.635  0.00  0.00     0.016 A 
BRANCH  28  31
ATOM     31  C   UNL d   1      -7.032  -0.088   0.168  0.00  0.00    -0.024 C 
ATOM     32  C   UNL d   1      -7.705   1.034  -0.660  0.00  0.00     0.019 C 
ATOM     33  C   UNL d   1      -7.527  -1.433  -0.410  0.00  0.00     0.019 C 
ATOM     34  C   UNL d   1      -7.576   0.046   1.611  0.00  0.00     0.019 C 
ENDBRANCH  28  31
ENDBRANCH   3  25
TORSDOF 9
