REMARK WARNING: 32 MAX_TORS EXCEEDED!!!
REMARK  42 active torsions:
REMARK  status: ('A' for Active; 'I' for Inactive)
REMARK    1  A    between atoms: C_9  and  S_1 
REMARK    2  A    between atoms: N_18  and  S_1 
REMARK    3  A    between atoms: S_2  and  C_10 
REMARK    4  A    between atoms: N_19  and  S_2 
REMARK    5  A    between atoms: N_11  and  C_5 
REMARK    6  A    between atoms: N_12  and  C_6 
REMARK    7  A    between atoms: C_29  and  N_18 
REMARK    8  A    between atoms: C_30  and  N_18 
REMARK    9  A    between atoms: C_31  and  N_19 
REMARK   10  A    between atoms: C_32  and  N_19 
REMARK   11  A    between atoms: C_33  and  C_29 
REMARK   12  A    between atoms: C_34  and  C_30 
REMARK   13  A    between atoms: C_35  and  C_31 
REMARK   14  A    between atoms: C_36  and  C_32 
REMARK   15  A    between atoms: C_57  and  C_33 
REMARK   16  A    between atoms: C_58  and  C_34 
REMARK   17  A    between atoms: C_59  and  C_35 
REMARK   18  A    between atoms: C_60  and  C_36 
REMARK   19  A    between atoms: C_37  and  C_41 
REMARK   20  A    between atoms: C_38  and  C_42 
REMARK   21  A    between atoms: C_39  and  C_43 
REMARK   22  A    between atoms: C_40  and  C_44 
REMARK   23  A    between atoms: C_41  and  C_53 
REMARK   24  A    between atoms: C_42  and  C_54 
REMARK   25  A    between atoms: C_43  and  C_55 
REMARK   26  A    between atoms: C_44  and  C_56 
REMARK   27  A    between atoms: C_45  and  C_61 
REMARK   28  A    between atoms: C_49  and  C_45 
REMARK   29  A    between atoms: C_46  and  C_62 
REMARK   30  A    between atoms: C_50  and  C_46 
REMARK   31  A    between atoms: C_47  and  C_63 
REMARK   32  A    between atoms: C_51  and  C_47 
REMARK   33  A    between atoms: C_48  and  C_64 
REMARK   34  A    between atoms: C_52  and  C_48 
REMARK   35  A    between atoms: C_53  and  C_49 
REMARK   36  A    between atoms: C_54  and  C_50 
REMARK   37  A    between atoms: C_55  and  C_51 
REMARK   38  A    between atoms: C_56  and  C_52 
REMARK   39  A    between atoms: C_61  and  C_57 
REMARK   40  A    between atoms: C_62  and  C_58 
REMARK   41  A    between atoms: C_63  and  C_59 
REMARK   42  A    between atoms: C_64  and  C_60 
ROOT
ATOM      1  C   UNL d   1      -0.040   3.609  -2.845  0.00  0.00     0.025 A 
ATOM      2  C   UNL d   1      -0.269   4.441  -4.030  0.00  0.00     0.025 A 
ATOM      3  C   UNL d   1       0.214   3.831  -1.496  0.00  0.00     0.116 C 
ATOM      4  C   UNL d   1      -0.067   5.776  -4.348  0.00  0.00     0.116 A 
ATOM      5  C   UNL d   1      -0.611   3.597  -5.111  0.00  0.00     0.030 A 
ATOM      6  C   UNL d   1      -0.093   2.268  -3.257  0.00  0.00     0.030 A 
ATOM      7  C   UNL d   1       0.615   1.461  -1.139  0.00  0.00     0.083 C 
ATOM      8  C   UNL d   1      -0.635   5.367  -6.683  0.00  0.00     0.078 A 
ATOM      9  C   UNL d   1      -0.522   2.206  -4.655  0.00  0.00     0.194 A 
ATOM     10  C   UNL d   1      -0.243   6.242  -5.660  0.00  0.00     0.061 A 
ATOM     11  C   UNL d   1       0.566   2.772  -0.640  0.00  0.00     0.062 C 
ATOM     12  C   UNL d   1       0.257   1.195  -2.451  0.00  0.00     0.041 C 
ATOM     13  C   UNL d   1      -0.821   4.012  -6.418  0.00  0.00     0.041 A 
ATOM     14  O   UNL d   1      -0.745   1.201  -5.299  0.00  0.00    -0.287 OA
ENDROOT
BRANCH   7  15
ATOM     15  S   UNL d   1       1.305   0.181  -0.108  0.00  0.00     0.260 S 
ATOM     16  O   UNL d   1       1.687   0.843   1.119  0.00  0.00    -0.200 OA
ATOM     17  O   UNL d   1       2.299  -0.510  -0.896  0.00  0.00    -0.200 OA
BRANCH  15  18
ATOM     18  N   UNL d   1       0.009  -0.879   0.230  0.00  0.00    -0.307 N 
BRANCH  18  19
ATOM     19  C   UNL d   1      -0.760  -1.454  -0.918  0.00  0.00     0.135 C 
BRANCH  19  20
ATOM     20  C   UNL d   1       0.072  -2.247  -1.936  0.00  0.00     0.021 C 
BRANCH  20  21
ATOM     21  C   UNL d   1       0.673  -3.555  -1.424  0.00  0.00     0.002 C 
BRANCH  21  22
ATOM     22  C   UNL d   1      -0.369  -4.505  -0.851  0.00  0.00     0.000 C 
BRANCH  22  23
ATOM     23  C   UNL d   1      -1.329  -4.939  -1.944  0.00  0.00     0.000 C 
BRANCH  23  24
ATOM     24  C   UNL d   1      -2.426  -5.821  -1.389  0.00  0.00     0.000 C 
BRANCH  24  25
ATOM     25  C   UNL d   1      -3.331  -6.251  -2.531  0.00  0.00     0.000 C 
BRANCH  25  26
ATOM     26  C   UNL d   1      -4.433  -7.157  -2.015  0.00  0.00    -0.000 C 
BRANCH  26  27
ATOM     27  C   UNL d   1      -5.328  -7.614  -3.158  0.00  0.00    -0.005 C 
ATOM     28  C   UNL d   1      -6.422  -8.528  -2.644  0.00  0.00     0.005 C 
ENDBRANCH  26  27
ENDBRANCH  25  26
ENDBRANCH  24  25
ENDBRANCH  23  24
ENDBRANCH  22  23
ENDBRANCH  21  22
ENDBRANCH  20  21
ENDBRANCH  19  20
ENDBRANCH  18  19
BRANCH  18  29
ATOM     29  C   UNL d   1       0.288  -1.908   1.288  0.00  0.00     0.135 C 
BRANCH  29  30
ATOM     30  C   UNL d   1       0.505  -1.355   2.679  0.00  0.00     0.021 C 
BRANCH  30  31
ATOM     31  C   UNL d   1      -0.695  -0.552   3.138  0.00  0.00     0.002 C 
BRANCH  31  32
ATOM     32  C   UNL d   1      -0.411   0.043   4.502  0.00  0.00     0.000 C 
BRANCH  32  33
ATOM     33  C   UNL d   1      -1.617   0.835   4.971  0.00  0.00     0.000 C 
BRANCH  33  34
ATOM     34  C   UNL d   1      -1.334   1.442   6.333  0.00  0.00     0.000 C 
BRANCH  34  35
ATOM     35  C   UNL d   1      -2.538   2.236   6.814  0.00  0.00     0.000 C 
BRANCH  35  36
ATOM     36  C   UNL d   1      -2.254   2.841   8.181  0.00  0.00    -0.000 C 
BRANCH  36  37
ATOM     37  C   UNL d   1      -3.451   3.640   8.678  0.00  0.00    -0.005 C 
ATOM     38  C   UNL d   1      -3.169   4.242  10.042  0.00  0.00     0.005 C 
ENDBRANCH  36  37
ENDBRANCH  35  36
ENDBRANCH  34  35
ENDBRANCH  33  34
ENDBRANCH  32  33
ENDBRANCH  31  32
ENDBRANCH  30  31
ENDBRANCH  29  30
ENDBRANCH  18  29
ENDBRANCH  15  18
ENDBRANCH   7  15
BRANCH   3  39
ATOM     39  N   UNL d   1      -0.036   5.109  -0.872  0.00  0.00    -0.115 N 
ATOM     40  O   UNL d   1      -1.173   5.573  -1.026  0.00  0.00    -0.532 OA
ATOM     41  O   UNL d   1       0.880   5.616  -0.219  0.00  0.00    -0.532 OA
ENDBRANCH   3  39
BRANCH   4  42
ATOM     42  N   UNL d   1       0.560   6.710  -3.441  0.00  0.00    -0.115 N 
ATOM     43  O   UNL d   1       1.697   6.418  -3.055  0.00  0.00    -0.532 OA
ATOM     44  O   UNL d   1      -0.067   7.741  -3.176  0.00  0.00    -0.532 OA
ENDBRANCH   4  42
BRANCH   8  45
ATOM     45  S   UNL d   1      -0.637   5.929  -8.377  0.00  0.00     0.243 S 
ATOM     46  O   UNL d   1       0.637   6.601  -8.571  0.00  0.00    -0.206 OA
ATOM     47  O   UNL d   1      -0.997   4.794  -9.174  0.00  0.00    -0.206 OA
BRANCH  45  48
ATOM     48  N   UNL d   1      -1.896   7.136  -8.383  0.00  0.00    -0.206 NA
BRANCH  48  49
ATOM     49  C   UNL d   1      -1.340   8.514  -8.078  0.00  0.00     0.107 C 
BRANCH  49  50
ATOM     50  C   UNL d   1      -2.378   9.618  -7.923  0.00  0.00     0.015 C 
BRANCH  50  51
ATOM     51  C   UNL d   1      -3.394   9.337  -6.825  0.00  0.00     0.001 C 
BRANCH  51  52
ATOM     52  C   UNL d   1      -4.403  10.477  -6.772  0.00  0.00     0.000 C 
BRANCH  52  53
ATOM     53  C   UNL d   1      -5.443  10.235  -5.691  0.00  0.00     0.000 C 
BRANCH  53  54
ATOM     54  C   UNL d   1      -6.444  11.381  -5.664  0.00  0.00     0.000 C 
BRANCH  54  55
ATOM     55  C   UNL d   1      -7.490  11.149  -4.583  0.00  0.00     0.000 C 
BRANCH  55  56
ATOM     56  C   UNL d   1      -8.494  12.294  -4.554  0.00  0.00    -0.000 C 
BRANCH  56  57
ATOM     57  C   UNL d   1      -9.542  12.065  -3.471  0.00  0.00    -0.005 C 
ATOM     58  C   UNL d   1     -10.546  13.203  -3.437  0.00  0.00     0.005 C 
ENDBRANCH  56  57
ENDBRANCH  55  56
ENDBRANCH  54  55
ENDBRANCH  53  54
ENDBRANCH  52  53
ENDBRANCH  51  52
ENDBRANCH  50  51
ENDBRANCH  49  50
ENDBRANCH  48  49
BRANCH  48  59
ATOM     59  C   UNL d   1      -2.730   7.165  -9.625  0.00  0.00     0.107 C 
BRANCH  59  60
ATOM     60  C   UNL d   1      -3.595   5.929  -9.821  0.00  0.00     0.015 C 
BRANCH  60  61
ATOM     61  C   UNL d   1      -4.413   6.073 -11.099  0.00  0.00     0.001 C 
BRANCH  61  62
ATOM     62  C   UNL d   1      -5.138   4.770 -11.399  0.00  0.00     0.000 C 
BRANCH  62  63
ATOM     63  C   UNL d   1      -5.941   4.896 -12.684  0.00  0.00     0.000 C 
BRANCH  63  64
ATOM     64  C   UNL d   1      -6.677   3.597 -12.982  0.00  0.00     0.000 C 
BRANCH  64  65
ATOM     65  C   UNL d   1      -7.491   3.734 -14.263  0.00  0.00     0.000 C 
BRANCH  65  66
ATOM     66  C   UNL d   1      -8.240   2.443 -14.568  0.00  0.00    -0.000 C 
BRANCH  66  67
ATOM     67  C   UNL d   1      -9.056   2.579 -15.850  0.00  0.00    -0.005 C 
ATOM     68  C   UNL d   1      -9.806   1.295 -16.157  0.00  0.00     0.005 C 
ENDBRANCH  66  67
ENDBRANCH  65  66
ENDBRANCH  64  65
ENDBRANCH  63  64
ENDBRANCH  62  63
ENDBRANCH  61  62
ENDBRANCH  60  61
ENDBRANCH  59  60
ENDBRANCH  48  59
ENDBRANCH  45  48
ENDBRANCH   8  45
TORSDOF 42
