REMARK  5 active torsions:
REMARK  status: ('A' for Active; 'I' for Inactive)
REMARK    1  A    between atoms: C_3  and  C_4 
REMARK    2  A    between atoms: O_15  and  C_10 
REMARK    3  A    between atoms: C_16  and  O_15 
REMARK    4  A    between atoms: C_17  and  C_16 
REMARK    5  A    between atoms: C_18  and  C_17 
ROOT
ATOM      1  N   UNL d   1      -3.021   0.335  -0.809  0.00  0.00    -0.191 NA
ATOM      2  C   UNL d   1      -1.880   0.258  -0.623  0.00  0.00     0.099 C 
ATOM      3  C   UNL d   1       2.339   0.009   0.006  0.00  0.00    -0.026 A 
ATOM      4  C   UNL d   1       1.637  -0.999  -0.681  0.00  0.00     0.014 A 
ATOM      5  C   UNL d   1       1.583   1.092   0.496  0.00  0.00     0.014 A 
ATOM      6  C   UNL d   1      -0.467   0.167  -0.402  0.00  0.00     0.044 A 
ATOM      7  C   UNL d   1       0.255  -0.919  -0.892  0.00  0.00     0.023 A 
ATOM      8  C   UNL d   1       0.198   1.170   0.303  0.00  0.00     0.023 A 
ENDROOT
BRANCH   3   9
ATOM      9  C   UNL d   1       3.809  -0.063   0.203  0.00  0.00    -0.026 A 
ATOM     10  C   UNL d   1       4.429   0.523   1.320  0.00  0.00     0.015 A 
ATOM     11  C   UNL d   1       5.816   0.469   1.508  0.00  0.00     0.037 A 
ATOM     12  C   UNL d   1       6.623  -0.195   0.590  0.00  0.00     0.068 A 
ATOM     13  C   UNL d   1       6.037  -0.772  -0.532  0.00  0.00     0.037 A 
ATOM     14  C   UNL d   1       4.650  -0.707  -0.722  0.00  0.00     0.015 A 
BRANCH  12  15
ATOM     15  O   UNL d   1       7.984  -0.301   0.669  0.00  0.00    -0.351 OA
BRANCH  15  16
ATOM     16  C   UNL d   1       8.518  -0.292   1.995  0.00  0.00     0.175 C 
BRANCH  16  17
ATOM     17  C   UNL d   1      10.030  -0.467   1.907  0.00  0.00     0.026 C 
BRANCH  17  18
ATOM     18  C   UNL d   1      10.657  -0.479   3.299  0.00  0.00    -0.002 C 
ATOM     19  C   UNL d   1      12.167  -0.624   3.234  0.00  0.00     0.005 C 
ENDBRANCH  17  18
ENDBRANCH  16  17
ENDBRANCH  15  16
ENDBRANCH  12  15
ENDBRANCH   3   9
TORSDOF 5
