REMARK  2 active torsions:
REMARK  status: ('A' for Active; 'I' for Inactive)
REMARK    1  A    between atoms: C_9  and  C_5 
REMARK    2  A    between atoms: C_8  and  N_7 
ROOT
ATOM      1  C   UNL d   1       0.297  -1.154   0.031  0.00  0.00     0.149 A 
ATOM      2  S   UNL d   1      -1.038  -0.069   0.142  0.00  0.00    -0.052 SA
ATOM      3  N   UNL d   1       1.472  -0.564   0.016  0.00  0.00    -0.345 N 
ATOM      4  HN  UNL d   1       2.367  -1.053   0.001  1.00  0.00     0.167 HD
ATOM      5  C   UNL d   1       0.030   1.276   0.033  0.00  0.00     0.034 A 
ATOM      6  C   UNL d   1       1.328   0.803   0.022  0.00  0.00     0.110 A 
ATOM      7  N   UNL d   1       0.103  -2.496  -0.021  0.00  0.00    -0.336 N 
ATOM      8  H   UNL d   1      -0.816  -2.865   0.181  0.00  0.00     0.168 HD
ENDROOT
BRANCH   7   9
ATOM      9  C   UNL d   1       1.015  -3.417  -0.577  0.00  0.00     0.037 A 
ATOM     10  C   UNL d   1       1.047  -4.732  -0.096  0.00  0.00     0.053 A 
ATOM     11  C   UNL d   1       2.003  -5.636  -0.569  0.00  0.00     0.037 A 
ATOM     12 CL   UNL d   1       2.045  -7.237   0.063  0.00  0.00    -0.084 Cl
ATOM     13  C   UNL d   1       2.933  -5.257  -1.532  0.00  0.00     0.048 A 
ATOM     14  C   UNL d   1       2.905  -3.957  -2.018  0.00  0.00     0.037 A 
ATOM     15  C   UNL d   1       1.966  -3.044  -1.541  0.00  0.00     0.053 A 
ATOM     16 CL   UNL d   1       4.040  -3.463  -3.215  0.00  0.00    -0.084 Cl
ENDBRANCH   7   9
BRANCH   5  17
ATOM     17  C   UNL d   1      -0.438   2.664  -0.023  0.00  0.00    -0.018 A 
ATOM     18  C   UNL d   1       0.320   3.680   0.584  0.00  0.00     0.014 A 
ATOM     19  C   UNL d   1      -0.060   5.022   0.479  0.00  0.00     0.024 A 
ATOM     20  C   UNL d   1      -1.205   5.361  -0.235  0.00  0.00     0.034 A 
ATOM     21  C   UNL d   1      -1.975   4.371  -0.839  0.00  0.00     0.024 A 
ATOM     22 CL   UNL d   1      -1.663   7.012  -0.381  0.00  0.00    -0.084 Cl
ATOM     23  C   UNL d   1      -1.593   3.029  -0.734  0.00  0.00     0.014 A 
ENDBRANCH   5  17
TORSDOF 2
