REMARK  6 active torsions:
REMARK  status: ('A' for Active; 'I' for Inactive)
REMARK    1  A    between atoms: C_3  and  S_1 
REMARK    2  A    between atoms: N_11  and  S_1 
REMARK    3  A    between atoms: C_2  and  C_13 
REMARK    4  A    between atoms: C_20  and  C_6 
REMARK    5  A    between atoms: C_17  and  C_8 
REMARK    6  A    between atoms: C_13  and  N_11 
ROOT
ATOM      1  N   UNL d   1       0.365   1.547  -0.084  0.00  0.00    -0.311 N 
ATOM      2  H   UNL d   1       0.429   0.576   0.217  0.00  0.00     0.172 HD
ENDROOT
BRANCH   1   3
ATOM      3  S   UNL d   1       0.612   1.665  -1.745  0.00  0.00     0.265 S 
ATOM      4  O   UNL d   1       0.020   0.482  -2.326  0.00  0.00    -0.200 OA
ATOM      5  O   UNL d   1       0.271   2.989  -2.198  0.00  0.00    -0.200 OA
BRANCH   3   6
ATOM      6  C   UNL d   1       2.353   1.515  -2.076  0.00  0.00     0.120 A 
ATOM      7  S   UNL d   1       3.102   0.063  -1.584  0.00  0.00    -0.075 SA
ATOM      8  C   UNL d   1       4.638   0.554  -2.177  0.00  0.00     0.033 A 
ATOM      9  C   UNL d   1       4.565   1.821  -2.731  0.00  0.00     0.023 A 
ATOM     10  C   UNL d   1       3.253   2.373  -2.677  0.00  0.00     0.034 A 
BRANCH   8  11
ATOM     11  C   UNL d   1       5.825  -0.296  -2.010  0.00  0.00     0.049 A 
ATOM     12  N   UNL d   1       6.976   0.401  -1.836  0.00  0.00    -0.365 N 
ATOM     13  C   UNL d   1       8.103  -0.309  -1.609  0.00  0.00     0.088 A 
ATOM     14  HN  UNL d   1       6.989   1.420  -1.874  1.00  0.00     0.165 HD
ATOM     15  C   UNL d   1       8.146  -1.691  -1.552  0.00  0.00     0.017 A 
ATOM     16  C   UNL d   1       6.964  -2.391  -1.760  0.00  0.00     0.004 A 
ATOM     17  C   UNL d   1       5.785  -1.688  -1.998  0.00  0.00     0.031 A 
ENDBRANCH   8  11
ENDBRANCH   3   6
ENDBRANCH   1   3
BRANCH   1  18
ATOM     18  C   UNL d   1       0.981   2.519   0.816  0.00  0.00     0.176 C 
BRANCH  18  19
ATOM     19  C   UNL d   1       0.430   3.884   0.655  0.00  0.00     0.021 A 
ATOM     20  C   UNL d   1      -0.923   4.364   0.702  0.00  0.00     0.075 A 
ATOM     21  N   UNL d   1      -0.951   5.687   0.463  0.00  0.00    -0.260 N 
ATOM     22  O   UNL d   1       0.351   6.089   0.291  0.00  0.00    -0.242 OA
ATOM     23  HN  UNL d   1      -1.781   6.279   0.419  1.00  0.00     0.195 HD
ATOM     24  C   UNL d   1       1.174   5.025   0.426  0.00  0.00     0.083 A 
ATOM     25  C   UNL d   1       2.619   5.298   0.315  0.00  0.00     0.079 C 
BRANCH  20  26
ATOM     26  C   UNL d   1      -2.175   3.651   0.984  0.00  0.00    -0.007 A 
ATOM     27  C   UNL d   1      -3.372   4.056   0.368  0.00  0.00     0.014 A 
ATOM     28  C   UNL d   1      -4.585   3.429   0.671  0.00  0.00     0.001 A 
ATOM     29  C   UNL d   1      -4.617   2.385   1.592  0.00  0.00     0.000 A 
ATOM     30  C   UNL d   1      -3.441   1.971   2.210  0.00  0.00     0.001 A 
ATOM     31  C   UNL d   1      -2.230   2.604   1.913  0.00  0.00     0.014 A 
ENDBRANCH  20  26
ENDBRANCH  18  19
ENDBRANCH   1  18
TORSDOF 6
