REMARK  2 active torsions:
REMARK  status: ('A' for Active; 'I' for Inactive)
REMARK    1  A    between atoms: C_2  and  C_1 
REMARK    2  A    between atoms: C_11  and  C_2 
ROOT
ATOM      1  C   UNL d   1       2.364   0.629   0.124  0.00  0.00     0.035 A 
ATOM      2  C   UNL d   1       2.322  -0.772   0.060  0.00  0.00     0.028 A 
ATOM      3  C   UNL d   1       1.166   1.360   0.137  0.00  0.00     0.056 A 
ATOM      4  C   UNL d   1       1.088  -1.432   0.013  0.00  0.00     0.059 A 
ATOM      5  C   UNL d   1      -0.055   0.698   0.056  0.00  0.00     0.103 A 
ATOM      6  C   UNL d   1      -0.096  -0.698   0.025  0.00  0.00     0.103 A 
ATOM      7  O   UNL d   1      -1.178   1.484   0.020  0.00  0.00    -0.346 OA
ATOM      8  O   UNL d   1      -1.266  -1.413  -0.005  0.00  0.00    -0.346 OA
ATOM      9 BR   UNL d   1       3.881  -1.855  -0.026  0.00  0.00    -0.050 Br
ATOM     10  C   UNL d   1      -2.329   0.734  -0.390  0.00  0.00     0.202 C 
ATOM     11  C   UNL d   1      -2.389  -0.593   0.347  0.00  0.00     0.202 C 
ENDROOT
BRANCH   1  12
ATOM     12  C   UNL d   1       3.638   1.376   0.251  0.00  0.00     0.193 C 
ATOM     13  O   UNL d   1       4.413   1.072   1.152  0.00  0.00    -0.287 OA
BRANCH  12  14
ATOM     14  C   UNL d   1       3.946   2.538  -0.631  0.00  0.00     0.015 A 
ATOM     15  C   UNL d   1       3.328   2.725  -1.875  0.00  0.00     0.015 A 
ATOM     16  C   UNL d   1       3.622   3.859  -2.637  0.00  0.00     0.001 A 
ATOM     17  C   UNL d   1       4.542   4.798  -2.172  0.00  0.00     0.000 A 
ATOM     18  C   UNL d   1       5.181   4.603  -0.949  0.00  0.00     0.001 A 
ATOM     19  C   UNL d   1       4.886   3.475  -0.182  0.00  0.00     0.015 A 
ENDBRANCH  12  14
ENDBRANCH   1  12
TORSDOF 2
