REMARK  7 active torsions:
REMARK  status: ('A' for Active; 'I' for Inactive)
REMARK    1  A    between atoms: C_2  and  N_1 
REMARK    2  A    between atoms: N_13  and  C_4 
REMARK    3  A    between atoms: O_17  and  C_6 
REMARK    4  A    between atoms: O_19  and  C_8 
REMARK    5  A    between atoms: C_20  and  N_13 
REMARK    6  A    between atoms: C_14  and  C_21 
REMARK    7  A    between atoms: C_21  and  C_20 
ROOT
ATOM      1  N   UNL d   1       0.840  -0.767  -1.899  0.00  0.00    -0.388 N 
ATOM      2  H   UNL d   1       1.166  -1.520  -2.515  0.00  0.00     0.159 HD
ENDROOT
BRANCH   1   3
ATOM      3  C   UNL d   1       1.399  -0.835  -0.615  0.00  0.00     0.061 A 
ATOM      4  C   UNL d   1       2.655  -1.433  -0.366  0.00  0.00     0.130 A 
ATOM      5  C   UNL d   1       3.241  -1.473   0.911  0.00  0.00     0.062 A 
ATOM      6  C   UNL d   1       2.587  -0.856   1.967  0.00  0.00     0.036 A 
ATOM      7 CL   UNL d   1       3.264  -0.911   3.546  0.00  0.00    -0.084 Cl
ATOM      8  C   UNL d   1       1.394  -0.183   1.750  0.00  0.00     0.026 A 
ATOM      9  C   UNL d   1       0.817  -0.163   0.472  0.00  0.00     0.033 A 
BRANCH   4  10
ATOM     10  N   UNL d   1       3.415  -2.048  -1.452  0.00  0.00    -0.113 N 
ATOM     11  O   UNL d   1       4.635  -1.847  -1.475  0.00  0.00    -0.532 OA
ATOM     12  O   UNL d   1       2.789  -2.747  -2.265  0.00  0.00    -0.532 OA
ENDBRANCH   4  10
ENDBRANCH   1   3
BRANCH   1  13
ATOM     13  C   UNL d   1      -0.584  -0.467  -2.102  0.00  0.00     0.124 C 
BRANCH  13  14
ATOM     14  C   UNL d   1      -0.905  -0.230  -3.591  0.00  0.00     0.058 C 
BRANCH  14  15
ATOM     15  C   UNL d   1      -0.282   0.987  -4.250  0.00  0.00    -0.054 A 
ATOM     16  C   UNL d   1       0.646   1.813  -3.597  0.00  0.00     0.046 A 
ATOM     17  C   UNL d   1       1.256   2.905  -4.229  0.00  0.00     0.102 A 
ATOM     18  C   UNL d   1       0.920   3.180  -5.562  0.00  0.00     0.101 A 
ATOM     19  C   UNL d   1      -0.039   2.392  -6.211  0.00  0.00     0.040 A 
ATOM     20  C   UNL d   1      -0.628   1.300  -5.568  0.00  0.00     0.010 A 
BRANCH  17  21
ATOM     21  O   UNL d   1       2.143   3.732  -3.590  0.00  0.00    -0.353 OA
ATOM     22  C   UNL d   1       2.532   3.388  -2.264  0.00  0.00     0.210 C 
ENDBRANCH  17  21
BRANCH  18  23
ATOM     23  O   UNL d   1       1.409   4.200  -6.339  0.00  0.00    -0.353 OA
ATOM     24  C   UNL d   1       2.767   4.562  -6.110  0.00  0.00     0.210 C 
ENDBRANCH  18  23
ENDBRANCH  14  15
ENDBRANCH  13  14
ENDBRANCH   1  13
TORSDOF 7
