REMARK  2 active torsions:
REMARK  status: ('A' for Active; 'I' for Inactive)
REMARK       I    between atoms: N_2  and  C_1 
REMARK    1  A    between atoms: C_6  and  C_1 
REMARK    2  A    between atoms: C_5  and  N_2 
ROOT
ATOM      1  C   UNL d   1       0.970  -0.057   0.040  0.00  0.00     0.257 C 
ATOM      2  N   UNL d   1       0.296   0.012  -1.166  0.00  0.00    -0.309 N 
ATOM      3  O   UNL d   1       2.183  -0.136   0.202  0.00  0.00    -0.267 OA
ATOM      4  H   UNL d   1      -0.682   0.247  -1.162  0.00  0.00     0.170 HD
ENDROOT
BRANCH   2   5
ATOM      5  C   UNL d   1       0.935  -0.052  -2.416  0.00  0.00     0.108 A 
ATOM      6  N   UNL d   1       2.219  -0.438  -2.497  0.00  0.00    -0.342 N 
ATOM      7  C   UNL d   1       2.844  -0.433  -3.682  0.00  0.00     0.043 A 
ATOM      8  HN  UNL d   1       2.718  -0.734  -1.658  1.00  0.00     0.167 HD
ATOM      9  C   UNL d   1       4.175  -0.817  -3.745  0.00  0.00     0.030 A 
ATOM     10  C   UNL d   1       2.200  -0.037  -4.868  0.00  0.00    -0.009 A 
ATOM     11  C   UNL d   1       4.886  -0.803  -4.947  0.00  0.00     0.002 A 
ATOM     12  C   UNL d   1       4.254  -0.394  -6.117  0.00  0.00     0.001 A 
ATOM     13  C   UNL d   1       2.913  -0.013  -6.080  0.00  0.00     0.013 A 
ATOM     14  C   UNL d   1       0.850   0.325  -4.779  0.00  0.00     0.017 A 
ATOM     15  C   UNL d   1       0.206   0.306  -3.542  0.00  0.00     0.049 A 
ENDBRANCH   2   5
BRANCH   1  16
ATOM     16  C   UNL d   1       0.136   0.048   1.268  0.00  0.00     0.035 A 
ATOM     17  C   UNL d   1      -1.165  -0.463   1.336  0.00  0.00     0.054 A 
ATOM     18  C   UNL d   1      -1.810  -0.396   2.556  0.00  0.00     0.076 A 
ATOM     19  O   UNL d   1      -3.072  -0.880   2.789  0.00  0.00    -0.350 OA
ATOM     20  C   UNL d   1      -1.220   0.166   3.680  0.00  0.00    -0.023 A 
ATOM     21  C   UNL d   1      -3.160  -0.905   4.235  0.00  0.00     0.180 C 
ATOM     22  C   UNL d   1      -2.170   0.107   4.813  0.00  0.00     0.068 C 
ATOM     23  C   UNL d   1       0.051   0.699   3.627  0.00  0.00     0.011 A 
ATOM     24  C   UNL d   1       0.734   0.627   2.412  0.00  0.00     0.018 A 
ENDBRANCH   1  16
TORSDOF 2
