REMARK  5 active torsions:
REMARK  status: ('A' for Active; 'I' for Inactive)
REMARK       I    between atoms: N_2  and  C_1 
REMARK    1  A    between atoms: C_3  and  C_1 
REMARK    2  A    between atoms: N_4  and  N_2 
REMARK    3  A    between atoms: C_8  and  N_4 
REMARK    4  A    between atoms: O_17  and  C_9 
REMARK    5  A    between atoms: C_18  and  C_12 
ROOT
ATOM      1  C   UNL d   1       1.057  -0.023  -0.153  0.00  0.00     0.266 C 
ATOM      2  N   UNL d   1       0.281  -1.170  -0.225  0.00  0.00    -0.283 N 
ATOM      3  O   UNL d   1       2.283  -0.024  -0.200  0.00  0.00    -0.266 OA
ATOM      4  H   UNL d   1      -0.620  -1.177   0.242  0.00  0.00     0.184 HD
ENDROOT
BRANCH   2   5
ATOM      5  N   UNL d   1       0.959  -2.394  -0.199  0.00  0.00    -0.203 NA
ATOM      6  H   UNL d   1       1.963  -2.284  -0.394  0.00  0.00     0.153 HD
BRANCH   5   7
ATOM      7  C   UNL d   1       0.377  -3.439  -0.957  0.00  0.00     0.027 A 
ATOM      8  C   UNL d   1      -0.915  -3.385  -1.497  0.00  0.00     0.028 A 
ATOM      9  C   UNL d   1      -1.493  -4.502  -2.119  0.00  0.00     0.038 A 
ATOM     10  C   UNL d   1      -0.795  -5.704  -2.186  0.00  0.00     0.068 A 
ATOM     11  C   UNL d   1       0.498  -5.769  -1.671  0.00  0.00     0.038 A 
ATOM     12  C   UNL d   1       1.072  -4.653  -1.051  0.00  0.00     0.028 A 
BRANCH  10  13
ATOM     13  O   UNL d   1      -1.264  -6.857  -2.752  0.00  0.00    -0.356 OA
ATOM     14  C   UNL d   1      -2.675  -7.035  -2.692  0.00  0.00     0.210 C 
ENDBRANCH  10  13
ENDBRANCH   5   7
ENDBRANCH   2   5
BRANCH   1  15
ATOM     15  C   UNL d   1       0.294   1.248   0.003  0.00  0.00     0.033 A 
ATOM     16  C   UNL d   1       0.887   2.325   0.667  0.00  0.00     0.017 A 
ATOM     17  C   UNL d   1       0.209   3.544   0.772  0.00  0.00     0.008 A 
ATOM     18  C   UNL d   1      -1.060   3.704   0.199  0.00  0.00    -0.059 A 
ATOM     19  C   UNL d   1      -1.656   2.614  -0.449  0.00  0.00     0.008 A 
ATOM     20  C   UNL d   1      -0.984   1.394  -0.552  0.00  0.00     0.017 A 
BRANCH  18  21
ATOM     21  C   UNL d   1      -1.773   5.032   0.257  0.00  0.00     0.034 C 
ATOM     22  C   UNL d   1      -2.676   5.156   1.473  0.00  0.00     0.010 C 
ENDBRANCH  18  21
ENDBRANCH   1  15
TORSDOF 5
