REMARK  5 active torsions:
REMARK  status: ('A' for Active; 'I' for Inactive)
REMARK    1  A    between atoms: N_8  and  C_1 
REMARK    2  A    between atoms: C_9  and  C_2 
REMARK    3  A    between atoms: S_11  and  C_3 
REMARK    4  A    between atoms: O_14  and  C_9 
REMARK    5  A    between atoms: C_21  and  O_14 
ROOT
ATOM      1  C   UNL d   1       2.594  -0.465  -0.383  0.00  0.00     0.062 A 
ATOM      2  C   UNL d   1       2.973   0.893  -0.299  0.00  0.00     0.100 A 
ATOM      3  C   UNL d   1       2.014   1.856   0.013  0.00  0.00     0.088 A 
ATOM      4  N   UNL d   1       0.724   1.536   0.253  0.00  0.00    -0.348 N 
ATOM      5  HN  UNL d   1       0.065   2.262   0.533  1.00  0.00     0.166 HD
ATOM      6  C   UNL d   1       1.202  -0.773  -0.205  0.00  0.00     0.020 A 
ATOM      7  C   UNL d   1       0.303   0.265   0.124  0.00  0.00     0.067 A 
ATOM      8  C   UNL d   1      -1.054  -0.052   0.294  0.00  0.00     0.061 A 
ATOM      9  C   UNL d   1       0.669  -2.076  -0.390  0.00  0.00     0.016 A 
ATOM     10 CL   UNL d   1      -2.208   1.184   0.693  0.00  0.00    -0.082 Cl
ATOM     11  C   UNL d   1      -0.682  -2.367  -0.217  0.00  0.00     0.003 A 
ATOM     12  C   UNL d   1      -1.549  -1.349   0.134  0.00  0.00     0.026 A 
ENDROOT
BRANCH   1  13
ATOM     13  N   UNL d   1       3.471  -1.544  -0.639  0.00  0.00    -0.379 N 
ATOM     14  C   UNL d   1       4.609  -1.397  -1.555  0.00  0.00     0.123 C 
ATOM     15  C   UNL d   1       5.004  -2.776  -2.084  0.00  0.00     0.020 C 
ATOM     16  C   UNL d   1       5.281  -3.760  -0.947  0.00  0.00     0.003 C 
ATOM     17  C   UNL d   1       4.129  -3.788   0.057  0.00  0.00     0.020 C 
ATOM     18  C   UNL d   1       3.776  -2.378   0.541  0.00  0.00     0.123 C 
ENDBRANCH   1  13
BRANCH   2  19
ATOM     19  C   UNL d   1       4.316   1.362  -0.642  0.00  0.00     0.298 C 
ATOM     20  O   UNL d   1       4.617   1.732  -1.768  0.00  0.00    -0.259 OA
BRANCH  19  21
ATOM     21  O   UNL d   1       5.143   1.275   0.428  0.00  0.00    -0.318 OA
BRANCH  21  22
ATOM     22  C   UNL d   1       6.490   1.662   0.116  0.00  0.00     0.174 C 
ATOM     23  C   UNL d   1       7.325   1.630   1.380  0.00  0.00     0.034 C 
ENDBRANCH  21  22
ENDBRANCH  19  21
ENDBRANCH   2  19
BRANCH   3  24
ATOM     24  S   UNL d   1       2.388   3.605   0.164  0.00  0.00    -0.116 SA
ATOM     25  C   UNL d   1       0.722   4.312   0.009  0.00  0.00     0.097 C 
ENDBRANCH   3  24
TORSDOF 5
