REMARK  6 active torsions:
REMARK  status: ('A' for Active; 'I' for Inactive)
REMARK    1  A    between atoms: C_8  and  C_2 
REMARK    2  A    between atoms: S_14  and  C_5 
REMARK    3  A    between atoms: C_9  and  C_15 
REMARK    4  A    between atoms: C_19  and  C_10 
REMARK    5  A    between atoms: C_20  and  C_19 
REMARK    6  A    between atoms: C_21  and  C_20 
ROOT
ATOM      1  C   UNL d   1       2.332  -1.347   0.000  0.00  0.00     0.026 A 
ATOM      2  C   UNL d   1       2.791  -2.194  -1.011  0.00  0.00     0.038 A 
ATOM      3  N   UNL d   1       4.427  -1.693   1.202  0.00  0.00    -0.373 N 
ATOM      4  HN  UNL d   1       5.028  -1.495   2.001  1.00  0.00     0.164 HD
ATOM      5  C   UNL d   1       4.027  -2.829  -0.887  0.00  0.00     0.034 A 
ATOM      6  C   UNL d   1       3.206  -1.113   1.064  0.00  0.00     0.102 A 
ATOM      7  C   UNL d   1       4.802  -2.546   0.226  0.00  0.00     0.108 A 
ENDROOT
BRANCH   1   8
ATOM      8  C   UNL d   1       1.026  -0.682  -0.017  0.00  0.00     0.135 A 
ATOM      9  N   UNL d   1      -0.164  -1.130  -0.564  0.00  0.00    -0.315 N 
ATOM     10  C   UNL d   1      -1.087  -0.149  -0.299  0.00  0.00     0.159 A 
ATOM     11  C   UNL d   1      -0.435  -2.385  -1.216  0.00  0.00     0.160 C 
ATOM     12  N   UNL d   1      -0.526   0.815   0.386  0.00  0.00    -0.278 N 
ATOM     13  N   UNL d   1       0.787   0.477   0.574  0.00  0.00    -0.283 N 
ATOM     14  HN  UNL d   1      -0.983   1.663   0.718  1.00  0.00     0.189 HD
ATOM     15  HN  UNL d   1       1.472   1.032   1.088  1.00  0.00     0.188 HD
BRANCH  10  16
ATOM     16  S   UNL d   1      -2.749  -0.166  -0.778  0.00  0.00    -0.105 SA
ATOM     17  H   UNL d   1      -2.832  -1.363  -1.368  0.00  0.00     0.110 HD
ENDBRANCH  10  16
ENDBRANCH   1   8
BRANCH   5  18
ATOM     18  C   UNL d   1       4.471  -3.756  -1.871  0.00  0.00    -0.066 C 
ATOM     19  C   UNL d   1       4.848  -4.560  -2.684  0.00  0.00    -0.101 C 
BRANCH  19  20
ATOM     20  C   UNL d   1       5.319  -5.548  -3.660  0.00  0.00     0.094 C 
BRANCH  20  21
ATOM     21  C   UNL d   1       4.200  -5.945  -4.620  0.00  0.00     0.012 C 
BRANCH  21  22
ATOM     22  C   UNL d   1       4.678  -6.975  -5.642  0.00  0.00    -0.004 C 
ATOM     23  C   UNL d   1       3.558  -7.364  -6.594  0.00  0.00     0.005 C 
ENDBRANCH  21  22
ENDBRANCH  20  21
ENDBRANCH  19  20
ENDBRANCH   5  18
TORSDOF 6
