REMARK  3 active torsions:
REMARK  status: ('A' for Active; 'I' for Inactive)
REMARK       I    between atoms: N_2  and  C_1 
REMARK       I    between atoms: N_8  and  C_1 
REMARK    1  A    between atoms: C_3  and  C_10 
REMARK    2  A    between atoms: C_5  and  N_4 
REMARK    3  A    between atoms: C_17  and  N_8 
ROOT
ATOM      1  C   UNL d   1      -1.000   4.676  -2.611  0.00  0.00     0.103 A 
ATOM      2  N   UNL d   1      -1.276   5.835  -1.981  0.00  0.00    -0.351 N 
ATOM      3  HN  UNL d   1      -1.089   5.951  -0.984  1.00  0.00     0.166 HD
ATOM      4  N   UNL d   1      -3.140   8.730  -5.356  0.00  0.00    -0.191 NA
ATOM      5  C   UNL d   1      -2.684   7.835  -4.770  0.00  0.00     0.101 C 
ATOM      6  C   UNL d   1      -2.127   6.739  -4.061  0.00  0.00     0.060 A 
ATOM      7  C   UNL d   1      -1.307   4.493  -3.962  0.00  0.00     0.050 A 
ATOM      8  C   UNL d   1      -1.810   6.841  -2.717  0.00  0.00     0.112 A 
ATOM      9  C   UNL d   1      -1.881   5.525  -4.695  0.00  0.00     0.028 A 
ENDROOT
BRANCH   1  10
ATOM     10  N   UNL d   1      -0.467   3.628  -1.909  0.00  0.00    -0.364 N 
ATOM     11  C   UNL d   1      -0.725   3.467  -0.483  0.00  0.00     0.144 C 
ATOM     12  C   UNL d   1      -0.903   1.953  -0.228  0.00  0.00     0.147 C 
ATOM     13  N   UNL d   1       0.246   1.175  -0.749  0.00  0.00    -0.331 N 
ATOM     14  C   UNL d   1       0.903   0.120  -0.147  0.00  0.00     0.323 C 
ATOM     15  C   UNL d   1       0.603   1.471  -2.151  0.00  0.00     0.147 C 
ATOM     16  N   UNL d   1       0.546  -0.148   1.151  0.00  0.00    -0.309 N 
ATOM     17  O   UNL d   1       1.768  -0.501  -0.762  0.00  0.00    -0.247 OA
ATOM     18  H   UNL d   1      -0.052   0.506   1.620  0.00  0.00     0.170 HD
ATOM     19  C   UNL d   1       0.755   2.978  -2.384  0.00  0.00     0.144 C 
BRANCH  16  20
ATOM     20  C   UNL d   1       0.990  -1.228   1.940  0.00  0.00     0.037 A 
ATOM     21  C   UNL d   1       1.680  -2.320   1.413  0.00  0.00     0.045 A 
ATOM     22  C   UNL d   1       1.960  -3.445   2.198  0.00  0.00     0.050 A 
ATOM     23  C   UNL d   1       1.608  -3.431   3.554  0.00  0.00     0.016 A 
ATOM     24  C   UNL d   1       0.975  -2.317   4.106  0.00  0.00     0.003 A 
ATOM     25  C   UNL d   1       0.653  -1.226   3.296  0.00  0.00     0.029 A 
BRANCH  22  26
ATOM     26  C   UNL d   1       2.560  -4.672   1.561  0.00  0.00     0.417 C 
ATOM     27  F   UNL d   1       2.782  -4.548   0.223  0.00  0.00    -0.166 F 
ATOM     28  F   UNL d   1       3.757  -5.021   2.107  0.00  0.00    -0.166 F 
ATOM     29  F   UNL d   1       1.753  -5.762   1.699  0.00  0.00    -0.166 F 
ENDBRANCH  22  26
ENDBRANCH  16  20
ENDBRANCH   1  10
TORSDOF 3
