REMARK  6 active torsions:
REMARK  status: ('A' for Active; 'I' for Inactive)
REMARK    1  A    between atoms: C_6  and  C_1 
REMARK    2  A    between atoms: C_2  and  N_8 
REMARK    3  A    between atoms: N_7  and  C_2 
REMARK       I    between atoms: C_3  and  N_5 
REMARK    4  A    between atoms: C_4  and  C_3 
REMARK    5  A    between atoms: N_5  and  N_7 
REMARK    6  A    between atoms: N_8  and  C_11 
ROOT
ATOM      1  C   UNL d   1      -3.591   1.825  -0.741  0.00  0.00     0.191 C 
ATOM      2  S   UNL d   1      -5.156   2.209  -1.218  0.00  0.00    -0.039 SA
ENDROOT
BRANCH   1   3
ATOM      3  N   UNL d   1      -2.697   2.849  -0.643  0.00  0.00    -0.332 N 
ATOM      4  H   UNL d   1      -3.041   3.697  -1.083  0.00  0.00     0.168 HD
BRANCH   3   5
ATOM      5  C   UNL d   1      -1.495   3.002   0.077  0.00  0.00     0.035 A 
ATOM      6  C   UNL d   1      -1.065   2.146   1.094  0.00  0.00     0.045 A 
ATOM      7  C   UNL d   1       0.085   2.454   1.850  0.00  0.00     0.050 A 
ATOM      8  C   UNL d   1       0.811   3.619   1.559  0.00  0.00     0.016 A 
ATOM      9  C   UNL d   1       0.394   4.469   0.540  0.00  0.00     0.003 A 
ATOM     10  C   UNL d   1      -0.757   4.165  -0.188  0.00  0.00     0.029 A 
BRANCH   7  11
ATOM     11  C   UNL d   1       0.518   1.586   3.008  0.00  0.00     0.417 C 
ATOM     12  F   UNL d   1      -0.224   0.454   3.153  0.00  0.00    -0.166 F 
ATOM     13  F   UNL d   1       0.434   2.242   4.200  0.00  0.00    -0.166 F 
ATOM     14  F   UNL d   1       1.812   1.176   2.900  0.00  0.00    -0.166 F 
ENDBRANCH   7  11
ENDBRANCH   3   5
ENDBRANCH   1   3
BRANCH   1  15
ATOM     15  N   UNL d   1      -3.155   0.552  -0.481  0.00  0.00    -0.273 N 
ATOM     16  H   UNL d   1      -2.161   0.359  -0.616  0.00  0.00     0.189 HD
BRANCH  15  17
ATOM     17  N   UNL d   1      -3.983  -0.547  -0.791  0.00  0.00    -0.264 N 
ATOM     18  C   UNL d   1      -3.385  -1.735  -1.158  0.00  0.00     0.271 C 
ATOM     19  O   UNL d   1      -2.168  -1.886  -1.167  0.00  0.00    -0.266 OA
ATOM     20  H   UNL d   1      -4.987  -0.395  -0.741  0.00  0.00     0.190 HD
BRANCH  18  21
ATOM     21  C   UNL d   1      -4.287  -2.851  -1.530  0.00  0.00     0.049 A 
ATOM     22  C   UNL d   1      -3.836  -4.151  -1.333  0.00  0.00     0.104 A 
ATOM     23  N   UNL d   1      -4.566  -5.258  -1.627  0.00  0.00    -0.374 N 
ATOM     24  C   UNL d   1      -5.790  -5.055  -2.159  0.00  0.00     0.087 A 
ATOM     25  HN  UNL d   1      -4.207  -6.197  -1.455  1.00  0.00     0.164 HD
ATOM     26  C   UNL d   1      -6.318  -3.798  -2.412  0.00  0.00     0.018 A 
ATOM     27  C   UNL d   1      -5.553  -2.675  -2.091  0.00  0.00     0.020 A 
ENDBRANCH  18  21
ENDBRANCH  15  17
ENDBRANCH   1  15
TORSDOF 6
