REMARK  4 active torsions:
REMARK  status: ('A' for Active; 'I' for Inactive)
REMARK    1  A    between atoms: C_4  and  N_1 
REMARK    2  A    between atoms: C_2  and  C_18 
REMARK       I    between atoms: N_7  and  C_2 
REMARK    3  A    between atoms: C_12  and  N_7 
REMARK    4  A    between atoms: C_18  and  C_19 
ROOT
ATOM      1  C   UNL d   1      -1.538   4.809   3.398  0.00  0.00     0.226 C 
ATOM      2  N   UNL d   1      -0.486   5.172   2.574  0.00  0.00    -0.327 N 
ATOM      3  O   UNL d   1      -2.063   5.521   4.249  0.00  0.00    -0.273 OA
ATOM      4  H   UNL d   1      -0.323   4.600   1.755  0.00  0.00     0.169 HD
ENDROOT
BRANCH   1   5
ATOM      5  C   UNL d   1      -2.000   3.378   3.179  0.00  0.00     0.141 C 
BRANCH   5   6
ATOM      6  C   UNL d   1      -3.284   3.174   2.407  0.00  0.00    -0.049 A 
ATOM      7  C   UNL d   1      -3.571   1.876   1.945  0.00  0.00     0.010 A 
ATOM      8  C   UNL d   1      -4.800   1.577   1.352  0.00  0.00     0.036 A 
ATOM      9  C   UNL d   1      -5.759   2.585   1.217  0.00  0.00     0.102 A 
ATOM     10  C   UNL d   1      -5.480   3.891   1.637  0.00  0.00     0.036 A 
ATOM     11  C   UNL d   1      -4.247   4.179   2.234  0.00  0.00     0.010 A 
BRANCH   9  12
ATOM     12  N   UNL d   1      -7.083   2.258   0.672  0.00  0.00    -0.116 N 
ATOM     13  O   UNL d   1      -7.933   3.159   0.639  0.00  0.00    -0.532 OA
ATOM     14  O   UNL d   1      -7.275   1.096   0.285  0.00  0.00    -0.532 OA
ENDBRANCH   9  12
ENDBRANCH   5   6
ENDBRANCH   1   5
BRANCH   2  15
ATOM     15  C   UNL d   1       0.387   6.265   2.759  0.00  0.00     0.037 A 
ATOM     16  C   UNL d   1       0.411   7.040   3.925  0.00  0.00     0.069 A 
ATOM     17  C   UNL d   1       1.381   8.017   4.035  0.00  0.00     0.107 A 
ATOM     18  O   UNL d   1       1.575   8.821   5.116  0.00  0.00    -0.323 OA
ATOM     19  C   UNL d   1       2.293   8.255   3.038  0.00  0.00     0.105 A 
ATOM     20  C   UNL d   1       2.755   9.543   4.707  0.00  0.00     0.352 A 
ATOM     21  O   UNL d   1       3.171   9.242   3.358  0.00  0.00    -0.323 OA
ATOM     22  C   UNL d   1       2.286   7.534   1.867  0.00  0.00     0.042 A 
ATOM     23  C   UNL d   1       1.326   6.521   1.733  0.00  0.00     0.032 A 
ENDBRANCH   2  15
TORSDOF 4
