REMARK  5 active torsions:
REMARK  status: ('A' for Active; 'I' for Inactive)
REMARK    1  A    between atoms: C_2  and  C_1 
REMARK       I    between atoms: N_9  and  C_2 
REMARK    2  A    between atoms: C_4  and  C_7 
REMARK    3  A    between atoms: C_15  and  C_5 
REMARK       I    between atoms: C_6  and  N_11 
REMARK       I    between atoms: N_12  and  C_6 
REMARK    4  A    between atoms: N_11  and  N_9 
REMARK    5  A    between atoms: C_16  and  N_12 
ROOT
ATOM      1  C   UNL d   1      -0.630  -2.397   0.310  0.00  0.00     0.293 C 
ATOM      2  N   UNL d   1       0.389  -3.240   0.707  0.00  0.00    -0.260 N 
ATOM      3  O   UNL d   1      -1.762  -2.835   0.089  0.00  0.00    -0.264 OA
ATOM      4  H   UNL d   1       1.315  -2.898   0.966  0.00  0.00     0.190 HD
ENDROOT
BRANCH   1   5
ATOM      5  C   UNL d   1      -0.284  -0.994   0.186  0.00  0.00     0.146 A 
ATOM      6  O   UNL d   1       1.012  -0.558   0.354  0.00  0.00    -0.296 OA
ATOM      7  C   UNL d   1       0.995   0.792   0.171  0.00  0.00     0.130 A 
ATOM      8  C   UNL d   1      -0.278   1.239  -0.097  0.00  0.00     0.050 A 
ATOM      9  C   UNL d   1      -1.099   0.088  -0.097  0.00  0.00     0.046 A 
BRANCH   7  10
ATOM     10  C   UNL d   1       2.211   1.519   0.264  0.00  0.00    -0.036 C 
ATOM     11  C   UNL d   1       3.185   2.220   0.306  0.00  0.00    -0.059 C 
BRANCH  11  12
ATOM     12  C   UNL d   1       4.316   3.103   0.322  0.00  0.00     0.018 A 
ATOM     13  C   UNL d   1       4.130   4.488   0.331  0.00  0.00     0.020 A 
ATOM     14  C   UNL d   1       5.235   5.346   0.321  0.00  0.00     0.001 A 
ATOM     15  C   UNL d   1       6.525   4.818   0.304  0.00  0.00     0.000 A 
ATOM     16  C   UNL d   1       6.714   3.439   0.302  0.00  0.00     0.001 A 
ATOM     17  C   UNL d   1       5.612   2.579   0.310  0.00  0.00     0.020 A 
ENDBRANCH  11  12
ENDBRANCH   7  10
ENDBRANCH   1   5
BRANCH   2  18
ATOM     18  N   UNL d   1       0.080  -4.583   1.030  0.00  0.00    -0.248 N 
ATOM     19  C   UNL d   1       1.143  -5.407   1.371  0.00  0.00     0.339 C 
ATOM     20  N   UNL d   1       0.736  -6.700   1.634  0.00  0.00    -0.308 N 
ATOM     21  O   UNL d   1       2.283  -4.958   1.449  0.00  0.00    -0.245 OA
ATOM     22  H   UNL d   1      -0.259  -6.874   1.598  0.00  0.00     0.170 HD
ATOM     23  H   UNL d   1      -0.712  -4.966   0.519  0.00  0.00     0.192 HD
BRANCH  20  24
ATOM     24  C   UNL d   1       1.561  -7.807   1.941  0.00  0.00     0.036 A 
ATOM     25  C   UNL d   1       2.951  -7.725   2.046  0.00  0.00     0.029 A 
ATOM     26  C   UNL d   1       3.724  -8.875   2.237  0.00  0.00     0.002 A 
ATOM     27  C   UNL d   1       3.112 -10.120   2.342  0.00  0.00     0.000 A 
ATOM     28  C   UNL d   1       1.724 -10.210   2.298  0.00  0.00     0.002 A 
ATOM     29  C   UNL d   1       0.950  -9.058   2.106  0.00  0.00     0.029 A 
ENDBRANCH  20  24
ENDBRANCH   2  18
TORSDOF 5
