REMARK  5 active torsions:
REMARK  status: ('A' for Active; 'I' for Inactive)
REMARK    1  A    between atoms: C_11  and  N_9 
REMARK    2  A    between atoms: C_15  and  C_11 
REMARK    3  A    between atoms: N_14  and  C_16 
REMARK    4  A    between atoms: C_16  and  C_15 
REMARK    5  A    between atoms: O_19  and  C_15 
ROOT
ATOM      1  C   UNL d   1       0.420   4.255   2.592  0.00  0.00     0.145 A 
ATOM      2  C   UNL d   1       1.108   4.272   1.417  0.00  0.00     0.149 A 
ATOM      3  N   UNL d   1      -0.216   5.375   3.072  0.00  0.00    -0.287 N 
ATOM      4  N   UNL d   1       0.777   6.597   1.272  0.00  0.00    -0.269 N 
ATOM      5  C   UNL d   1      -0.037   6.597   2.418  0.00  0.00     0.332 C 
ATOM      6  C   UNL d   1       1.293   5.454   0.644  0.00  0.00     0.282 C 
ATOM      7  N   UNL d   1       0.440   3.022   3.173  0.00  0.00    -0.336 N 
ATOM      8  HN  UNL d   1       0.005   2.738   4.051  1.00  0.00     0.168 HD
ATOM      9  N   UNL d   1       1.506   2.977   1.219  0.00  0.00    -0.333 N 
ATOM     10  C   UNL d   1       1.149   2.281   2.345  0.00  0.00     0.185 A 
ATOM     11  O   UNL d   1      -0.580   7.627   2.831  0.00  0.00    -0.246 OA
ATOM     12  O   UNL d   1       1.837   5.466  -0.453  0.00  0.00    -0.265 OA
ATOM     13  C   UNL d   1      -1.062   5.331   4.246  0.00  0.00     0.163 C 
ATOM     14  C   UNL d   1       1.062   7.865   0.629  0.00  0.00     0.164 C 
ENDROOT
BRANCH   9  15
ATOM     15  C   UNL d   1       2.092   2.401   0.018  0.00  0.00     0.163 C 
BRANCH  15  16
ATOM     16  C   UNL d   1       3.623   2.458   0.008  0.00  0.00     0.164 C 
BRANCH  16  17
ATOM     17  C   UNL d   1       4.215   1.774  -1.260  0.00  0.00     0.305 C 
BRANCH  17  18
ATOM     18  N   UNL d   1       5.681   1.905  -1.339  0.00  0.00     0.090 N 
ATOM     19  C   UNL d   1       6.378   1.158  -0.284  0.00  0.00     0.272 C 
ATOM     20  C   UNL d   1       7.856   1.537  -0.255  0.00  0.00     0.030 C 
ATOM     21  C   UNL d   1       8.522   1.309  -1.605  0.00  0.00     0.003 C 
ATOM     22  C   UNL d   1       7.709   1.937  -2.734  0.00  0.00     0.030 C 
ATOM     23  C   UNL d   1       6.224   1.558  -2.658  0.00  0.00     0.272 C 
ENDBRANCH  17  18
ENDBRANCH  16  17
BRANCH  16  24
ATOM     24  O   UNL d   1       4.068   3.817   0.090  0.00  0.00    -0.392 OA
ATOM     25  H   UNL d   1       3.759   4.291  -0.706  0.00  0.00     0.210 HD
ENDBRANCH  16  24
ENDBRANCH  15  16
ENDBRANCH   9  15
TORSDOF 5
