REMARK  3 active torsions:
REMARK  status: ('A' for Active; 'I' for Inactive)
REMARK    1  A    between atoms: N_7  and  S_1 
REMARK    2  A    between atoms: C_12  and  S_1 
REMARK    3  A    between atoms: C_14  and  N_7 
ROOT
ATOM      1  C   UNL d   1       2.522   0.583  -4.326  0.00  0.00     0.092 A 
ATOM      2  C   UNL d   1       1.959   0.945  -6.699  0.00  0.00    -0.043 A 
ATOM      3  O   UNL d   1       3.846   0.994  -4.575  0.00  0.00    -0.275 OA
ATOM      4  C   UNL d   1       4.251   1.368  -5.841  0.00  0.00     0.288 A 
ATOM      5  C   UNL d   1       1.559   0.544  -5.341  0.00  0.00     0.004 A 
ATOM      6  C   UNL d   1       3.232   1.325  -6.899  0.00  0.00     0.090 A 
ATOM      7  C   UNL d   1       2.249   0.202  -3.011  0.00  0.00     0.068 A 
ATOM      8  C   UNL d   1       0.277   0.105  -4.986  0.00  0.00     0.017 A 
ATOM      9  C   UNL d   1       0.976  -0.250  -2.691  0.00  0.00     0.045 A 
ATOM     10  O   UNL d   1       5.398   1.718  -6.089  0.00  0.00    -0.260 OA
ATOM     11  C   UNL d   1      -0.008  -0.304  -3.674  0.00  0.00     0.031 A 
ATOM     12  C   UNL d   1       1.015   0.930  -7.867  0.00  0.00     0.049 C 
ENDROOT
BRANCH   9  13
ATOM     13  N   UNL d   1       0.706  -0.739  -1.384  0.00  0.00    -0.281 N 
ATOM     14  H   UNL d   1       1.082  -0.215  -0.595  0.00  0.00     0.179 HD
BRANCH  13  15
ATOM     15  S   UNL d   1       0.781  -2.410  -1.113  0.00  0.00     0.263 S 
ATOM     16  O   UNL d   1      -0.160  -3.073  -1.992  0.00  0.00    -0.200 OA
ATOM     17  O   UNL d   1       0.720  -2.585   0.322  0.00  0.00    -0.200 OA
BRANCH  15  18
ATOM     18  C   UNL d   1       2.427  -2.845  -1.637  0.00  0.00     0.079 A 
ATOM     19  C   UNL d   1       3.485  -2.773  -0.724  0.00  0.00     0.025 A 
ATOM     20  C   UNL d   1       4.774  -3.109  -1.140  0.00  0.00     0.002 A 
ATOM     21  C   UNL d   1       5.000  -3.520  -2.455  0.00  0.00     0.000 A 
ATOM     22  C   UNL d   1       3.937  -3.612  -3.357  0.00  0.00     0.002 A 
ATOM     23  C   UNL d   1       2.644  -3.284  -2.946  0.00  0.00     0.025 A 
ENDBRANCH  15  18
ENDBRANCH  13  15
ENDBRANCH   9  13
TORSDOF 3
