REMARK  4 active torsions:
REMARK  status: ('A' for Active; 'I' for Inactive)
REMARK    1  A    between atoms: N_2  and  C_1 
REMARK    2  A    between atoms: N_3  and  C_1 
REMARK    3  A    between atoms: C_4  and  N_2 
REMARK    4  A    between atoms: O_8  and  C_6 
ROOT
ATOM      1  N   UNL d   1       0.457   0.408  -1.207  0.00  0.00    -0.331 N 
ATOM      2  H   UNL d   1      -0.486   0.053  -1.075  0.00  0.00     0.168 HD
ENDROOT
BRANCH   1   3
ATOM      3  C   UNL d   1       1.091   0.840  -0.071  0.00  0.00     0.174 C 
ATOM      4  S   UNL d   1       0.431   0.395   1.403  0.00  0.00    -0.041 SA
BRANCH   3   5
ATOM      5  N   UNL d   1       2.196   1.660  -0.232  0.00  0.00    -0.354 N 
ATOM      6  C   UNL d   1       2.148   2.809  -1.155  0.00  0.00     0.151 C 
ATOM      7  C   UNL d   1       3.529   3.101  -1.747  0.00  0.00     0.187 C 
ATOM      8  O   UNL d   1       4.503   3.289  -0.708  0.00  0.00    -0.388 OA
ATOM      9  C   UNL d   1       4.584   2.125   0.130  0.00  0.00     0.187 C 
ATOM     10  C   UNL d   1       3.236   1.815   0.794  0.00  0.00     0.151 C 
ENDBRANCH   3   5
ENDBRANCH   1   3
BRANCH   1  11
ATOM     11  C   UNL d   1       1.024   0.140  -2.474  0.00  0.00     0.068 A 
ATOM     12  C   UNL d   1       0.228   0.134  -3.629  0.00  0.00     0.095 A 
ATOM     13  C   UNL d   1       0.808  -0.157  -4.869  0.00  0.00     0.039 A 
ATOM     14  C   UNL d   1       2.171  -0.442  -4.970  0.00  0.00     0.003 A 
ATOM     15  C   UNL d   1       2.958  -0.471  -3.825  0.00  0.00     0.002 A 
ATOM     16  C   UNL d   1       2.384  -0.186  -2.586  0.00  0.00     0.032 A 
BRANCH  12  17
ATOM     17  O   UNL d   1      -1.126   0.360  -3.664  0.00  0.00    -0.354 OA
ATOM     18  C   UNL d   1      -1.567   1.545  -3.005  0.00  0.00     0.210 C 
ENDBRANCH  12  17
ENDBRANCH   1  11
TORSDOF 4
