REMARK  5 active torsions:
REMARK  status: ('A' for Active; 'I' for Inactive)
REMARK    1  A    between atoms: C_3  and  C_1 
REMARK    2  A    between atoms: N_6  and  C_2 
REMARK    3  A    between atoms: C_8  and  N_7 
REMARK    4  A    between atoms: C_18  and  C_8 
REMARK    5  A    between atoms: C_19  and  C_8 
ROOT
ATOM      1  N   UNL d   1      -3.701  -0.271   0.023  0.00  0.00    -0.363 N 
ATOM      2  N   UNL d   1      -6.529  -0.978  -0.389  0.00  0.00     0.105 N 
ATOM      3  C   UNL d   1      -4.520  -0.702   1.156  0.00  0.00     0.154 C 
ATOM      4  C   UNL d   1      -4.471   0.496  -0.976  0.00  0.00     0.154 C 
ATOM      5  C   UNL d   1      -5.619  -1.630   0.593  0.00  0.00     0.293 C 
ATOM      6  C   UNL d   1      -5.666  -0.380  -1.459  0.00  0.00     0.293 C 
ENDROOT
BRANCH   2   7
ATOM      7  C   UNL d   1      -7.426   0.031   0.239  0.00  0.00     0.289 C 
BRANCH   7   8
ATOM      8  C   UNL d   1      -8.381   0.649  -0.783  0.00  0.00    -0.021 A 
ATOM      9  C   UNL d   1      -9.270  -0.147  -1.523  0.00  0.00     0.010 A 
ATOM     10  C   UNL d   1     -10.116   0.426  -2.473  0.00  0.00     0.001 A 
ATOM     11  C   UNL d   1     -10.075   1.802  -2.699  0.00  0.00     0.000 A 
ATOM     12  C   UNL d   1      -9.196   2.603  -1.977  0.00  0.00     0.001 A 
ATOM     13  C   UNL d   1      -8.351   2.033  -1.020  0.00  0.00     0.010 A 
ENDBRANCH   7   8
BRANCH   7  14
ATOM     14  C   UNL d   1      -8.215  -0.484   1.455  0.00  0.00    -0.021 A 
ATOM     15  C   UNL d   1      -8.465   0.387   2.530  0.00  0.00     0.010 A 
ATOM     16  C   UNL d   1      -9.161  -0.046   3.659  0.00  0.00     0.001 A 
ATOM     17  C   UNL d   1      -9.621  -1.361   3.733  0.00  0.00     0.000 A 
ATOM     18  C   UNL d   1      -9.400  -2.236   2.671  0.00  0.00     0.001 A 
ATOM     19  C   UNL d   1      -8.717  -1.795   1.535  0.00  0.00     0.010 A 
ENDBRANCH   7  14
ENDBRANCH   2   7
BRANCH   1  20
ATOM     20  C   UNL d   1      -2.336  -0.223   0.027  0.00  0.00     0.118 A 
ATOM     21  C   UNL d   1      -1.498  -1.227   0.533  0.00  0.00     0.093 A 
ATOM     22  C   UNL d   1      -0.094  -1.038   0.485  0.00  0.00     0.045 A 
ATOM     23  C   UNL d   1       0.444   0.089  -0.104  0.00  0.00     0.050 A 
ATOM     24  C   UNL d   1      -0.436   1.006  -0.624  0.00  0.00     0.113 A 
ATOM     25 CL   UNL d   1       2.138   0.301  -0.204  0.00  0.00    -0.083 Cl
ATOM     26  N   UNL d   1      -1.785   0.872  -0.563  0.00  0.00    -0.350 N 
ATOM     27  HN  UNL d   1      -2.387   1.593  -0.960  1.00  0.00     0.166 HD
BRANCH  21  28
ATOM     28  C   UNL d   1      -1.931  -2.547   1.101  0.00  0.00     0.421 C 
ATOM     29  F   UNL d   1      -3.176  -2.983   0.786  0.00  0.00    -0.166 F 
ATOM     30  F   UNL d   1      -1.113  -3.570   0.702  0.00  0.00    -0.166 F 
ATOM     31  F   UNL d   1      -1.866  -2.559   2.464  0.00  0.00    -0.166 F 
ENDBRANCH  21  28
ENDBRANCH   1  20
TORSDOF 5
