REMARK  3 active torsions:
REMARK  status: ('A' for Active; 'I' for Inactive)
REMARK    1  A    between atoms: C_2  and  C_1 
REMARK       I    between atoms: N_8  and  C_1 
REMARK       I    between atoms: N_3  and  C_2 
REMARK    2  A    between atoms: C_4  and  N_3 
REMARK    3  A    between atoms: N_13  and  N_8 
ROOT
ATOM      1  C   UNL d   1       0.361  -0.732  -1.093  0.00  0.00     0.315 C 
ATOM      2  N   UNL d   1      -0.916  -0.946  -0.624  0.00  0.00    -0.317 N 
ATOM      3  O   UNL d   1       1.043   0.283  -1.021  0.00  0.00    -0.262 OA
ATOM      4  H   UNL d   1      -1.259  -1.904  -0.700  0.00  0.00     0.169 HD
ENDROOT
BRANCH   2   5
ATOM      5  C   UNL d   1      -1.772  -0.010  -0.003  0.00  0.00     0.057 A 
ATOM      6  C   UNL d   1      -2.958  -0.466   0.604  0.00  0.00     0.062 A 
ATOM      7  C   UNL d   1      -3.832   0.422   1.235  0.00  0.00     0.050 A 
ATOM      8 CL   UNL d   1      -3.361  -2.149   0.616  0.00  0.00    -0.082 Cl
ATOM      9  C   UNL d   1      -3.535   1.781   1.247  0.00  0.00     0.035 A 
ATOM     10  C   UNL d   1      -2.376   2.255   0.637  0.00  0.00     0.026 A 
ATOM     11 CL   UNL d   1      -4.604   2.885   2.019  0.00  0.00    -0.084 Cl
ATOM     12  C   UNL d   1      -1.497   1.362   0.017  0.00  0.00     0.033 A 
ENDBRANCH   2   5
BRANCH   1  13
ATOM     13  C   UNL d   1       0.972  -1.982  -1.753  0.00  0.00     0.323 C 
ATOM     14  O   UNL d   1       0.276  -2.959  -1.995  0.00  0.00    -0.261 OA
ATOM     15  N   UNL d   1       2.328  -1.852  -2.014  0.00  0.00    -0.286 N 
ATOM     16  H   UNL d   1       2.772  -0.953  -1.811  0.00  0.00     0.184 HD
BRANCH  15  17
ATOM     17  N   UNL d   1       3.027  -2.846  -2.728  0.00  0.00    -0.247 NA
ATOM     18  H   UNL d   1       2.393  -3.226  -3.440  0.00  0.00     0.143 HD
ATOM     19  H   UNL d   1       3.191  -3.635  -2.095  0.00  0.00     0.143 HD
ENDBRANCH  15  17
ENDBRANCH   1  13
TORSDOF 3
