REMARK  11 active torsions:
REMARK  status: ('A' for Active; 'I' for Inactive)
REMARK    1  A    between atoms: C_8  and  N_4 
REMARK    2  A    between atoms: C_9  and  C_8 
REMARK    3  A    between atoms: C_17  and  C_9 
REMARK    4  A    between atoms: C_10  and  C_11 
REMARK    5  A    between atoms: C_11  and  C_16 
REMARK    6  A    between atoms: C_12  and  C_18 
REMARK    7  A    between atoms: C_13  and  C_12 
REMARK    8  A    between atoms: C_14  and  C_13 
REMARK    9  A    between atoms: C_15  and  C_14 
REMARK   10  A    between atoms: C_16  and  C_15 
REMARK   11  A    between atoms: C_18  and  C_17 
ROOT
ATOM      1  C   UNL d   1      -0.147  -2.529   2.222  0.00  0.00     0.030 C 
ENDROOT
BRANCH   1   2
ATOM      2  C   UNL d   1      -0.780  -1.249   1.672  0.00  0.00     0.276 C 
BRANCH   2   3
ATOM      3  N   UNL d   1      -0.834  -1.213   0.203  0.00  0.00     0.122 N 
ATOM      4  C   UNL d   1      -1.489  -0.011  -0.285  0.00  0.00     0.399 C 
ATOM      5  N   UNL d   1      -0.637   1.130  -0.114  0.00  0.00    -0.342 N 
ATOM      6  C   UNL d   1       0.712   1.061  -0.207  0.00  0.00     0.170 C 
ATOM      7  H   UNL d   1      -1.043   2.055  -0.165  0.00  0.00     0.163 HD
ATOM      8  N   UNL d   1       1.247  -0.181  -0.215  0.00  0.00    -0.342 N 
ATOM      9  S   UNL d   1       1.658   2.421  -0.254  0.00  0.00    -0.041 SA
ATOM     10  C   UNL d   1       0.447  -1.339  -0.467  0.00  0.00     0.399 C 
ATOM     11  H   UNL d   1       2.247  -0.239  -0.349  0.00  0.00     0.163 HD
ENDBRANCH   2   3
ENDBRANCH   1   2
BRANCH   1  12
ATOM     12  C   UNL d   1      -0.167  -2.549   3.749  0.00  0.00     0.002 C 
BRANCH  12  13
ATOM     13  C   UNL d   1       0.514  -3.811   4.269  0.00  0.00     0.000 C 
BRANCH  13  14
ATOM     14  C   UNL d   1       0.535  -3.838   5.792  0.00  0.00     0.000 C 
BRANCH  14  15
ATOM     15  C   UNL d   1       1.215  -5.108   6.293  0.00  0.00     0.000 C 
BRANCH  15  16
ATOM     16  C   UNL d   1       1.235  -5.145   7.816  0.00  0.00     0.000 C 
BRANCH  16  17
ATOM     17  C   UNL d   1       1.912  -6.416   8.319  0.00  0.00     0.000 C 
BRANCH  17  18
ATOM     18  C   UNL d   1       1.929  -6.452   9.844  0.00  0.00     0.000 C 
BRANCH  18  19
ATOM     19  C   UNL d   1       2.606  -7.723  10.351  0.00  0.00    -0.000 C 
BRANCH  19  20
ATOM     20  C   UNL d   1       2.622  -7.764  11.876  0.00  0.00    -0.005 C 
ATOM     21  C   UNL d   1       3.295  -9.028  12.385  0.00  0.00     0.005 C 
ENDBRANCH  19  20
ENDBRANCH  18  19
ENDBRANCH  17  18
ENDBRANCH  16  17
ENDBRANCH  15  16
ENDBRANCH  14  15
ENDBRANCH  13  14
ENDBRANCH  12  13
ENDBRANCH   1  12
TORSDOF 11
