REMARK  9 active torsions:
REMARK  status: ('A' for Active; 'I' for Inactive)
REMARK    1  A    between atoms: C_3  and  N_1 
REMARK    2  A    between atoms: C_2  and  O_5 
REMARK    3  A    between atoms: C_8  and  C_2 
REMARK    4  A    between atoms: O_5  and  C_4 
REMARK    5  A    between atoms: C_6  and  C_8 
REMARK    6  A    between atoms: C_9  and  C_6 
REMARK    7  A    between atoms: C_12  and  C_6 
REMARK    8  A    between atoms: C_7  and  C_9 
REMARK    9  A    between atoms: O_13  and  C_7 
ROOT
ATOM      1  C   UNL d   1       5.148  -3.327   0.154  0.00  0.00     0.264 C 
ATOM      2  O   UNL d   1       4.477  -4.029   0.899  0.00  0.00    -0.265 OA
ENDROOT
BRANCH   1   3
ATOM      3  O   UNL d   1       4.727  -2.121  -0.409  0.00  0.00    -0.277 OA
BRANCH   3   4
ATOM      4  C   UNL d   1       4.306  -1.268   0.619  0.00  0.00     0.105 C 
ATOM      5  C   UNL d   1       2.977  -0.821   0.775  0.00  0.00     0.064 C 
ATOM      6  C   UNL d   1       2.750  -0.057   1.947  0.00  0.00     0.032 C 
ATOM      7  C   UNL d   1       3.770   0.354   2.816  0.00  0.00     0.002 C 
ATOM      8  C   UNL d   1       5.080  -0.001   2.556  0.00  0.00     0.003 C 
ATOM      9  C   UNL d   1       5.347  -0.813   1.464  0.00  0.00     0.040 C 
BRANCH   5  10
ATOM     10  N   UNL d   1       1.879  -1.080  -0.055  0.00  0.00    -0.379 N 
ATOM     11  C   UNL d   1       1.930  -2.047  -1.158  0.00  0.00     0.123 C 
ATOM     12  C   UNL d   1       0.514  -2.570  -1.458  0.00  0.00     0.020 C 
ATOM     13  C   UNL d   1      -0.525  -1.462  -1.628  0.00  0.00     0.003 C 
ATOM     14  C   UNL d   1      -0.446  -0.459  -0.484  0.00  0.00     0.020 C 
ATOM     15  C   UNL d   1       0.981   0.061  -0.343  0.00  0.00     0.123 C 
ENDBRANCH   5  10
ENDBRANCH   3   4
ENDBRANCH   1   3
BRANCH   1  16
ATOM     16  C   UNL d   1       6.568  -3.652  -0.278  0.00  0.00     0.121 C 
BRANCH  16  17
ATOM     17  C   UNL d   1       7.352  -4.341   0.872  0.00  0.00     0.038 C 
BRANCH  17  18
ATOM     18  C   UNL d   1       7.037  -5.843   1.057  0.00  0.00     0.119 C 
BRANCH  18  19
ATOM     19  C   UNL d   1       7.369  -6.742  -0.115  0.00  0.00     0.140 C 
ATOM     20  O   UNL d   1       7.626  -6.377  -1.250  0.00  0.00    -0.650 OA
BRANCH  19  21
ATOM     21  O   UNL d   1       7.296  -8.055   0.212  0.00  0.00    -0.776 OA
ATOM     22  H   UNL d   1       7.048  -8.217   1.143  0.00  0.00     0.167 HD
ENDBRANCH  19  21
ENDBRANCH  18  19
ENDBRANCH  17  18
BRANCH  17  23
ATOM     23  C   UNL d   1       8.864  -4.118   0.867  0.00  0.00    -0.053 A 
ATOM     24  C   UNL d   1       9.540  -3.997   2.096  0.00  0.00     0.007 A 
ATOM     25  C   UNL d   1      10.929  -3.852   2.146  0.00  0.00     0.001 A 
ATOM     26  C   UNL d   1      11.666  -3.825   0.966  0.00  0.00     0.000 A 
ATOM     27  C   UNL d   1      11.014  -3.943  -0.259  0.00  0.00     0.001 A 
ATOM     28  C   UNL d   1       9.624  -4.089  -0.311  0.00  0.00     0.007 A 
ENDBRANCH  17  23
ENDBRANCH  16  17
ENDBRANCH   1  16
TORSDOF 9
