REMARK  3 active torsions:
REMARK  status: ('A' for Active; 'I' for Inactive)
REMARK    1  A    between atoms: C_7  and  C_1 
REMARK    2  A    between atoms: C_9  and  N_4 
REMARK    3  A    between atoms: N_6  and  C_7 
ROOT
ATOM      1  N   UNL d   1       0.933  -1.664   1.345  0.00  0.00    -0.378 N 
ATOM      2  N   UNL d   1      -1.478  -3.195   0.483  0.00  0.00     0.095 N 
ATOM      3  C   UNL d   1       0.961  -2.486   0.110  0.00  0.00     0.153 C 
ATOM      4  C   UNL d   1      -0.396  -1.437   1.961  0.00  0.00     0.153 C 
ATOM      5  C   UNL d   1      -0.117  -3.601   0.069  0.00  0.00     0.292 C 
ATOM      6  C   UNL d   1      -1.336  -2.649   1.848  0.00  0.00     0.292 C 
ENDROOT
BRANCH   2   7
ATOM      7  C   UNL d   1      -2.038  -2.224  -0.479  0.00  0.00     0.313 C 
BRANCH   7   8
ATOM      8  C   UNL d   1      -3.429  -1.798  -0.109  0.00  0.00    -0.002 A 
ATOM      9  C   UNL d   1      -4.520  -2.629   0.074  0.00  0.00     0.098 A 
ATOM     10  N   UNL d   1      -5.606  -1.861   0.373  0.00  0.00    -0.365 N 
ATOM     11  C   UNL d   1      -5.266  -0.531   0.391  0.00  0.00     0.043 A 
ATOM     12  H   UNL d   1      -6.540  -2.216   0.544  0.00  0.00     0.165 HD
ATOM     13  C   UNL d   1      -3.908  -0.452   0.080  0.00  0.00    -0.000 A 
ATOM     14  C   UNL d   1      -6.059   0.593   0.650  0.00  0.00     0.030 A 
ATOM     15  C   UNL d   1      -3.320   0.831   0.010  0.00  0.00     0.014 A 
ATOM     16  C   UNL d   1      -4.099   1.968   0.265  0.00  0.00     0.001 A 
ATOM     17  C   UNL d   1      -5.449   1.848   0.585  0.00  0.00     0.002 A 
ENDBRANCH   7   8
ENDBRANCH   2   7
BRANCH   1  18
ATOM     18  C   UNL d   1       1.879  -0.625   1.457  0.00  0.00     0.030 A 
ATOM     19  C   UNL d   1       1.668   0.499   2.284  0.00  0.00     0.032 A 
ATOM     20  C   UNL d   1       2.627   1.508   2.441  0.00  0.00     0.044 A 
ATOM     21  C   UNL d   1       3.833   1.411   1.772  0.00  0.00     0.116 A 
ATOM     22  C   UNL d   1       4.090   0.330   0.948  0.00  0.00     0.044 A 
ATOM     23  F   UNL d   1       4.759   2.365   1.931  0.00  0.00    -0.206 F 
ATOM     24  C   UNL d   1       3.123  -0.674   0.797  0.00  0.00     0.032 A 
ENDBRANCH   1  18
TORSDOF 3
