REMARK  6 active torsions:
REMARK  status: ('A' for Active; 'I' for Inactive)
REMARK    1  A    between atoms: O_2  and  S_1 
REMARK    2  A    between atoms: C_7  and  S_1 
REMARK    3  A    between atoms: C_3  and  O_2 
REMARK    4  A    between atoms: C_8  and  C_4 
REMARK    5  A    between atoms: C_5  and  C_9 
REMARK    6  A    between atoms: C_23  and  N_11 
ROOT
ATOM      1  C   UNL d   1      -3.759   2.753  -4.331  0.00  0.00     0.123 C 
ATOM      2  C   UNL d   1      -2.610   3.145  -3.617  0.00  0.00     0.017 C 
ATOM      3  C   UNL d   1      -4.579   3.744  -4.884  0.00  0.00     0.071 C 
ATOM      4  C   UNL d   1      -4.174   5.079  -4.882  0.00  0.00     0.050 C 
ATOM      5  C   UNL d   1      -2.114   4.437  -3.794  0.00  0.00     0.039 C 
ATOM      6  C   UNL d   1      -2.908   5.403  -4.406  0.00  0.00     0.036 C 
ATOM      7 CL   UNL d   1      -6.118   3.352  -5.559  0.00  0.00    -0.081 Cl
ATOM      8 CL   UNL d   1      -2.349   7.026  -4.498  0.00  0.00    -0.084 Cl
ENDROOT
BRANCH   2   9
ATOM      9  C   UNL d   1      -2.040   2.237  -2.593  0.00  0.00     0.102 C 
ATOM     10  N   UNL d   1      -1.429   2.457  -1.466  0.00  0.00    -0.365 N 
ATOM     11  HN  UNL d   1      -1.173   1.621  -0.941  1.00  0.00     0.165 HD
BRANCH  10  12
ATOM     12  C   UNL d   1      -1.071   3.667  -0.869  0.00  0.00     0.032 C 
ATOM     13  C   UNL d   1      -1.849   4.827  -0.844  0.00  0.00     0.045 C 
ATOM     14  C   UNL d   1      -1.340   6.031  -0.322  0.00  0.00     0.050 C 
ATOM     15  C   UNL d   1      -0.102   6.020   0.334  0.00  0.00     0.016 C 
ATOM     16  C   UNL d   1       0.626   4.838   0.432  0.00  0.00     0.003 C 
ATOM     17  C   UNL d   1       0.149   3.682  -0.184  0.00  0.00     0.029 C 
BRANCH  14  18
ATOM     18  C   UNL d   1      -2.067   7.338  -0.524  0.00  0.00     0.417 C 
ATOM     19  F   UNL d   1      -3.290   7.196  -1.110  0.00  0.00    -0.166 F 
ATOM     20  F   UNL d   1      -2.282   8.011   0.638  0.00  0.00    -0.166 F 
ATOM     21  F   UNL d   1      -1.370   8.190  -1.326  0.00  0.00    -0.166 F 
ENDBRANCH  14  18
ENDBRANCH  10  12
ENDBRANCH   2   9
BRANCH   1  22
ATOM     22  O   UNL d   1      -4.093   1.433  -4.576  0.00  0.00    -0.226 OA
BRANCH  22  23
ATOM     23  S   UNL d   1      -2.982   0.495  -5.352  0.00  0.00     0.303 S 
ATOM     24  O   UNL d   1      -2.557  -0.535  -4.424  0.00  0.00    -0.193 OA
ATOM     25  O   UNL d   1      -1.990   1.356  -5.976  0.00  0.00    -0.193 OA
BRANCH  23  26
ATOM     26  C   UNL d   1      -3.821  -0.346  -6.684  0.00  0.00     0.086 A 
ATOM     27  C   UNL d   1      -3.735   0.167  -7.979  0.00  0.00     0.026 A 
ATOM     28  C   UNL d   1      -4.080  -0.636  -9.071  0.00  0.00     0.008 A 
ATOM     29  C   UNL d   1      -4.494  -1.964  -8.876  0.00  0.00    -0.062 A 
ATOM     30  C   UNL d   1      -4.626  -2.453  -7.572  0.00  0.00     0.008 A 
ATOM     31  C   UNL d   1      -4.742  -2.851 -10.060  0.00  0.00     0.048 C 
ATOM     32  C   UNL d   1      -4.285  -1.656  -6.473  0.00  0.00     0.026 A 
ENDBRANCH  23  26
ENDBRANCH  22  23
ENDBRANCH   1  22
TORSDOF 6
