REMARK  8 active torsions:
REMARK  status: ('A' for Active; 'I' for Inactive)
REMARK    1  A    between atoms: N_2  and  S_1 
REMARK    2  A    between atoms: C_12  and  S_1 
REMARK    3  A    between atoms: C_3  and  N_2 
REMARK    4  A    between atoms: N_8  and  C_4 
REMARK    5  A    between atoms: O_14  and  C_7 
REMARK    6  A    between atoms: O_15  and  C_9 
REMARK    7  A    between atoms: C_22  and  O_14 
REMARK    8  A    between atoms: C_23  and  O_15 
ROOT
ATOM      1  C   UNL d   1       0.777  -0.323  -2.649  0.00  0.00     0.078 A 
ATOM      2  C   UNL d   1       1.525   0.748  -5.180  0.00  0.00     0.067 A 
ATOM      3  C   UNL d   1       0.185   0.443  -4.846  0.00  0.00     0.071 A 
ATOM      4  C   UNL d   1       2.113  -0.020  -2.946  0.00  0.00     0.072 A 
ATOM      5  C   UNL d   1       2.502   0.496  -4.193  0.00  0.00     0.097 A 
ATOM      6  C   UNL d   1      -0.207  -0.075  -3.601  0.00  0.00     0.098 A 
ENDROOT
BRANCH   1   7
ATOM      7  N   UNL d   1       0.523  -0.929  -1.379  0.00  0.00    -0.278 N 
ATOM      8  H   UNL d   1       0.918  -0.474  -0.558  0.00  0.00     0.179 HD
BRANCH   7   9
ATOM      9  S   UNL d   1       0.542  -2.614  -1.229  0.00  0.00     0.263 S 
ATOM     10  O   UNL d   1      -0.532  -3.183  -2.014  0.00  0.00    -0.200 OA
ATOM     11  O   UNL d   1       0.644  -2.867   0.192  0.00  0.00    -0.200 OA
BRANCH   9  12
ATOM     12  C   UNL d   1       2.079  -3.116  -1.971  0.00  0.00     0.079 A 
ATOM     13  C   UNL d   1       3.233  -3.223  -1.189  0.00  0.00     0.025 A 
ATOM     14  C   UNL d   1       4.428  -3.630  -1.784  0.00  0.00     0.002 A 
ATOM     15  C   UNL d   1       4.464  -3.936  -3.146  0.00  0.00     0.000 A 
ATOM     16  C   UNL d   1       3.303  -3.848  -3.917  0.00  0.00     0.002 A 
ATOM     17  C   UNL d   1       2.105  -3.448  -3.330  0.00  0.00     0.025 A 
ENDBRANCH   9  12
ENDBRANCH   7   9
ENDBRANCH   1   7
BRANCH   6  18
ATOM     18  O   UNL d   1      -1.557  -0.271  -3.496  0.00  0.00    -0.349 OA
BRANCH  18  19
ATOM     19  C   UNL d   1      -2.140  -0.195  -2.196  0.00  0.00     0.171 C 
ATOM     20  C   UNL d   1      -3.591   0.228  -2.352  0.00  0.00     0.034 C 
ENDBRANCH  18  19
ENDBRANCH   6  18
BRANCH   5  21
ATOM     21  O   UNL d   1       3.811   0.807  -4.486  0.00  0.00    -0.349 OA
BRANCH  21  22
ATOM     22  C   UNL d   1       4.801   0.487  -3.507  0.00  0.00     0.171 C 
ATOM     23  C   UNL d   1       6.168   0.874  -4.040  0.00  0.00     0.034 C 
ENDBRANCH  21  22
ENDBRANCH   5  21
BRANCH   2  24
ATOM     24  N   UNL d   1       1.771   1.249  -6.455  0.00  0.00    -0.374 N 
ATOM     25  C   UNL d   1       3.010   0.987  -7.204  0.00  0.00     0.149 C 
ATOM     26  C   UNL d   1       3.900   2.237  -7.282  0.00  0.00     0.187 C 
ATOM     27  O   UNL d   1       3.177   3.376  -7.782  0.00  0.00    -0.388 OA
ATOM     28  C   UNL d   1       2.061   3.662  -6.923  0.00  0.00     0.187 C 
ATOM     29  C   UNL d   1       1.075   2.483  -6.870  0.00  0.00     0.149 C 
ENDBRANCH   2  24
TORSDOF 8
