REMARK  2 active torsions:
REMARK  status: ('A' for Active; 'I' for Inactive)
REMARK    1  A    between atoms: C_5  and  C_1 
REMARK    2  A    between atoms: C_11  and  N_8 
ROOT
ATOM      1  C   UNL d   1       1.200   0.807   0.355  0.00  0.00     0.125 A 
ATOM      2  N   UNL d   1       1.380  -0.576   0.399  0.00  0.00    -0.332 N 
ATOM      3  HN  UNL d   1       2.240  -1.032   0.702  1.00  0.00     0.168 HD
ATOM      4  C   UNL d   1       0.304  -1.218   0.003  0.00  0.00     0.149 A 
ATOM      5  S   UNL d   1      -1.000  -0.188  -0.460  0.00  0.00    -0.064 SA
ATOM      6  C   UNL d   1      -0.035   1.188  -0.139  0.00  0.00     0.087 A 
ATOM      7  N   UNL d   1       0.147  -2.562  -0.031  0.00  0.00    -0.337 N 
ATOM      8  H   UNL d   1      -0.783  -2.925  -0.190  0.00  0.00     0.168 HD
ENDROOT
BRANCH   7   9
ATOM      9  C   UNL d   1       1.172  -3.525  -0.100  0.00  0.00     0.035 A 
ATOM     10  C   UNL d   1       2.473  -3.228  -0.531  0.00  0.00     0.055 A 
ATOM     11  C   UNL d   1       3.472  -4.207  -0.557  0.00  0.00     0.058 A 
ATOM     12 CL   UNL d   1       5.028  -3.753  -1.158  0.00  0.00    -0.082 Cl
ATOM     13  C   UNL d   1       3.189  -5.502  -0.118  0.00  0.00     0.055 A 
ATOM     14  C   UNL d   1       1.907  -5.807   0.343  0.00  0.00     0.028 A 
ATOM     15 CL   UNL d   1       4.369  -6.762  -0.116  0.00  0.00    -0.083 Cl
ATOM     16  C   UNL d   1       0.909  -4.826   0.350  0.00  0.00     0.031 A 
ENDBRANCH   7   9
BRANCH   1  17
ATOM     17  C   UNL d   1       2.281   1.740   0.813  0.00  0.00     0.433 C 
ATOM     18  F   UNL d   1       3.293   1.114   1.464  0.00  0.00    -0.165 F 
ATOM     19  F   UNL d   1       2.837   2.412  -0.231  0.00  0.00    -0.165 F 
ATOM     20  F   UNL d   1       1.795   2.684   1.663  0.00  0.00    -0.165 F 
ENDBRANCH   1  17
TORSDOF 2
