REMARK  5 active torsions:
REMARK  status: ('A' for Active; 'I' for Inactive)
REMARK    1  A    between atoms: C_10  and  C_3 
REMARK    2  A    between atoms: C_12  and  N_5 
REMARK    3  A    between atoms: O_21  and  C_10 
REMARK    4  A    between atoms: C_13  and  C_12 
REMARK    5  A    between atoms: C_25  and  O_21 
ROOT
ATOM      1  N   UNL d   1      -0.310  -0.629   0.077  0.00  0.00    -0.203 N 
ATOM      2  C   UNL d   1      -0.258   0.758   0.097  0.00  0.00     0.135 A 
ATOM      3  C   UNL d   1       2.103  -0.773   0.143  0.00  0.00     0.124 A 
ATOM      4  C   UNL d   1       0.803  -1.490   0.104  0.00  0.00     0.285 A 
ATOM      5  N   UNL d   1       0.961   1.375   0.133  0.00  0.00    -0.336 N 
ATOM      6  C   UNL d   1       2.102   0.576   0.149  0.00  0.00     0.116 A 
ATOM      7  N   UNL d   1      -1.586  -1.091   0.023  0.00  0.00    -0.294 N 
ATOM      8  HN  UNL d   1      -1.899  -2.062  -0.011  1.00  0.00     0.187 HD
ATOM      9  C   UNL d   1      -1.562   1.192   0.066  0.00  0.00     0.076 A 
ATOM     10  C   UNL d   1      -2.342   0.015   0.024  0.00  0.00     0.026 A 
ATOM     11  O   UNL d   1       0.657  -2.703   0.106  0.00  0.00    -0.265 OA
ATOM     12  C   UNL d   1      -3.820  -0.086  -0.016  0.00  0.00     0.070 C 
ENDROOT
BRANCH   5  13
ATOM     13  C   UNL d   1       1.028   2.842  -0.034  0.00  0.00     0.170 C 
BRANCH  13  14
ATOM     14  C   UNL d   1       0.920   3.614   1.270  0.00  0.00    -0.018 A 
ATOM     15  C   UNL d   1       0.317   4.886   1.326  0.00  0.00     0.043 A 
ATOM     16  C   UNL d   1       0.350   5.651   2.497  0.00  0.00     0.048 A 
ATOM     17 CL   UNL d   1      -0.475   5.590  -0.042  0.00  0.00    -0.084 Cl
ATOM     18  C   UNL d   1       0.990   5.157   3.628  0.00  0.00     0.035 A 
ATOM     19  C   UNL d   1       1.576   3.897   3.608  0.00  0.00     0.024 A 
ATOM     20 CL   UNL d   1       1.078   6.119   5.051  0.00  0.00    -0.084 Cl
ATOM     21  C   UNL d   1       1.544   3.135   2.438  0.00  0.00     0.012 A 
ENDBRANCH  13  14
ENDBRANCH   5  13
BRANCH   3  22
ATOM     22  C   UNL d   1       3.419  -1.435   0.074  0.00  0.00     0.300 C 
ATOM     23  O   UNL d   1       4.472  -0.893   0.381  0.00  0.00    -0.259 OA
BRANCH  22  24
ATOM     24  O   UNL d   1       3.297  -2.645  -0.519  0.00  0.00    -0.318 OA
BRANCH  24  25
ATOM     25  C   UNL d   1       4.500  -3.221  -1.044  0.00  0.00     0.174 C 
ATOM     26  C   UNL d   1       4.666  -2.733  -2.471  0.00  0.00     0.034 C 
ENDBRANCH  24  25
ENDBRANCH  22  24
ENDBRANCH   3  22
TORSDOF 5
