REMARK  6 active torsions:
REMARK  status: ('A' for Active; 'I' for Inactive)
REMARK    1  A    between atoms: C_4  and  C_1 
REMARK    2  A    between atoms: C_7  and  C_1 
REMARK    3  A    between atoms: C_3  and  C_2 
REMARK    4  A    between atoms: C_9  and  C_3 
REMARK    5  A    between atoms: C_5  and  C_4 
REMARK    6  A    between atoms: C_6  and  C_5 
ROOT
ATOM      1  C   UNL d   1       2.383  -0.000   0.135  0.00  0.00    -0.031 C 
ATOM      2  C   UNL d   1       3.207  -0.991   0.576  0.00  0.00    -0.004 C 
ATOM      3  C   UNL d   1       2.745  -2.288   1.181  0.00  0.00     0.053 C 
ENDROOT
BRANCH   1   4
ATOM      4  C   UNL d   1       0.880  -0.168  -0.022  0.00  0.00     0.123 C 
BRANCH   4   5
ATOM      5  C   UNL d   1       0.544  -0.900  -1.326  0.00  0.00     0.163 C 
ATOM      6  O   UNL d   1       1.157  -1.904  -1.682  0.00  0.00    -0.292 OA
BRANCH   5   7
ATOM      7  C   UNL d   1      -0.558  -0.386  -2.206  0.00  0.00     0.010 A 
ATOM      8  C   UNL d   1      -1.457   0.603  -1.795  0.00  0.00     0.015 A 
ATOM      9  C   UNL d   1      -2.415   1.101  -2.686  0.00  0.00     0.007 A 
ATOM     10  C   UNL d   1      -2.511   0.601  -3.988  0.00  0.00    -0.062 A 
ATOM     11  C   UNL d   1      -1.635  -0.413  -4.389  0.00  0.00     0.007 A 
ATOM     12  C   UNL d   1      -3.485   1.201  -4.957  0.00  0.00     0.048 C 
ATOM     13  C   UNL d   1      -0.670  -0.906  -3.503  0.00  0.00     0.015 A 
ENDBRANCH   5   7
ENDBRANCH   4   5
ENDBRANCH   1   4
BRANCH   1  14
ATOM     14  C   UNL d   1       2.867   1.373  -0.178  0.00  0.00    -0.029 A 
ATOM     15  C   UNL d   1       2.554   2.006  -1.391  0.00  0.00     0.012 A 
ATOM     16  C   UNL d   1       2.962   3.320  -1.635  0.00  0.00     0.001 A 
ATOM     17  C   UNL d   1       3.688   4.018  -0.672  0.00  0.00     0.000 A 
ATOM     18  C   UNL d   1       4.010   3.402   0.534  0.00  0.00     0.001 A 
ATOM     19  C   UNL d   1       3.596   2.092   0.783  0.00  0.00     0.012 A 
ENDBRANCH   1  14
BRANCH   2  20
ATOM     20  C   UNL d   1       4.710  -0.888   0.539  0.00  0.00     0.188 C 
ATOM     21  O   UNL d   1       5.373  -1.190   1.528  0.00  0.00    -0.287 OA
BRANCH  20  22
ATOM     22  C   UNL d   1       5.392  -0.437  -0.710  0.00  0.00     0.015 A 
ATOM     23  C   UNL d   1       6.655   0.158  -0.591  0.00  0.00     0.015 A 
ATOM     24  C   UNL d   1       7.282   0.706  -1.711  0.00  0.00     0.001 A 
ATOM     25  C   UNL d   1       6.655   0.655  -2.955  0.00  0.00     0.000 A 
ATOM     26  C   UNL d   1       5.423   0.017  -3.091  0.00  0.00     0.001 A 
ATOM     27  C   UNL d   1       4.802  -0.551  -1.976  0.00  0.00     0.015 A 
ENDBRANCH  20  22
ENDBRANCH   2  20
TORSDOF 6
