REMARK  4 active torsions:
REMARK  status: ('A' for Active; 'I' for Inactive)
REMARK       I    between atoms: N_3  and  C_1 
REMARK    1  A    between atoms: C_7  and  C_1 
REMARK    2  A    between atoms: C_2  and  N_4 
REMARK    3  A    between atoms: N_4  and  N_3 
REMARK    4  A    between atoms: C_8  and  C_9 
ROOT
ATOM      1  C   UNL d   1       1.057  -0.082  -0.140  0.00  0.00     0.266 C 
ATOM      2  N   UNL d   1       1.009  -1.447   0.094  0.00  0.00    -0.283 N 
ATOM      3  O   UNL d   1       1.730   0.422  -1.036  0.00  0.00    -0.266 OA
ATOM      4  H   UNL d   1       0.703  -1.832   0.985  0.00  0.00     0.184 HD
ENDROOT
BRANCH   1   5
ATOM      5  C   UNL d   1       0.239   0.763   0.769  0.00  0.00     0.033 A 
ATOM      6  C   UNL d   1       0.633   2.081   1.011  0.00  0.00     0.017 A 
ATOM      7  C   UNL d   1      -0.146   2.909   1.830  0.00  0.00     0.009 A 
ATOM      8  C   UNL d   1      -1.343   2.450   2.416  0.00  0.00    -0.051 A 
ATOM      9  C   UNL d   1      -1.717   1.120   2.157  0.00  0.00     0.009 A 
ATOM     10  C   UNL d   1      -0.941   0.286   1.344  0.00  0.00     0.017 A 
BRANCH   8  11
ATOM     11  C   UNL d   1      -2.193   3.391   3.289  0.00  0.00    -0.024 C 
ATOM     12  C   UNL d   1      -3.490   2.740   3.822  0.00  0.00     0.019 C 
ATOM     13  C   UNL d   1      -1.374   3.848   4.514  0.00  0.00     0.019 C 
ATOM     14  C   UNL d   1      -2.614   4.631   2.470  0.00  0.00     0.019 C 
ENDBRANCH   8  11
ENDBRANCH   1   5
BRANCH   2  15
ATOM     15  N   UNL d   1       1.877  -2.252  -0.663  0.00  0.00    -0.200 NA
ATOM     16  H   UNL d   1       2.189  -1.742  -1.498  0.00  0.00     0.153 HD
BRANCH  15  17
ATOM     17  C   UNL d   1       1.354  -3.535  -0.965  0.00  0.00     0.066 A 
ATOM     18  C   UNL d   1       0.571  -4.283  -0.063  0.00  0.00     0.142 A 
ATOM     19  C   UNL d   1       0.174  -5.588  -0.340  0.00  0.00     0.086 A 
ATOM     20  F   UNL d   1       0.198  -3.749   1.113  0.00  0.00    -0.204 F 
ATOM     21  C   UNL d   1       0.575  -6.173  -1.531  0.00  0.00     0.119 A 
ATOM     22  C   UNL d   1       1.365  -5.477  -2.438  0.00  0.00     0.044 A 
ATOM     23  F   UNL d   1       0.209  -7.432  -1.805  0.00  0.00    -0.206 F 
ATOM     24  C   UNL d   1       1.764  -4.168  -2.149  0.00  0.00     0.031 A 
ENDBRANCH  15  17
ENDBRANCH   2  15
TORSDOF 4
