REMARK  3 active torsions:
REMARK  status: ('A' for Active; 'I' for Inactive)
REMARK    1  A    between atoms: C_6  and  C_3 
REMARK    2  A    between atoms: O_9  and  C_5 
REMARK    3  A    between atoms: C_14  and  O_9 
ROOT
ATOM      1  N   UNL d   1       1.205  -1.427   0.063  0.00  0.00    -0.350 N 
ATOM      2  HN  UNL d   1       1.186  -2.447   0.055  1.00  0.00     0.166 HD
ATOM      3  C   UNL d   1       2.397  -0.774   0.115  0.00  0.00     0.119 A 
ATOM      4  C   UNL d   1       0.043  -0.734   0.021  0.00  0.00     0.063 A 
ATOM      5  C   UNL d   1       1.282   1.337   0.010  0.00  0.00     0.090 A 
ATOM      6  C   UNL d   1       0.037   0.678  -0.013  0.00  0.00     0.026 A 
ATOM      7  C   UNL d   1       2.464   0.609   0.131  0.00  0.00     0.072 A 
ATOM      8  C   UNL d   1      -1.199  -1.385   0.011  0.00  0.00     0.038 A 
ATOM      9 BR   UNL d   1      -1.294  -3.289   0.066  0.00  0.00    -0.049 Br
ATOM     10  C   UNL d   1      -1.195   1.373  -0.066  0.00  0.00     0.017 A 
ATOM     11  C   UNL d   1      -2.410   0.695  -0.074  0.00  0.00     0.002 A 
ATOM     12  C   UNL d   1      -2.413  -0.692  -0.034  0.00  0.00     0.021 A 
ENDROOT
BRANCH   5  13
ATOM     13  O   UNL d   1       1.272   2.721  -0.029  0.00  0.00    -0.310 OA
BRANCH  13  14
ATOM     14  C   UNL d   1       2.319   3.391  -0.624  0.00  0.00     0.076 A 
ATOM     15  C   UNL d   1       2.944   2.972  -1.803  0.00  0.00     0.037 A 
ATOM     16  C   UNL d   1       4.024   3.695  -2.312  0.00  0.00     0.003 A 
ATOM     17  C   UNL d   1       4.446   4.862  -1.675  0.00  0.00     0.000 A 
ATOM     18  C   UNL d   1       3.781   5.315  -0.536  0.00  0.00     0.003 A 
ATOM     19  C   UNL d   1       2.716   4.581  -0.012  0.00  0.00     0.037 A 
ENDBRANCH  13  14
ENDBRANCH   5  13
BRANCH   3  20
ATOM     20  C   UNL d   1       3.698  -1.565   0.109  0.00  0.00     0.432 C 
ATOM     21  F   UNL d   1       3.539  -2.917   0.072  0.00  0.00    -0.165 F 
ATOM     22  F   UNL d   1       4.481  -1.254  -0.967  0.00  0.00    -0.165 F 
ATOM     23  F   UNL d   1       4.471  -1.308   1.204  0.00  0.00    -0.165 F 
ENDBRANCH   3  20
TORSDOF 3
