REMARK  2 active torsions:
REMARK  status: ('A' for Active; 'I' for Inactive)
REMARK       I    between atoms: C_2  and  N_1 
REMARK    1  A    between atoms: C_3  and  N_1 
REMARK       I    between atoms: N_4  and  C_2 
REMARK    2  A    between atoms: C_8  and  C_3 
ROOT
ATOM      1  N   UNL d   1       1.276   0.414   0.099  0.00  0.00    -0.294 N 
ATOM      2  C   UNL d   1       0.447   0.782   1.134  0.00  0.00     0.324 C 
ATOM      3  N   UNL d   1       0.862   1.863   1.892  0.00  0.00    -0.330 N 
ATOM      4  O   UNL d   1      -0.594   0.176   1.385  0.00  0.00    -0.247 OA
ATOM      5  O   UNL d   1       1.786   3.414   4.109  0.00  0.00    -0.388 OA
ATOM      6  C   UNL d   1       2.126   2.606   1.802  0.00  0.00     0.153 C 
ATOM      7  C   UNL d   1      -0.062   2.403   2.897  0.00  0.00     0.153 C 
ATOM      8  C   UNL d   1       2.735   2.852   3.193  0.00  0.00     0.187 C 
ATOM      9  C   UNL d   1       0.643   2.552   4.244  0.00  0.00     0.187 C 
ATOM     10  H   UNL d   1       1.957   1.090  -0.192  0.00  0.00     0.172 HD
ENDROOT
BRANCH   1  11
ATOM     11  C   UNL d   1       1.095  -0.667  -0.750  0.00  0.00     0.113 C 
ATOM     12  N   UNL d   1       0.103  -1.483  -0.638  0.00  0.00    -0.385 N 
ATOM     13  H   UNL d   1      -0.484  -1.180   0.160  0.00  0.00     0.157 HD
ATOM     14  HN  UNL d   1      -0.073  -2.291  -1.235  1.00  0.00     0.157 HD
BRANCH  11  15
ATOM     15  C   UNL d   1       2.097  -0.838  -1.834  0.00  0.00     0.007 A 
ATOM     16  C   UNL d   1       3.443  -0.505  -1.646  0.00  0.00     0.015 A 
ATOM     17  C   UNL d   1       4.354  -0.673  -2.694  0.00  0.00     0.001 A 
ATOM     18  C   UNL d   1       3.924  -1.175  -3.921  0.00  0.00     0.000 A 
ATOM     19  C   UNL d   1       2.588  -1.529  -4.104  0.00  0.00     0.001 A 
ATOM     20  C   UNL d   1       1.676  -1.367  -3.061  0.00  0.00     0.015 A 
ENDBRANCH  11  15
ENDBRANCH   1  11
TORSDOF 2
