REMARK  3 active torsions:
REMARK  status: ('A' for Active; 'I' for Inactive)
REMARK    1  A    between atoms: C_2  and  C_1 
REMARK       I    between atoms: N_4  and  C_1 
REMARK    2  A    between atoms: C_6  and  C_3 
REMARK    3  A    between atoms: C_7  and  N_4 
ROOT
ATOM      1  C   UNL d   1       1.035   0.047   0.016  0.00  0.00     0.245 C 
ATOM      2  N   UNL d   1       0.213   1.067  -0.421  0.00  0.00    -0.324 N 
ATOM      3  O   UNL d   1       2.257   0.051   0.080  0.00  0.00    -0.268 OA
ATOM      4  H   UNL d   1      -0.783   0.902  -0.403  0.00  0.00     0.169 HD
ENDROOT
BRANCH   1   5
ATOM      5  C   UNL d   1       0.247  -1.154   0.415  0.00  0.00     0.075 C 
ATOM      6  C   UNL d   1       0.868  -2.306   0.715  0.00  0.00     0.017 C 
BRANCH   6   7
ATOM      7  C   UNL d   1       0.166  -3.546   1.079  0.00  0.00    -0.036 A 
ATOM      8  C   UNL d   1      -1.091  -3.877   0.550  0.00  0.00     0.011 A 
ATOM      9  C   UNL d   1      -1.716  -5.078   0.894  0.00  0.00     0.001 A 
ATOM     10  C   UNL d   1      -1.085  -5.970   1.757  0.00  0.00     0.000 A 
ATOM     11  C   UNL d   1       0.173  -5.665   2.272  0.00  0.00     0.001 A 
ATOM     12  C   UNL d   1       0.797  -4.462   1.931  0.00  0.00     0.011 A 
ENDBRANCH   6   7
ENDBRANCH   1   5
BRANCH   2  13
ATOM     13  C   UNL d   1       0.603   2.327  -0.924  0.00  0.00     0.035 A 
ATOM     14  C   UNL d   1       1.929   2.739  -1.057  0.00  0.00     0.029 A 
ATOM     15  C   UNL d   1       2.230   4.005  -1.571  0.00  0.00     0.002 A 
ATOM     16  C   UNL d   1       1.207   4.868  -1.956  0.00  0.00     0.000 A 
ATOM     17  C   UNL d   1      -0.119   4.467  -1.829  0.00  0.00     0.002 A 
ATOM     18  C   UNL d   1      -0.419   3.202  -1.316  0.00  0.00     0.029 A 
ENDBRANCH   2  13
TORSDOF 3
