REMARK  10 active torsions:
REMARK  status: ('A' for Active; 'I' for Inactive)
REMARK    1  A    between atoms: C_5  and  C_1 
REMARK    2  A    between atoms: C_6  and  C_2 
REMARK    3  A    between atoms: O_16  and  C_5 
REMARK    4  A    between atoms: O_15  and  C_6 
REMARK    5  A    between atoms: C_20  and  C_9 
REMARK    6  A    between atoms: C_10  and  C_21 
REMARK    7  A    between atoms: C_17  and  O_18 
REMARK    8  A    between atoms: O_19  and  C_17 
REMARK    9  A    between atoms: O_18  and  C_20 
REMARK   10  A    between atoms: C_21  and  O_19 
ROOT
ATOM      1  C   UNL d   1      -0.455  -4.555   0.105  0.00  0.00     0.338 C 
ENDROOT
BRANCH   1   2
ATOM      2  O   UNL d   1      -0.038  -3.215  -0.143  0.00  0.00    -0.361 OA
BRANCH   2   3
ATOM      3  C   UNL d   1      -1.053  -2.283   0.223  0.00  0.00     0.235 C 
BRANCH   3   4
ATOM      4  C   UNL d   1      -0.482  -0.910   0.158  0.00  0.00     0.077 A 
ATOM      5  O   UNL d   1       0.770  -0.717   0.669  0.00  0.00    -0.306 OA
ATOM      6  C   UNL d   1       1.094   0.602   0.491  0.00  0.00     0.148 A 
ATOM      7  C   UNL d   1       0.018   1.261  -0.076  0.00  0.00     0.047 A 
ATOM      8  C   UNL d   1      -0.995   0.294  -0.278  0.00  0.00     0.038 A 
BRANCH   6   9
ATOM      9  C   UNL d   1       2.395   1.068   0.915  0.00  0.00     0.201 C 
ATOM     10  O   UNL d   1       3.015   0.680   1.897  0.00  0.00    -0.645 OA
BRANCH   9  11
ATOM     11  O   UNL d   1       2.869   2.045   0.099  0.00  0.00    -0.771 OA
ATOM     12  H   UNL d   1       2.438   2.032  -0.778  0.00  0.00     0.167 HD
ENDBRANCH   9  11
ENDBRANCH   6   9
ENDBRANCH   3   4
ENDBRANCH   2   3
ENDBRANCH   1   2
BRANCH   1  13
ATOM     13  O   UNL d   1       0.618  -5.488   0.003  0.00  0.00    -0.361 OA
BRANCH  13  14
ATOM     14  C   UNL d   1       1.464  -5.534   1.161  0.00  0.00     0.235 C 
BRANCH  14  15
ATOM     15  C   UNL d   1       2.409  -4.388   1.155  0.00  0.00     0.077 A 
ATOM     16  O   UNL d   1       2.599  -3.779  -0.044  0.00  0.00    -0.306 OA
ATOM     17  C   UNL d   1       3.322  -2.644   0.172  0.00  0.00     0.148 A 
ATOM     18  C   UNL d   1       3.739  -2.611   1.487  0.00  0.00     0.047 A 
ATOM     19  C   UNL d   1       3.132  -3.728   2.127  0.00  0.00     0.038 A 
BRANCH  17  20
ATOM     20  C   UNL d   1       3.416  -1.724  -0.927  0.00  0.00     0.201 C 
ATOM     21  O   UNL d   1       4.200  -0.794  -1.054  0.00  0.00    -0.645 OA
BRANCH  20  22
ATOM     22  O   UNL d   1       2.421  -1.961  -1.830  0.00  0.00    -0.771 OA
ATOM     23  H   UNL d   1       1.834  -2.668  -1.464  0.00  0.00     0.167 HD
ENDBRANCH  20  22
ENDBRANCH  17  20
ENDBRANCH  14  15
ENDBRANCH  13  14
ENDBRANCH   1  13
TORSDOF 10
