REMARK  7 active torsions:
REMARK  status: ('A' for Active; 'I' for Inactive)
REMARK    1  A    between atoms: C_5  and  C_1 
REMARK    2  A    between atoms: C_8  and  C_1 
REMARK    3  A    between atoms: C_3  and  C_2 
REMARK    4  A    between atoms: C_6  and  C_3 
REMARK    5  A    between atoms: C_4  and  C_5 
REMARK    6  A    between atoms: C_7  and  C_4 
REMARK    7  A    between atoms: O_22  and  C_16 
ROOT
ATOM      1  C   UNL d   1       1.069   0.108  -0.349  0.00  0.00    -0.037 C 
ATOM      2  C   UNL d   1       0.612  -1.166  -0.344  0.00  0.00     0.064 C 
ENDROOT
BRANCH   1   3
ATOM      3  C   UNL d   1       0.028   1.192  -0.090  0.00  0.00     0.123 C 
BRANCH   3   4
ATOM      4  C   UNL d   1      -0.530   1.960  -1.294  0.00  0.00     0.163 C 
ATOM      5  O   UNL d   1      -0.164   1.774  -2.448  0.00  0.00    -0.292 OA
BRANCH   4   6
ATOM      6  C   UNL d   1      -1.625   2.954  -1.004  0.00  0.00     0.010 A 
ATOM      7  C   UNL d   1      -1.951   3.337   0.307  0.00  0.00     0.016 A 
ATOM      8  C   UNL d   1      -3.027   4.193   0.553  0.00  0.00     0.020 A 
ATOM      9  C   UNL d   1      -3.783   4.678  -0.507  0.00  0.00     0.011 A 
ATOM     10  C   UNL d   1      -3.451   4.339  -1.819  0.00  0.00     0.020 A 
ATOM     11 BR   UNL d   1      -5.282   5.778  -0.161  0.00  0.00    -0.051 Br
ATOM     12  C   UNL d   1      -2.372   3.482  -2.067  0.00  0.00     0.016 A 
ENDBRANCH   4   6
ENDBRANCH   3   4
ENDBRANCH   1   3
BRANCH   1  13
ATOM     13  C   UNL d   1       2.495   0.543  -0.477  0.00  0.00    -0.029 A 
ATOM     14  C   UNL d   1       3.403  -0.132  -1.310  0.00  0.00     0.012 A 
ATOM     15  C   UNL d   1       4.735   0.289  -1.436  0.00  0.00     0.001 A 
ATOM     16  C   UNL d   1       5.179   1.429  -0.774  0.00  0.00     0.000 A 
ATOM     17  C   UNL d   1       4.299   2.128   0.041  0.00  0.00     0.001 A 
ATOM     18  C   UNL d   1       2.983   1.679   0.198  0.00  0.00     0.012 A 
ENDBRANCH   1  13
BRANCH   2  19
ATOM     19  C   UNL d   1       1.247  -2.515  -0.373  0.00  0.00     0.182 C 
ATOM     20  O   UNL d   1       0.653  -3.431  -0.940  0.00  0.00    -0.288 OA
BRANCH  19  21
ATOM     21  C   UNL d   1       2.526  -2.793   0.322  0.00  0.00     0.014 A 
ATOM     22  C   UNL d   1       2.954  -2.069   1.439  0.00  0.00     0.018 A 
ATOM     23  C   UNL d   1       4.232  -2.284   1.966  0.00  0.00     0.037 A 
ATOM     24  C   UNL d   1       5.074  -3.242   1.399  0.00  0.00     0.068 A 
ATOM     25  C   UNL d   1       4.599  -4.040   0.356  0.00  0.00     0.037 A 
ATOM     26  C   UNL d   1       3.329  -3.823  -0.179  0.00  0.00     0.018 A 
BRANCH  24  27
ATOM     27  O   UNL d   1       6.366  -3.493   1.769  0.00  0.00    -0.356 OA
ATOM     28  C   UNL d   1       6.975  -2.543   2.635  0.00  0.00     0.210 C 
ENDBRANCH  24  27
ENDBRANCH  19  21
ENDBRANCH   2  19
TORSDOF 7
