REMARK  3 active torsions:
REMARK  status: ('A' for Active; 'I' for Inactive)
REMARK    1  A    between atoms: C_2  and  S_1 
REMARK    2  A    between atoms: C_10  and  S_1 
REMARK    3  A    between atoms: C_3  and  C_4 
ROOT
ATOM      1  C   UNL d   1       0.403   1.391   0.809  0.00  0.00     0.141 C 
ATOM      2  C   UNL d   1      -0.389   2.222   0.105  0.00  0.00     0.054 C 
ATOM      3  C   UNL d   1       0.931   0.185   0.287  0.00  0.00     0.111 C 
ATOM      4  N   UNL d   1       1.326  -0.806  -0.171  0.00  0.00    -0.191 NA
ENDROOT
BRANCH   1   5
ATOM      5  S   UNL d   1       0.858   1.838   2.431  0.00  0.00     0.193 S 
ATOM      6  O   UNL d   1       0.671   3.270   2.591  0.00  0.00    -0.221 OA
ATOM      7  O   UNL d   1       2.170   1.276   2.715  0.00  0.00    -0.221 OA
BRANCH   5   8
ATOM      8  C   UNL d   1      -0.343   1.008   3.535  0.00  0.00     0.058 C 
ATOM      9  C   UNL d   1      -0.313  -0.514   3.342  0.00  0.00     0.031 C 
ATOM     10  C   UNL d   1       0.048   1.318   4.995  0.00  0.00     0.031 C 
ATOM     11  C   UNL d   1      -1.765   1.536   3.291  0.00  0.00     0.031 C 
ENDBRANCH   5   8
ENDBRANCH   1   5
BRANCH   2  12
ATOM     12  C   UNL d   1      -0.853   1.891  -1.203  0.00  0.00     0.014 A 
ATOM     13  S   UNL d   1      -2.363   1.090  -1.341  0.00  0.00    -0.089 SA
ATOM     14  C   UNL d   1      -2.265   0.990  -3.049  0.00  0.00     0.016 A 
ATOM     15  C   UNL d   1      -3.199   0.387  -3.916  0.00  0.00     0.019 A 
ATOM     16  C   UNL d   1      -1.109   1.605  -3.527  0.00  0.00    -0.012 A 
ATOM     17  C   UNL d   1      -2.975   0.433  -5.293  0.00  0.00     0.001 A 
ATOM     18  C   UNL d   1      -1.848   1.061  -5.800  0.00  0.00     0.001 A 
ATOM     19  C   UNL d   1      -0.915   1.638  -4.934  0.00  0.00     0.013 A 
ATOM     20  C   UNL d   1      -0.274   2.103  -2.448  0.00  0.00    -0.033 A 
ATOM     21  C   UNL d   1       1.054   2.749  -2.701  0.00  0.00     0.050 C 
ENDBRANCH   2  12
TORSDOF 3
