REMARK  3 active torsions:
REMARK  status: ('A' for Active; 'I' for Inactive)
REMARK    1  A    between atoms: C_2  and  C_1 
REMARK    2  A    between atoms: O_15  and  C_1 
REMARK    3  A    between atoms: C_8  and  C_7 
ROOT
ATOM      1  C   UNL d   1      -0.951   0.517  -0.598  0.00  0.00     0.233 C 
ATOM      2  N   UNL d   1      -0.367   0.823   0.715  0.00  0.00    -0.198 NA
ATOM      3  N   UNL d   1       0.861   0.267   0.879  0.00  0.00    -0.322 N 
ATOM      4  HN  UNL d   1       1.558   0.519   1.580  1.00  0.00     0.180 HD
ATOM      5  C   UNL d   1      -0.242  -0.793  -0.921  0.00  0.00     0.124 C 
ATOM      6  C   UNL d   1       0.969  -0.650  -0.036  0.00  0.00     0.035 C 
ATOM      7  H   UNL d   1      -0.364   1.821   0.918  0.00  0.00     0.150 HD
ENDROOT
BRANCH   6   8
ATOM      8  C   UNL d   1       2.172  -1.501  -0.205  0.00  0.00    -0.010 A 
ATOM      9  C   UNL d   1       2.263  -2.434  -1.248  0.00  0.00     0.053 A 
ATOM     10  C   UNL d   1       3.429  -3.163  -1.359  0.00  0.00     0.105 A 
ATOM     11  O   UNL d   1       3.693  -4.092  -2.313  0.00  0.00    -0.323 OA
ATOM     12  C   UNL d   1       4.476  -3.004  -0.479  0.00  0.00     0.105 A 
ATOM     13  C   UNL d   1       5.030  -4.492  -1.952  0.00  0.00     0.352 A 
ATOM     14  O   UNL d   1       5.526  -3.816  -0.772  0.00  0.00    -0.323 OA
ATOM     15  C   UNL d   1       4.414  -2.106   0.564  0.00  0.00     0.040 A 
ATOM     16  C   UNL d   1       3.248  -1.345   0.697  0.00  0.00     0.016 A 
ENDBRANCH   6   8
BRANCH   1  17
ATOM     17  C   UNL d   1      -2.496   0.344  -0.613  0.00  0.00     0.434 C 
ATOM     18  F   UNL d   1      -2.972  -0.279   0.487  0.00  0.00    -0.166 F 
ATOM     19  F   UNL d   1      -3.096   1.562  -0.684  0.00  0.00    -0.166 F 
ATOM     20  F   UNL d   1      -2.907  -0.365  -1.691  0.00  0.00    -0.166 F 
ENDBRANCH   1  17
BRANCH   1  21
ATOM     21  O   UNL d   1      -0.517   1.506  -1.545  0.00  0.00    -0.366 OA
ATOM     22  H   UNL d   1      -1.069   2.293  -1.393  0.00  0.00     0.212 HD
ENDBRANCH   1  21
TORSDOF 3
