REMARK  2 active torsions:
REMARK  status: ('A' for Active; 'I' for Inactive)
REMARK       I    between atoms: C_2  and  N_6 
REMARK    1  A    between atoms: C_10  and  C_2 
REMARK    2  A    between atoms: N_6  and  C_11 
ROOT
ATOM      1  S   UNL d   1       0.070   2.749   1.527  0.00  0.00     0.152 S 
ATOM      2  C   UNL d   1       1.970   1.329   0.554  0.00  0.00    -0.035 A 
ATOM      3  C   UNL d   1       1.839   2.635   1.275  0.00  0.00     0.179 C 
ATOM      4  C   UNL d   1      -0.442   1.626   0.230  0.00  0.00     0.179 C 
ATOM      5  C   UNL d   1       0.785   0.790   0.037  0.00  0.00    -0.037 A 
ATOM      6  O   UNL d   1      -0.373   4.090   1.190  0.00  0.00    -0.227 OA
ATOM      7  O   UNL d   1      -0.260   2.154   2.808  0.00  0.00    -0.227 OA
ATOM      8  C   UNL d   1       3.220  -0.568  -0.275  0.00  0.00     0.035 A 
ATOM      9  C   UNL d   1       3.183   0.662   0.386  0.00  0.00     0.038 A 
ATOM     10  C   UNL d   1       0.806  -0.437  -0.617  0.00  0.00     0.011 A 
ATOM     11  C   UNL d   1       2.020  -1.123  -0.750  0.00  0.00     0.030 A 
ENDROOT
BRANCH   8  12
ATOM     12  N   UNL d   1       4.414  -1.294  -0.493  0.00  0.00    -0.323 N 
ATOM     13  C   UNL d   1       5.701  -0.792  -0.371  0.00  0.00     0.256 C 
ATOM     14  O   UNL d   1       6.003   0.366  -0.101  0.00  0.00    -0.267 OA
ATOM     15  H   UNL d   1       4.311  -2.209  -0.909  0.00  0.00     0.169 HD
BRANCH  13  16
ATOM     16  C   UNL d   1       6.804  -1.746  -0.677  0.00  0.00     0.032 A 
ATOM     17  C   UNL d   1       7.973  -1.232  -1.252  0.00  0.00     0.017 A 
ATOM     18  C   UNL d   1       9.044  -2.075  -1.550  0.00  0.00     0.007 A 
ATOM     19  C   UNL d   1       8.967  -3.443  -1.264  0.00  0.00    -0.062 A 
ATOM     20  C   UNL d   1       7.802  -3.953  -0.676  0.00  0.00     0.007 A 
ATOM     21  C   UNL d   1      10.124  -4.338  -1.600  0.00  0.00     0.048 C 
ATOM     22  C   UNL d   1       6.724  -3.110  -0.378  0.00  0.00     0.017 A 
ENDBRANCH  13  16
ENDBRANCH   8  12
TORSDOF 2
