REMARK  3 active torsions:
REMARK  status: ('A' for Active; 'I' for Inactive)
REMARK    1  A    between atoms: N_5  and  C_1 
REMARK    2  A    between atoms: N_2  and  N_5 
REMARK    3  A    between atoms: C_10  and  C_6 
ROOT
ATOM      1  N   UNL d   1      -1.244  -0.303  -1.475  0.00  0.00    -0.308 N 
ATOM      2  HN  UNL d   1      -1.703   0.600  -1.360  1.00  0.00     0.186 HD
ATOM      3  C   UNL d   1      -1.907  -1.397  -1.687  0.00  0.00     0.136 C 
ENDROOT
BRANCH   1   4
ATOM      4  N   UNL d   1       0.113  -0.449  -1.416  0.00  0.00    -0.277 N 
ATOM      5  H   UNL d   1       0.542  -1.363  -1.522  0.00  0.00     0.189 HD
BRANCH   4   6
ATOM      6  C   UNL d   1       0.924   0.630  -1.187  0.00  0.00     0.184 C 
ATOM      7  S   UNL d   1       2.573   0.499  -1.080  0.00  0.00    -0.040 SA
ATOM      8  N   UNL d   1       0.286   1.817  -1.051  0.00  0.00    -0.375 N 
ATOM      9  H   UNL d   1       0.786   2.674  -0.875  0.00  0.00     0.158 HD
ATOM     10  H   UNL d   1      -0.724   1.804  -1.123  0.00  0.00     0.158 HD
ENDBRANCH   4   6
ENDBRANCH   1   4
BRANCH   3  11
ATOM     11  C   UNL d   1      -3.381  -1.413  -1.765  0.00  0.00     0.049 A 
ATOM     12  N   UNL d   1      -3.931  -2.633  -1.980  0.00  0.00    -0.365 N 
ATOM     13  C   UNL d   1      -5.280  -2.677  -2.044  0.00  0.00     0.088 A 
ATOM     14  HN  UNL d   1      -3.359  -3.471  -2.087  1.00  0.00     0.165 HD
ATOM     15  C   UNL d   1      -6.098  -1.565  -1.903  0.00  0.00     0.017 A 
ATOM     16  C   UNL d   1      -5.502  -0.327  -1.686  0.00  0.00     0.004 A 
ATOM     17  C   UNL d   1      -4.115  -0.243  -1.615  0.00  0.00     0.031 A 
ENDBRANCH   3  11
TORSDOF 3
