REMARK  5 active torsions:
REMARK  status: ('A' for Active; 'I' for Inactive)
REMARK       I    between atoms: N_2  and  C_1 
REMARK    1  A    between atoms: C_11  and  C_1 
REMARK    2  A    between atoms: N_4  and  N_2 
REMARK    3  A    between atoms: C_3  and  N_4 
REMARK    4  A    between atoms: C_14  and  C_11 
REMARK    5  A    between atoms: C_15  and  C_14 
ROOT
ATOM      1  C   UNL d   1       0.761   0.175   0.192  0.00  0.00     0.232 C 
ATOM      2  N   UNL d   1       0.203   1.432   0.368  0.00  0.00    -0.287 N 
ATOM      3  O   UNL d   1       0.061  -0.832   0.063  0.00  0.00    -0.272 OA
ATOM      4  H   UNL d   1       0.710   2.112   0.928  0.00  0.00     0.184 HD
ENDROOT
BRANCH   2   5
ATOM      5  N   UNL d   1      -1.194   1.433   0.603  0.00  0.00    -0.203 NA
ATOM      6  H   UNL d   1      -1.570   0.484   0.460  0.00  0.00     0.153 HD
BRANCH   5   7
ATOM      7  C   UNL d   1      -1.914   2.392  -0.154  0.00  0.00     0.030 A 
ATOM      8  C   UNL d   1      -3.263   2.142  -0.450  0.00  0.00     0.049 A 
ATOM      9  C   UNL d   1      -4.045   3.104  -1.095  0.00  0.00     0.037 A 
ATOM     10 CL   UNL d   1      -5.692   2.762  -1.455  0.00  0.00    -0.084 Cl
ATOM     11  C   UNL d   1      -3.510   4.341  -1.435  0.00  0.00     0.047 A 
ATOM     12  C   UNL d   1      -2.183   4.609  -1.116  0.00  0.00     0.037 A 
ATOM     13  C   UNL d   1      -1.393   3.652  -0.473  0.00  0.00     0.049 A 
ATOM     14 CL   UNL d   1      -1.513   6.150  -1.497  0.00  0.00    -0.084 Cl
ENDBRANCH   5   7
ENDBRANCH   2   5
BRANCH   1  15
ATOM     15  C   UNL d   1       2.269   0.106   0.028  0.00  0.00     0.108 C 
BRANCH  15  16
ATOM     16  C   UNL d   1       3.110   1.210   0.664  0.00  0.00     0.048 C 
BRANCH  16  17
ATOM     17  C   UNL d   1       3.109   1.333   2.172  0.00  0.00    -0.058 A 
ATOM     18  C   UNL d   1       2.796   0.273   3.031  0.00  0.00     0.007 A 
ATOM     19  C   UNL d   1       2.885   0.430   4.419  0.00  0.00     0.001 A 
ATOM     20  C   UNL d   1       3.295   1.644   4.964  0.00  0.00     0.000 A 
ATOM     21  C   UNL d   1       3.618   2.704   4.123  0.00  0.00     0.001 A 
ATOM     22  C   UNL d   1       3.529   2.549   2.739  0.00  0.00     0.007 A 
ENDBRANCH  16  17
ENDBRANCH  15  16
ENDBRANCH   1  15
TORSDOF 5
