REMARK  5 active torsions:
REMARK  status: ('A' for Active; 'I' for Inactive)
REMARK    1  A    between atoms: N_6  and  C_1 
REMARK    2  A    between atoms: C_7  and  N_6 
REMARK    3  A    between atoms: S_8  and  C_11 
REMARK    4  A    between atoms: C_12  and  S_8 
REMARK    5  A    between atoms: C_9  and  C_12 
ROOT
ATOM      1  C   UNL d   1       1.991  -3.493   1.126  0.00  0.00     0.047 A 
ATOM      2  C   UNL d   1       3.293  -3.159   1.587  0.00  0.00     0.027 A 
ATOM      3  C   UNL d   1       1.644  -4.855   1.079  0.00  0.00     0.030 A 
ATOM      4  C   UNL d   1       4.147  -4.175   2.052  0.00  0.00     0.021 A 
ATOM      5  C   UNL d   1       2.513  -5.854   1.521  0.00  0.00     0.002 A 
ATOM      6  C   UNL d   1       3.763  -5.514   2.014  0.00  0.00     0.002 A 
ENDROOT
BRANCH   1   7
ATOM      7  N   UNL d   1       1.112  -2.509   0.688  0.00  0.00    -0.358 N 
ATOM      8  H   UNL d   1       1.339  -1.554   0.944  0.00  0.00     0.162 HD
BRANCH   7   9
ATOM      9  C   UNL d   1      -0.084  -2.767  -0.073  0.00  0.00     0.266 A 
ATOM     10  O   UNL d   1       0.252  -3.282  -1.376  0.00  0.00    -0.287 OA
ATOM     11  C   UNL d   1      -0.109  -2.427  -2.374  0.00  0.00     0.296 A 
ATOM     12  O   UNL d   1       0.056  -2.589  -3.569  0.00  0.00    -0.259 OA
ATOM     13  C   UNL d   1      -0.805  -1.315  -1.744  0.00  0.00     0.050 A 
ATOM     14  C   UNL d   1      -0.821  -1.520  -0.380  0.00  0.00     0.007 A 
ATOM     15  C   UNL d   1      -1.420  -0.232  -2.347  0.00  0.00     0.018 A 
ATOM     16  C   UNL d   1      -1.506  -0.646   0.450  0.00  0.00     0.012 A 
ATOM     17  C   UNL d   1      -2.152   0.451  -0.131  0.00  0.00     0.001 A 
ATOM     18  C   UNL d   1      -2.101   0.664  -1.518  0.00  0.00     0.001 A 
ENDBRANCH   7   9
ENDBRANCH   1   7
BRANCH   2  19
ATOM     19  S   UNL d   1       3.858  -1.435   1.621  0.00  0.00    -0.123 SA
BRANCH  19  20
ATOM     20  C   UNL d   1       5.559  -1.614   0.968  0.00  0.00     0.119 C 
BRANCH  20  21
ATOM     21  C   UNL d   1       6.340  -0.318   0.930  0.00  0.00    -0.027 A 
ATOM     22  C   UNL d   1       6.374   0.522  -0.194  0.00  0.00     0.041 A 
ATOM     23 CL   UNL d   1       5.446   0.190  -1.612  0.00  0.00    -0.084 Cl
ATOM     24  C   UNL d   1       7.191   1.659  -0.210  0.00  0.00     0.024 A 
ATOM     25  C   UNL d   1       7.976   1.981   0.897  0.00  0.00     0.002 A 
ATOM     26  C   UNL d   1       7.933   1.175   2.030  0.00  0.00     0.001 A 
ATOM     27  C   UNL d   1       7.118   0.040   2.049  0.00  0.00     0.009 A 
ENDBRANCH  20  21
ENDBRANCH  19  20
ENDBRANCH   2  19
TORSDOF 5
