REMARK  2 active torsions:
REMARK  status: ('A' for Active; 'I' for Inactive)
REMARK    1  A    between atoms: N_2  and  S_1 
REMARK    2  A    between atoms: C_6  and  S_1 
ROOT
ATOM      1  N   UNL d   1       0.362  -1.690   0.102  0.00  0.00    -0.176 N 
ATOM      2  C   UNL d   1       1.012  -2.829  -0.383  0.00  0.00     0.087 A 
ATOM      3  C   UNL d   1       2.361  -2.949  -0.871  0.00  0.00     0.042 C 
ATOM      4  S   UNL d   1       3.334  -4.289  -0.383  0.00  0.00    -0.087 SA
ATOM      5  C   UNL d   1       3.050  -2.240  -1.842  0.00  0.00    -0.031 C 
ATOM      6  N   UNL d   1      -0.909  -1.971   0.537  0.00  0.00    -0.295 N 
ATOM      7  HN  UNL d   1      -1.618  -1.313   0.862  1.00  0.00     0.187 HD
ATOM      8  C   UNL d   1       4.468  -2.340  -1.586  0.00  0.00    -0.012 C 
ATOM      9  C   UNL d   1       4.763  -3.565  -0.990  0.00  0.00     0.016 C 
ATOM     10  C   UNL d   1       0.130  -3.872  -0.130  0.00  0.00     0.052 A 
ATOM     11  C   UNL d   1      -1.008  -3.291   0.440  0.00  0.00     0.111 A 
ATOM     12  C   UNL d   1       2.476  -1.460  -2.981  0.00  0.00     0.050 C 
ATOM     13  C   UNL d   1       5.548  -1.491  -1.924  0.00  0.00     0.013 C 
ATOM     14  C   UNL d   1       6.080  -4.050  -0.907  0.00  0.00     0.019 C 
ATOM     15  C   UNL d   1       6.863  -1.901  -1.692  0.00  0.00     0.001 C 
ATOM     16  C   UNL d   1       7.125  -3.190  -1.248  0.00  0.00     0.001 C 
ENDROOT
BRANCH   1  17
ATOM     17  S   UNL d   1       1.002  -0.071   0.162  0.00  0.00     0.285 S 
ATOM     18  O   UNL d   1       0.053   0.720   0.929  0.00  0.00    -0.198 OA
ATOM     19  O   UNL d   1       1.306   0.292  -1.202  0.00  0.00    -0.198 OA
BRANCH  17  20
ATOM     20  C   UNL d   1       2.489  -0.074   1.094  0.00  0.00     0.120 A 
ATOM     21  C   UNL d   1       2.597  -0.854   2.232  0.00  0.00     0.139 A 
ATOM     22  F   UNL d   1       1.627  -1.709   2.576  0.00  0.00    -0.204 F 
ATOM     23  C   UNL d   1       3.708  -0.733   3.059  0.00  0.00     0.044 A 
ATOM     24  C   UNL d   1       4.715   0.182   2.745  0.00  0.00     0.003 A 
ATOM     25  C   UNL d   1       4.614   0.964   1.593  0.00  0.00     0.002 A 
ATOM     26  C   UNL d   1       3.500   0.841   0.762  0.00  0.00     0.028 A 
ENDBRANCH  17  20
ENDBRANCH   1  17
TORSDOF 2
