REMARK  5 active torsions:
REMARK  status: ('A' for Active; 'I' for Inactive)
REMARK    1  A    between atoms: C_9  and  C_4 
REMARK    2  A    between atoms: O_11  and  N_7 
REMARK    3  A    between atoms: C_10  and  O_11 
REMARK    4  A    between atoms: C_13  and  C_10 
REMARK    5  A    between atoms: O_25  and  C_19 
ROOT
ATOM      1  S   UNL d   1       1.931  -1.462  -0.915  0.00  0.00    -0.042 SA
ATOM      2  C   UNL d   1       1.766  -0.068   0.149  0.00  0.00     0.099 C 
ATOM      3  C   UNL d   1       0.457  -1.395  -1.881  0.00  0.00     0.156 C 
ATOM      4  C   UNL d   1       0.870   1.109  -0.282  0.00  0.00     0.169 C 
ATOM      5  N   UNL d   1       0.578   1.017  -1.723  0.00  0.00    -0.222 NA
ATOM      6  N   UNL d   1      -0.166  -0.143  -2.034  0.00  0.00    -0.300 N 
ATOM      7  N   UNL d   1       2.441  -0.168   1.261  0.00  0.00    -0.253 N 
ATOM      8  HN  UNL d   1       3.060  -0.948   1.482  1.00  0.00     0.195 HD
ATOM      9  S   UNL d   1      -0.089  -2.822  -2.594  0.00  0.00    -0.051 SA
ATOM     10  C   UNL d   1      -1.296   0.059  -2.952  0.00  0.00     0.173 C 
ATOM     11  H   UNL d   1       0.062   1.855  -1.999  0.00  0.00     0.148 HD
ENDROOT
BRANCH   4  12
ATOM     12  C   UNL d   1       1.490   2.482  -0.042  0.00  0.00    -0.030 A 
ATOM     13  C   UNL d   1       2.772   2.777  -0.543  0.00  0.00     0.046 A 
ATOM     14  C   UNL d   1       3.358   4.021  -0.321  0.00  0.00     0.068 A 
ATOM     15  C   UNL d   1       2.651   4.990   0.394  0.00  0.00     0.037 A 
ATOM     16  C   UNL d   1       1.369   4.725   0.875  0.00  0.00     0.003 A 
ATOM     17  C   UNL d   1       0.785   3.478   0.652  0.00  0.00     0.009 A 
BRANCH  14  18
ATOM     18  O   UNL d   1       4.599   4.404  -0.747  0.00  0.00    -0.356 OA
ATOM     19  C   UNL d   1       5.371   3.418  -1.426  0.00  0.00     0.210 C 
ENDBRANCH  14  18
ENDBRANCH   4  12
BRANCH   7  20
ATOM     20  O   UNL d   1       2.220   0.918   2.116  0.00  0.00    -0.194 OA
BRANCH  20  21
ATOM     21  C   UNL d   1       3.175   1.002   3.091  0.00  0.00     0.315 C 
ATOM     22  O   UNL d   1       4.219   0.387   3.186  0.00  0.00    -0.257 OA
BRANCH  21  23
ATOM     23  C   UNL d   1       2.729   2.032   4.074  0.00  0.00     0.041 A 
ATOM     24  C   UNL d   1       3.652   2.565   4.984  0.00  0.00     0.019 A 
ATOM     25  C   UNL d   1       3.239   3.514   5.927  0.00  0.00     0.025 A 
ATOM     26  C   UNL d   1       1.907   3.927   5.963  0.00  0.00     0.034 A 
ATOM     27  C   UNL d   1       0.984   3.400   5.067  0.00  0.00     0.025 A 
ATOM     28 CL   UNL d   1       1.394   5.086   7.125  0.00  0.00    -0.084 Cl
ATOM     29  C   UNL d   1       1.390   2.451   4.130  0.00  0.00     0.019 A 
ENDBRANCH  21  23
ENDBRANCH  20  21
ENDBRANCH   7  20
TORSDOF 5
