REMARK  5 active torsions:
REMARK  status: ('A' for Active; 'I' for Inactive)
REMARK    1  A    between atoms: C_4  and  C_2 
REMARK    2  A    between atoms: C_13  and  C_4 
REMARK    3  A    between atoms: C_6  and  C_14 
REMARK    4  A    between atoms: O_15  and  C_6 
REMARK    5  A    between atoms: C_14  and  C_13 
ROOT
ATOM      1  C   UNL d   1      -0.032   0.704   0.027  0.00  0.00     0.103 A 
ATOM      2  C   UNL d   1      -2.450   0.748   0.049  0.00  0.00     0.013 A 
ATOM      3  C   UNL d   1      -1.226   1.423   0.080  0.00  0.00     0.054 A 
ATOM      4  C   UNL d   1      -0.049  -0.692  -0.027  0.00  0.00     0.102 A 
ATOM      5  O   UNL d   1       1.122   1.444   0.048  0.00  0.00    -0.346 OA
ATOM      6  O   UNL d   1       1.090  -1.454  -0.054  0.00  0.00    -0.346 OA
ATOM      7  C   UNL d   1      -2.464  -0.653  -0.012  0.00  0.00     0.018 A 
ATOM      8  C   UNL d   1      -1.265  -1.371  -0.060  0.00  0.00     0.040 A 
ATOM      9  C   UNL d   1       2.253   0.662  -0.349  0.00  0.00     0.202 C 
ATOM     10  C   UNL d   1       2.240  -0.693   0.339  0.00  0.00     0.202 C 
ENDROOT
BRANCH   2  11
ATOM     11  C   UNL d   1      -3.752   1.474   0.103  0.00  0.00     0.160 C 
ATOM     12  O   UNL d   1      -4.727   0.920   0.606  0.00  0.00    -0.292 OA
BRANCH  11  13
ATOM     13  C   UNL d   1      -3.859   2.844  -0.540  0.00  0.00     0.094 C 
BRANCH  13  14
ATOM     14  C   UNL d   1      -4.925   3.700   0.138  0.00  0.00     0.117 C 
BRANCH  14  15
ATOM     15  C   UNL d   1      -4.975   5.074  -0.482  0.00  0.00     0.139 C 
ATOM     16  O   UNL d   1      -4.271   5.454  -1.403  0.00  0.00    -0.650 OA
BRANCH  15  17
ATOM     17  O   UNL d   1      -5.895   5.875   0.103  0.00  0.00    -0.776 OA
ATOM     18  H   UNL d   1      -6.391   5.442   0.824  0.00  0.00     0.167 HD
ENDBRANCH  15  17
ENDBRANCH  14  15
ENDBRANCH  13  14
ENDBRANCH  11  13
ENDBRANCH   2  11
TORSDOF 5
