REMARK  9 active torsions:
REMARK  status: ('A' for Active; 'I' for Inactive)
REMARK    1  A    between atoms: C_11  and  C_1 
REMARK    2  A    between atoms: O_21  and  C_2 
REMARK    3  A    between atoms: C_3  and  C_5 
REMARK    4  A    between atoms: C_4  and  N_13 
REMARK    5  A    between atoms: N_12  and  C_4 
REMARK       I    between atoms: C_5  and  N_10 
REMARK    6  A    between atoms: O_23  and  C_6 
REMARK    7  A    between atoms: O_22  and  C_7 
REMARK    8  A    between atoms: N_10  and  N_12 
REMARK    9  A    between atoms: N_13  and  C_16 
ROOT
ATOM      1  C   UNL d   1       2.316  -1.510   1.791  0.00  0.00     0.270 C 
ATOM      2  N   UNL d   1       1.777  -2.748   1.486  0.00  0.00    -0.264 N 
ATOM      3  O   UNL d   1       1.755  -0.462   1.495  0.00  0.00    -0.266 OA
ATOM      4  H   UNL d   1       2.353  -3.585   1.436  0.00  0.00     0.190 HD
ENDROOT
BRANCH   2   5
ATOM      5  N   UNL d   1       0.584  -2.774   0.723  0.00  0.00    -0.273 N 
ATOM      6  H   UNL d   1       0.171  -1.847   0.587  0.00  0.00     0.189 HD
BRANCH   5   7
ATOM      7  C   UNL d   1       0.442  -3.671  -0.303  0.00  0.00     0.191 C 
ATOM      8  S   UNL d   1       1.564  -4.863  -0.681  0.00  0.00    -0.039 SA
BRANCH   7   9
ATOM      9  N   UNL d   1      -0.671  -3.582  -1.089  0.00  0.00    -0.332 N 
ATOM     10  H   UNL d   1      -0.584  -4.125  -1.941  0.00  0.00     0.168 HD
BRANCH   9  11
ATOM     11  C   UNL d   1      -1.960  -3.057  -0.852  0.00  0.00     0.035 A 
ATOM     12  C   UNL d   1      -2.450  -2.709   0.408  0.00  0.00     0.045 A 
ATOM     13  C   UNL d   1      -3.805  -2.356   0.577  0.00  0.00     0.050 A 
ATOM     14  C   UNL d   1      -4.646  -2.288  -0.545  0.00  0.00     0.016 A 
ATOM     15  C   UNL d   1      -4.156  -2.611  -1.806  0.00  0.00     0.003 A 
ATOM     16  C   UNL d   1      -2.828  -3.013  -1.952  0.00  0.00     0.029 A 
BRANCH  13  17
ATOM     17  C   UNL d   1      -4.389  -2.139   1.952  0.00  0.00     0.417 C 
ATOM     18  F   UNL d   1      -3.484  -2.273   2.961  0.00  0.00    -0.166 F 
ATOM     19  F   UNL d   1      -5.384  -3.030   2.228  0.00  0.00    -0.166 F 
ATOM     20  F   UNL d   1      -4.944  -0.905   2.104  0.00  0.00    -0.166 F 
ENDBRANCH  13  17
ENDBRANCH   9  11
ENDBRANCH   7   9
ENDBRANCH   5   7
ENDBRANCH   2   5
BRANCH   1  21
ATOM     21  C   UNL d   1       3.633  -1.503   2.496  0.00  0.00     0.039 A 
ATOM     22  C   UNL d   1       4.424  -0.355   2.417  0.00  0.00     0.057 A 
ATOM     23  C   UNL d   1       5.648  -0.259   3.097  0.00  0.00     0.105 A 
ATOM     24  C   UNL d   1       6.084  -1.335   3.892  0.00  0.00     0.135 A 
ATOM     25  C   UNL d   1       5.257  -2.479   4.021  0.00  0.00     0.105 A 
ATOM     26  C   UNL d   1       4.059  -2.569   3.292  0.00  0.00     0.057 A 
BRANCH  23  27
ATOM     27  O   UNL d   1       6.256   0.946   2.860  0.00  0.00    -0.353 OA
ATOM     28  C   UNL d   1       7.477   1.266   3.504  0.00  0.00     0.210 C 
ENDBRANCH  23  27
BRANCH  24  29
ATOM     29  O   UNL d   1       7.233  -1.184   4.626  0.00  0.00    -0.351 OA
ATOM     30  C   UNL d   1       8.174  -2.254   4.556  0.00  0.00     0.210 C 
ENDBRANCH  24  29
BRANCH  25  31
ATOM     31  O   UNL d   1       5.668  -3.458   4.896  0.00  0.00    -0.353 OA
ATOM     32  C   UNL d   1       4.697  -4.410   5.317  0.00  0.00     0.210 C 
ENDBRANCH  25  31
ENDBRANCH   1  21
TORSDOF 9
