REMARK  2 active torsions:
REMARK  status: ('A' for Active; 'I' for Inactive)
REMARK    1  A    between atoms: N_2  and  C_1 
REMARK    2  A    between atoms: C_7  and  N_2 
ROOT
ATOM      1  C   UNL d   1      -0.654   1.681  -0.008  0.00  0.00     0.047 A 
ATOM      2  N   UNL d   1      -1.031  -1.093  -0.036  0.00  0.00    -0.359 N 
ATOM      3  HN  UNL d   1      -1.173  -2.103  -0.039  1.00  0.00     0.166 HD
ATOM      4  C   UNL d   1       0.465   0.812  -0.027  0.00  0.00     0.017 A 
ATOM      5  C   UNL d   1       0.209  -0.578  -0.034  0.00  0.00     0.044 A 
ATOM      6  C   UNL d   1      -1.936   1.127  -0.028  0.00  0.00     0.055 A 
ATOM      7  C   UNL d   1      -2.084  -0.250  -0.033  0.00  0.00     0.007 A 
ATOM      8  C   UNL d   1       1.808   1.258  -0.006  0.00  0.00     0.016 A 
ATOM      9  C   UNL d   1       1.283  -1.456  -0.024  0.00  0.00     0.030 A 
ATOM     10  C   UNL d   1      -3.455  -0.857  -0.018  0.00  0.00     0.068 C 
ATOM     11  C   UNL d   1       2.869   0.354   0.003  0.00  0.00     0.001 A 
ATOM     12  C   UNL d   1       2.606  -1.009  -0.005  0.00  0.00     0.002 A 
ENDROOT
BRANCH   1  13
ATOM     13  N   UNL d   1      -0.475   3.087   0.032  0.00  0.00    -0.353 N 
ATOM     14  H   UNL d   1       0.065   3.433  -0.760  0.00  0.00     0.166 HD
BRANCH  13  15
ATOM     15  C   UNL d   1      -1.316   4.067   0.603  0.00  0.00     0.071 A 
ATOM     16  C   UNL d   1      -1.386   5.351   0.042  0.00  0.00     0.144 A 
ATOM     17  C   UNL d   1      -2.195   6.348   0.585  0.00  0.00     0.062 A 
ATOM     18  F   UNL d   1      -0.664   5.631  -1.055  0.00  0.00    -0.204 F 
ATOM     19  C   UNL d   1      -2.946   6.066   1.723  0.00  0.00     0.009 A 
ATOM     20  C   UNL d   1      -2.886   4.803   2.312  0.00  0.00     0.020 A 
ATOM     21  I   UNL d   1      -4.149   7.537   2.563  0.00  0.00    -0.044 I 
ATOM     22  C   UNL d   1      -2.070   3.814   1.755  0.00  0.00     0.034 A 
ENDBRANCH  13  15
ENDBRANCH   1  13
TORSDOF 2
