REMARK  5 active torsions:
REMARK  status: ('A' for Active; 'I' for Inactive)
REMARK    1  A    between atoms: N_5  and  C_1 
REMARK    2  A    between atoms: O_9  and  C_2 
REMARK    3  A    between atoms: C_10  and  N_5 
REMARK    4  A    between atoms: C_13  and  C_8 
REMARK    5  A    between atoms: C_16  and  O_9 
ROOT
ATOM      1  N   UNL d   1       1.573  -2.405  -0.001  0.00  0.00    -0.351 N 
ATOM      2  H   UNL d   1       1.171  -1.471  -0.127  0.00  0.00     0.166 HD
ENDROOT
BRANCH   1   3
ATOM      3  C   UNL d   1       0.966  -3.407  -0.616  0.00  0.00     0.125 A 
ATOM      4  C   UNL d   1       0.466  -4.648  -0.293  0.00  0.00     0.154 A 
ATOM      5  C   UNL d   1       0.062  -4.900  -1.693  0.00  0.00     0.259 A 
ATOM      6  C   UNL d   1       0.514  -3.526  -2.017  0.00  0.00     0.254 A 
ATOM      7  O   UNL d   1      -0.454  -5.765  -2.363  0.00  0.00    -0.281 OA
ATOM      8  O   UNL d   1       0.516  -2.872  -3.031  0.00  0.00    -0.281 OA
BRANCH   4   9
ATOM      9  O   UNL d   1       0.374  -5.366   0.770  0.00  0.00    -0.345 OA
BRANCH   9  10
ATOM     10  C   UNL d   1       0.408  -4.612   1.981  0.00  0.00     0.171 C 
ATOM     11  C   UNL d   1       0.327  -5.576   3.150  0.00  0.00     0.034 C 
ENDBRANCH   9  10
ENDBRANCH   4   9
ENDBRANCH   1   3
BRANCH   1  12
ATOM     12  C   UNL d   1       2.985  -2.190  -0.050  0.00  0.00     0.032 A 
ATOM     13  C   UNL d   1       3.810  -2.701  -1.058  0.00  0.00     0.030 A 
ATOM     14  C   UNL d   1       5.188  -2.449  -1.052  0.00  0.00     0.010 A 
ATOM     15  C   UNL d   1       5.777  -1.689  -0.032  0.00  0.00    -0.055 A 
ATOM     16  C   UNL d   1       4.949  -1.171   0.971  0.00  0.00     0.010 A 
ATOM     17  C   UNL d   1       3.569  -1.407   0.953  0.00  0.00     0.030 A 
BRANCH  15  18
ATOM     18  C   UNL d   1       7.272  -1.414  -0.004  0.00  0.00     0.010 C 
ATOM     19  C   UNL d   1       8.089  -2.707   0.085  0.00  0.00     0.015 C 
ATOM     20  C   UNL d   1       7.709  -0.580  -1.211  0.00  0.00     0.015 C 
ENDBRANCH  15  18
ENDBRANCH   1  12
TORSDOF 5
