REMARK  2 active torsions:
REMARK  status: ('A' for Active; 'I' for Inactive)
REMARK    1  A    between atoms: C_2  and  C_1 
REMARK    2  A    between atoms: C_11  and  C_2 
ROOT
ATOM      1  C   UNL d   1      -2.496  -0.967  -0.476  0.00  0.00     0.035 A 
ATOM      2  C   UNL d   1      -2.704   0.375  -0.122  0.00  0.00     0.028 A 
ATOM      3  C   UNL d   1      -1.193  -1.491  -0.437  0.00  0.00     0.056 A 
ATOM      4  C   UNL d   1      -1.617   1.177   0.251  0.00  0.00     0.059 A 
ATOM      5  C   UNL d   1      -0.118  -0.689  -0.061  0.00  0.00     0.103 A 
ATOM      6  C   UNL d   1      -0.325   0.651   0.261  0.00  0.00     0.103 A 
ATOM      7  O   UNL d   1       1.090  -1.313   0.077  0.00  0.00    -0.348 OA
ATOM      8  O   UNL d   1       0.676   1.482   0.682  0.00  0.00    -0.348 OA
ATOM      9 BR   UNL d   1      -4.422   1.184  -0.045  0.00  0.00    -0.050 Br
ATOM     10  C   UNL d   1       2.696   0.497  -0.287  0.00  0.00     0.053 C 
ATOM     11  C   UNL d   1       1.693   1.640  -0.311  0.00  0.00     0.178 C 
ATOM     12  C   UNL d   1       2.077  -0.791  -0.810  0.00  0.00     0.178 C 
ENDROOT
BRANCH   1  13
ATOM     13  C   UNL d   1      -3.590  -1.845  -0.972  0.00  0.00     0.193 C 
ATOM     14  O   UNL d   1      -4.380  -1.407  -1.802  0.00  0.00    -0.287 OA
BRANCH  13  15
ATOM     15  C   UNL d   1      -3.676  -3.278  -0.576  0.00  0.00     0.015 A 
ATOM     16  C   UNL d   1      -4.247  -4.178  -1.487  0.00  0.00     0.015 A 
ATOM     17  C   UNL d   1      -4.294  -5.542  -1.195  0.00  0.00     0.001 A 
ATOM     18  C   UNL d   1      -3.779  -6.012   0.011  0.00  0.00     0.000 A 
ATOM     19  C   UNL d   1      -3.236  -5.120   0.936  0.00  0.00     0.001 A 
ATOM     20  C   UNL d   1      -3.193  -3.752   0.650  0.00  0.00     0.015 A 
ENDBRANCH  13  15
ENDBRANCH   1  13
TORSDOF 2
