REMARK  3 active torsions:
REMARK  status: ('A' for Active; 'I' for Inactive)
REMARK    1  A    between atoms: C_2  and  N_1 
REMARK       I    between atoms: C_3  and  N_1 
REMARK    2  A    between atoms: C_6  and  C_3 
REMARK    3  A    between atoms: C_16  and  C_10 
ROOT
ATOM      1  N   UNL d   1       3.146   0.472  -1.086  0.00  0.00    -0.322 N 
ATOM      2  C   UNL d   1       2.541   0.040   0.071  0.00  0.00     0.245 C 
ATOM      3  O   UNL d   1       1.482   0.438   0.540  0.00  0.00    -0.268 OA
ATOM      4  H   UNL d   1       3.893  -0.098  -1.470  0.00  0.00     0.169 HD
ENDROOT
BRANCH   2   5
ATOM      5  C   UNL d   1       3.310  -1.046   0.731  0.00  0.00     0.075 C 
ATOM      6  C   UNL d   1       2.674  -1.899   1.542  0.00  0.00     0.017 C 
BRANCH   6   7
ATOM      7  C   UNL d   1       3.410  -2.880   2.336  0.00  0.00    -0.033 A 
ATOM      8  C   UNL d   1       3.681  -2.584   3.679  0.00  0.00     0.051 A 
ATOM      9  C   UNL d   1       4.399  -3.506   4.409  0.00  0.00     0.105 A 
ATOM     10  O   UNL d   1       4.756  -3.378   5.713  0.00  0.00    -0.323 OA
ATOM     11  C   UNL d   1       4.842  -4.683   3.853  0.00  0.00     0.105 A 
ATOM     12  C   UNL d   1       5.470  -4.613   5.921  0.00  0.00     0.352 A 
ATOM     13  O   UNL d   1       5.531  -5.446   4.743  0.00  0.00    -0.323 OA
ATOM     14  C   UNL d   1       4.588  -5.006   2.537  0.00  0.00     0.040 A 
ATOM     15  C   UNL d   1       3.864  -4.088   1.768  0.00  0.00     0.014 A 
ENDBRANCH   6   7
ENDBRANCH   2   5
BRANCH   1  16
ATOM     16  C   UNL d   1       2.716   1.539  -1.909  0.00  0.00     0.057 A 
ATOM     17  C   UNL d   1       3.206   1.625  -3.226  0.00  0.00     0.062 A 
ATOM     18  C   UNL d   1       2.796   2.650  -4.081  0.00  0.00     0.050 A 
ATOM     19 CL   UNL d   1       4.308   0.440  -3.842  0.00  0.00    -0.082 Cl
ATOM     20  C   UNL d   1       1.911   3.617  -3.614  0.00  0.00     0.035 A 
ATOM     21  C   UNL d   1       1.440   3.568  -2.304  0.00  0.00     0.026 A 
ATOM     22 CL   UNL d   1       1.398   4.883  -4.659  0.00  0.00    -0.084 Cl
ATOM     23  C   UNL d   1       1.839   2.530  -1.456  0.00  0.00     0.033 A 
ENDBRANCH   1  16
TORSDOF 3
