REMARK  9 active torsions:
REMARK  status: ('A' for Active; 'I' for Inactive)
REMARK    1  A    between atoms: C_9  and  N_1 
REMARK    2  A    between atoms: N_13  and  C_7 
REMARK    3  A    between atoms: S_15  and  C_7 
REMARK    4  A    between atoms: C_8  and  C_9 
REMARK       I    between atoms: N_12  and  C_8 
REMARK    5  A    between atoms: N_10  and  N_12 
REMARK    6  A    between atoms: C_23  and  N_13 
REMARK    7  A    between atoms: C_14  and  C_18 
REMARK    8  A    between atoms: C_16  and  C_14 
REMARK    9  A    between atoms: C_18  and  S_15 
ROOT
ATOM      1  C   UNL d   1       2.858  -0.382   0.469  0.00  0.00     0.160 C 
ATOM      2  N   UNL d   1       1.788  -0.599   1.198  0.00  0.00    -0.277 N 
ATOM      3  HN  UNL d   1       0.858  -0.285   0.921  1.00  0.00     0.189 HD
ENDROOT
BRANCH   2   4
ATOM      4  N   UNL d   1       2.030  -1.298   2.384  0.00  0.00    -0.267 N 
ATOM      5  C   UNL d   1       1.445  -0.880   3.577  0.00  0.00     0.254 C 
ATOM      6  O   UNL d   1       0.866   0.197   3.716  0.00  0.00    -0.270 OA
ATOM      7  H   UNL d   1       2.131  -2.303   2.252  0.00  0.00     0.190 HD
BRANCH   5   8
ATOM      8  C   UNL d   1       1.726  -1.803   4.787  0.00  0.00     0.234 C 
BRANCH   8   9
ATOM      9  N   UNL d   1       0.967  -3.082   4.791  0.00  0.00    -0.336 N 
ATOM     10  C   UNL d   1      -0.433  -2.897   4.668  0.00  0.00     0.052 A 
ATOM     11  C   UNL d   1      -1.141  -3.369   3.546  0.00  0.00     0.032 A 
ATOM     12  C   UNL d   1      -1.146  -2.304   5.723  0.00  0.00     0.031 A 
ATOM     13  C   UNL d   1      -2.533  -3.232   3.494  0.00  0.00     0.021 A 
ATOM     14  S   UNL d   1      -0.293  -4.109   2.151  0.00  0.00    -0.086 SA
ATOM     15  C   UNL d   1      -3.227  -2.651   4.558  0.00  0.00     0.002 A 
ATOM     16  C   UNL d   1      -2.534  -2.187   5.672  0.00  0.00     0.002 A 
ATOM     17  C   UNL d   1       1.199  -4.695   2.941  0.00  0.00     0.032 A 
ATOM     18  C   UNL d   1       1.644  -4.152   4.160  0.00  0.00     0.052 A 
ATOM     19  C   UNL d   1       1.943  -5.703   2.316  0.00  0.00     0.021 A 
ATOM     20  C   UNL d   1       2.751  -4.736   4.798  0.00  0.00     0.031 A 
ATOM     21  C   UNL d   1       3.448  -5.787   4.201  0.00  0.00     0.002 A 
ATOM     22  C   UNL d   1       3.066  -6.245   2.944  0.00  0.00     0.002 A 
ENDBRANCH   8   9
ENDBRANCH   5   8
ENDBRANCH   2   4
BRANCH   1  23
ATOM     23  N   UNL d   1       4.102  -0.719   0.952  0.00  0.00    -0.336 N 
ATOM     24  H   UNL d   1       4.009  -1.023   1.910  0.00  0.00     0.168 HD
BRANCH  23  25
ATOM     25  C   UNL d   1       5.452  -0.479   0.625  0.00  0.00     0.034 A 
ATOM     26  C   UNL d   1       5.927   0.273  -0.446  0.00  0.00     0.029 A 
ATOM     27  C   UNL d   1       7.303   0.413  -0.689  0.00  0.00     0.002 A 
ATOM     28  C   UNL d   1       8.235  -0.217   0.136  0.00  0.00     0.000 A 
ATOM     29  C   UNL d   1       7.789  -0.985   1.201  0.00  0.00     0.002 A 
ATOM     30  C   UNL d   1       6.418  -1.118   1.434  0.00  0.00     0.029 A 
ENDBRANCH  23  25
ENDBRANCH   1  23
BRANCH   1  31
ATOM     31  S   UNL d   1       2.667   0.320  -1.124  0.00  0.00    -0.085 SA
BRANCH  31  32
ATOM     32  C   UNL d   1       0.874   0.552  -1.349  0.00  0.00     0.166 C 
BRANCH  32  33
ATOM     33  C   UNL d   1       0.579   1.143  -2.739  0.00  0.00     0.169 C 
ATOM     34  O   UNL d   1       1.451   1.416  -3.566  0.00  0.00    -0.291 OA
BRANCH  33  35
ATOM     35  C   UNL d   1      -0.843   1.434  -3.136  0.00  0.00     0.011 A 
ATOM     36  C   UNL d   1      -1.071   2.305  -4.219  0.00  0.00     0.017 A 
ATOM     37  C   UNL d   1      -2.370   2.599  -4.649  0.00  0.00     0.025 A 
ATOM     38  C   UNL d   1      -3.456   2.014  -4.004  0.00  0.00     0.034 A 
ATOM     39  C   UNL d   1      -3.248   1.142  -2.936  0.00  0.00     0.025 A 
ATOM     40 CL   UNL d   1      -5.057   2.364  -4.532  0.00  0.00    -0.084 Cl
ATOM     41  C   UNL d   1      -1.945   0.853  -2.497  0.00  0.00     0.017 A 
ENDBRANCH  33  35
ENDBRANCH  32  33
ENDBRANCH  31  32
ENDBRANCH   1  31
TORSDOF 9
