REMARK  4 active torsions:
REMARK  status: ('A' for Active; 'I' for Inactive)
REMARK    1  A    between atoms: S_2  and  C_1 
REMARK    2  A    between atoms: C_9  and  S_2 
REMARK    3  A    between atoms: C_7  and  C_4 
REMARK       I    between atoms: N_8  and  C_7 
REMARK    4  A    between atoms: C_15  and  N_8 
ROOT
ATOM      1  C   UNL d   1       0.737   1.315   0.154  0.00  0.00     0.078 A 
ATOM      2  C   UNL d   1       1.306  -0.014   0.065  0.00  0.00    -0.017 A 
ATOM      3  C   UNL d   1       0.314  -0.999   0.180  0.00  0.00     0.080 A 
ATOM      4  S   UNL d   1      -1.238  -0.317   0.406  0.00  0.00    -0.094 SA
ATOM      5  C   UNL d   1      -0.630   1.272   0.340  0.00  0.00     0.075 A 
ATOM      6  C   UNL d   1       2.759  -0.358  -0.116  0.00  0.00     0.051 C 
ENDROOT
BRANCH   3   7
ATOM      7  C   UNL d   1       0.511  -2.458   0.127  0.00  0.00     0.263 C 
ATOM      8  N   UNL d   1      -0.629  -3.253   0.171  0.00  0.00    -0.322 N 
ATOM      9  H   UNL d   1      -1.517  -2.770   0.126  0.00  0.00     0.169 HD
ATOM     10  O   UNL d   1       1.642  -2.923  -0.004  0.00  0.00    -0.267 OA
BRANCH   8  11
ATOM     11  C   UNL d   1      -0.649  -4.668   0.063  0.00  0.00     0.037 A 
ATOM     12  C   UNL d   1       0.488  -5.461   0.248  0.00  0.00     0.069 A 
ATOM     13  C   UNL d   1       0.455  -6.829  -0.015  0.00  0.00     0.104 A 
ATOM     14  O   UNL d   1       1.643  -7.503   0.111  0.00  0.00    -0.346 OA
ATOM     15  C   UNL d   1      -0.733  -7.443  -0.406  0.00  0.00     0.102 A 
ATOM     16  C   UNL d   1       1.616  -8.711  -0.653  0.00  0.00     0.202 C 
ATOM     17  C   UNL d   1       0.356  -9.500  -0.337  0.00  0.00     0.202 C 
ATOM     18  O   UNL d   1      -0.826  -8.777  -0.709  0.00  0.00    -0.346 OA
ATOM     19  C   UNL d   1      -1.891  -6.677  -0.528  0.00  0.00     0.042 A 
ATOM     20  C   UNL d   1      -1.853  -5.295  -0.286  0.00  0.00     0.032 A 
ENDBRANCH   8  11
ENDBRANCH   3   7
BRANCH   1  21
ATOM     21  S   UNL d   1       1.581   2.846   0.063  0.00  0.00     0.207 S 
ATOM     22  O   UNL d   1       0.684   3.793   0.700  0.00  0.00    -0.217 OA
ATOM     23  O   UNL d   1       2.915   2.614   0.572  0.00  0.00    -0.217 OA
BRANCH  21  24
ATOM     24  C   UNL d   1       1.676   3.256  -1.664  0.00  0.00     0.064 A 
ATOM     25  C   UNL d   1       0.703   4.092  -2.226  0.00  0.00     0.025 A 
ATOM     26  C   UNL d   1       0.793   4.456  -3.572  0.00  0.00     0.025 A 
ATOM     27  C   UNL d   1       1.858   3.997  -4.345  0.00  0.00     0.034 A 
ATOM     28  C   UNL d   1       2.847   3.190  -3.779  0.00  0.00     0.025 A 
ATOM     29 CL   UNL d   1       1.957   4.434  -6.006  0.00  0.00    -0.084 Cl
ATOM     30  C   UNL d   1       2.763   2.823  -2.431  0.00  0.00     0.025 A 
ENDBRANCH  21  24
ENDBRANCH   1  21
TORSDOF 4
