REMARK  4 active torsions:
REMARK  status: ('A' for Active; 'I' for Inactive)
REMARK       I    between atoms: N_2  and  C_1 
REMARK       I    between atoms: N_4  and  C_1 
REMARK    1  A    between atoms: C_5  and  N_2 
REMARK    2  A    between atoms: C_9  and  N_4 
REMARK    3  A    between atoms: O_15  and  C_8 
REMARK    4  A    between atoms: C_16  and  C_10 
ROOT
ATOM      1  N   UNL d   1       3.990  -0.833  -6.786  0.00  0.00    -0.197 NA
ATOM      2  C   UNL d   1       3.128  -1.545  -6.482  0.00  0.00     0.063 C 
ATOM      3  C   UNL d   1       2.029  -2.459  -6.118  0.00  0.00     0.162 C 
ENDROOT
BRANCH   3   4
ATOM      4  C   UNL d   1       1.418  -2.107  -4.783  0.00  0.00    -0.045 A 
ATOM      5  C   UNL d   1       0.367  -1.185  -4.691  0.00  0.00     0.010 A 
ATOM      6  C   UNL d   1      -0.090  -0.746  -3.443  0.00  0.00     0.030 A 
ATOM      7  C   UNL d   1       0.514  -1.205  -2.270  0.00  0.00     0.036 A 
ATOM      8  C   UNL d   1       1.499  -2.193  -2.360  0.00  0.00     0.030 A 
ATOM      9  C   UNL d   1       1.955  -2.635  -3.604  0.00  0.00     0.010 A 
BRANCH   7  10
ATOM     10  N   UNL d   1       0.120  -0.621  -1.045  0.00  0.00    -0.309 N 
ATOM     11  C   UNL d   1       0.902  -0.599   0.096  0.00  0.00     0.325 C 
ATOM     12  N   UNL d   1       0.241   0.013   1.153  0.00  0.00    -0.306 N 
ATOM     13  O   UNL d   1       2.034  -1.060   0.184  0.00  0.00    -0.247 OA
ATOM     14  H   UNL d   1      -0.757  -0.129   1.183  0.00  0.00     0.171 HD
ATOM     15  H   UNL d   1      -0.592   0.093  -1.090  0.00  0.00     0.170 HD
BRANCH  12  16
ATOM     16  C   UNL d   1       0.888   0.202   2.396  0.00  0.00     0.069 A 
ATOM     17  C   UNL d   1       0.260  -0.101   3.611  0.00  0.00     0.095 A 
ATOM     18  C   UNL d   1       0.939   0.126   4.815  0.00  0.00     0.039 A 
ATOM     19  C   UNL d   1       2.231   0.659   4.816  0.00  0.00     0.003 A 
ATOM     20  C   UNL d   1       2.847   0.986   3.612  0.00  0.00     0.002 A 
ATOM     21  C   UNL d   1       2.179   0.754   2.411  0.00  0.00     0.032 A 
BRANCH  17  22
ATOM     22  O   UNL d   1      -1.023  -0.573   3.740  0.00  0.00    -0.354 OA
ATOM     23  C   UNL d   1      -1.300  -1.776   3.024  0.00  0.00     0.210 C 
ENDBRANCH  17  22
ENDBRANCH  12  16
ENDBRANCH   7  10
ENDBRANCH   3   4
TORSDOF 4
