REMARK  7 active torsions:
REMARK  status: ('A' for Active; 'I' for Inactive)
REMARK    1  A    between atoms: N_3  and  C_1 
REMARK    2  A    between atoms: N_4  and  C_1 
REMARK    3  A    between atoms: C_2  and  N_3 
REMARK    4  A    between atoms: C_5  and  N_4 
REMARK    5  A    between atoms: C_8  and  C_5 
REMARK    6  A    between atoms: C_10  and  C_5 
REMARK    7  A    between atoms: C_12  and  C_8 
ROOT
ATOM      1  N   UNL d   1       0.604   0.630   1.012  0.00  0.00    -0.358 N 
ATOM      2  H   UNL d   1       0.975  -0.199   1.455  0.00  0.00     0.162 HD
ENDROOT
BRANCH   1   3
ATOM      3  C   UNL d   1       1.532   1.629   0.838  0.00  0.00     0.172 C 
ATOM      4  S   UNL d   1       1.228   3.238   0.511  0.00  0.00    -0.041 SA
BRANCH   3   5
ATOM      5  N   UNL d   1       2.825   1.252   1.101  0.00  0.00    -0.332 N 
ATOM      6  H   UNL d   1       3.334   1.916   1.677  0.00  0.00     0.168 HD
BRANCH   5   7
ATOM      7  C   UNL d   1       3.453   0.006   0.870  0.00  0.00     0.062 A 
ATOM      8  C   UNL d   1       4.370  -0.468   1.828  0.00  0.00     0.061 A 
ATOM      9 CL   UNL d   1       4.632   0.380   3.314  0.00  0.00    -0.082 Cl
ATOM     10  C   UNL d   1       5.064  -1.664   1.629  0.00  0.00     0.026 A 
ATOM     11  C   UNL d   1       4.873  -2.388   0.456  0.00  0.00     0.002 A 
ATOM     12  C   UNL d   1       3.994  -1.913  -0.516  0.00  0.00     0.009 A 
ATOM     13  C   UNL d   1       3.289  -0.706  -0.336  0.00  0.00    -0.034 A 
ATOM     14  C   UNL d   1       2.461  -0.211  -1.493  0.00  0.00     0.050 C 
ENDBRANCH   5   7
ENDBRANCH   3   5
ENDBRANCH   1   3
BRANCH   1  15
ATOM     15  C   UNL d   1      -0.860   0.779   1.101  0.00  0.00     0.121 C 
BRANCH  15  16
ATOM     16  C   UNL d   1      -1.578  -0.600   1.114  0.00  0.00     0.068 C 
BRANCH  16  17
ATOM     17  C   UNL d   1      -1.302  -1.481   2.317  0.00  0.00    -0.056 A 
ATOM     18  C   UNL d   1      -2.076  -1.362   3.480  0.00  0.00     0.007 A 
ATOM     19  C   UNL d   1      -1.811  -2.149   4.601  0.00  0.00     0.001 A 
ATOM     20  C   UNL d   1      -0.770  -3.076   4.571  0.00  0.00     0.000 A 
ATOM     21  C   UNL d   1       0.000  -3.213   3.418  0.00  0.00     0.001 A 
ATOM     22  C   UNL d   1      -0.264  -2.425   2.296  0.00  0.00     0.007 A 
ENDBRANCH  16  17
ENDBRANCH  15  16
BRANCH  15  23
ATOM     23  C   UNL d   1      -1.321   1.663   2.256  0.00  0.00    -0.035 A 
ATOM     24  C   UNL d   1      -2.508   2.405   2.124  0.00  0.00     0.009 A 
ATOM     25  C   UNL d   1      -2.938   3.251   3.148  0.00  0.00     0.001 A 
ATOM     26  C   UNL d   1      -2.190   3.369   4.317  0.00  0.00     0.000 A 
ATOM     27  C   UNL d   1      -1.021   2.627   4.471  0.00  0.00     0.001 A 
ATOM     28  C   UNL d   1      -0.595   1.772   3.454  0.00  0.00     0.009 A 
ENDBRANCH  15  23
ENDBRANCH   1  15
TORSDOF 7
