REMARK  6 active torsions:
REMARK  status: ('A' for Active; 'I' for Inactive)
REMARK    1  A    between atoms: O_10  and  C_1 
REMARK    2  A    between atoms: C_4  and  C_2 
REMARK    3  A    between atoms: C_3  and  C_6 
REMARK       I    between atoms: N_8  and  C_4 
REMARK    4  A    between atoms: C_5  and  N_7 
REMARK    5  A    between atoms: N_7  and  N_8 
REMARK    6  A    between atoms: C_20  and  O_10 
ROOT
ATOM      1  C   UNL d   1       1.654   2.524   1.123  0.00  0.00     0.270 C 
ATOM      2  N   UNL d   1       0.883   3.674   0.994  0.00  0.00    -0.282 N 
ATOM      3  O   UNL d   1       2.751   2.493   1.672  0.00  0.00    -0.266 OA
ATOM      4  H   UNL d   1      -0.086   3.610   0.691  0.00  0.00     0.184 HD
ENDROOT
BRANCH   1   5
ATOM      5  C   UNL d   1       1.111   1.279   0.526  0.00  0.00     0.084 A 
ATOM      6  C   UNL d   1      -0.239   0.945   0.510  0.00  0.00     0.164 A 
ATOM      7  N   UNL d   1      -0.712  -0.215  -0.017  0.00  0.00    -0.346 N 
ATOM      8  C   UNL d   1       0.186  -1.097  -0.496  0.00  0.00     0.090 A 
ATOM      9  HN  UNL d   1      -1.713  -0.411  -0.049  1.00  0.00     0.167 HD
ATOM     10  C   UNL d   1       1.549  -0.868  -0.500  0.00  0.00     0.018 A 
ATOM     11  C   UNL d   1       2.016   0.339   0.018  0.00  0.00     0.023 A 
BRANCH   6  12
ATOM     12  O   UNL d   1      -1.157   1.839   1.053  0.00  0.00    -0.293 OA
BRANCH  12  13
ATOM     13  C   UNL d   1      -2.359   1.299   1.452  0.00  0.00     0.077 A 
ATOM     14  C   UNL d   1      -2.428   0.410   2.528  0.00  0.00     0.037 A 
ATOM     15  C   UNL d   1      -3.660  -0.123   2.904  0.00  0.00     0.003 A 
ATOM     16  C   UNL d   1      -4.819   0.249   2.220  0.00  0.00     0.000 A 
ATOM     17  C   UNL d   1      -4.749   1.164   1.169  0.00  0.00     0.003 A 
ATOM     18  C   UNL d   1      -3.517   1.699   0.787  0.00  0.00     0.037 A 
ENDBRANCH  12  13
ENDBRANCH   6  12
ENDBRANCH   1   5
BRANCH   2  19
ATOM     19  N   UNL d   1       1.129   4.743   1.875  0.00  0.00    -0.201 NA
ATOM     20  H   UNL d   1       1.234   4.445   2.852  0.00  0.00     0.153 HD
BRANCH  19  21
ATOM     21  C   UNL d   1       2.185   5.641   1.545  0.00  0.00     0.050 A 
ATOM     22  C   UNL d   1       2.758   5.709   0.265  0.00  0.00     0.043 A 
ATOM     23  C   UNL d   1       3.768   6.643  -0.039  0.00  0.00     0.049 A 
ATOM     24  C   UNL d   1       4.175   7.557   0.943  0.00  0.00     0.018 A 
ATOM     25  C   UNL d   1       3.590   7.537   2.208  0.00  0.00     0.026 A 
ATOM     26  C   UNL d   1       2.608   6.589   2.502  0.00  0.00     0.056 A 
ATOM     27 CL   UNL d   1       1.920   6.608   4.094  0.00  0.00    -0.082 Cl
BRANCH  23  28
ATOM     28  C   UNL d   1       4.429   6.664  -1.396  0.00  0.00     0.417 C 
ATOM     29  F   UNL d   1       3.882   5.792  -2.288  0.00  0.00    -0.166 F 
ATOM     30  F   UNL d   1       4.362   7.891  -1.987  0.00  0.00    -0.166 F 
ATOM     31  F   UNL d   1       5.754   6.355  -1.333  0.00  0.00    -0.166 F 
ENDBRANCH  23  28
ENDBRANCH  19  21
ENDBRANCH   2  19
TORSDOF 6
