REMARK  2 active torsions:
REMARK  status: ('A' for Active; 'I' for Inactive)
REMARK    1  A    between atoms: N_2  and  C_1 
REMARK    2  A    between atoms: C_5  and  C_3 
REMARK       I    between atoms: N_6  and  C_5 
ROOT
ATOM      1  C   UNL d   1       0.057   0.457  -1.737  0.00  0.00     0.215 A 
ATOM      2  C   UNL d   1      -0.240  -1.469  -0.736  0.00  0.00     0.145 A 
ATOM      3  O   UNL d   1      -0.858  -0.285  -1.058  0.00  0.00    -0.283 OA
ATOM      4  C   UNL d   1       1.259  -0.197  -1.852  0.00  0.00     0.066 A 
ATOM      5  C   UNL d   1       1.070  -1.436  -1.191  0.00  0.00     0.047 A 
ENDROOT
BRANCH   2   6
ATOM      6  C   UNL d   1      -0.917  -2.466   0.077  0.00  0.00     0.277 C 
ATOM      7  N   UNL d   1      -2.306  -2.546   0.046  0.00  0.00    -0.342 N 
ATOM      8  C   UNL d   1      -3.001  -3.364   1.041  0.00  0.00     0.152 C 
ATOM      9  C   UNL d   1      -3.198  -2.038  -1.003  0.00  0.00     0.152 C 
ATOM     10  C   UNL d   1      -4.188  -2.581   1.613  0.00  0.00     0.187 C 
ATOM     11  O   UNL d   1      -5.072  -2.142   0.567  0.00  0.00    -0.388 OA
ATOM     12  C   UNL d   1      -4.380  -1.297  -0.371  0.00  0.00     0.187 C 
ATOM     13  O   UNL d   1      -0.264  -3.214   0.808  0.00  0.00    -0.265 OA
ENDBRANCH   2   6
BRANCH   1  14
ATOM     14  N   UNL d   1      -0.372   1.746  -2.181  0.00  0.00    -0.090 N 
ATOM     15  O   UNL d   1       0.485   2.450  -2.730  0.00  0.00    -0.530 OA
ATOM     16  O   UNL d   1      -1.556   2.053  -1.994  0.00  0.00    -0.530 OA
ENDBRANCH   1  14
TORSDOF 2
