REMARK  9 active torsions:
REMARK  status: ('A' for Active; 'I' for Inactive)
REMARK    1  A    between atoms: C_2  and  C_1 
REMARK       I    between atoms: N_5  and  C_2 
REMARK       I    between atoms: C_3  and  N_9 
REMARK       I    between atoms: N_8  and  C_3 
REMARK    2  A    between atoms: C_4  and  N_8 
REMARK    3  A    between atoms: N_9  and  N_5 
REMARK    4  A    between atoms: C_6  and  C_20 
REMARK    5  A    between atoms: C_25  and  C_7 
REMARK    6  A    between atoms: C_26  and  C_25 
REMARK    7  A    between atoms: C_29  and  C_26 
REMARK    8  A    between atoms: C_27  and  C_28 
REMARK    9  A    between atoms: C_28  and  C_29 
ROOT
ATOM      1  C   UNL d   1       3.097   2.205  -0.146  0.00  0.00     0.271 C 
ATOM      2  N   UNL d   1       2.692   3.423   0.358  0.00  0.00    -0.262 N 
ATOM      3  O   UNL d   1       4.215   2.035  -0.624  0.00  0.00    -0.266 OA
ATOM      4  H   UNL d   1       1.784   3.620   0.773  0.00  0.00     0.190 HD
ENDROOT
BRANCH   1   5
ATOM      5  C   UNL d   1       2.134   1.080  -0.069  0.00  0.00     0.050 A 
ATOM      6  C   UNL d   1       0.740   1.230  -0.078  0.00  0.00     0.040 A 
ATOM      7  C   UNL d   1      -0.059   0.083  -0.042  0.00  0.00     0.034 A 
ATOM      8  C   UNL d   1       0.557  -1.160   0.025  0.00  0.00     0.108 A 
ATOM      9  N   UNL d   1       1.902  -1.333   0.043  0.00  0.00    -0.373 N 
ATOM     10  C   UNL d   1       2.652  -0.207  -0.017  0.00  0.00     0.104 A 
ATOM     11  HN  UNL d   1       2.325  -2.260   0.099  1.00  0.00     0.164 HD
BRANCH   7  12
ATOM     12  C   UNL d   1      -1.485   0.148  -0.076  0.00  0.00    -0.066 C 
ATOM     13  C   UNL d   1      -2.688   0.105  -0.087  0.00  0.00    -0.101 C 
BRANCH  13  14
ATOM     14  C   UNL d   1      -4.150   0.002  -0.050  0.00  0.00     0.094 C 
BRANCH  14  15
ATOM     15  C   UNL d   1      -4.729   1.037   0.910  0.00  0.00     0.012 C 
BRANCH  15  16
ATOM     16  C   UNL d   1      -6.248   0.923   1.012  0.00  0.00     0.001 C 
BRANCH  16  17
ATOM     17  C   UNL d   1      -6.803   1.974   1.972  0.00  0.00    -0.000 C 
BRANCH  17  18
ATOM     18  C   UNL d   1      -8.321   1.878   2.086  0.00  0.00    -0.005 C 
ATOM     19  C   UNL d   1      -8.868   2.928   3.038  0.00  0.00     0.005 C 
ENDBRANCH  17  18
ENDBRANCH  16  17
ENDBRANCH  15  16
ENDBRANCH  14  15
ENDBRANCH  13  14
ENDBRANCH   7  12
ENDBRANCH   1   5
BRANCH   2  20
ATOM     20  N   UNL d   1       3.593   4.511   0.290  0.00  0.00    -0.248 N 
ATOM     21  C   UNL d   1       3.018   5.772   0.222  0.00  0.00     0.339 C 
ATOM     22  N   UNL d   1       3.958   6.777   0.095  0.00  0.00    -0.308 N 
ATOM     23  O   UNL d   1       1.800   5.913   0.308  0.00  0.00    -0.245 OA
ATOM     24  H   UNL d   1       4.918   6.480  -0.013  0.00  0.00     0.170 HD
ATOM     25  H   UNL d   1       4.429   4.316  -0.259  0.00  0.00     0.192 HD
BRANCH  22  26
ATOM     26  C   UNL d   1       3.695   8.163  -0.011  0.00  0.00     0.039 A 
ATOM     27  C   UNL d   1       2.438   8.726   0.229  0.00  0.00     0.053 A 
ATOM     28  C   UNL d   1       2.217  10.087   0.009  0.00  0.00     0.037 A 
ATOM     29 CL   UNL d   1       0.650  10.749   0.279  0.00  0.00    -0.084 Cl
ATOM     30  C   UNL d   1       3.242  10.911  -0.439  0.00  0.00     0.048 A 
ATOM     31  C   UNL d   1       4.507  10.364  -0.630  0.00  0.00     0.037 A 
ATOM     32  C   UNL d   1       4.744   9.004  -0.404  0.00  0.00     0.053 A 
ATOM     33 CL   UNL d   1       5.789  11.374  -1.180  0.00  0.00    -0.084 Cl
ENDBRANCH  22  26
ENDBRANCH   2  20
TORSDOF 9
