REMARK  5 active torsions:
REMARK  status: ('A' for Active; 'I' for Inactive)
REMARK    1  A    between atoms: C_4  and  C_1 
REMARK    2  A    between atoms: C_9  and  N_2 
REMARK    3  A    between atoms: O_11  and  C_5 
REMARK    4  A    between atoms: C_14  and  C_9 
REMARK    5  A    between atoms: O_13  and  C_14 
ROOT
ATOM      1  C   UNL d   1      -3.400  -2.330   0.001  0.00  0.00     0.021 A 
ATOM      2  C   UNL d   1      -4.223  -3.469   0.011  0.00  0.00     0.077 A 
ATOM      3  C   UNL d   1      -4.016  -1.069  -0.007  0.00  0.00     0.040 A 
ATOM      4  C   UNL d   1      -5.615  -3.355   0.004  0.00  0.00     0.039 A 
ATOM      5  C   UNL d   1      -5.409  -0.960  -0.007  0.00  0.00     0.035 A 
ATOM      6  C   UNL d   1      -6.212  -2.095  -0.004  0.00  0.00     0.026 A 
ATOM      7 CL   UNL d   1      -6.136   0.601  -0.010  0.00  0.00    -0.084 Cl
ENDROOT
BRANCH   1   8
ATOM      8  C   UNL d   1      -1.893  -2.450  -0.003  0.00  0.00     0.014 C 
ATOM      9  N   UNL d   1      -1.355  -3.635  -0.009  0.00  0.00    -0.390 N 
ATOM     10  HN  UNL d   1      -1.928  -4.479  -0.012  1.00  0.00     0.159 HD
ATOM     11  C   UNL d   1      -1.103  -1.149  -0.000  0.00  0.00     0.068 C 
BRANCH   9  12
ATOM     12  C   UNL d   1       0.121  -3.705  -0.012  0.00  0.00     0.150 C 
BRANCH  12  13
ATOM     13  C   UNL d   1       0.588  -5.167  -0.035  0.00  0.00     0.131 C 
ATOM     14  C   UNL d   1       2.109  -5.239  -0.027  0.00  0.00     0.041 C 
BRANCH  13  15
ATOM     15  O   UNL d   1       0.120  -5.803  -1.224  0.00  0.00    -0.394 OA
ATOM     16  H   UNL d   1      -0.818  -5.547  -1.308  0.00  0.00     0.210 HD
ENDBRANCH  13  15
ENDBRANCH  12  13
ENDBRANCH   9  12
ENDBRANCH   1   8
BRANCH   2  17
ATOM     17  O   UNL d   1      -3.727  -4.744   0.032  0.00  0.00    -0.360 OA
ATOM     18  H   UNL d   1      -2.746  -4.661   0.071  0.00  0.00     0.217 HD
ENDBRANCH   2  17
TORSDOF 5
