REMARK  3 active torsions:
REMARK  status: ('A' for Active; 'I' for Inactive)
REMARK    1  A    between atoms: C_2  and  C_1 
REMARK    2  A    between atoms: O_4  and  C_2 
REMARK    3  A    between atoms: C_9  and  O_4 
ROOT
ATOM      1  C   UNL d   1      -2.514  -2.182  -0.139  0.00  0.00     0.300 C 
ATOM      2  O   UNL d   1      -3.595  -1.632  -0.271  0.00  0.00    -0.259 OA
ENDROOT
BRANCH   1   3
ATOM      3  C   UNL d   1      -1.225  -1.451  -0.225  0.00  0.00     0.061 A 
ATOM      4  C   UNL d   1      -0.094  -1.747   0.553  0.00  0.00     0.051 A 
ATOM      5  C   UNL d   1       1.081  -1.001   0.393  0.00  0.00     0.048 A 
ATOM      6 CL   UNL d   1      -0.071  -2.958   1.786  0.00  0.00    -0.083 Cl
ATOM      7  C   UNL d   1       1.123   0.051  -0.519  0.00  0.00     0.035 A 
ATOM      8  C   UNL d   1      -0.002   0.379  -1.270  0.00  0.00     0.025 A 
ATOM      9 CL   UNL d   1       2.570   0.962  -0.706  0.00  0.00    -0.084 Cl
ATOM     10  C   UNL d   1      -1.174  -0.368  -1.122  0.00  0.00     0.021 A 
ENDBRANCH   1   3
BRANCH   1  11
ATOM     11  O   UNL d   1      -2.271  -3.540  -0.020  0.00  0.00    -0.275 OA
BRANCH  11  12
ATOM     12  C   UNL d   1      -3.266  -4.509   0.246  0.00  0.00     0.079 A 
ATOM     13  C   UNL d   1      -2.897  -5.830  -0.029  0.00  0.00     0.040 A 
ATOM     14  C   UNL d   1      -3.769  -6.871   0.283  0.00  0.00     0.045 A 
ATOM     15  C   UNL d   1      -4.996  -6.583   0.871  0.00  0.00     0.116 A 
ATOM     16  C   UNL d   1      -5.368  -5.270   1.147  0.00  0.00     0.045 A 
ATOM     17  F   UNL d   1      -5.827  -7.584   1.189  0.00  0.00    -0.206 F 
ATOM     18  C   UNL d   1      -4.496  -4.222   0.838  0.00  0.00     0.040 A 
ENDBRANCH  11  12
ENDBRANCH   1  11
TORSDOF 3
