REMARK  8 active torsions:
REMARK  status: ('A' for Active; 'I' for Inactive)
REMARK    1  A    between atoms: O_5  and  C_1 
REMARK    2  A    between atoms: C_2  and  C_16 
REMARK       I    between atoms: N_7  and  C_2 
REMARK       I    between atoms: C_3  and  N_4 
REMARK    3  A    between atoms: C_21  and  C_3 
REMARK    4  A    between atoms: N_4  and  C_13 
REMARK    5  A    between atoms: C_14  and  O_5 
REMARK    6  A    between atoms: N_15  and  N_7 
REMARK    7  A    between atoms: S_12  and  C_21 
REMARK    8  A    between atoms: C_16  and  S_12 
ROOT
ATOM      1  C   UNL d   1       3.530  -2.896   5.959  0.00  0.00     0.231 C 
ATOM      2  N   UNL d   1       2.269  -2.367   5.756  0.00  0.00    -0.327 N 
ATOM      3  O   UNL d   1       4.488  -2.806   5.191  0.00  0.00    -0.272 OA
ATOM      4  H   UNL d   1       1.591  -2.494   6.498  0.00  0.00     0.169 HD
ENDROOT
BRANCH   2   5
ATOM      5  C   UNL d   1       1.824  -1.648   4.626  0.00  0.00     0.034 A 
ATOM      6  C   UNL d   1       2.577  -1.473   3.464  0.00  0.00     0.032 A 
ATOM      7  C   UNL d   1       2.081  -0.717   2.392  0.00  0.00     0.039 A 
ATOM      8  C   UNL d   1       0.833  -0.107   2.481  0.00  0.00     0.078 A 
ATOM      9  C   UNL d   1       0.058  -0.322   3.623  0.00  0.00     0.039 A 
ATOM     10  C   UNL d   1       0.547  -1.088   4.686  0.00  0.00     0.032 A 
BRANCH   8  11
ATOM     11  O   UNL d   1       0.261   0.708   1.550  0.00  0.00    -0.255 OA
BRANCH  11  12
ATOM     12  C   UNL d   1       1.087   1.205   0.510  0.00  0.00     0.530 C 
ATOM     13  F   UNL d   1       2.265   1.672   0.977  0.00  0.00    -0.144 F 
ATOM     14  F   UNL d   1       0.447   2.230  -0.096  0.00  0.00    -0.144 F 
ATOM     15  F   UNL d   1       1.317   0.246  -0.411  0.00  0.00    -0.144 F 
ENDBRANCH  11  12
ENDBRANCH   8  11
ENDBRANCH   2   5
BRANCH   1  16
ATOM     16  C   UNL d   1       3.659  -3.700   7.242  0.00  0.00     0.177 C 
BRANCH  16  17
ATOM     17  S   UNL d   1       3.163  -5.432   6.964  0.00  0.00    -0.150 SA
BRANCH  17  18
ATOM     18  C   UNL d   1       4.276  -5.891   5.585  0.00  0.00     0.178 C 
BRANCH  18  19
ATOM     19  C   UNL d   1       5.741  -5.789   5.972  0.00  0.00     0.240 C 
ATOM     20  O   UNL d   1       6.294  -6.590   6.724  0.00  0.00    -0.271 OA
ATOM     21  N   UNL d   1       6.412  -4.712   5.404  0.00  0.00    -0.293 N 
ATOM     22  H   UNL d   1       5.884  -3.950   4.957  0.00  0.00     0.183 HD
BRANCH  21  23
ATOM     23  N   UNL d   1       7.776  -4.503   5.713  0.00  0.00    -0.247 NA
ATOM     24  H   UNL d   1       8.161  -5.418   5.987  0.00  0.00     0.143 HD
ATOM     25  H   UNL d   1       7.822  -3.953   6.574  0.00  0.00     0.143 HD
ENDBRANCH  21  23
ENDBRANCH  18  19
ENDBRANCH  17  18
ENDBRANCH  16  17
ENDBRANCH   1  16
TORSDOF 8
