REMARK  3 active torsions:
REMARK  status: ('A' for Active; 'I' for Inactive)
REMARK    1  A    between atoms: C_2  and  C_1 
REMARK       I    between atoms: N_5  and  C_2 
REMARK    2  A    between atoms: N_6  and  N_5 
REMARK    3  A    between atoms: C_9  and  N_6 
ROOT
ATOM      1  C   UNL d   1       0.407   2.323   0.702  0.00  0.00     0.274 C 
ATOM      2  N   UNL d   1       1.081   3.443   0.224  0.00  0.00    -0.282 N 
ATOM      3  O   UNL d   1       0.975   1.226   0.687  0.00  0.00    -0.266 OA
ATOM      4  H   UNL d   1       0.618   4.332   0.055  0.00  0.00     0.184 HD
ENDROOT
BRANCH   2   5
ATOM      5  N   UNL d   1       2.311   3.219  -0.431  0.00  0.00    -0.200 NA
ATOM      6  H   UNL d   1       2.630   2.259  -0.244  0.00  0.00     0.153 HD
BRANCH   5   7
ATOM      7  C   UNL d   1       3.318   4.171  -0.124  0.00  0.00     0.066 A 
ATOM      8  C   UNL d   1       3.065   5.543   0.043  0.00  0.00     0.139 A 
ATOM      9  F   UNL d   1       1.805   6.009   0.015  0.00  0.00    -0.204 F 
ATOM     10  C   UNL d   1       4.101   6.462   0.222  0.00  0.00     0.044 A 
ATOM     11  C   UNL d   1       5.423   6.025   0.219  0.00  0.00     0.003 A 
ATOM     12  C   UNL d   1       5.703   4.674   0.029  0.00  0.00     0.002 A 
ATOM     13  C   UNL d   1       4.660   3.759  -0.154  0.00  0.00     0.028 A 
ENDBRANCH   5   7
ENDBRANCH   2   5
BRANCH   1  14
ATOM     14  C   UNL d   1      -0.947   2.528   1.198  0.00  0.00     0.095 A 
ATOM     15  C   UNL d   1      -1.853   1.572   1.627  0.00  0.00     0.057 A 
ATOM     16  C   UNL d   1      -3.074   2.139   2.094  0.00  0.00     0.032 A 
ATOM     17 CL   UNL d   1      -1.628  -0.129   1.642  0.00  0.00    -0.083 Cl
ATOM     18  C   UNL d   1      -3.077   3.511   2.001  0.00  0.00     0.052 A 
ATOM     19  S   UNL d   1      -1.620   4.106   1.339  0.00  0.00    -0.095 SA
ENDBRANCH   1  14
TORSDOF 3
