REMARK  5 active torsions:
REMARK  status: ('A' for Active; 'I' for Inactive)
REMARK    1  A    between atoms: N_2  and  C_1 
REMARK    2  A    between atoms: S_5  and  C_3 
REMARK    3  A    between atoms: C_7  and  S_5 
REMARK    4  A    between atoms: C_10  and  C_6 
REMARK    5  A    between atoms: N_15  and  C_12 
ROOT
ATOM      1  C   UNL d   1       1.391  -0.126  -0.243  0.00  0.00     0.120 A 
ATOM      2  C   UNL d   1       0.633  -1.302  -0.173  0.00  0.00     0.038 A 
ATOM      3  C   UNL d   1       0.800   1.146  -0.131  0.00  0.00     0.052 A 
ATOM      4  C   UNL d   1      -0.584   1.269   0.049  0.00  0.00     0.012 A 
ATOM      5  C   UNL d   1      -0.755  -1.159  -0.026  0.00  0.00     0.022 A 
ATOM      6  C   UNL d   1      -1.358   0.106   0.079  0.00  0.00     0.016 A 
ENDROOT
BRANCH   2   7
ATOM      7  S   UNL d   1       1.285  -2.968  -0.128  0.00  0.00    -0.086 SA
BRANCH   7   8
ATOM      8  C   UNL d   1       1.264  -3.430  -1.857  0.00  0.00     0.026 A 
ATOM      9  C   UNL d   1       2.431  -3.367  -2.646  0.00  0.00     0.023 A 
ATOM     10  C   UNL d   1       2.367  -3.807  -3.975  0.00  0.00     0.024 A 
ATOM     11  C   UNL d   1       1.167  -4.260  -4.528  0.00  0.00     0.002 A 
ATOM     12  C   UNL d   1       0.018  -4.313  -3.747  0.00  0.00     0.001 A 
ATOM     13  C   UNL d   1       0.066  -3.904  -2.414  0.00  0.00     0.021 A 
BRANCH   9  14
ATOM     14  N   UNL d   1       3.693  -3.107  -2.088  0.00  0.00    -0.302 NA
ATOM     15  H   UNL d   1       3.675  -2.655  -1.176  0.00  0.00     0.124 HD
ATOM     16  H   UNL d   1       4.365  -2.689  -2.724  0.00  0.00     0.124 HD
ENDBRANCH   9  14
ENDBRANCH   7   8
ENDBRANCH   2   7
BRANCH   1  17
ATOM     17  N   UNL d   1       2.827  -0.160  -0.449  0.00  0.00    -0.114 N 
ATOM     18  O   UNL d   1       3.514  -0.814   0.349  0.00  0.00    -0.532 OA
ATOM     19  O   UNL d   1       3.271   0.492  -1.404  0.00  0.00    -0.532 OA
ENDBRANCH   1  17
BRANCH   4  20
ATOM     20  C   UNL d   1      -1.143   2.646   0.226  0.00  0.00     0.155 C 
ATOM     21  O   UNL d   1      -0.370   3.605   0.202  0.00  0.00    -0.293 OA
ATOM     22  C   UNL d   1      -2.613   2.873   0.470  0.00  0.00     0.096 C 
ENDBRANCH   4  20
TORSDOF 5
