REMARK  3 active torsions:
REMARK  status: ('A' for Active; 'I' for Inactive)
REMARK    1  A    between atoms: C_8  and  N_1 
REMARK    2  A    between atoms: C_4  and  C_3 
REMARK    3  A    between atoms: O_9  and  C_5 
ROOT
ATOM      1  N   UNL d   1       0.991   0.012   0.213  0.00  0.00    -0.364 N 
ATOM      2  HN  UNL d   1       0.525  -0.794   0.628  1.00  0.00     0.165 HD
ATOM      3  C   UNL d   1       0.294   1.028  -0.193  0.00  0.00     0.102 C 
ENDROOT
BRANCH   1   4
ATOM      4  C   UNL d   1       2.394   0.022   0.080  0.00  0.00     0.047 A 
ATOM      5  C   UNL d   1       3.062  -1.190  -0.111  0.00  0.00     0.117 A 
ATOM      6  N   UNL d   1       4.408  -1.335  -0.206  0.00  0.00    -0.373 N 
ATOM      7  C   UNL d   1       5.140  -0.209  -0.101  0.00  0.00     0.088 A 
ATOM      8  HN  UNL d   1       4.841  -2.247  -0.349  1.00  0.00     0.164 HD
ATOM      9  C   UNL d   1       4.588   1.048   0.089  0.00  0.00     0.019 A 
ATOM     10  C   UNL d   1       3.200   1.159   0.187  0.00  0.00     0.032 A 
ENDBRANCH   1   4
BRANCH   3  11
ATOM     11  C   UNL d   1      -1.181   1.036  -0.085  0.00  0.00     0.012 A 
ATOM     12  C   UNL d   1      -1.902  -0.047   0.432  0.00  0.00     0.077 A 
ATOM     13  C   UNL d   1      -3.292   0.000   0.499  0.00  0.00     0.037 A 
ATOM     14  C   UNL d   1      -3.972   1.130   0.040  0.00  0.00     0.003 A 
ATOM     15  C   UNL d   1      -3.260   2.212  -0.478  0.00  0.00     0.001 A 
ATOM     16  C   UNL d   1      -1.865   2.170  -0.537  0.00  0.00     0.015 A 
BRANCH  12  17
ATOM     17  O   UNL d   1      -1.305  -1.194   0.878  0.00  0.00    -0.360 OA
ATOM     18  H   UNL d   1      -0.337  -1.084   0.748  0.00  0.00     0.217 HD
ENDBRANCH  12  17
ENDBRANCH   3  11
TORSDOF 3
