REMARK  6 active torsions:
REMARK  status: ('A' for Active; 'I' for Inactive)
REMARK    1  A    between atoms: N_2  and  S_1 
REMARK    2  A    between atoms: C_3  and  S_1 
REMARK    3  A    between atoms: N_4  and  N_2 
REMARK    4  A    between atoms: C_11  and  C_10 
REMARK    5  A    between atoms: O_20  and  C_12 
REMARK    6  A    between atoms: C_21  and  O_20 
ROOT
ATOM      1  N   UNL d   1       0.408   0.129   1.657  0.00  0.00    -0.223 N 
ATOM      2  H   UNL d   1      -0.292   0.850   1.832  0.00  0.00     0.200 HD
ENDROOT
BRANCH   1   3
ATOM      3  S   UNL d   1       0.979   0.055   0.063  0.00  0.00     0.276 S 
ATOM      4  O   UNL d   1       2.427   0.020   0.074  0.00  0.00    -0.199 OA
ATOM      5  O   UNL d   1       0.261   1.079  -0.671  0.00  0.00    -0.199 OA
BRANCH   3   6
ATOM      6  C   UNL d   1       0.386  -1.527  -0.493  0.00  0.00     0.081 A 
ATOM      7  C   UNL d   1      -0.849  -1.616  -1.139  0.00  0.00     0.026 A 
ATOM      8  C   UNL d   1      -1.266  -2.842  -1.665  0.00  0.00     0.008 A 
ATOM      9  C   UNL d   1      -0.449  -3.977  -1.560  0.00  0.00    -0.062 A 
ATOM     10  C   UNL d   1       0.784  -3.876  -0.902  0.00  0.00     0.008 A 
ATOM     11  C   UNL d   1      -0.891  -5.272  -2.176  0.00  0.00     0.048 C 
ATOM     12  C   UNL d   1       1.206  -2.654  -0.372  0.00  0.00     0.026 A 
ENDBRANCH   3   6
ENDBRANCH   1   3
BRANCH   1  13
ATOM     13  N   UNL d   1       0.820  -0.842   2.608  0.00  0.00    -0.302 N 
ATOM     14  C   UNL d   1       0.385  -0.682   3.814  0.00  0.00     0.119 C 
ATOM     15  HN  UNL d   1       1.426  -1.622   2.354  1.00  0.00     0.186 HD
BRANCH  14  16
ATOM     16  C   UNL d   1       0.753  -1.650   4.866  0.00  0.00    -0.019 A 
ATOM     17  C   UNL d   1       1.563  -2.741   4.540  0.00  0.00     0.015 A 
ATOM     18  C   UNL d   1       1.910  -3.675   5.515  0.00  0.00     0.037 A 
ATOM     19  C   UNL d   1       1.447  -3.524   6.821  0.00  0.00     0.068 A 
ATOM     20  C   UNL d   1       0.656  -2.417   7.149  0.00  0.00     0.037 A 
ATOM     21  C   UNL d   1       0.298  -1.480   6.171  0.00  0.00     0.015 A 
BRANCH  19  22
ATOM     22  O   UNL d   1       1.737  -4.372   7.856  0.00  0.00    -0.352 OA
BRANCH  22  23
ATOM     23  C   UNL d   1       2.056  -5.715   7.483  0.00  0.00     0.171 C 
ATOM     24  C   UNL d   1       2.310  -6.515   8.746  0.00  0.00     0.034 C 
ENDBRANCH  22  23
ENDBRANCH  19  22
ENDBRANCH  14  16
ENDBRANCH   1  13
TORSDOF 6
