REMARK  6 active torsions:
REMARK  status: ('A' for Active; 'I' for Inactive)
REMARK    1  A    between atoms: N_4  and  C_1 
REMARK       I    between atoms: C_2  and  N_3 
REMARK    2  A    between atoms: C_9  and  C_2 
REMARK    3  A    between atoms: N_3  and  N_4 
REMARK    4  A    between atoms: C_15  and  N_10 
REMARK    5  A    between atoms: C_16  and  C_15 
REMARK    6  A    between atoms: C_17  and  C_16 
ROOT
ATOM      1  C   UNL d   1      -1.484   2.579  -1.243  0.00  0.00     0.270 C 
ATOM      2  N   UNL d   1      -0.959   1.518  -0.539  0.00  0.00    -0.264 N 
ATOM      3  O   UNL d   1      -0.893   3.150  -2.156  0.00  0.00    -0.266 OA
ATOM      4  H   UNL d   1      -1.480   0.972   0.143  0.00  0.00     0.190 HD
ENDROOT
BRANCH   2   5
ATOM      5  N   UNL d   1       0.399   1.220  -0.678  0.00  0.00    -0.274 N 
ATOM      6  H   UNL d   1       0.879   1.706  -1.433  0.00  0.00     0.189 HD
BRANCH   5   7
ATOM      7  C   UNL d   1       0.940   0.103  -0.101  0.00  0.00     0.186 C 
ATOM      8  S   UNL d   1       0.072  -1.078   0.707  0.00  0.00    -0.040 SA
ATOM      9  N   UNL d   1       2.299  -0.003  -0.130  0.00  0.00    -0.366 N 
ATOM     10  H   UNL d   1       2.643  -0.831   0.345  0.00  0.00     0.161 HD
BRANCH   9  11
ATOM     11  C   UNL d   1       3.257   1.082  -0.297  0.00  0.00     0.122 C 
BRANCH  11  12
ATOM     12  C   UNL d   1       3.228   2.090   0.859  0.00  0.00     0.019 C 
BRANCH  12  13
ATOM     13  C   UNL d   1       3.506   1.446   2.220  0.00  0.00    -0.003 C 
ATOM     14  C   UNL d   1       3.496   2.471   3.344  0.00  0.00     0.005 C 
ENDBRANCH  12  13
ENDBRANCH  11  12
ENDBRANCH   9  11
ENDBRANCH   5   7
ENDBRANCH   2   5
BRANCH   1  15
ATOM     15  C   UNL d   1      -2.837   3.016  -0.826  0.00  0.00     0.036 A 
ATOM     16  C   UNL d   1      -3.209   3.012   0.520  0.00  0.00     0.034 A 
ATOM     17  C   UNL d   1      -4.471   3.478   0.841  0.00  0.00     0.088 A 
ATOM     18  N   UNL d   1      -5.356   3.929  -0.073  0.00  0.00    -0.375 N 
ATOM     19  C   UNL d   1      -4.962   3.934  -1.365  0.00  0.00     0.088 A 
ATOM     20  HN  UNL d   1      -6.284   4.252   0.201  1.00  0.00     0.164 HD
ATOM     21  C   UNL d   1      -3.720   3.500  -1.790  0.00  0.00     0.034 A 
ENDBRANCH   1  15
TORSDOF 6
