REMARK  7 active torsions:
REMARK  status: ('A' for Active; 'I' for Inactive)
REMARK    1  A    between atoms: N_2  and  C_1 
REMARK    2  A    between atoms: N_5  and  C_1 
REMARK    3  A    between atoms: C_7  and  N_2 
REMARK    4  A    between atoms: CA_12  and  N_5 
REMARK    5  A    between atoms: C_15  and  CA_12 
REMARK    6  A    between atoms: C_16  and  CA_12 
REMARK    7  A    between atoms: O_13  and  C_15 
ROOT
ATOM      1  C   UNL d   1       1.140   0.042  -0.087  0.00  0.00     0.172 C 
ATOM      2  S   UNL d   1       2.776   0.232   0.201  0.00  0.00    -0.041 SA
ENDROOT
BRANCH   1   3
ATOM      3  N   UNL d   1       0.511  -1.029  -0.668  0.00  0.00    -0.333 N 
ATOM      4  H   UNL d   1      -0.343  -1.294  -0.185  0.00  0.00     0.168 HD
BRANCH   3   5
ATOM      5  C   UNL d   1       1.019  -1.935  -1.620  0.00  0.00     0.035 A 
ATOM      6  C   UNL d   1       0.493  -3.226  -1.656  0.00  0.00     0.053 A 
ATOM      7  C   UNL d   1       0.941  -4.147  -2.612  0.00  0.00     0.042 A 
ATOM      8 CL   UNL d   1       0.286  -5.746  -2.561  0.00  0.00    -0.084 Cl
ATOM      9  C   UNL d   1       1.892  -3.778  -3.576  0.00  0.00    -0.040 A 
ATOM     10  C   UNL d   1       2.391  -2.470  -3.549  0.00  0.00     0.011 A 
ATOM     11  C   UNL d   1       2.381  -4.735  -4.625  0.00  0.00     0.050 C 
ATOM     12  C   UNL d   1       1.959  -1.558  -2.581  0.00  0.00     0.030 A 
ENDBRANCH   3   5
ENDBRANCH   1   3
BRANCH   1  13
ATOM     13  N   UNL d   1       0.311   1.039   0.345  0.00  0.00    -0.360 N 
ATOM     14  H   UNL d   1       0.790   1.782   0.839  0.00  0.00     0.162 HD
BRANCH  13  15
ATOM     15  CA  UNL d   1      -1.063   1.302  -0.110  0.00  0.00     0.107 C 
BRANCH  15  16
ATOM     16  C   UNL d   1      -2.061   1.052   1.032  0.00  0.00     0.189 C 
BRANCH  16  17
ATOM     17  O   UNL d   1      -2.095  -0.342   1.348  0.00  0.00    -0.399 OA
ATOM     18  H   UNL d   1      -2.628  -0.430   2.159  0.00  0.00     0.209 HD
ENDBRANCH  16  17
ENDBRANCH  15  16
BRANCH  15  19
ATOM     19  C   UNL d   1      -1.166   2.744  -0.631  0.00  0.00     0.023 C 
ATOM     20  C   UNL d   1      -0.282   2.984  -1.850  0.00  0.00     0.007 C 
ENDBRANCH  15  19
ENDBRANCH  13  15
ENDBRANCH   1  13
TORSDOF 7
