REMARK  6 active torsions:
REMARK  status: ('A' for Active; 'I' for Inactive)
REMARK    1  A    between atoms: C_13  and  C_1 
REMARK    2  A    between atoms: C_10  and  N_6 
REMARK    3  A    between atoms: C_8  and  C_9 
REMARK    4  A    between atoms: C_14  and  C_10 
REMARK    5  A    between atoms: O_22  and  C_14 
REMARK    6  A    between atoms: C_23  and  O_22 
ROOT
ATOM      1  C   UNL d   1      -0.097  -1.306   0.063  0.00  0.00     0.161 C 
ATOM      2  N   UNL d   1       1.133  -0.817   0.334  0.00  0.00    -0.267 N 
ATOM      3  HN  UNL d   1       1.966  -1.292   0.682  1.00  0.00     0.190 HD
ATOM      4  N   UNL d   1      -0.993  -0.308  -0.253  0.00  0.00    -0.265 N 
ATOM      5  HN  UNL d   1      -1.987  -0.426  -0.449  1.00  0.00     0.186 HD
ATOM      6  N   UNL d   1       0.943   0.476   0.015  0.00  0.00    -0.207 N 
ATOM      7  N   UNL d   1      -0.320   0.834  -0.255  0.00  0.00    -0.002 NA
ENDROOT
BRANCH   1   8
ATOM      8  C   UNL d   1      -0.422  -2.732   0.035  0.00  0.00     0.079 A 
ATOM      9  N   UNL d   1      -1.682  -3.084  -0.334  0.00  0.00    -0.362 N 
ATOM     10  C   UNL d   1      -1.956  -4.405  -0.454  0.00  0.00     0.104 A 
ATOM     11  HN  UNL d   1      -2.396  -2.379  -0.513  1.00  0.00     0.165 HD
ATOM     12  C   UNL d   1      -1.033  -5.414  -0.219  0.00  0.00     0.063 A 
ATOM     13  C   UNL d   1       0.249  -5.034   0.184  0.00  0.00     0.020 A 
ATOM     14  C   UNL d   1       0.559  -3.682   0.313  0.00  0.00     0.034 A 
BRANCH  12  15
ATOM     15  C   UNL d   1      -1.394  -6.854  -0.412  0.00  0.00     0.418 C 
ATOM     16  F   UNL d   1      -2.684  -7.050  -0.797  0.00  0.00    -0.166 F 
ATOM     17  F   UNL d   1      -0.625  -7.457  -1.360  0.00  0.00    -0.166 F 
ATOM     18  F   UNL d   1      -1.227  -7.588   0.723  0.00  0.00    -0.166 F 
ENDBRANCH  12  15
ENDBRANCH   1   8
BRANCH   6  19
ATOM     19  C   UNL d   1       2.038   1.411  -0.048  0.00  0.00     0.278 C 
BRANCH  19  20
ATOM     20  C   UNL d   1       2.830   1.188  -1.302  0.00  0.00     0.280 C 
ATOM     21  O   UNL d   1       2.525   0.465  -2.239  0.00  0.00    -0.263 OA
BRANCH  20  22
ATOM     22  O   UNL d   1       3.990   1.914  -1.238  0.00  0.00    -0.320 OA
BRANCH  22  23
ATOM     23  C   UNL d   1       4.945   1.640  -2.274  0.00  0.00     0.174 C 
ATOM     24  C   UNL d   1       5.869   0.532  -1.803  0.00  0.00     0.034 C 
ENDBRANCH  22  23
ENDBRANCH  20  22
ENDBRANCH  19  20
ENDBRANCH   6  19
TORSDOF 6
