REMARK  5 active torsions:
REMARK  status: ('A' for Active; 'I' for Inactive)
REMARK    1  A    between atoms: C_7  and  C_1 
REMARK    2  A    between atoms: C_15  and  C_5 
REMARK    3  A    between atoms: O_16  and  C_15 
REMARK    4  A    between atoms: C_17  and  O_16 
REMARK    5  A    between atoms: O_24  and  C_18 
ROOT
ATOM      1  C   UNL d   1       0.046   1.280   0.058  0.00  0.00     0.032 A 
ATOM      2  S   UNL d   1      -1.044  -0.047   0.172  0.00  0.00    -0.073 SA
ATOM      3  N   UNL d   1       1.461  -0.596  -0.051  0.00  0.00    -0.360 N 
ATOM      4  HN  UNL d   1       2.341  -1.105  -0.135  1.00  0.00     0.165 HD
ATOM      5  C   UNL d   1       0.270  -1.149   0.057  0.00  0.00     0.075 A 
ATOM      6  C   UNL d   1       1.334   0.780  -0.033  0.00  0.00     0.108 A 
ENDROOT
BRANCH   1   7
ATOM      7  C   UNL d   1      -0.423   2.671   0.099  0.00  0.00    -0.015 A 
ATOM      8  C   UNL d   1      -1.649   3.058  -0.465  0.00  0.00     0.052 A 
ATOM      9  C   UNL d   1      -2.081   4.389  -0.422  0.00  0.00     0.102 A 
ATOM     10  O   UNL d   1      -3.280   4.627  -1.049  0.00  0.00    -0.348 OA
ATOM     11  C   UNL d   1      -1.307   5.352   0.235  0.00  0.00     0.102 A 
ATOM     12  C   UNL d   1      -3.328   5.890  -1.713  0.00  0.00     0.178 C 
ATOM     13  C   UNL d   1      -3.750   6.996  -0.761  0.00  0.00     0.053 C 
ATOM     14  C   UNL d   1      -3.048   6.884   0.581  0.00  0.00     0.178 C 
ATOM     15  O   UNL d   1      -1.646   6.669   0.410  0.00  0.00    -0.348 OA
ATOM     16  C   UNL d   1      -0.068   4.989   0.763  0.00  0.00     0.040 A 
ATOM     17  C   UNL d   1       0.370   3.662   0.696  0.00  0.00     0.016 A 
ENDBRANCH   1   7
BRANCH   5  18
ATOM     18  C   UNL d   1       0.010  -2.626   0.021  0.00  0.00     0.240 C 
BRANCH  18  19
ATOM     19  O   UNL d   1      -0.037  -3.095   1.370  0.00  0.00    -0.345 OA
BRANCH  19  20
ATOM     20  C   UNL d   1      -0.239  -4.439   1.536  0.00  0.00     0.069 A 
ATOM     21  C   UNL d   1      -0.452  -5.367   0.515  0.00  0.00     0.039 A 
ATOM     22  C   UNL d   1      -0.661  -6.719   0.815  0.00  0.00     0.039 A 
ATOM     23  C   UNL d   1      -0.660  -7.157   2.138  0.00  0.00     0.068 A 
ATOM     24  C   UNL d   1      -0.439  -6.230   3.158  0.00  0.00     0.039 A 
ATOM     25  C   UNL d   1      -0.230  -4.880   2.859  0.00  0.00     0.039 A 
BRANCH  23  26
ATOM     26  O   UNL d   1      -0.865  -8.442   2.556  0.00  0.00    -0.356 OA
ATOM     27  C   UNL d   1      -1.100  -9.415   1.545  0.00  0.00     0.210 C 
ENDBRANCH  23  26
ENDBRANCH  19  20
ENDBRANCH  18  19
ENDBRANCH   5  18
TORSDOF 5
