REMARK  6 active torsions:
REMARK  status: ('A' for Active; 'I' for Inactive)
REMARK    1  A    between atoms: C_8  and  C_1 
REMARK    2  A    between atoms: N_6  and  C_2 
REMARK    3  A    between atoms: C_9  and  C_4 
REMARK       I    between atoms: C_7  and  N_6 
REMARK    4  A    between atoms: C_10  and  C_7 
REMARK    5  A    between atoms: C_11  and  C_12 
REMARK    6  A    between atoms: O_16  and  C_11 
ROOT
ATOM      1  C   UNL d   1      -1.683   3.631   0.953  0.00  0.00     0.077 A 
ATOM      2  C   UNL d   1      -1.521   4.977   0.651  0.00  0.00     0.057 A 
ATOM      3  S   UNL d   1      -3.357   3.214   0.953  0.00  0.00    -0.088 SA
ATOM      4  C   UNL d   1      -3.873   4.777   0.488  0.00  0.00    -0.007 A 
ATOM      5  C   UNL d   1      -2.786   5.633   0.440  0.00  0.00     0.046 A 
ENDROOT
BRANCH   2   6
ATOM      6  N   UNL d   1      -0.291   5.611   0.484  0.00  0.00    -0.322 N 
ATOM      7  C   UNL d   1       0.018   6.926   0.717  0.00  0.00     0.245 C 
ATOM      8  O   UNL d   1       0.996   7.451   0.192  0.00  0.00    -0.268 OA
ATOM      9  H   UNL d   1       0.388   5.138  -0.100  0.00  0.00     0.169 HD
BRANCH   7  10
ATOM     10  C   UNL d   1      -0.694   7.579   1.844  0.00  0.00     0.081 C 
ATOM     11  C   UNL d   1      -1.006   8.881   1.907  0.00  0.00     0.086 C 
BRANCH  11  12
ATOM     12  C   UNL d   1      -0.882   9.823   0.792  0.00  0.00     0.165 C 
ATOM     13  O   UNL d   1      -0.953   9.579  -0.399  0.00  0.00    -0.647 OA
BRANCH  12  14
ATOM     14  O   UNL d   1      -0.785  11.073   1.269  0.00  0.00    -0.773 OA
ATOM     15  H   UNL d   1      -0.732  11.630   0.465  0.00  0.00     0.167 HD
ENDBRANCH  12  14
ENDBRANCH  11  12
ENDBRANCH   7  10
ENDBRANCH   2   6
BRANCH   1  16
ATOM     16  C   UNL d   1      -0.765   2.547   1.320  0.00  0.00     0.164 C 
ATOM     17  O   UNL d   1      -1.157   1.416   1.638  0.00  0.00    -0.292 OA
ATOM     18  C   UNL d   1       0.728   2.753   1.312  0.00  0.00     0.097 C 
ENDBRANCH   1  16
BRANCH   4  19
ATOM     19  C   UNL d   1      -5.356   5.042   0.179  0.00  0.00    -0.018 C 
ATOM     20  C   UNL d   1      -6.219   4.834   1.440  0.00  0.00     0.020 C 
ATOM     21  C   UNL d   1      -5.576   6.487  -0.314  0.00  0.00     0.020 C 
ATOM     22  C   UNL d   1      -5.854   4.094  -0.935  0.00  0.00     0.020 C 
ENDBRANCH   4  19
TORSDOF 6
