REMARK  4 active torsions:
REMARK  status: ('A' for Active; 'I' for Inactive)
REMARK    1  A    between atoms: C_7  and  N_1 
REMARK    2  A    between atoms: C_2  and  C_7 
REMARK    3  A    between atoms: C_15  and  N_3 
REMARK    4  A    between atoms: C_16  and  C_15 
ROOT
ATOM      1  N   UNL d   1       0.041  -1.377   0.745  0.00  0.00    -0.338 N 
ATOM      2  S   UNL d   1       0.020   1.714   0.404  0.00  0.00    -0.086 SA
ATOM      3  C   UNL d   1       1.264  -0.784   0.323  0.00  0.00     0.052 A 
ATOM      4  C   UNL d   1      -1.209  -0.794   0.394  0.00  0.00     0.052 A 
ATOM      5  C   UNL d   1      -1.342   0.587   0.143  0.00  0.00     0.032 A 
ATOM      6  C   UNL d   1       1.383   0.602   0.096  0.00  0.00     0.032 A 
ATOM      7  C   UNL d   1      -2.318  -1.623   0.156  0.00  0.00     0.031 A 
ATOM      8  C   UNL d   1       2.353  -1.613   0.012  0.00  0.00     0.031 A 
ATOM      9  C   UNL d   1      -2.554   1.111  -0.329  0.00  0.00     0.021 A 
ATOM     10  C   UNL d   1       2.580   1.137  -0.394  0.00  0.00     0.021 A 
ATOM     11  C   UNL d   1       3.535  -1.075  -0.506  0.00  0.00     0.002 A 
ATOM     12  C   UNL d   1      -3.518  -1.098  -0.331  0.00  0.00     0.002 A 
ATOM     13  C   UNL d   1       3.651   0.299  -0.701  0.00  0.00     0.002 A 
ATOM     14  C   UNL d   1      -3.636   0.268  -0.575  0.00  0.00     0.002 A 
ENDROOT
BRANCH   1  15
ATOM     15  C   UNL d   1       0.097  -1.852   2.160  0.00  0.00     0.207 C 
BRANCH  15  16
ATOM     16  C   UNL d   1      -0.138  -3.347   2.290  0.00  0.00     0.119 A 
ATOM     17  N   UNL d   1      -0.183  -3.995   3.491  0.00  0.00    -0.306 N 
ATOM     18  C   UNL d   1      -0.475  -5.303   3.184  0.00  0.00     0.194 A 
ATOM     19  S   UNL d   1      -0.730  -6.609   4.171  0.00  0.00    -0.039 SA
ATOM     20  N   UNL d   1      -0.540  -5.366   1.807  0.00  0.00    -0.275 N 
ATOM     21  N   UNL d   1      -0.330  -4.141   1.263  0.00  0.00    -0.285 N 
ATOM     22  H   UNL d   1      -0.763  -6.177   1.242  0.00  0.00     0.189 HD
ATOM     23  HN  UNL d   1      -0.322  -3.892   0.274  1.00  0.00     0.188 HD
BRANCH  17  24
ATOM     24  C   UNL d   1      -0.019  -3.444   4.829  0.00  0.00     0.159 C 
BRANCH  24  25
ATOM     25  C   UNL d   1       1.375  -3.623   5.371  0.00  0.00    -0.017 C 
ATOM     26  C   UNL d   1       2.475  -4.053   4.739  0.00  0.00     0.008 C 
ENDBRANCH  24  25
ENDBRANCH  17  24
ENDBRANCH  15  16
ENDBRANCH   1  15
TORSDOF 4
