REMARK  2 active torsions:
REMARK  status: ('A' for Active; 'I' for Inactive)
REMARK    1  A    between atoms: C_2  and  C_1 
REMARK    2  A    between atoms: O_8  and  C_2 
ROOT
ATOM      1  C   UNL d   1       0.789   1.435  -0.233  0.00  0.00     0.088 C 
ATOM      2  C   UNL d   1       1.311   0.007   0.051  0.00  0.00    -0.000 C 
ATOM      3  C   UNL d   1      -0.754   1.437  -0.252  0.00  0.00     0.020 C 
ATOM      4  C   UNL d   1       0.788  -0.924  -1.061  0.00  0.00     0.006 C 
ATOM      5  C   UNL d   1       0.751  -0.507   1.392  0.00  0.00     0.006 C 
ATOM      6  C   UNL d   1      -1.292   0.019   0.014  0.00  0.00    -0.014 C 
ATOM      7  C   UNL d   1      -0.782  -0.453   1.385  0.00  0.00     0.005 C 
ATOM      8  C   UNL d   1      -0.748  -0.929  -1.069  0.00  0.00     0.005 C 
ENDROOT
BRANCH   1   9
ATOM      9  C   UNL d   1       1.358   2.430   0.769  0.00  0.00     0.144 C 
ATOM     10  O   UNL d   1       0.812   2.775   1.805  0.00  0.00    -0.650 OA
BRANCH   9  11
ATOM     11  O   UNL d   1       2.579   2.895   0.416  0.00  0.00    -0.776 OA
ATOM     12  H   UNL d   1       2.914   2.540  -0.429  0.00  0.00     0.167 HD
ENDBRANCH   9  11
ENDBRANCH   1   9
TORSDOF 2
