REMARK  3 active torsions:
REMARK  status: ('A' for Active; 'I' for Inactive)
REMARK    1  A    between atoms: C_7  and  C_3 
REMARK    2  A    between atoms: C_9  and  C_15 
REMARK    3  A    between atoms: N_10  and  N_16 
ROOT
ATOM      1  N   UNL d   1       1.464  -0.575   0.050  0.00  0.00    -0.334 N 
ATOM      2  HN  UNL d   1       2.363  -1.050   0.136  1.00  0.00     0.168 HD
ATOM      3  C   UNL d   1       1.307   0.795  -0.028  0.00  0.00     0.051 A 
ATOM      4  C   UNL d   1       0.300  -1.185  -0.001  0.00  0.00     0.163 A 
ATOM      5  S   UNL d   1      -1.048  -0.131  -0.220  0.00  0.00    -0.062 SA
ATOM      6  C   UNL d   1      -0.000   1.224  -0.128  0.00  0.00     0.083 A 
ATOM      7  N   UNL d   1       0.100  -2.524   0.147  0.00  0.00    -0.280 N 
ATOM      8  H   UNL d   1      -0.776  -2.896  -0.211  0.00  0.00     0.189 HD
ENDROOT
BRANCH   3   9
ATOM      9  C   UNL d   1       2.464   1.678  -0.017  0.00  0.00    -0.006 A 
ATOM     10  C   UNL d   1       3.634   1.279  -0.681  0.00  0.00     0.053 A 
ATOM     11  C   UNL d   1       4.758   2.104  -0.687  0.00  0.00     0.103 A 
ATOM     12  O   UNL d   1       5.860   1.641  -1.361  0.00  0.00    -0.346 OA
ATOM     13  C   UNL d   1       4.720   3.342  -0.040  0.00  0.00     0.102 A 
ATOM     14  C   UNL d   1       7.033   2.387  -1.018  0.00  0.00     0.202 C 
ATOM     15  C   UNL d   1       6.745   3.879  -1.028  0.00  0.00     0.202 C 
ATOM     16  O   UNL d   1       5.776   4.217  -0.028  0.00  0.00    -0.346 OA
ATOM     17  C   UNL d   1       3.574   3.736   0.645  0.00  0.00     0.040 A 
ATOM     18  C   UNL d   1       2.446   2.908   0.654  0.00  0.00     0.017 A 
ENDBRANCH   3   9
BRANCH   7  19
ATOM     19  N   UNL d   1       0.981  -3.461   0.631  0.00  0.00    -0.309 N 
ATOM     20  C   UNL d   1       1.779  -3.062   1.575  0.00  0.00     0.126 C 
ATOM     21  HN  UNL d   1       1.007  -4.414   0.269  1.00  0.00     0.186 HD
BRANCH  20  22
ATOM     22  C   UNL d   1       2.720  -3.961   2.196  0.00  0.00     0.021 A 
ATOM     23  S   UNL d   1       3.664  -3.388   3.505  0.00  0.00    -0.101 SA
ATOM     24  C   UNL d   1       4.408  -4.911   3.717  0.00  0.00     0.050 A 
ATOM     25  C   UNL d   1       3.962  -5.835   2.799  0.00  0.00     0.008 A 
ATOM     26  C   UNL d   1       2.988  -5.284   1.916  0.00  0.00     0.021 A 
ENDBRANCH  20  22
ENDBRANCH   7  19
TORSDOF 3
