REMARK  7 active torsions:
REMARK  status: ('A' for Active; 'I' for Inactive)
REMARK    1  A    between atoms: C_3  and  N_1 
REMARK    2  A    between atoms: C_2  and  C_7 
REMARK    3  A    between atoms: C_7  and  N_4 
REMARK    4  A    between atoms: O_18  and  C_5 
REMARK    5  A    between atoms: O_16  and  C_13 
REMARK    6  A    between atoms: C_19  and  O_16 
REMARK    7  A    between atoms: C_20  and  C_19 
ROOT
ATOM      1  C   UNL d   1       2.351  -1.272  -2.153  0.00  0.00     0.003 A 
ATOM      2  C   UNL d   1       1.737  -2.536  -2.192  0.00  0.00     0.078 A 
ATOM      3  C   UNL d   1       2.422  -3.661  -2.682  0.00  0.00     0.074 A 
ATOM      4  C   UNL d   1       3.606  -1.153  -2.770  0.00  0.00     0.014 A 
ATOM      5  C   UNL d   1       3.703  -3.534  -3.227  0.00  0.00     0.071 A 
ATOM      6  C   UNL d   1       4.265  -2.263  -3.318  0.00  0.00     0.037 A 
ENDROOT
BRANCH   1   7
ATOM      7  C   UNL d   1       1.720  -0.016  -1.560  0.00  0.00     0.314 C 
BRANCH   7   8
ATOM      8  N   UNL d   1       1.283  -0.107  -0.159  0.00  0.00     0.095 N 
ATOM      9  C   UNL d   1       2.387  -0.316   0.805  0.00  0.00     0.292 C 
ATOM     10  C   UNL d   1       3.231   0.938   1.160  0.00  0.00     0.154 C 
ATOM     11  N   UNL d   1       2.341   2.009   1.634  0.00  0.00    -0.364 N 
ATOM     12  C   UNL d   1       1.310   2.361   0.647  0.00  0.00     0.154 C 
ATOM     13  C   UNL d   1       0.503   1.091   0.252  0.00  0.00     0.292 C 
BRANCH  11  14
ATOM     14  C   UNL d   1       2.867   3.054   2.395  0.00  0.00     0.102 A 
ATOM     15  N   UNL d   1       2.425   4.317   2.180  0.00  0.00    -0.352 N 
ATOM     16  C   UNL d   1       2.865   5.311   2.991  0.00  0.00     0.089 A 
ATOM     17  HN  UNL d   1       1.772   4.516   1.422  1.00  0.00     0.166 HD
ATOM     18  C   UNL d   1       3.753   5.130   4.030  0.00  0.00     0.017 A 
ATOM     19  C   UNL d   1       4.213   3.844   4.259  0.00  0.00     0.005 A 
ATOM     20  C   UNL d   1       3.758   2.804   3.438  0.00  0.00     0.048 A 
ENDBRANCH  11  14
ENDBRANCH   7   8
ENDBRANCH   1   7
BRANCH   2  21
ATOM     21  O   UNL d   1       0.468  -2.739  -1.718  0.00  0.00    -0.355 OA
ATOM     22  C   UNL d   1      -0.506  -2.314  -2.674  0.00  0.00     0.210 C 
ENDBRANCH   2  21
BRANCH   5  23
ATOM     23  O   UNL d   1       4.304  -4.693  -3.644  0.00  0.00    -0.347 OA
BRANCH  23  24
ATOM     24  C   UNL d   1       5.720  -4.622  -3.864  0.00  0.00     0.214 C 
BRANCH  24  25
ATOM     25  C   UNL d   1       6.359  -5.995  -3.879  0.00  0.00    -0.034 A 
ATOM     26  C   UNL d   1       5.702  -7.108  -4.417  0.00  0.00     0.009 A 
ATOM     27  C   UNL d   1       6.328  -8.358  -4.442  0.00  0.00     0.001 A 
ATOM     28  C   UNL d   1       7.621  -8.506  -3.943  0.00  0.00     0.000 A 
ATOM     29  C   UNL d   1       8.295  -7.403  -3.425  0.00  0.00     0.001 A 
ATOM     30  C   UNL d   1       7.671  -6.154  -3.399  0.00  0.00     0.009 A 
ENDBRANCH  24  25
ENDBRANCH  23  24
ENDBRANCH   5  23
TORSDOF 7
