REMARK  3 active torsions:
REMARK  status: ('A' for Active; 'I' for Inactive)
REMARK    1  A    between atoms: C_2  and  C_1 
REMARK       I    between atoms: N_3  and  C_2 
REMARK    2  A    between atoms: C_8  and  N_3 
REMARK    3  A    between atoms: O_18  and  C_9 
ROOT
ATOM      1  C   UNL d   1       0.290  -2.459  -0.148  0.00  0.00     0.257 C 
ATOM      2  N   UNL d   1       1.006  -3.628   0.023  0.00  0.00    -0.323 N 
ATOM      3  O   UNL d   1      -0.912  -2.400  -0.392  0.00  0.00    -0.267 OA
ATOM      4  H   UNL d   1       1.954  -3.543   0.366  0.00  0.00     0.169 HD
ENDROOT
BRANCH   1   5
ATOM      5  C   UNL d   1       1.046  -1.163  -0.069  0.00  0.00     0.052 A 
ATOM      6  C   UNL d   1       2.250  -0.926   0.612  0.00  0.00     0.026 A 
ATOM      7  C   UNL d   1       2.839   0.347   0.566  0.00  0.00     0.023 A 
ATOM      8 BR   UNL d   1       3.165  -2.207   1.679  0.00  0.00    -0.050 Br
ATOM      9  C   UNL d   1       2.236   1.385  -0.146  0.00  0.00     0.038 A 
ATOM     10  C   UNL d   1       1.046   1.167  -0.832  0.00  0.00     0.069 A 
ATOM     11  C   UNL d   1       0.452  -0.093  -0.778  0.00  0.00     0.055 A 
BRANCH  10  12
ATOM     12  O   UNL d   1       0.549   2.255  -1.493  0.00  0.00    -0.356 OA
ATOM     13  C   UNL d   1      -0.379   1.983  -2.538  0.00  0.00     0.210 C 
ENDBRANCH  10  12
ENDBRANCH   1   5
BRANCH   2  14
ATOM     14  C   UNL d   1       0.546  -4.945  -0.194  0.00  0.00     0.035 A 
ATOM     15  C   UNL d   1      -0.663  -5.249  -0.827  0.00  0.00     0.032 A 
ATOM     16  C   UNL d   1      -1.032  -6.580  -1.055  0.00  0.00     0.044 A 
ATOM     17  C   UNL d   1      -0.193  -7.604  -0.641  0.00  0.00     0.116 A 
ATOM     18  C   UNL d   1       1.008  -7.325  -0.003  0.00  0.00     0.044 A 
ATOM     19  F   UNL d   1      -0.543  -8.877  -0.864  0.00  0.00    -0.206 F 
ATOM     20  C   UNL d   1       1.381  -5.996   0.215  0.00  0.00     0.032 A 
ENDBRANCH   2  14
TORSDOF 3
