REMARK  2 active torsions:
REMARK  status: ('A' for Active; 'I' for Inactive)
REMARK    1  A    between atoms: C_8  and  C_2 
REMARK       I    between atoms: C_7  and  N_9 
REMARK    2  A    between atoms: N_9  and  C_13 
ROOT
ATOM      1  C   UNL d   1      -1.718   1.052  -0.827  0.00  0.00     0.131 C 
ATOM      2  C   UNL d   1      -0.616   1.332  -0.088  0.00  0.00    -0.020 C 
ATOM      3  C   UNL d   1      -2.327   2.025  -1.676  0.00  0.00     0.111 C 
ATOM      4  C   UNL d   1      -2.319  -0.241  -0.799  0.00  0.00     0.111 C 
ATOM      5  N   UNL d   1      -2.833   2.805  -2.370  0.00  0.00    -0.191 NA
ATOM      6  N   UNL d   1      -2.798  -1.298  -0.764  0.00  0.00    -0.191 NA
ATOM      7  C   UNL d   1       0.106   0.353   0.808  0.00  0.00     0.051 C 
ENDROOT
BRANCH   2   8
ATOM      8  C   UNL d   1       0.032   2.660  -0.126  0.00  0.00    -0.028 A 
ATOM      9  C   UNL d   1      -0.362   3.686   0.739  0.00  0.00     0.014 A 
ATOM     10  C   UNL d   1       0.290   4.927   0.706  0.00  0.00     0.030 A 
ATOM     11  C   UNL d   1       1.343   5.161  -0.188  0.00  0.00     0.034 A 
ATOM     12  C   UNL d   1       1.722   4.135  -1.054  0.00  0.00     0.030 A 
ATOM     13  C   UNL d   1       1.074   2.895  -1.025  0.00  0.00     0.014 A 
BRANCH  11  14
ATOM     14  N   UNL d   1       1.966   6.429  -0.157  0.00  0.00    -0.328 N 
ATOM     15  C   UNL d   1       3.024   6.857  -0.941  0.00  0.00     0.218 C 
ATOM     16  O   UNL d   1       3.607   6.209  -1.804  0.00  0.00    -0.274 OA
ATOM     17  C   UNL d   1       3.457   8.273  -0.649  0.00  0.00     0.117 C 
ATOM     18  H   UNL d   1       1.596   7.088   0.517  0.00  0.00     0.169 HD
ENDBRANCH  11  14
ENDBRANCH   2   8
TORSDOF 2
