REMARK  4 active torsions:
REMARK  status: ('A' for Active; 'I' for Inactive)
REMARK    1  A    between atoms: N_13  and  C_1 
REMARK    2  A    between atoms: C_9  and  N_2 
REMARK    3  A    between atoms: C_8  and  C_3 
REMARK    4  A    between atoms: N_7  and  C_10 
ROOT
ATOM      1  C   UNL d   1      -0.338  -1.157  -0.075  0.00  0.00     0.136 C 
ATOM      2  N   UNL d   1       0.949  -0.620   0.034  0.00  0.00    -0.239 N 
ATOM      3  C   UNL d   1      -1.227  -0.081  -0.017  0.00  0.00     0.070 C 
ATOM      4  N   UNL d   1       0.911   0.713   0.240  0.00  0.00    -0.296 N 
ATOM      5  HN  UNL d   1       1.697   1.327   0.455  1.00  0.00     0.187 HD
ATOM      6  C   UNL d   1      -0.371   1.059   0.105  0.00  0.00     0.039 C 
ATOM      7  C   UNL d   1      -0.665   2.517   0.082  0.00  0.00     0.071 C 
ENDROOT
BRANCH   2   8
ATOM      8  C   UNL d   1       2.219  -1.263  -0.023  0.00  0.00     0.058 A 
ATOM      9  C   UNL d   1       2.424  -2.424  -0.779  0.00  0.00     0.034 A 
ATOM     10  C   UNL d   1       3.695  -3.009  -0.829  0.00  0.00     0.038 A 
ATOM     11  C   UNL d   1       4.756  -2.437  -0.113  0.00  0.00     0.103 A 
ATOM     12  C   UNL d   1       4.563  -1.273   0.639  0.00  0.00     0.038 A 
ATOM     13  C   UNL d   1       3.299  -0.680   0.667  0.00  0.00     0.034 A 
BRANCH  11  14
ATOM     14  N   UNL d   1       6.088  -3.054  -0.161  0.00  0.00    -0.116 N 
ATOM     15  O   UNL d   1       6.997  -2.527   0.495  0.00  0.00    -0.532 OA
ATOM     16  O   UNL d   1       6.223  -4.077  -0.852  0.00  0.00    -0.532 OA
ENDBRANCH  11  14
ENDBRANCH   2   8
BRANCH   1  17
ATOM     17  N   UNL d   1      -0.605  -2.499  -0.122  0.00  0.00    -0.383 N 
ATOM     18  H   UNL d   1       0.099  -3.146   0.233  0.00  0.00     0.157 HD
ATOM     19  H   UNL d   1      -1.530  -2.799   0.189  0.00  0.00     0.157 HD
ENDBRANCH   1  17
BRANCH   3  20
ATOM     20  C   UNL d   1      -2.676  -0.190  -0.066  0.00  0.00     0.110 C 
ATOM     21  S   UNL d   1      -3.662   0.827   0.797  0.00  0.00    -0.060 SA
ATOM     22  N   UNL d   1      -3.214  -1.209  -0.799  0.00  0.00    -0.389 N 
ATOM     23  H   UNL d   1      -2.633  -1.810  -1.371  0.00  0.00     0.157 HD
ATOM     24  H   UNL d   1      -4.221  -1.294  -0.862  0.00  0.00     0.157 HD
ENDBRANCH   3  20
TORSDOF 4
