REMARK  4 active torsions:
REMARK  status: ('A' for Active; 'I' for Inactive)
REMARK    1  A    between atoms: C_2  and  C_1 
REMARK    2  A    between atoms: C_3  and  C_2 
REMARK    3  A    between atoms: C_4  and  C_3 
REMARK    4  A    between atoms: C_6  and  C_4 
ROOT
ATOM      1  C   UNL d   1       1.148   2.999  -2.331  0.00  0.00     0.105 A 
ATOM      2  C   UNL d   1      -0.170   2.125  -0.550  0.00  0.00     0.013 A 
ATOM      3  C   UNL d   1       0.628   3.158  -1.065  0.00  0.00     0.055 A 
ATOM      4  C   UNL d   1       0.905   1.870  -3.078  0.00  0.00     0.105 A 
ATOM      5  O   UNL d   1       1.936   3.893  -2.985  0.00  0.00    -0.323 OA
ATOM      6  O   UNL d   1       1.511   1.914  -4.295  0.00  0.00    -0.323 OA
ATOM      7  C   UNL d   1       2.194   3.183  -4.214  0.00  0.00     0.352 A 
ATOM      8  C   UNL d   1      -0.413   0.964  -1.316  0.00  0.00     0.018 A 
ATOM      9  C   UNL d   1       0.129   0.837  -2.601  0.00  0.00     0.040 A 
ENDROOT
BRANCH   2  10
ATOM     10  C   UNL d   1      -0.750   2.302   0.812  0.00  0.00     0.166 C 
ATOM     11  O   UNL d   1      -0.246   3.111   1.590  0.00  0.00    -0.292 OA
BRANCH  10  12
ATOM     12  C   UNL d   1      -1.968   1.513   1.199  0.00  0.00     0.172 C 
BRANCH  12  13
ATOM     13  C   UNL d   1      -2.841   2.230   2.198  0.00  0.00     0.239 C 
ATOM     14  O   UNL d   1      -3.257   1.624   3.195  0.00  0.00    -0.288 OA
BRANCH  13  15
ATOM     15  C   UNL d   1      -3.305   3.633   1.827  0.00  0.00     0.451 C 
ATOM     16  F   UNL d   1      -2.671   4.147   0.736  0.00  0.00    -0.163 F 
ATOM     17  F   UNL d   1      -3.150   4.533   2.833  0.00  0.00    -0.163 F 
ATOM     18  F   UNL d   1      -4.629   3.641   1.502  0.00  0.00    -0.163 F 
ENDBRANCH  13  15
ENDBRANCH  12  13
ENDBRANCH  10  12
ENDBRANCH   2  10
TORSDOF 4
