REMARK  1 active torsions:
REMARK  status: ('A' for Active; 'I' for Inactive)
REMARK    1  A    between atoms: C_7  and  C_6 
ROOT
ATOM      1  N   UNL d   1       0.801   0.782  -0.960  0.00  0.00    -0.307 N 
ATOM      2  C   UNL d   1       0.552  -0.477  -1.411  0.00  0.00     0.146 A 
ATOM      3  C   UNL d   1      -1.479   0.678  -0.483  0.00  0.00     0.076 A 
ATOM      4  C   UNL d   1      -0.241   1.500  -0.446  0.00  0.00     0.264 A 
ATOM      5  S   UNL d   1      -1.147  -0.847  -1.222  0.00  0.00    -0.055 SA
ATOM      6  C   UNL d   1      -2.636   1.110   0.036  0.00  0.00     0.037 C 
ATOM      7  S   UNL d   1       1.714  -1.475  -2.037  0.00  0.00    -0.052 SA
ATOM      8  O   UNL d   1      -0.159   2.642  -0.021  0.00  0.00    -0.267 OA
ATOM      9  H   UNL d   1       1.726   1.183  -0.988  0.00  0.00     0.170 HD
ENDROOT
BRANCH   6  10
ATOM     10  C   UNL d   1      -3.873   0.319   0.090  0.00  0.00    -0.013 A 
ATOM     11  C   UNL d   1      -4.178  -0.531   1.166  0.00  0.00     0.044 A 
ATOM     12 CL   UNL d   1      -3.138  -0.665   2.542  0.00  0.00    -0.083 Cl
ATOM     13  C   UNL d   1      -5.349  -1.294   1.154  0.00  0.00     0.024 A 
ATOM     14  C   UNL d   1      -6.229  -1.208   0.076  0.00  0.00     0.002 A 
ATOM     15  C   UNL d   1      -5.943  -0.355  -0.989  0.00  0.00     0.001 A 
ATOM     16  C   UNL d   1      -4.771   0.404  -0.984  0.00  0.00     0.013 A 
ENDBRANCH   6  10
TORSDOF 1
