REMARK  9 active torsions:
REMARK  status: ('A' for Active; 'I' for Inactive)
REMARK    1  A    between atoms: C_6  and  N_1 
REMARK    2  A    between atoms: C_11  and  C_6 
REMARK    3  A    between atoms: C_12  and  C_11 
REMARK    4  A    between atoms: O_20  and  C_11 
REMARK    5  A    between atoms: N_15  and  C_12 
REMARK    6  A    between atoms: C_21  and  N_15 
REMARK    7  A    between atoms: C_22  and  N_15 
REMARK    8  A    between atoms: C_23  and  C_21 
REMARK    9  A    between atoms: C_24  and  C_22 
ROOT
ATOM      1  N   UNL d   1      -0.229  -1.118   0.693  0.00  0.00    -0.343 N 
ATOM      2  C   UNL d   1      -0.258   0.463  -0.888  0.00  0.00     0.005 A 
ATOM      3  C   UNL d   1       0.497   0.942   0.222  0.00  0.00     0.005 A 
ATOM      4  C   UNL d   1      -0.775  -0.790  -0.539  0.00  0.00     0.046 A 
ATOM      5  C   UNL d   1       0.377  -0.005   1.240  0.00  0.00     0.046 A 
ATOM      6  C   UNL d   1      -1.668  -1.474  -1.382  0.00  0.00     0.032 A 
ATOM      7  C   UNL d   1       0.846   0.249   2.535  0.00  0.00     0.032 A 
ATOM      8  C   UNL d   1       1.207   2.135   0.472  0.00  0.00     0.033 A 
ATOM      9  C   UNL d   1      -0.597   1.031  -2.134  0.00  0.00     0.033 A 
ATOM     10  C   UNL d   1       1.716   2.370   1.749  0.00  0.00     0.011 A 
ATOM     11  C   UNL d   1      -1.501   0.363  -2.961  0.00  0.00     0.011 A 
ATOM     12  C   UNL d   1      -2.041  -0.863  -2.586  0.00  0.00     0.021 A 
ATOM     13  C   UNL d   1       1.509   1.452   2.772  0.00  0.00     0.021 A 
ATOM     14 BR   UNL d   1       2.672   3.964   2.096  0.00  0.00    -0.051 Br
ATOM     15 BR   UNL d   1      -2.023   1.162  -4.595  0.00  0.00    -0.051 Br
ENDROOT
BRANCH   1  16
ATOM     16  C   UNL d   1      -0.294  -2.434   1.330  0.00  0.00     0.163 C 
BRANCH  16  17
ATOM     17  C   UNL d   1       0.827  -3.387   0.866  0.00  0.00     0.164 C 
BRANCH  17  18
ATOM     18  C   UNL d   1       2.143  -3.377   1.718  0.00  0.00     0.305 C 
BRANCH  18  19
ATOM     19  N   UNL d   1       2.121  -3.672   3.163  0.00  0.00     0.090 N 
BRANCH  19  20
ATOM     20  C   UNL d   1       1.400  -4.896   3.576  0.00  0.00     0.272 C 
BRANCH  20  21
ATOM     21  C   UNL d   1       2.129  -6.263   3.601  0.00  0.00     0.026 C 
ATOM     22  C   UNL d   1       2.563  -6.819   2.257  0.00  0.00     0.007 C 
ENDBRANCH  20  21
ENDBRANCH  19  20
BRANCH  19  23
ATOM     23  C   UNL d   1       3.461  -3.638   3.796  0.00  0.00     0.272 C 
BRANCH  23  24
ATOM     24  C   UNL d   1       4.383  -2.431   3.567  0.00  0.00     0.026 C 
ATOM     25  C   UNL d   1       3.817  -1.117   4.057  0.00  0.00     0.007 C 
ENDBRANCH  23  24
ENDBRANCH  19  23
ENDBRANCH  18  19
ENDBRANCH  17  18
BRANCH  17  26
ATOM     26  O   UNL d   1       0.295  -4.715   0.739  0.00  0.00    -0.392 OA
ATOM     27  H   UNL d   1       1.025  -5.290   0.450  0.00  0.00     0.210 HD
ENDBRANCH  17  26
ENDBRANCH  16  17
ENDBRANCH   1  16
TORSDOF 9
