REMARK  2 active torsions:
REMARK  status: ('A' for Active; 'I' for Inactive)
REMARK    1  A    between atoms: N_7  and  C_1 
REMARK    2  A    between atoms: C_9  and  C_5 
ROOT
ATOM      1  C   UNL d   1      -1.141  -1.504   0.019  0.00  0.00     0.045 A 
ATOM      2  N   UNL d   1      -1.166   1.301  -0.169  0.00  0.00    -0.355 N 
ATOM      3  HN  UNL d   1      -1.177   2.319  -0.236  1.00  0.00     0.166 HD
ATOM      4  C   UNL d   1      -2.342  -0.784  -0.044  0.00  0.00     0.060 A 
ATOM      5  C   UNL d   1      -2.325   0.606  -0.129  0.00  0.00     0.045 A 
ATOM      6  C   UNL d   1       0.079  -0.767  -0.023  0.00  0.00     0.017 A 
ATOM      7  C   UNL d   1      -0.006   0.638  -0.119  0.00  0.00     0.045 A 
ATOM      8  C   UNL d   1       1.369  -1.347   0.083  0.00  0.00     0.016 A 
ATOM      9  C   UNL d   1       1.163   1.389  -0.138  0.00  0.00     0.030 A 
ATOM     10  C   UNL d   1       2.530  -0.576   0.044  0.00  0.00     0.001 A 
ATOM     11  C   UNL d   1       2.426   0.800  -0.066  0.00  0.00     0.002 A 
ENDROOT
BRANCH   1  12
ATOM     12  N   UNL d   1      -1.137  -2.890   0.209  0.00  0.00    -0.376 N 
ATOM     13  C   UNL d   1      -2.236  -3.538   0.944  0.00  0.00     0.149 C 
ATOM     14  C   UNL d   1      -1.714  -4.867   1.518  0.00  0.00     0.187 C 
ATOM     15  O   UNL d   1      -1.206  -5.726   0.481  0.00  0.00    -0.388 OA
ATOM     16  C   UNL d   1      -0.147  -5.072  -0.246  0.00  0.00     0.187 C 
ATOM     17  C   UNL d   1      -0.631  -3.752  -0.880  0.00  0.00     0.149 C 
ENDBRANCH   1  12
BRANCH   5  18
ATOM     18  C   UNL d   1      -3.552   1.427  -0.143  0.00  0.00    -0.009 A 
ATOM     19  C   UNL d   1      -3.588   2.663   0.537  0.00  0.00     0.013 A 
ATOM     20  C   UNL d   1      -4.733   3.465   0.538  0.00  0.00     0.001 A 
ATOM     21  C   UNL d   1      -5.871   3.049  -0.147  0.00  0.00     0.000 A 
ATOM     22  C   UNL d   1      -5.861   1.834  -0.827  0.00  0.00     0.001 A 
ATOM     23  C   UNL d   1      -4.716   1.033  -0.825  0.00  0.00     0.013 A 
ENDBRANCH   5  18
TORSDOF 2
