REMARK  5 active torsions:
REMARK  status: ('A' for Active; 'I' for Inactive)
REMARK    1  A    between atoms: N_2  and  S_1 
REMARK    2  A    between atoms: C_5  and  S_1 
REMARK    3  A    between atoms: C_6  and  N_2 
REMARK    4  A    between atoms: C_7  and  N_2 
REMARK    5  A    between atoms: C_8  and  C_6 
ROOT
ATOM      1  N   UNL d   1       0.445  -0.399  -1.302  0.00  0.00    -0.298 N 
ENDROOT
BRANCH   1   2
ATOM      2  S   UNL d   1       1.169   0.253   0.125  0.00  0.00     0.261 S 
ATOM      3  O   UNL d   1       0.261   1.186   0.763  0.00  0.00    -0.200 OA
ATOM      4  O   UNL d   1       2.532   0.663  -0.137  0.00  0.00    -0.200 OA
BRANCH   2   5
ATOM      5  C   UNL d   1       1.315  -1.153   1.229  0.00  0.00     0.079 A 
ATOM      6  C   UNL d   1       2.543  -1.825   1.299  0.00  0.00     0.025 A 
ATOM      7  C   UNL d   1       2.765  -2.769   2.301  0.00  0.00     0.002 A 
ATOM      8  C   UNL d   1       1.763  -3.051   3.229  0.00  0.00     0.000 A 
ATOM      9  C   UNL d   1       0.535  -2.390   3.156  0.00  0.00     0.002 A 
ATOM     10  C   UNL d   1       0.313  -1.428   2.166  0.00  0.00     0.025 A 
ENDBRANCH   2   5
ENDBRANCH   1   2
BRANCH   1  11
ATOM     11  C   UNL d   1      -1.029  -0.680  -1.179  0.00  0.00     0.174 C 
BRANCH  11  12
ATOM     12  C   UNL d   1      -1.980   0.508  -1.160  0.00  0.00    -0.040 A 
ATOM     13  C   UNL d   1      -2.324   1.221  -2.319  0.00  0.00     0.009 A 
ATOM     14  C   UNL d   1      -3.166   2.336  -2.257  0.00  0.00     0.001 A 
ATOM     15  C   UNL d   1      -3.687   2.755  -1.036  0.00  0.00     0.000 A 
ATOM     16  C   UNL d   1      -3.382   2.045   0.119  0.00  0.00     0.001 A 
ATOM     17  C   UNL d   1      -2.551   0.925   0.054  0.00  0.00     0.009 A 
ENDBRANCH  11  12
ENDBRANCH   1  11
BRANCH   1  18
ATOM     18  C   UNL d   1       0.883   0.136  -2.652  0.00  0.00     0.088 C 
ATOM     19  C   UNL d   1       2.405   0.139  -2.844  0.00  0.00     0.032 C 
ATOM     20  C   UNL d   1       0.344  -0.737  -3.805  0.00  0.00     0.032 C 
ENDBRANCH   1  18
TORSDOF 5
