REMARK  5 active torsions:
REMARK  status: ('A' for Active; 'I' for Inactive)
REMARK    1  A    between atoms: C_2  and  C_1 
REMARK    2  A    between atoms: O_9  and  C_2 
REMARK    3  A    between atoms: S_4  and  C_3 
REMARK    4  A    between atoms: C_8  and  S_4 
REMARK    5  A    between atoms: C_7  and  C_8 
ROOT
ATOM      1  C   UNL d   1       1.463  -0.286   0.014  0.00  0.00     0.056 A 
ATOM      2  C   UNL d   1       0.614  -1.402  -0.109  0.00  0.00     0.017 A 
ATOM      3  C   UNL d   1       0.909   1.006   0.134  0.00  0.00     0.019 A 
ATOM      4  C   UNL d   1      -0.778  -1.176  -0.106  0.00  0.00     0.019 A 
ATOM      5  C   UNL d   1      -0.471   1.204   0.124  0.00  0.00     0.001 A 
ATOM      6  C   UNL d   1      -1.316   0.109   0.012  0.00  0.00     0.001 A 
ENDROOT
BRANCH   2   7
ATOM      7  S   UNL d   1       1.070  -3.120  -0.373  0.00  0.00    -0.121 SA
BRANCH   7   8
ATOM      8  C   UNL d   1       2.158  -3.504   1.026  0.00  0.00     0.157 C 
BRANCH   8   9
ATOM      9  C   UNL d   1       1.498  -3.440   2.386  0.00  0.00     0.132 C 
ATOM     10  O   UNL d   1       0.338  -3.098   2.593  0.00  0.00    -0.298 OA
ATOM     11  C   UNL d   1       2.386  -3.863   3.539  0.00  0.00     0.091 C 
ENDBRANCH   8   9
ENDBRANCH   7   8
ENDBRANCH   2   7
BRANCH   1  12
ATOM     12  C   UNL d   1       2.941  -0.332   0.076  0.00  0.00     0.294 C 
ATOM     13  O   UNL d   1       3.587   0.366   0.846  0.00  0.00    -0.259 OA
BRANCH  12  14
ATOM     14  O   UNL d   1       3.459  -1.188  -0.836  0.00  0.00    -0.322 OA
ATOM     15  C   UNL d   1       4.885  -1.297  -0.795  0.00  0.00     0.213 C 
ENDBRANCH  12  14
ENDBRANCH   1  12
TORSDOF 5
