REMARK  10 active torsions:
REMARK  status: ('A' for Active; 'I' for Inactive)
REMARK    1  A    between atoms: C_8  and  N_1 
REMARK    2  A    between atoms: S_7  and  C_2 
REMARK    3  A    between atoms: C_18  and  S_7 
REMARK    4  A    between atoms: C_9  and  C_18 
REMARK       I    between atoms: N_19  and  C_9 
REMARK    5  A    between atoms: C_10  and  C_24 
REMARK    6  A    between atoms: C_25  and  N_19 
REMARK    7  A    between atoms: C_27  and  C_22 
REMARK    8  A    between atoms: S_23  and  C_26 
REMARK    9  A    between atoms: C_24  and  S_23 
REMARK   10  A    between atoms: C_26  and  C_25 
ROOT
ATOM      1  S   UNL d   1       2.741  -1.440   0.191  0.00  0.00    -0.082 SA
ENDROOT
BRANCH   1   2
ATOM      2  C   UNL d   1       1.117  -0.850   0.273  0.00  0.00     0.177 A 
ATOM      3  N   UNL d   1       0.720   0.487   0.282  0.00  0.00    -0.219 N 
ATOM      4  N   UNL d   1      -0.613   0.492   0.574  0.00  0.00     0.001 NA
ATOM      5  N   UNL d   1      -0.990  -0.774   0.659  0.00  0.00    -0.006 NA
ATOM      6  N   UNL d   1       0.068  -1.617   0.477  0.00  0.00    -0.264 N 
ATOM      7  HN  UNL d   1       0.048  -2.636   0.495  1.00  0.00     0.186 HD
BRANCH   3   8
ATOM      8  C   UNL d   1       1.415   1.719   0.087  0.00  0.00     0.056 A 
ATOM      9  C   UNL d   1       2.722   1.777  -0.405  0.00  0.00     0.032 A 
ATOM     10  C   UNL d   1       3.401   2.997  -0.494  0.00  0.00     0.009 A 
ATOM     11  C   UNL d   1       2.779   4.191  -0.123  0.00  0.00    -0.058 A 
ATOM     12  C   UNL d   1       1.450   4.149   0.310  0.00  0.00     0.009 A 
ATOM     13  C   UNL d   1       0.770   2.927   0.408  0.00  0.00     0.032 A 
BRANCH  11  14
ATOM     14  C   UNL d   1       3.547   5.487  -0.156  0.00  0.00     0.034 C 
ATOM     15  C   UNL d   1       4.245   5.761   1.169  0.00  0.00     0.010 C 
ENDBRANCH  11  14
ENDBRANCH   3   8
ENDBRANCH   1   2
BRANCH   1  16
ATOM     16  C   UNL d   1       2.508  -3.228   0.025  0.00  0.00     0.185 C 
BRANCH  16  17
ATOM     17  C   UNL d   1       3.867  -3.912  -0.119  0.00  0.00     0.227 C 
ATOM     18  O   UNL d   1       4.806  -3.442  -0.750  0.00  0.00    -0.273 OA
ATOM     19  N   UNL d   1       3.949  -5.136   0.520  0.00  0.00    -0.360 N 
ATOM     20  H   UNL d   1       3.103  -5.590   0.841  0.00  0.00     0.162 HD
BRANCH  19  21
ATOM     21  C   UNL d   1       5.150  -5.953   0.405  0.00  0.00     0.132 C 
BRANCH  21  22
ATOM     22  C   UNL d   1       4.975  -7.353   0.995  0.00  0.00     0.094 C 
BRANCH  22  23
ATOM     23  S   UNL d   1       3.673  -8.272   0.089  0.00  0.00    -0.161 SA
BRANCH  23  24
ATOM     24  C   UNL d   1       3.774  -9.875   0.951  0.00  0.00     0.139 C 
BRANCH  24  25
ATOM     25  C   UNL d   1       3.384  -9.755   2.376  0.00  0.00     0.061 A 
ATOM     26  O   UNL d   1       4.400  -9.612   3.276  0.00  0.00    -0.326 OA
ATOM     27  C   UNL d   1       3.829  -9.492   4.502  0.00  0.00     0.142 A 
ATOM     28  C   UNL d   1       2.460  -9.566   4.405  0.00  0.00     0.027 A 
ATOM     29  C   UNL d   1       2.170  -9.742   3.031  0.00  0.00     0.035 A 
ENDBRANCH  24  25
ENDBRANCH  23  24
ENDBRANCH  22  23
ENDBRANCH  21  22
ENDBRANCH  19  21
ENDBRANCH  16  17
ENDBRANCH   1  16
TORSDOF 10
