REMARK  3 active torsions:
REMARK  status: ('A' for Active; 'I' for Inactive)
REMARK    1  A    between atoms: C_2  and  S_1 
REMARK    2  A    between atoms: N_4  and  S_1 
REMARK    3  A    between atoms: C_17  and  N_11 
ROOT
ATOM      1  S   UNL d   1       1.300   0.117  -0.112  0.00  0.00     0.263 S 
ATOM      2  O   UNL d   1       0.630   0.687   1.039  0.00  0.00    -0.200 OA
ATOM      3  O   UNL d   1       2.690  -0.271  -0.037  0.00  0.00    -0.200 OA
ENDROOT
BRANCH   1   4
ATOM      4  C   UNL d   1       1.157   1.261  -1.429  0.00  0.00     0.110 A 
ATOM      5  C   UNL d   1       1.605   0.974  -2.730  0.00  0.00     0.108 A 
ATOM      6  C   UNL d   1       1.514   1.969  -3.795  0.00  0.00     0.086 A 
ATOM      7  N   UNL d   1       2.152  -0.131  -3.254  0.00  0.00    -0.238 N 
ATOM      8  N   UNL d   1       2.010   1.436  -4.917  0.00  0.00    -0.239 N 
ATOM      9  C   UNL d   1       0.980   3.256  -3.589  0.00  0.00     0.034 A 
ATOM     10  O   UNL d   1       2.404   0.153  -4.583  0.00  0.00    -0.156 OA
ATOM     11  HN  UNL d   1       2.083   1.884  -5.831  1.00  0.00     0.197 HD
ATOM     12  C   UNL d   1       0.534   3.510  -2.279  0.00  0.00     0.004 A 
ATOM     13  C   UNL d   1       0.618   2.552  -1.236  0.00  0.00     0.028 A 
ATOM     14  HN  UNL d   1       2.344  -1.008  -2.769  1.00  0.00     0.197 HD
ENDBRANCH   1   4
BRANCH   1  15
ATOM     15  N   UNL d   1       0.369  -1.190  -0.653  0.00  0.00    -0.304 N 
ATOM     16  C   UNL d   1      -1.111  -1.103  -0.436  0.00  0.00     0.155 C 
ATOM     17  C   UNL d   1      -1.526  -1.597   0.971  0.00  0.00     0.143 C 
ATOM     18  N   UNL d   1      -0.969  -2.948   1.215  0.00  0.00    -0.378 N 
ATOM     19  C   UNL d   1       0.501  -2.997   1.092  0.00  0.00     0.143 C 
ATOM     20  C   UNL d   1       0.891  -2.556  -0.332  0.00  0.00     0.155 C 
BRANCH  18  21
ATOM     21  C   UNL d   1      -1.622  -3.727   2.165  0.00  0.00     0.030 A 
ATOM     22  C   UNL d   1      -0.988  -4.264   3.296  0.00  0.00     0.032 A 
ATOM     23  C   UNL d   1      -1.680  -5.087   4.193  0.00  0.00     0.044 A 
ATOM     24  C   UNL d   1      -3.014  -5.389   3.960  0.00  0.00     0.116 A 
ATOM     25  C   UNL d   1      -3.671  -4.880   2.853  0.00  0.00     0.044 A 
ATOM     26  F   UNL d   1      -3.672  -6.188   4.810  0.00  0.00    -0.206 F 
ATOM     27  C   UNL d   1      -2.976  -4.056   1.966  0.00  0.00     0.032 A 
ENDBRANCH  18  21
ENDBRANCH   1  15
TORSDOF 3
