REMARK  6 active torsions:
REMARK  status: ('A' for Active; 'I' for Inactive)
REMARK    1  A    between atoms: O_21  and  C_1 
REMARK    2  A    between atoms: C_5  and  C_2 
REMARK    3  A    between atoms: O_22  and  C_3 
REMARK    4  A    between atoms: O_23  and  C_4 
REMARK       I    between atoms: N_15  and  C_5 
REMARK    5  A    between atoms: N_9  and  N_15 
REMARK    6  A    between atoms: C_20  and  C_19 
ROOT
ATOM      1  C   UNL d   1      -2.812   0.505  -0.040  0.00  0.00     0.270 C 
ATOM      2  N   UNL d   1      -3.293   1.802  -0.175  0.00  0.00    -0.266 N 
ATOM      3  O   UNL d   1      -3.545  -0.471   0.088  0.00  0.00    -0.266 OA
ATOM      4  H   UNL d   1      -2.696   2.615  -0.219  0.00  0.00     0.190 HD
ENDROOT
BRANCH   1   5
ATOM      5  C   UNL d   1      -1.340   0.286  -0.051  0.00  0.00     0.039 A 
ATOM      6  C   UNL d   1      -0.377   1.292  -0.089  0.00  0.00     0.057 A 
ATOM      7  C   UNL d   1       0.995   0.975  -0.113  0.00  0.00     0.105 A 
ATOM      8  C   UNL d   1       1.402  -0.373  -0.084  0.00  0.00     0.135 A 
ATOM      9  C   UNL d   1       0.431  -1.389   0.046  0.00  0.00     0.105 A 
ATOM     10  C   UNL d   1      -0.921  -1.049   0.017  0.00  0.00     0.057 A 
BRANCH   7  11
ATOM     11  O   UNL d   1       1.768   2.107  -0.173  0.00  0.00    -0.353 OA
ATOM     12  C   UNL d   1       3.182   1.982  -0.179  0.00  0.00     0.210 C 
ENDBRANCH   7  11
BRANCH   8  13
ATOM     13  O   UNL d   1       2.742  -0.670  -0.077  0.00  0.00    -0.351 OA
ATOM     14  C   UNL d   1       3.151  -1.626  -1.058  0.00  0.00     0.210 C 
ENDBRANCH   8  13
BRANCH   9  15
ATOM     15  O   UNL d   1       0.867  -2.683   0.205  0.00  0.00    -0.353 OA
ATOM     16  C   UNL d   1      -0.092  -3.624   0.683  0.00  0.00     0.210 C 
ENDBRANCH   9  15
ENDBRANCH   1   5
BRANCH   2  17
ATOM     17  N   UNL d   1      -4.631   1.971  -0.005  0.00  0.00    -0.308 N 
ATOM     18  C   UNL d   1      -5.113   3.154  -0.176  0.00  0.00     0.118 C 
ATOM     19  HN  UNL d   1      -5.234   1.188   0.249  1.00  0.00     0.186 HD
BRANCH  18  20
ATOM     20  C   UNL d   1      -6.519   3.426   0.184  0.00  0.00    -0.017 A 
ATOM     21  C   UNL d   1      -6.953   4.752   0.168  0.00  0.00     0.052 A 
ATOM     22  C   UNL d   1      -8.119   5.019   0.846  0.00  0.00     0.105 A 
ATOM     23  O   UNL d   1      -8.601   6.264   1.117  0.00  0.00    -0.323 OA
ATOM     24  C   UNL d   1      -8.872   4.028   1.444  0.00  0.00     0.105 A 
ATOM     25  C   UNL d   1      -9.524   5.936   2.176  0.00  0.00     0.352 C 
ATOM     26  O   UNL d   1      -9.901   4.544   2.172  0.00  0.00    -0.323 OA
ATOM     27  C   UNL d   1      -8.530   2.696   1.361  0.00  0.00     0.040 A 
ATOM     28  C   UNL d   1      -7.320   2.395   0.733  0.00  0.00     0.016 A 
ENDBRANCH  18  20
ENDBRANCH   2  17
TORSDOF 6
