REMARK  10 active torsions:
REMARK  status: ('A' for Active; 'I' for Inactive)
REMARK    1  A    between atoms: C_4  and  N_1 
REMARK       I    between atoms: C_2  and  N_5 
REMARK    2  A    between atoms: C_9  and  C_2 
REMARK    3  A    between atoms: C_3  and  C_24 
REMARK       I    between atoms: N_7  and  C_3 
REMARK    4  A    between atoms: N_5  and  N_7 
REMARK    5  A    between atoms: C_25  and  N_6 
REMARK    6  A    between atoms: O_27  and  C_19 
REMARK    7  A    between atoms: S_22  and  C_30 
REMARK    8  A    between atoms: C_24  and  S_22 
REMARK    9  A    between atoms: C_26  and  C_25 
REMARK   10  A    between atoms: C_30  and  C_26 
ROOT
ATOM      1  S   UNL d   1       3.335  -2.686  -4.202  0.00  0.00    -0.160 SA
ENDROOT
BRANCH   1   2
ATOM      2  C   UNL d   1       2.224  -1.307  -3.744  0.00  0.00     0.076 C 
BRANCH   2   3
ATOM      3  C   UNL d   1       2.245  -1.179  -2.225  0.00  0.00     0.040 C 
BRANCH   3   4
ATOM      4  C   UNL d   1       1.485   0.052  -1.720  0.00  0.00     0.273 C 
BRANCH   4   5
ATOM      5  N   UNL d   1       0.067   0.120  -2.109  0.00  0.00     0.091 N 
ATOM      6  C   UNL d   1      -0.728  -1.041  -1.639  0.00  0.00     0.292 C 
ATOM      7  C   UNL d   1      -0.868  -1.159  -0.104  0.00  0.00     0.153 C 
ATOM      8  N   UNL d   1      -1.393   0.096   0.453  0.00  0.00    -0.377 N 
ATOM      9  C   UNL d   1      -0.745   1.335  -0.000  0.00  0.00     0.153 C 
ATOM     10  C   UNL d   1      -0.562   1.344  -1.539  0.00  0.00     0.292 C 
BRANCH   8  11
ATOM     11  C   UNL d   1      -2.510   0.085   1.263  0.00  0.00     0.031 A 
ATOM     12  C   UNL d   1      -3.511   1.061   1.153  0.00  0.00     0.053 A 
ATOM     13  C   UNL d   1      -4.654   1.014   1.956  0.00  0.00     0.036 A 
ATOM     14 CL   UNL d   1      -5.875   2.215   1.766  0.00  0.00    -0.084 Cl
ATOM     15  C   UNL d   1      -4.824   0.003   2.896  0.00  0.00     0.024 A 
ATOM     16  C   UNL d   1      -3.840  -0.969   3.032  0.00  0.00     0.004 A 
ATOM     17  C   UNL d   1      -2.700  -0.923   2.221  0.00  0.00     0.029 A 
ENDBRANCH   8  11
ENDBRANCH   4   5
ENDBRANCH   3   4
ENDBRANCH   2   3
ENDBRANCH   1   2
BRANCH   1  18
ATOM     18  C   UNL d   1       3.143  -2.655  -6.010  0.00  0.00     0.178 C 
BRANCH  18  19
ATOM     19  C   UNL d   1       3.856  -1.517  -6.719  0.00  0.00     0.245 C 
ATOM     20  N   UNL d   1       4.613  -0.672  -5.943  0.00  0.00    -0.267 N 
ATOM     21  H   UNL d   1       4.640  -0.736  -4.926  0.00  0.00     0.190 HD
ATOM     22  O   UNL d   1       3.784  -1.379  -7.944  0.00  0.00    -0.271 OA
BRANCH  20  23
ATOM     23  N   UNL d   1       5.258   0.402  -6.545  0.00  0.00    -0.263 N 
ATOM     24  C   UNL d   1       5.289   1.621  -5.895  0.00  0.00     0.270 C 
ATOM     25  O   UNL d   1       4.801   1.827  -4.789  0.00  0.00    -0.266 OA
ATOM     26  H   UNL d   1       5.357   0.344  -7.558  0.00  0.00     0.190 HD
BRANCH  24  27
ATOM     27  C   UNL d   1       5.982   2.699  -6.648  0.00  0.00     0.033 A 
ATOM     28  C   UNL d   1       5.546   4.024  -6.541  0.00  0.00     0.020 A 
ATOM     29  C   UNL d   1       6.204   5.038  -7.251  0.00  0.00     0.038 A 
ATOM     30  C   UNL d   1       7.304   4.729  -8.055  0.00  0.00     0.068 A 
ATOM     31  C   UNL d   1       7.760   3.412  -8.126  0.00  0.00     0.038 A 
ATOM     32  C   UNL d   1       7.101   2.400  -7.432  0.00  0.00     0.020 A 
BRANCH  30  33
ATOM     33  O   UNL d   1       8.044   5.630  -8.767  0.00  0.00    -0.356 OA
ATOM     34  C   UNL d   1       7.340   6.773  -9.236  0.00  0.00     0.210 C 
ENDBRANCH  30  33
ENDBRANCH  24  27
ENDBRANCH  20  23
ENDBRANCH  18  19
ENDBRANCH   1  18
TORSDOF 10
