REMARK  9 active torsions:
REMARK  status: ('A' for Active; 'I' for Inactive)
REMARK    1  A    between atoms: C_2  and  C_1 
REMARK    2  A    between atoms: N_10  and  C_1 
REMARK    3  A    between atoms: C_3  and  C_6 
REMARK    4  A    between atoms: O_11  and  N_4 
REMARK    5  A    between atoms: C_7  and  O_14 
REMARK    6  A    between atoms: C_8  and  C_9 
REMARK    7  A    between atoms: C_9  and  O_11 
REMARK    8  A    between atoms: C_19  and  N_10 
REMARK    9  A    between atoms: O_14  and  C_23 
ROOT
ATOM      1  C   UNL d   1       0.878   0.102  -0.096  0.00  0.00     0.140 C 
ATOM      2  N   UNL d   1       0.282  -0.107  -1.235  0.00  0.00    -0.240 N 
ATOM      3  HN  UNL d   1       0.779  -0.225  -2.118  1.00  0.00     0.196 HD
ENDROOT
BRANCH   1   4
ATOM      4  C   UNL d   1       2.376   0.088  -0.174  0.00  0.00     0.053 A 
ATOM      5  C   UNL d   1       3.129   1.235   0.122  0.00  0.00     0.049 A 
ATOM      6 CL   UNL d   1       2.416   2.751   0.553  0.00  0.00    -0.083 Cl
ATOM      7  C   UNL d   1       4.529   1.201   0.035  0.00  0.00     0.025 A 
ATOM      8  C   UNL d   1       5.183   0.049  -0.383  0.00  0.00     0.003 A 
ATOM      9  C   UNL d   1       4.441  -1.086  -0.713  0.00  0.00     0.025 A 
ATOM     10  C   UNL d   1       3.044  -1.072  -0.600  0.00  0.00     0.049 A 
ATOM     11 CL   UNL d   1       2.226  -2.557  -0.951  0.00  0.00    -0.083 Cl
ENDBRANCH   1   4
BRANCH   1  12
ATOM     12  N   UNL d   1       0.204   0.380   1.079  0.00  0.00    -0.340 N 
ATOM     13  H   UNL d   1      -0.753   0.685   0.957  0.00  0.00     0.167 HD
BRANCH  12  14
ATOM     14  C   UNL d   1       0.682   0.401   2.397  0.00  0.00     0.033 A 
ATOM     15  C   UNL d   1       0.246   1.409   3.272  0.00  0.00     0.032 A 
ATOM     16  C   UNL d   1       0.805   1.557   4.549  0.00  0.00     0.039 A 
ATOM     17  C   UNL d   1       1.823   0.702   4.963  0.00  0.00     0.078 A 
ATOM     18  C   UNL d   1       2.218  -0.342   4.127  0.00  0.00     0.039 A 
ATOM     19  C   UNL d   1       1.663  -0.482   2.853  0.00  0.00     0.032 A 
BRANCH  17  20
ATOM     20  O   UNL d   1       2.492   0.768   6.149  0.00  0.00    -0.255 OA
BRANCH  20  21
ATOM     21  C   UNL d   1       2.637   2.054   6.733  0.00  0.00     0.530 C 
ATOM     22  F   UNL d   1       2.818   3.023   5.810  0.00  0.00    -0.144 F 
ATOM     23  F   UNL d   1       1.556   2.350   7.486  0.00  0.00    -0.144 F 
ATOM     24  F   UNL d   1       3.723   2.038   7.537  0.00  0.00    -0.144 F 
ENDBRANCH  20  21
ENDBRANCH  17  20
ENDBRANCH  12  14
ENDBRANCH   1  12
BRANCH   2  25
ATOM     25  O   UNL d   1      -1.121  -0.155  -1.119  0.00  0.00    -0.193 OA
BRANCH  25  26
ATOM     26  C   UNL d   1      -1.651  -0.341  -2.365  0.00  0.00     0.316 C 
ATOM     27  O   UNL d   1      -1.067  -0.424  -3.436  0.00  0.00    -0.257 OA
BRANCH  26  28
ATOM     28  C   UNL d   1      -3.112  -0.563  -2.272  0.00  0.00     0.056 A 
ATOM     29  C   UNL d   1      -4.004   0.287  -1.598  0.00  0.00     0.064 A 
ATOM     30  C   UNL d   1      -5.380  -0.027  -1.631  0.00  0.00     0.017 A 
ATOM     31  C   UNL d   1      -5.855  -1.134  -2.336  0.00  0.00     0.001 A 
ATOM     32  C   UNL d   1      -4.965  -1.957  -3.017  0.00  0.00     0.001 A 
ATOM     33  C   UNL d   1      -3.601  -1.673  -2.986  0.00  0.00     0.018 A 
BRANCH  29  34
ATOM     34  C   UNL d   1      -3.572   1.514  -0.840  0.00  0.00     0.418 C 
ATOM     35  F   UNL d   1      -2.393   2.051  -1.243  0.00  0.00    -0.166 F 
ATOM     36  F   UNL d   1      -4.478   2.529  -0.930  0.00  0.00    -0.166 F 
ATOM     37  F   UNL d   1      -3.431   1.263   0.492  0.00  0.00    -0.166 F 
ENDBRANCH  29  34
ENDBRANCH  26  28
ENDBRANCH  25  26
ENDBRANCH   2  25
TORSDOF 9
