REMARK  4 active torsions:
REMARK  status: ('A' for Active; 'I' for Inactive)
REMARK    1  A    between atoms: C_2  and  C_1 
REMARK    2  A    between atoms: S_9  and  C_2 
REMARK    3  A    between atoms: C_5  and  C_10 
REMARK    4  A    between atoms: C_12  and  S_9 
ROOT
ATOM      1  S   UNL d   1      -1.292   3.118  -0.682  0.00  0.00    -0.047 SA
ENDROOT
BRANCH   1   2
ATOM      2  C   UNL d   1      -0.401   1.841   0.134  0.00  0.00     0.228 C 
ATOM      3  O   UNL d   1      -0.052   1.963   1.300  0.00  0.00    -0.279 OA
BRANCH   2   4
ATOM      4  C   UNL d   1       0.001   0.727  -0.702  0.00  0.00     0.077 A 
ATOM      5  C   UNL d   1       1.273   0.190  -0.719  0.00  0.00     0.089 A 
ATOM      6  O   UNL d   1       1.320  -0.854  -1.584  0.00  0.00    -0.242 OA
ATOM      7  C   UNL d   1       2.547   0.525  -0.050  0.00  0.00     0.080 C 
ATOM      8  N   UNL d   1       0.082  -1.034  -2.155  0.00  0.00    -0.265 N 
ATOM      9  C   UNL d   1      -0.713  -0.094  -1.621  0.00  0.00     0.046 A 
ATOM     10  HN  UNL d   1      -0.179  -1.738  -2.845  1.00  0.00     0.194 HD
ATOM     11  C   UNL d   1      -2.139  -0.080  -2.019  0.00  0.00     0.071 C 
ENDBRANCH   2   4
ENDBRANCH   1   2
BRANCH   1  12
ATOM     12  C   UNL d   1      -2.995   2.713  -0.343  0.00  0.00     0.009 A 
ATOM     13  C   UNL d   1      -3.917   2.887  -1.385  0.00  0.00     0.035 A 
ATOM     14  C   UNL d   1      -5.266   2.530  -1.234  0.00  0.00     0.049 A 
ATOM     15  C   UNL d   1      -5.694   2.026   0.001  0.00  0.00     0.016 A 
ATOM     16  C   UNL d   1      -4.788   1.884   1.058  0.00  0.00     0.002 A 
ATOM     17  C   UNL d   1      -3.445   2.226   0.885  0.00  0.00     0.019 A 
BRANCH  14  18
ATOM     18  C   UNL d   1      -6.238   2.677  -2.380  0.00  0.00     0.417 C 
ATOM     19  F   UNL d   1      -5.643   3.040  -3.549  0.00  0.00    -0.166 F 
ATOM     20  F   UNL d   1      -6.904   1.519  -2.647  0.00  0.00    -0.166 F 
ATOM     21  F   UNL d   1      -7.192   3.614  -2.138  0.00  0.00    -0.166 F 
ENDBRANCH  14  18
ENDBRANCH   1  12
TORSDOF 4
