REMARK  5 active torsions:
REMARK  status: ('A' for Active; 'I' for Inactive)
REMARK    1  A    between atoms: C_14  and  C_3 
REMARK    2  A    between atoms: C_9  and  C_4 
REMARK    3  A    between atoms: C_5  and  C_7 
REMARK    4  A    between atoms: C_15  and  O_22 
REMARK    5  A    between atoms: O_22  and  C_29 
ROOT
ATOM      1  C   UNL d   1      -0.032  -2.575  -0.109  0.00  0.00    -0.002 A 
ATOM      2  C   UNL d   1       0.510  -3.329   0.941  0.00  0.00     0.017 A 
ATOM      3  C   UNL d   1      -0.780  -3.244  -1.092  0.00  0.00     0.017 A 
ATOM      4  C   UNL d   1      -0.402  -5.370   0.004  0.00  0.00     0.077 A 
ATOM      5  C   UNL d   1      -0.967  -4.630  -1.033  0.00  0.00     0.038 A 
ATOM      6  C   UNL d   1       0.304  -4.709   1.014  0.00  0.00     0.038 A 
ENDROOT
BRANCH   1   7
ATOM      7  C   UNL d   1       0.209  -1.124  -0.136  0.00  0.00     0.084 A 
ATOM      8  N   UNL d   1       1.298  -0.542   0.333  0.00  0.00    -0.349 N 
ATOM      9  C   UNL d   1       1.194   0.836   0.230  0.00  0.00     0.050 A 
ATOM     10  HN  UNL d   1       2.103  -1.037   0.716  1.00  0.00     0.166 HD
ATOM     11  C   UNL d   1       0.015   1.286  -0.333  0.00  0.00     0.082 A 
ATOM     12  S   UNL d   1      -0.992  -0.038  -0.727  0.00  0.00    -0.081 SA
BRANCH   9  13
ATOM     13  C   UNL d   1       2.265   1.718   0.676  0.00  0.00    -0.006 A 
ATOM     14  C   UNL d   1       1.988   2.994   1.188  0.00  0.00     0.053 A 
ATOM     15  C   UNL d   1       3.026   3.834   1.589  0.00  0.00     0.103 A 
ATOM     16  O   UNL d   1       2.663   5.071   2.057  0.00  0.00    -0.346 OA
ATOM     17  C   UNL d   1       4.353   3.400   1.513  0.00  0.00     0.102 A 
ATOM     18  C   UNL d   1       3.785   5.958   2.113  0.00  0.00     0.202 C 
ATOM     19  C   UNL d   1       4.989   5.264   2.730  0.00  0.00     0.202 C 
ATOM     20  O   UNL d   1       5.416   4.168   1.914  0.00  0.00    -0.346 OA
ATOM     21  C   UNL d   1       4.640   2.135   1.007  0.00  0.00     0.040 A 
ATOM     22  C   UNL d   1       3.601   1.295   0.596  0.00  0.00     0.017 A 
ENDBRANCH   9  13
ENDBRANCH   1   7
BRANCH   4  23
ATOM     23  O   UNL d   1      -0.635  -6.729  -0.011  0.00  0.00    -0.294 OA
BRANCH  23  24
ATOM     24  C   UNL d   1       0.349  -7.558   0.508  0.00  0.00     0.147 A 
ATOM     25  N   UNL d   1       1.649  -7.201   0.397  0.00  0.00    -0.346 N 
ATOM     26  C   UNL d   1       2.559  -7.976   1.022  0.00  0.00     0.106 A 
ATOM     27  HN  UNL d   1       1.930  -6.379  -0.138  1.00  0.00     0.167 HD
ATOM     28  C   UNL d   1       2.235  -9.120   1.737  0.00  0.00     0.063 A 
ATOM     29  C   UNL d   1       0.890  -9.508   1.764  0.00  0.00     0.022 A 
ATOM     30  C   UNL d   1      -0.071  -8.718   1.138  0.00  0.00     0.057 A 
BRANCH  28  31
ATOM     31  C   UNL d   1       3.296  -9.880   2.471  0.00  0.00     0.418 C 
ATOM     32  F   UNL d   1       4.532  -9.318   2.379  0.00  0.00    -0.166 F 
ATOM     33  F   UNL d   1       3.031  -9.976   3.803  0.00  0.00    -0.166 F 
ATOM     34  F   UNL d   1       3.430 -11.156   2.023  0.00  0.00    -0.166 F 
ENDBRANCH  28  31
ENDBRANCH  23  24
ENDBRANCH   4  23
TORSDOF 5
