REMARK  7 active torsions:
REMARK  status: ('A' for Active; 'I' for Inactive)
REMARK    1  A    between atoms: C_9  and  C_1 
REMARK    2  A    between atoms: C_8  and  C_2 
REMARK    3  A    between atoms: C_7  and  C_3 
REMARK    4  A    between atoms: O_16  and  C_8 
REMARK    5  A    between atoms: O_17  and  C_9 
REMARK    6  A    between atoms: O_21  and  C_10 
REMARK    7  A    between atoms: O_22  and  C_15 
ROOT
ATOM      1  C   UNL d   1      -1.197  -1.028   0.098  0.00  0.00     0.052 C 
ATOM      2  C   UNL d   1       1.370  -1.024   0.077  0.00  0.00     0.052 C 
ATOM      3  C   UNL d   1       0.088  -1.823  -0.195  0.00  0.00     0.103 C 
ATOM      4  C   UNL d   1      -1.149   0.314   0.271  0.00  0.00     0.018 C 
ATOM      5  C   UNL d   1       1.308   0.321   0.248  0.00  0.00     0.018 C 
ATOM      6  N   UNL d   1       0.078   0.959   0.261  0.00  0.00    -0.362 N 
ATOM      7  C   UNL d   1      -2.324   1.241   0.479  0.00  0.00     0.069 C 
ATOM      8  C   UNL d   1       2.504   1.225   0.417  0.00  0.00     0.069 C 
ATOM      9  H   UNL d   1       0.076   1.949   0.491  0.00  0.00     0.165 HD
ENDROOT
BRANCH   3  10
ATOM     10  C   UNL d   1       0.109  -2.470  -1.597  0.00  0.00    -0.009 A 
ATOM     11  C   UNL d   1       0.162  -1.746  -2.804  0.00  0.00     0.075 A 
ATOM     12  C   UNL d   1       0.121  -2.426  -4.029  0.00  0.00     0.040 A 
ATOM     13  C   UNL d   1       0.154  -3.818  -4.080  0.00  0.00     0.039 A 
ATOM     14  C   UNL d   1       0.214  -4.548  -2.901  0.00  0.00     0.068 A 
ATOM     15  C   UNL d   1       0.132  -3.882  -1.676  0.00  0.00     0.047 A 
BRANCH  11  16
ATOM     16  O   UNL d   1       0.250  -0.380  -2.741  0.00  0.00    -0.355 OA
ATOM     17  C   UNL d   1       0.905   0.239  -3.850  0.00  0.00     0.210 C 
ENDBRANCH  11  16
BRANCH  14  18
ATOM     18  O   UNL d   1       0.332  -5.910  -2.846  0.00  0.00    -0.356 OA
ATOM     19  C   UNL d   1       1.108  -6.471  -3.904  0.00  0.00     0.210 C 
ENDBRANCH  14  18
ENDBRANCH   3  10
BRANCH   2  20
ATOM     20  C   UNL d   1       2.662  -1.756   0.195  0.00  0.00     0.291 C 
ATOM     21  O   UNL d   1       3.760  -1.231   0.318  0.00  0.00    -0.260 OA
BRANCH  20  22
ATOM     22  O   UNL d   1       2.464  -3.101   0.219  0.00  0.00    -0.323 OA
ATOM     23  C   UNL d   1       3.662  -3.870   0.339  0.00  0.00     0.213 C 
ENDBRANCH  20  22
ENDBRANCH   2  20
BRANCH   1  24
ATOM     24  C   UNL d   1      -2.425  -1.856   0.269  0.00  0.00     0.291 C 
ATOM     25  O   UNL d   1      -2.619  -2.920  -0.304  0.00  0.00    -0.260 OA
BRANCH  24  26
ATOM     26  O   UNL d   1      -3.232  -1.343   1.230  0.00  0.00    -0.323 OA
ATOM     27  C   UNL d   1      -4.453  -2.058   1.442  0.00  0.00     0.213 C 
ENDBRANCH  24  26
ENDBRANCH   1  24
TORSDOF 7
