REMARK  8 active torsions:
REMARK  status: ('A' for Active; 'I' for Inactive)
REMARK    1  A    between atoms: C_19  and  N_1 
REMARK    2  A    between atoms: C_8  and  C_2 
REMARK    3  A    between atoms: S_9  and  C_5 
REMARK    4  A    between atoms: C_25  and  S_9 
REMARK    5  A    between atoms: C_10  and  C_12 
REMARK    6  A    between atoms: O_26  and  C_10 
REMARK    7  A    between atoms: C_21  and  C_19 
REMARK    8  A    between atoms: C_27  and  C_25 
ROOT
ATOM      1  N   UNL d   1      -0.294  -1.242   0.017  0.00  0.00    -0.307 N 
ATOM      2  C   UNL d   1       0.936  -0.609  -0.089  0.00  0.00     0.135 A 
ATOM      3  N   UNL d   1       0.703   0.684  -0.263  0.00  0.00    -0.283 N 
ATOM      4  HN  UNL d   1       1.419   1.401  -0.389  1.00  0.00     0.188 HD
ATOM      5  C   UNL d   1      -1.237  -0.247  -0.077  0.00  0.00     0.163 A 
ATOM      6  N   UNL d   1      -0.647   0.909  -0.247  0.00  0.00    -0.278 N 
ATOM      7  HN  UNL d   1      -1.109   1.813  -0.350  1.00  0.00     0.189 HD
ENDROOT
BRANCH   5   8
ATOM      8  S   UNL d   1      -2.949  -0.503   0.023  0.00  0.00    -0.088 SA
BRANCH   8   9
ATOM      9  C   UNL d   1      -3.571   1.058  -0.676  0.00  0.00     0.121 C 
BRANCH   9  10
ATOM     10  C   UNL d   1      -5.079   1.153  -0.590  0.00  0.00    -0.048 A 
ATOM     11  C   UNL d   1      -5.685   1.764   0.517  0.00  0.00     0.009 A 
ATOM     12  C   UNL d   1      -7.078   1.863   0.602  0.00  0.00     0.018 A 
ATOM     13  C   UNL d   1      -7.888   1.355  -0.419  0.00  0.00     0.039 A 
ATOM     14  C   UNL d   1      -7.293   0.731  -1.522  0.00  0.00     0.018 A 
ATOM     15  C   UNL d   1      -5.898   0.628  -1.603  0.00  0.00     0.009 A 
BRANCH  13  16
ATOM     16  C   UNL d   1      -9.362   1.495  -0.276  0.00  0.00     0.292 C 
ATOM     17  O   UNL d   1      -9.914   1.745   0.784  0.00  0.00    -0.259 OA
BRANCH  16  18
ATOM     18  O   UNL d   1      -9.977   1.357  -1.478  0.00  0.00    -0.323 OA
ATOM     19  C   UNL d   1     -11.391   1.558  -1.427  0.00  0.00     0.213 C 
ENDBRANCH  16  18
ENDBRANCH  13  16
ENDBRANCH   9  10
ENDBRANCH   8   9
ENDBRANCH   5   8
BRANCH   1  20
ATOM     20  C   UNL d   1      -0.562  -2.670   0.059  0.00  0.00     0.159 C 
BRANCH  20  21
ATOM     21  C   UNL d   1      -0.704  -3.267   1.435  0.00  0.00    -0.017 C 
ATOM     22  C   UNL d   1      -0.560  -2.660   2.622  0.00  0.00     0.008 C 
ENDBRANCH  20  21
ENDBRANCH   1  20
BRANCH   2  23
ATOM     23  C   UNL d   1       2.292  -1.189  -0.064  0.00  0.00     0.011 A 
ATOM     24  C   UNL d   1       3.327  -0.511  -0.731  0.00  0.00     0.029 A 
ATOM     25  C   UNL d   1       4.659  -0.977  -0.705  0.00  0.00    -0.009 A 
ATOM     26  C   UNL d   1       5.702  -0.294  -1.346  0.00  0.00     0.015 A 
ATOM     27  C   UNL d   1       4.981  -2.155  -0.007  0.00  0.00     0.042 A 
ATOM     28  C   UNL d   1       7.001  -0.785  -1.275  0.00  0.00     0.018 A 
ATOM     29  C   UNL d   1       7.212  -1.953  -0.568  0.00  0.00     0.088 A 
ATOM     30  N   UNL d   1       6.234  -2.643   0.057  0.00  0.00    -0.365 N 
ATOM     31  HN  UNL d   1       6.438  -3.505   0.561  1.00  0.00     0.165 HD
ATOM     32  C   UNL d   1       3.959  -2.819   0.649  0.00  0.00     0.031 A 
ATOM     33  C   UNL d   1       2.639  -2.344   0.640  0.00  0.00     0.017 A 
ENDBRANCH   2  23
TORSDOF 8
