REMARK  3 active torsions:
REMARK  status: ('A' for Active; 'I' for Inactive)
REMARK    1  A    between atoms: C_3  and  C_1 
REMARK    2  A    between atoms: O_19  and  C_10 
REMARK    3  A    between atoms: O_20  and  C_11 
ROOT
ATOM      1  C   UNL d   1       0.536  -1.569   0.482  0.00  0.00     0.153 C 
ATOM      2  C   UNL d   1      -0.602  -0.618   0.168  0.00  0.00    -0.021 A 
ATOM      3  N   UNL d   1       1.807  -1.068  -0.002  0.00  0.00    -0.348 N 
ATOM      4  C   UNL d   1      -0.361   0.748  -0.006  0.00  0.00    -0.038 A 
ATOM      5  C   UNL d   1       2.141   0.245  -0.126  0.00  0.00     0.222 C 
ATOM      6  C   UNL d   1      -1.920  -1.087   0.077  0.00  0.00     0.049 A 
ATOM      7  C   UNL d   1      -1.442   1.629  -0.170  0.00  0.00     0.047 A 
ATOM      8  C   UNL d   1      -3.000  -0.217  -0.143  0.00  0.00     0.102 A 
ATOM      9  C   UNL d   1      -2.767   1.166  -0.225  0.00  0.00     0.102 A 
ATOM     10  C   UNL d   1       1.048   1.286   0.004  0.00  0.00     0.142 C 
ATOM     11  O   UNL d   1       3.313   0.560  -0.331  0.00  0.00    -0.273 OA
ATOM     12  H   UNL d   1       2.589  -1.709  -0.053  0.00  0.00     0.163 HD
ENDROOT
BRANCH   1  13
ATOM     13  C   UNL d   1       0.633  -1.931   1.963  0.00  0.00    -0.009 A 
ATOM     14  C   UNL d   1       0.561  -3.260   2.424  0.00  0.00     0.044 A 
ATOM     15  C   UNL d   1       0.676  -3.558   3.787  0.00  0.00     0.048 A 
ATOM     16 CL   UNL d   1       0.339  -4.601   1.355  0.00  0.00    -0.084 Cl
ATOM     17  C   UNL d   1       0.863  -2.535   4.712  0.00  0.00     0.035 A 
ATOM     18  C   UNL d   1       0.933  -1.214   4.288  0.00  0.00     0.024 A 
ATOM     19 CL   UNL d   1       1.009  -2.906   6.384  0.00  0.00    -0.084 Cl
ATOM     20  C   UNL d   1       0.821  -0.917   2.927  0.00  0.00     0.013 A 
ENDBRANCH   1  13
BRANCH   8  21
ATOM     21  O   UNL d   1      -4.192  -0.890  -0.229  0.00  0.00    -0.353 OA
ATOM     22  C   UNL d   1      -5.352  -0.178  -0.635  0.00  0.00     0.210 C 
ENDBRANCH   8  21
BRANCH   9  23
ATOM     23  O   UNL d   1      -3.842   2.002  -0.355  0.00  0.00    -0.353 OA
ATOM     24  C   UNL d   1      -3.622   3.405  -0.282  0.00  0.00     0.210 C 
ENDBRANCH   9  23
TORSDOF 3
