REMARK  2 active torsions:
REMARK  status: ('A' for Active; 'I' for Inactive)
REMARK       I    between atoms: N_2  and  C_1 
REMARK       I    between atoms: N_7  and  C_1 
REMARK    1  A    between atoms: C_4  and  N_3 
REMARK    2  A    between atoms: C_18  and  N_7 
ROOT
ATOM      1  C   UNL d   1      -0.992  -2.448  -4.637  0.00  0.00     0.103 A 
ATOM      2  N   UNL d   1      -1.546  -1.790  -5.676  0.00  0.00    -0.351 N 
ATOM      3  HN  UNL d   1      -1.479  -0.774  -5.747  1.00  0.00     0.166 HD
ATOM      4  N   UNL d   1      -3.597  -5.145  -8.460  0.00  0.00    -0.191 NA
ATOM      5  C   UNL d   1      -3.045  -4.576  -7.617  0.00  0.00     0.101 C 
ATOM      6  C   UNL d   1      -2.356  -3.883  -6.577  0.00  0.00     0.060 A 
ATOM      7  C   UNL d   1      -1.139  -3.832  -4.516  0.00  0.00     0.050 A 
ATOM      8  C   UNL d   1      -2.195  -2.511  -6.626  0.00  0.00     0.112 A 
ATOM      9  C   UNL d   1      -1.830  -4.557  -5.487  0.00  0.00     0.028 A 
ENDROOT
BRANCH   1  10
ATOM     10  N   UNL d   1      -0.320  -1.731  -3.685  0.00  0.00    -0.364 N 
ATOM     11  C   UNL d   1      -0.630  -0.326  -3.433  0.00  0.00     0.144 C 
ATOM     12  C   UNL d   1      -0.795  -0.131  -1.906  0.00  0.00     0.147 C 
ATOM     13  N   UNL d   1       0.333  -0.696  -1.132  0.00  0.00    -0.331 N 
ATOM     14  C   UNL d   1       0.956  -0.160  -0.019  0.00  0.00     0.323 C 
ATOM     15  C   UNL d   1       0.707  -2.073  -1.509  0.00  0.00     0.147 C 
ATOM     16  N   UNL d   1       0.558   1.101   0.346  0.00  0.00    -0.309 N 
ATOM     17  O   UNL d   1       1.830  -0.796   0.575  0.00  0.00    -0.247 OA
ATOM     18  H   UNL d   1      -0.340   1.413   0.020  0.00  0.00     0.170 HD
ATOM     19  C   UNL d   1       0.887  -2.223  -3.024  0.00  0.00     0.144 C 
BRANCH  16  20
ATOM     20  C   UNL d   1       1.198   1.944   1.280  0.00  0.00     0.036 A 
ATOM     21  C   UNL d   1       2.490   1.714   1.766  0.00  0.00     0.031 A 
ATOM     22  C   UNL d   1       3.107   2.632   2.620  0.00  0.00     0.026 A 
ATOM     23  C   UNL d   1       2.430   3.785   2.998  0.00  0.00     0.034 A 
ATOM     24  C   UNL d   1       1.132   4.016   2.549  0.00  0.00     0.026 A 
ATOM     25 CL   UNL d   1       3.209   4.941   4.005  0.00  0.00    -0.084 Cl
ATOM     26  C   UNL d   1       0.519   3.099   1.689  0.00  0.00     0.031 A 
ENDBRANCH  16  20
ENDBRANCH   1  10
TORSDOF 2
