REMARK  5 active torsions:
REMARK  status: ('A' for Active; 'I' for Inactive)
REMARK    1  A    between atoms: N_2  and  C_1 
REMARK    2  A    between atoms: O_9  and  C_3 
REMARK    3  A    between atoms: N_13  and  C_6 
REMARK    4  A    between atoms: C_14  and  O_9 
REMARK    5  A    between atoms: O_20  and  C_15 
ROOT
ATOM      1  C   UNL d   1       0.597   0.203  -0.409  0.00  0.00     0.192 A 
ATOM      2  C   UNL d   1       0.862  -1.077   0.017  0.00  0.00     0.185 A 
ATOM      3  N   UNL d   1      -0.062  -1.834   0.647  0.00  0.00    -0.331 N 
ATOM      4  HN  UNL d   1       0.150  -2.769   0.995  1.00  0.00     0.168 HD
ATOM      5  C   UNL d   1      -0.675   0.705  -0.225  0.00  0.00     0.118 A 
ATOM      6  N   UNL d   1      -1.618  -0.054   0.372  0.00  0.00    -0.341 N 
ATOM      7  HN  UNL d   1      -2.567   0.295   0.506  1.00  0.00     0.167 HD
ATOM      8  C   UNL d   1      -1.269  -1.282   0.785  0.00  0.00     0.183 A 
ENDROOT
BRANCH   2   9
ATOM      9  O   UNL d   1       2.132  -1.607  -0.193  0.00  0.00    -0.291 OA
BRANCH   9  10
ATOM     10  C   UNL d   1       2.245  -2.978  -0.185  0.00  0.00     0.078 A 
ATOM     11  C   UNL d   1       1.462  -3.793  -1.007  0.00  0.00     0.040 A 
ATOM     12  C   UNL d   1       1.591  -5.184  -0.941  0.00  0.00     0.039 A 
ATOM     13  C   UNL d   1       2.522  -5.760  -0.075  0.00  0.00     0.068 A 
ATOM     14  C   UNL d   1       3.352  -4.934   0.688  0.00  0.00     0.039 A 
ATOM     15  C   UNL d   1       3.219  -3.544   0.634  0.00  0.00     0.040 A 
BRANCH  13  16
ATOM     16  O   UNL d   1       2.721  -7.102   0.100  0.00  0.00    -0.356 OA
ATOM     17  C   UNL d   1       1.699  -7.959  -0.397  0.00  0.00     0.210 C 
ENDBRANCH  13  16
ENDBRANCH   9  10
ENDBRANCH   2   9
BRANCH   1  18
ATOM     18  N   UNL d   1       1.626   0.949  -1.047  0.00  0.00    -0.108 N 
ATOM     19  O   UNL d   1       2.404   1.569  -0.308  0.00  0.00    -0.532 OA
ATOM     20  O   UNL d   1       1.670   0.920  -2.283  0.00  0.00    -0.532 OA
ENDBRANCH   1  18
BRANCH   5  21
ATOM     21  N   UNL d   1      -1.172   1.929  -0.641  0.00  0.00    -0.281 NA
ATOM     22  C   UNL d   1      -0.432   3.145  -0.355  0.00  0.00     0.114 C 
ATOM     23  H   UNL d   1      -2.135   1.970  -0.302  0.00  0.00     0.128 HD
ENDBRANCH   5  21
TORSDOF 5
