REMARK  6 active torsions:
REMARK  status: ('A' for Active; 'I' for Inactive)
REMARK    1  A    between atoms: N_11  and  C_3 
REMARK    2  A    between atoms: C_9  and  C_4 
REMARK    3  A    between atoms: C_8  and  C_5 
REMARK    4  A    between atoms: O_20  and  C_9 
REMARK    5  A    between atoms: N_13  and  N_11 
REMARK       I    between atoms: C_14  and  N_13 
REMARK    6  A    between atoms: C_22  and  O_20 
ROOT
ATOM      1  N   UNL d   1       1.252   0.435  -0.103  0.00  0.00    -0.330 N 
ATOM      2  HN  UNL d   1       2.159   0.897  -0.171  1.00  0.00     0.168 HD
ATOM      3  C   UNL d   1       1.148  -0.920  -0.149  0.00  0.00     0.117 A 
ATOM      4  C   UNL d   1      -0.088  -1.553  -0.051  0.00  0.00     0.094 A 
ATOM      5  C   UNL d   1       0.118   1.145   0.034  0.00  0.00     0.123 A 
ATOM      6  N   UNL d   1      -1.114   0.622   0.131  0.00  0.00    -0.350 N 
ATOM      7  HN  UNL d   1      -1.944   1.205   0.234  1.00  0.00     0.166 HD
ATOM      8  C   UNL d   1      -1.185  -0.722   0.083  0.00  0.00     0.110 A 
ENDROOT
BRANCH   3   9
ATOM      9  N   UNL d   1       2.358  -1.662  -0.177  0.00  0.00    -0.187 NA
ATOM     10  H   UNL d   1       2.250  -2.578  -0.641  0.00  0.00     0.154 HD
BRANCH   9  11
ATOM     11  N   UNL d   1       3.433  -0.926  -0.724  0.00  0.00    -0.286 N 
ATOM     12  C   UNL d   1       4.270  -1.570  -1.612  0.00  0.00     0.228 C 
ATOM     13  O   UNL d   1       4.182  -2.768  -1.875  0.00  0.00    -0.273 OA
ATOM     14  C   UNL d   1       5.296  -0.685  -2.266  0.00  0.00     0.118 C 
ATOM     15  H   UNL d   1       3.418   0.079  -0.559  0.00  0.00     0.184 HD
ENDBRANCH   9  11
ENDBRANCH   3   9
BRANCH   4  16
ATOM     16  C   UNL d   1      -0.252  -3.010  -0.203  0.00  0.00     0.298 C 
ATOM     17  O   UNL d   1       0.675  -3.784  -0.394  0.00  0.00    -0.259 OA
BRANCH  16  18
ATOM     18  O   UNL d   1      -1.571  -3.324  -0.231  0.00  0.00    -0.318 OA
BRANCH  18  19
ATOM     19  C   UNL d   1      -1.908  -4.617  -0.756  0.00  0.00     0.174 C 
ATOM     20  C   UNL d   1      -2.076  -4.495  -2.260  0.00  0.00     0.034 C 
ENDBRANCH  18  19
ENDBRANCH  16  18
ENDBRANCH   4  16
BRANCH   5  21
ATOM     21  C   UNL d   1       0.195   2.608   0.080  0.00  0.00     0.049 A 
ATOM     22  S   UNL d   1       1.708   3.422   0.085  0.00  0.00    -0.098 SA
ATOM     23  C   UNL d   1       0.967   4.961   0.160  0.00  0.00     0.050 A 
ATOM     24  C   UNL d   1      -0.406   4.873   0.175  0.00  0.00     0.009 A 
ATOM     25  C   UNL d   1      -0.849   3.521   0.131  0.00  0.00     0.023 A 
ENDBRANCH   5  21
TORSDOF 6
