REMARK  6 active torsions:
REMARK  status: ('A' for Active; 'I' for Inactive)
REMARK    1  A    between atoms: C_9  and  N_1 
REMARK    2  A    between atoms: C_2  and  C_4 
REMARK    3  A    between atoms: C_3  and  C_5 
REMARK    4  A    between atoms: C_6  and  C_24 
REMARK       I    between atoms: N_10  and  C_6 
REMARK    5  A    between atoms: C_8  and  N_10 
REMARK    6  A    between atoms: C_24  and  C_25 
ROOT
ATOM      1  C   UNL d   1       1.610  -1.284  -4.451  0.00  0.00     0.050 A 
ATOM      2  C   UNL d   1      -0.383  -1.164  -3.054  0.00  0.00     0.050 A 
ATOM      3  C   UNL d   1       0.810  -1.802  -3.421  0.00  0.00     0.032 A 
ATOM      4  C   UNL d   1       0.013   0.546  -4.749  0.00  0.00     0.036 A 
ATOM      5  C   UNL d   1      -0.762   0.012  -3.721  0.00  0.00     0.045 A 
ATOM      6  C   UNL d   1       1.200  -0.108  -5.108  0.00  0.00     0.045 A 
ENDROOT
BRANCH   4   7
ATOM      7  N   UNL d   1      -0.373   1.674  -5.506  0.00  0.00    -0.327 N 
ATOM      8  C   UNL d   1      -1.468   2.495  -5.266  0.00  0.00     0.226 C 
ATOM      9  O   UNL d   1      -2.132   2.521  -4.234  0.00  0.00    -0.273 OA
ATOM     10  H   UNL d   1       0.213   1.907  -6.298  0.00  0.00     0.169 HD
BRANCH   8  11
ATOM     11  C   UNL d   1      -1.817   3.391  -6.443  0.00  0.00     0.141 C 
BRANCH  11  12
ATOM     12  C   UNL d   1      -1.623   4.880  -6.256  0.00  0.00    -0.049 A 
ATOM     13  C   UNL d   1      -0.999   5.448  -5.136  0.00  0.00     0.010 A 
ATOM     14  C   UNL d   1      -0.767   6.827  -5.072  0.00  0.00     0.036 A 
ATOM     15  C   UNL d   1      -1.161   7.647  -6.136  0.00  0.00     0.102 A 
ATOM     16  C   UNL d   1      -1.827   7.105  -7.239  0.00  0.00     0.036 A 
ATOM     17  C   UNL d   1      -2.055   5.729  -7.293  0.00  0.00     0.010 A 
BRANCH  15  18
ATOM     18  N   UNL d   1      -0.842   9.079  -6.114  0.00  0.00    -0.116 N 
ATOM     19  O   UNL d   1      -1.099   9.743  -7.128  0.00  0.00    -0.532 OA
ATOM     20  O   UNL d   1      -0.315   9.538  -5.090  0.00  0.00    -0.532 OA
ENDBRANCH  15  18
ENDBRANCH  11  12
ENDBRANCH   8  11
ENDBRANCH   4   7
BRANCH   2  21
ATOM     21  C   UNL d   1      -1.284  -1.726  -1.978  0.00  0.00     0.417 C 
ATOM     22  F   UNL d   1      -0.850  -2.917  -1.482  0.00  0.00    -0.166 F 
ATOM     23  F   UNL d   1      -1.403  -0.895  -0.908  0.00  0.00    -0.166 F 
ATOM     24  F   UNL d   1      -2.549  -1.950  -2.429  0.00  0.00    -0.166 F 
ENDBRANCH   2  21
BRANCH   1  25
ATOM     25  C   UNL d   1       2.887  -1.978  -4.867  0.00  0.00     0.417 C 
ATOM     26  F   UNL d   1       3.102  -3.158  -4.223  0.00  0.00    -0.166 F 
ATOM     27  F   UNL d   1       2.904  -2.270  -6.197  0.00  0.00    -0.166 F 
ATOM     28  F   UNL d   1       3.991  -1.216  -4.638  0.00  0.00    -0.166 F 
ENDBRANCH   1  25
TORSDOF 6
