REMARK  2 active torsions:
REMARK  status: ('A' for Active; 'I' for Inactive)
REMARK    1  A    between atoms: C_2  and  C_1 
REMARK    2  A    between atoms: O_7  and  N_3 
ROOT
ATOM      1  C   UNL d   1       2.369  -3.771  -0.015  0.00  0.00    -0.011 A 
ATOM      2  C   UNL d   1       0.970  -3.772  -0.043  0.00  0.00     0.032 A 
ATOM      3  C   UNL d   1       0.282  -4.986  -0.054  0.00  0.00     0.011 A 
ATOM      4 BR   UNL d   1      -1.609  -4.989  -0.085  0.00  0.00    -0.051 Br
ATOM      5  C   UNL d   1       3.061  -4.991  -0.021  0.00  0.00     0.013 A 
ATOM      6  C   UNL d   1       2.364  -6.202  -0.034  0.00  0.00     0.002 A 
ATOM      7  C   UNL d   1       0.970  -6.199  -0.047  0.00  0.00     0.019 A 
ENDROOT
BRANCH   1   8
ATOM      8  C   UNL d   1       3.156  -2.501  -0.002  0.00  0.00     0.038 C 
ATOM      9  N   UNL d   1       4.341  -2.499  -0.544  0.00  0.00    -0.273 N 
ATOM     10  HN  UNL d   1       4.774  -3.313  -0.980  1.00  0.00     0.193 HD
ATOM     11  C   UNL d   1       2.558  -1.272   0.655  0.00  0.00     0.071 C 
BRANCH   9  12
ATOM     12  O   UNL d   1       4.947  -1.241  -0.453  0.00  0.00    -0.290 OA
ATOM     13  H   UNL d   1       5.796  -1.385  -0.911  0.00  0.00     0.244 HD
ENDBRANCH   9  12
ENDBRANCH   1   8
TORSDOF 2
