REMARK  5 active torsions:
REMARK  status: ('A' for Active; 'I' for Inactive)
REMARK    1  A    between atoms: C_3  and  C_1 
REMARK    2  A    between atoms: C_6  and  C_2 
REMARK       I    between atoms: N_9  and  C_3 
REMARK    3  A    between atoms: C_14  and  N_9 
REMARK    4  A    between atoms: C_17  and  N_9 
REMARK    5  A    between atoms: C_15  and  C_17 
ROOT
ATOM      1  N   UNL d   1       0.192  -5.901   2.761  0.00  0.00    -0.197 NA
ATOM      2  C   UNL d   1       0.611  -5.662   1.706  0.00  0.00     0.060 C 
ATOM      3  C   UNL d   1       1.148  -5.387   0.371  0.00  0.00     0.143 C 
ENDROOT
BRANCH   3   4
ATOM      4  C   UNL d   1       0.073  -4.885  -0.600  0.00  0.00     0.140 C 
BRANCH   4   5
ATOM      5  N   UNL d   1      -0.570  -3.588  -0.296  0.00  0.00    -0.343 N 
ATOM      6  C   UNL d   1       0.256  -2.431  -0.350  0.00  0.00     0.259 C 
ATOM      7  O   UNL d   1       1.474  -2.555  -0.477  0.00  0.00    -0.267 OA
BRANCH   6   8
ATOM      8  C   UNL d   1      -0.317  -1.095  -0.225  0.00  0.00     0.092 C 
ATOM      9  C   UNL d   1       0.178   0.065   0.484  0.00  0.00     0.085 C 
ATOM     10  N   UNL d   1      -0.759   1.034   0.456  0.00  0.00    -0.259 N 
ATOM     11  O   UNL d   1      -1.668   0.669  -0.492  0.00  0.00    -0.241 OA
ATOM     12  HN  UNL d   1      -0.783   1.875   1.032  1.00  0.00     0.195 HD
ATOM     13  C   UNL d   1      -1.354  -0.557  -0.970  0.00  0.00     0.090 C 
ATOM     14  C   UNL d   1      -2.144  -0.960  -2.146  0.00  0.00     0.080 C 
BRANCH   9  15
ATOM     15  C   UNL d   1       1.439   0.346   1.191  0.00  0.00     0.015 A 
ATOM     16  C   UNL d   1       2.106   1.587   1.042  0.00  0.00     0.046 A 
ATOM     17 CL   UNL d   1       1.630   2.809  -0.097  0.00  0.00    -0.083 Cl
ATOM     18  C   UNL d   1       3.247   1.889   1.800  0.00  0.00     0.025 A 
ATOM     19  C   UNL d   1       3.765   0.954   2.686  0.00  0.00     0.002 A 
ATOM     20  C   UNL d   1       3.153  -0.291   2.807  0.00  0.00     0.001 A 
ATOM     21  C   UNL d   1       1.993  -0.593   2.072  0.00  0.00     0.015 A 
ENDBRANCH   9  15
ENDBRANCH   6   8
BRANCH   5  22
ATOM     22  C   UNL d   1      -2.050  -3.594  -0.132  0.00  0.00     0.079 C 
ATOM     23  C   UNL d   1      -2.755  -4.145  -1.384  0.00  0.00     0.032 C 
ATOM     24  C   UNL d   1      -2.523  -4.362   1.103  0.00  0.00     0.032 C 
ENDBRANCH   5  22
ENDBRANCH   4   5
ENDBRANCH   3   4
TORSDOF 5
