REMARK  11 active torsions:
REMARK  status: ('A' for Active; 'I' for Inactive)
REMARK    1  A    between atoms: C_7  and  N_1 
REMARK    2  A    between atoms: C_13  and  C_7 
REMARK    3  A    between atoms: C_15  and  C_13 
REMARK    4  A    between atoms: O_21  and  C_13 
REMARK    5  A    between atoms: N_17  and  C_15 
REMARK    6  A    between atoms: C_22  and  N_17 
REMARK    7  A    between atoms: C_23  and  N_17 
REMARK    8  A    between atoms: C_24  and  C_22 
REMARK    9  A    between atoms: C_25  and  C_23 
REMARK   10  A    between atoms: C_26  and  C_24 
REMARK   11  A    between atoms: C_27  and  C_25 
ROOT
ATOM      1  N   UNL d   1       1.771  -5.755  -1.303  0.00  0.00    -0.342 N 
ATOM      2  C   UNL d   1       2.866  -6.608  -1.113  0.00  0.00     0.064 C 
ATOM      3  C   UNL d   1       3.298  -6.952  -2.405  0.00  0.00     0.006 C 
ATOM      4  C   UNL d   1       2.247  -6.635  -3.312  0.00  0.00     0.005 A 
ATOM      5  C   UNL d   1       1.278  -5.934  -2.600  0.00  0.00     0.046 A 
ATOM      6  C   UNL d   1       3.569  -7.135  -0.003  0.00  0.00     0.040 C 
ATOM      7  C   UNL d   1       4.813  -7.753  -0.207  0.00  0.00     0.040 C 
ATOM      8  C   UNL d   1       0.108  -5.461  -3.233  0.00  0.00     0.032 A 
ATOM      9  C   UNL d   1       4.541  -7.597  -2.591  0.00  0.00     0.033 C 
ATOM     10  C   UNL d   1       2.044  -6.911  -4.682  0.00  0.00     0.033 A 
ATOM     11  C   UNL d   1       5.308  -7.944  -1.486  0.00  0.00     0.013 C 
ATOM     12 BR   UNL d   1       2.824  -7.397   1.720  0.00  0.00    -0.049 Br
ATOM     13  C   UNL d   1       0.869  -6.481  -5.298  0.00  0.00     0.011 A 
ATOM     14  C   UNL d   1      -0.082  -5.759  -4.589  0.00  0.00     0.021 A 
ATOM     15 BR   UNL d   1       6.978  -8.792  -1.729  0.00  0.00    -0.051 Br
ATOM     16 BR   UNL d   1       0.570  -6.906  -7.118  0.00  0.00    -0.051 Br
ENDROOT
BRANCH   1  17
ATOM     17  C   UNL d   1       1.518  -4.492  -0.582  0.00  0.00     0.163 C 
BRANCH  17  18
ATOM     18  C   UNL d   1       1.092  -4.574   0.888  0.00  0.00     0.164 C 
BRANCH  18  19
ATOM     19  C   UNL d   1       2.195  -4.035   1.853  0.00  0.00     0.305 C 
BRANCH  19  20
ATOM     20  N   UNL d   1       2.664  -2.648   1.756  0.00  0.00     0.090 N 
BRANCH  20  21
ATOM     21  C   UNL d   1       1.645  -1.593   1.908  0.00  0.00     0.272 C 
BRANCH  21  22
ATOM     22  C   UNL d   1       1.171  -1.125   3.307  0.00  0.00     0.030 C 
BRANCH  22  23
ATOM     23  C   UNL d   1      -0.005  -1.863   3.954  0.00  0.00    -0.003 C 
ATOM     24  C   UNL d   1       0.370  -2.991   4.900  0.00  0.00     0.005 C 
ENDBRANCH  22  23
ENDBRANCH  21  22
ENDBRANCH  20  21
BRANCH  20  25
ATOM     25  C   UNL d   1       3.850  -2.362   2.592  0.00  0.00     0.272 C 
BRANCH  25  26
ATOM     26  C   UNL d   1       5.054  -3.322   2.540  0.00  0.00     0.030 C 
BRANCH  26  27
ATOM     27  C   UNL d   1       5.713  -3.462   1.168  0.00  0.00    -0.003 C 
ATOM     28  C   UNL d   1       6.949  -4.348   1.264  0.00  0.00     0.005 C 
ENDBRANCH  26  27
ENDBRANCH  25  26
ENDBRANCH  20  25
ENDBRANCH  19  20
ENDBRANCH  18  19
BRANCH  18  29
ATOM     29  O   UNL d   1      -0.163  -3.911   1.091  0.00  0.00    -0.392 OA
ATOM     30  H   UNL d   1      -0.397  -4.034   2.028  0.00  0.00     0.210 HD
ENDBRANCH  18  29
ENDBRANCH  17  18
ENDBRANCH   1  17
TORSDOF 11
