REMARK  5 active torsions:
REMARK  status: ('A' for Active; 'I' for Inactive)
REMARK       I    between atoms: C_2  and  N_1 
REMARK       I    between atoms: C_3  and  N_1 
REMARK    1  A    between atoms: C_7  and  N_1 
REMARK       I    between atoms: N_4  and  C_2 
REMARK    2  A    between atoms: C_8  and  C_3 
REMARK    3  A    between atoms: C_10  and  N_4 
REMARK    4  A    between atoms: C_15  and  C_7 
REMARK    5  A    between atoms: S_14  and  C_13 
ROOT
ATOM      1  N   UNL d   1       2.478   0.517  -3.725  0.00  0.00    -0.197 NA
ATOM      2  C   UNL d   1       2.058  -0.303  -3.009  0.00  0.00     0.068 C 
ATOM      3  C   UNL d   1       1.537  -1.289  -2.057  0.00  0.00     0.227 C 
ENDROOT
BRANCH   3   4
ATOM      4  C   UNL d   1       0.531  -0.582  -1.148  0.00  0.00     0.241 C 
ATOM      5  N   UNL d   1       0.997   0.260  -0.132  0.00  0.00    -0.265 N 
ATOM      6  C   UNL d   1       0.136   0.832   0.828  0.00  0.00     0.329 C 
ATOM      7  N   UNL d   1      -1.128   1.175   0.374  0.00  0.00    -0.308 N 
ATOM      8  O   UNL d   1       0.498   0.998   1.994  0.00  0.00    -0.246 OA
ATOM      9  H   UNL d   1      -1.490   0.601  -0.384  0.00  0.00     0.170 HD
ATOM     10  O   UNL d   1      -0.675  -0.738  -1.373  0.00  0.00    -0.272 OA
BRANCH   5  11
ATOM     11  C   UNL d   1       2.401   0.222   0.292  0.00  0.00     0.175 C 
BRANCH  11  12
ATOM     12  C   UNL d   1       3.027   1.545   0.678  0.00  0.00    -0.040 A 
ATOM     13  C   UNL d   1       3.767   1.628   1.870  0.00  0.00     0.009 A 
ATOM     14  C   UNL d   1       4.455   2.793   2.204  0.00  0.00     0.001 A 
ATOM     15  C   UNL d   1       4.407   3.894   1.353  0.00  0.00     0.000 A 
ATOM     16  C   UNL d   1       3.656   3.836   0.180  0.00  0.00     0.001 A 
ATOM     17  C   UNL d   1       2.968   2.667  -0.161  0.00  0.00     0.009 A 
ENDBRANCH  11  12
ENDBRANCH   5  11
BRANCH   7  18
ATOM     18  C   UNL d   1      -2.059   1.933   1.130  0.00  0.00     0.037 A 
ATOM     19  C   UNL d   1      -1.651   2.881   2.078  0.00  0.00     0.048 A 
ATOM     20  C   UNL d   1      -2.579   3.563   2.878  0.00  0.00     0.002 A 
ATOM     21  C   UNL d   1      -3.941   3.320   2.681  0.00  0.00     0.018 A 
ATOM     22  C   UNL d   1      -4.364   2.422   1.699  0.00  0.00     0.004 A 
ATOM     23  C   UNL d   1      -3.425   1.739   0.916  0.00  0.00     0.029 A 
BRANCH  20  24
ATOM     24  S   UNL d   1      -2.110   4.757   4.126  0.00  0.00    -0.134 SA
ATOM     25  C   UNL d   1      -0.499   4.118   4.666  0.00  0.00     0.095 C 
ENDBRANCH  20  24
ENDBRANCH   7  18
ENDBRANCH   3   4
TORSDOF 5
