REMARK  5 active torsions:
REMARK  status: ('A' for Active; 'I' for Inactive)
REMARK    1  A    between atoms: C_11  and  C_1 
REMARK    2  A    between atoms: N_2  and  C_8 
REMARK    3  A    between atoms: C_7  and  O_10 
REMARK    4  A    between atoms: C_13  and  C_7 
REMARK    5  A    between atoms: O_10  and  C_11 
ROOT
ATOM      1  O   UNL d   1       4.221   1.342  -0.439  0.00  0.00    -0.312 OA
ENDROOT
BRANCH   1   2
ATOM      2  C   UNL d   1       4.926   2.057   0.468  0.00  0.00     0.293 C 
ATOM      3  O   UNL d   1       4.959   1.860   1.674  0.00  0.00    -0.259 OA
BRANCH   2   4
ATOM      4  C   UNL d   1       5.766   3.093  -0.198  0.00  0.00     0.039 A 
ATOM      5  C   UNL d   1       6.601   3.883   0.611  0.00  0.00     0.020 A 
ATOM      6  C   UNL d   1       7.470   4.821   0.042  0.00  0.00     0.037 A 
ATOM      7  C   UNL d   1       7.505   4.971  -1.350  0.00  0.00     0.102 A 
ATOM      8  C   UNL d   1       6.668   4.199  -2.169  0.00  0.00     0.037 A 
ATOM      9  C   UNL d   1       5.798   3.265  -1.590  0.00  0.00     0.020 A 
BRANCH   7  10
ATOM     10  N   UNL d   1       8.439   5.931  -1.956  0.00  0.00    -0.116 N 
ATOM     11  O   UNL d   1       9.146   6.606  -1.193  0.00  0.00    -0.532 OA
ATOM     12  O   UNL d   1       8.466   6.006  -3.192  0.00  0.00    -0.532 OA
ENDBRANCH   7  10
ENDBRANCH   2   4
ENDBRANCH   1   2
BRANCH   1  13
ATOM     13  C   UNL d   1       3.632   0.124   0.048  0.00  0.00     0.225 C 
BRANCH  13  14
ATOM     14  C   UNL d   1       2.138   0.254   0.002  0.00  0.00     0.014 A 
ATOM     15  S   UNL d   1       1.332  -0.060  -1.474  0.00  0.00    -0.091 SA
ATOM     16  C   UNL d   1      -0.222   0.168  -0.783  0.00  0.00     0.016 A 
ATOM     17  C   UNL d   1      -1.466   0.041  -1.435  0.00  0.00     0.019 A 
ATOM     18  C   UNL d   1      -0.131   0.511   0.566  0.00  0.00    -0.012 A 
ATOM     19  C   UNL d   1      -2.639   0.277  -0.715  0.00  0.00     0.001 A 
ATOM     20  C   UNL d   1      -2.580   0.632   0.624  0.00  0.00     0.001 A 
ATOM     21  C   UNL d   1      -1.343   0.747   1.267  0.00  0.00     0.013 A 
ATOM     22  C   UNL d   1       1.246   0.548   1.024  0.00  0.00    -0.035 A 
ATOM     23  C   UNL d   1       1.614   0.848   2.445  0.00  0.00     0.050 C 
ENDBRANCH  13  14
ENDBRANCH   1  13
TORSDOF 5
