REMARK  3 active torsions:
REMARK  status: ('A' for Active; 'I' for Inactive)
REMARK    1  A    between atoms: C_4  and  C_1 
REMARK    2  A    between atoms: C_12  and  C_2 
REMARK       I    between atoms: N_13  and  C_4 
REMARK    3  A    between atoms: N_15  and  N_13 
ROOT
ATOM      1  C   UNL d   1       0.816   0.773   1.124  0.00  0.00     0.043 C 
ATOM      2  C   UNL d   1      -1.494   0.302   0.125  0.00  0.00    -0.036 C 
ATOM      3  C   UNL d   1      -0.699   1.040   1.230  0.00  0.00     0.029 C 
ATOM      4  C   UNL d   1       1.045  -0.753   1.250  0.00  0.00     0.024 C 
ATOM      5  C   UNL d   1       1.312   1.235  -0.262  0.00  0.00     0.024 C 
ATOM      6  C   UNL d   1      -1.203  -1.222   0.249  0.00  0.00     0.014 C 
ATOM      7  C   UNL d   1      -0.939   0.759  -1.257  0.00  0.00     0.014 C 
ATOM      8  C   UNL d   1       0.304  -1.507   0.135  0.00  0.00    -0.012 C 
ATOM      9  C   UNL d   1       0.568   0.475  -1.375  0.00  0.00    -0.012 C 
ATOM     10  C   UNL d   1       0.814  -1.031  -1.229  0.00  0.00     0.009 C 
ENDROOT
BRANCH   1  11
ATOM     11  C   UNL d   1       1.532   1.509   2.257  0.00  0.00     0.240 C 
ATOM     12  O   UNL d   1       2.189   0.932   3.127  0.00  0.00    -0.271 OA
ATOM     13  N   UNL d   1       1.360   2.892   2.290  0.00  0.00    -0.293 N 
ATOM     14  H   UNL d   1       0.957   3.380   1.497  0.00  0.00     0.183 HD
BRANCH  13  15
ATOM     15  N   UNL d   1       1.972   3.645   3.314  0.00  0.00    -0.247 NA
ATOM     16  H   UNL d   1       2.469   2.974   3.917  0.00  0.00     0.143 HD
ATOM     17  H   UNL d   1       1.238   4.026   3.916  0.00  0.00     0.143 HD
ENDBRANCH  13  15
ENDBRANCH   1  11
BRANCH   2  18
ATOM     18  C   UNL d   1      -3.034   0.588   0.236  0.00  0.00    -0.014 C 
ATOM     19  C   UNL d   1      -3.643   0.141   1.575  0.00  0.00     0.010 C 
ATOM     20  C   UNL d   1      -3.399   2.065   0.015  0.00  0.00     0.010 C 
ENDBRANCH   2  18
TORSDOF 3
