REMARK  4 active torsions:
REMARK  status: ('A' for Active; 'I' for Inactive)
REMARK    1  A    between atoms: C_7  and  C_1 
REMARK    2  A    between atoms: C_8  and  C_3 
REMARK       I    between atoms: N_9  and  C_7 
REMARK    3  A    between atoms: C_17  and  N_9 
REMARK    4  A    between atoms: C_20  and  C_17 
ROOT
ATOM      1  C   UNL d   1      -0.156  -1.084  -0.060  0.00  0.00     0.097 A 
ATOM      2  S   UNL d   1       1.374  -0.306  -0.085  0.00  0.00    -0.063 SA
ATOM      3  C   UNL d   1       0.610   1.240  -0.021  0.00  0.00     0.103 A 
ATOM      4  N   UNL d   1      -0.709   1.190  -0.002  0.00  0.00    -0.351 N 
ATOM      5  HN  UNL d   1      -1.318   2.008   0.027  1.00  0.00     0.166 HD
ATOM      6  C   UNL d   1      -1.155  -0.123  -0.024  0.00  0.00     0.029 A 
ATOM      7  C   UNL d   1      -2.624  -0.361   0.001  0.00  0.00     0.070 C 
ENDROOT
BRANCH   1   8
ATOM      8  C   UNL d   1      -0.314  -2.531  -0.045  0.00  0.00     0.260 C 
ATOM      9  N   UNL d   1       0.836  -3.283  -0.154  0.00  0.00    -0.352 N 
ATOM     10  H   UNL d   1       1.719  -2.807  -0.282  0.00  0.00     0.163 HD
ATOM     11  O   UNL d   1      -1.412  -3.074   0.078  0.00  0.00    -0.267 OA
BRANCH   9  12
ATOM     12  C   UNL d   1       0.826  -4.722  -0.019  0.00  0.00     0.161 C 
BRANCH  12  13
ATOM     13  C   UNL d   1       0.675  -5.434  -1.336  0.00  0.00    -0.038 A 
ATOM     14  C   UNL d   1       1.792  -5.815  -2.085  0.00  0.00     0.025 A 
ATOM     15  C   UNL d   1       1.594  -6.507  -3.272  0.00  0.00     0.088 A 
ATOM     16  N   UNL d   1       0.379  -6.832  -3.760  0.00  0.00    -0.375 N 
ATOM     17  C   UNL d   1      -0.689  -6.441  -3.032  0.00  0.00     0.088 A 
ATOM     18  HN  UNL d   1       0.273  -7.347  -4.634  1.00  0.00     0.164 HD
ATOM     19  C   UNL d   1      -0.593  -5.748  -1.835  0.00  0.00     0.025 A 
ENDBRANCH  12  13
ENDBRANCH   9  12
ENDBRANCH   1   8
BRANCH   3  20
ATOM     20  C   UNL d   1       1.388   2.488   0.011  0.00  0.00     0.081 A 
ATOM     21  N   UNL d   1       2.746   2.406  -0.025  0.00  0.00    -0.361 N 
ATOM     22  C   UNL d   1       3.409   3.589   0.008  0.00  0.00     0.105 A 
ATOM     23  HN  UNL d   1       3.235   1.512  -0.073  1.00  0.00     0.165 HD
ATOM     24  C   UNL d   1       2.760   4.811   0.074  0.00  0.00     0.104 A 
ATOM     25  N   UNL d   1       1.414   4.909   0.111  0.00  0.00    -0.372 N 
ATOM     26  C   UNL d   1       0.747   3.724   0.078  0.00  0.00     0.120 A 
ATOM     27  HN  UNL d   1       0.932   5.806   0.160  1.00  0.00     0.164 HD
ENDBRANCH   3  20
TORSDOF 4
