REMARK  3 active torsions:
REMARK  status: ('A' for Active; 'I' for Inactive)
REMARK    1  A    between atoms: C_6  and  C_1 
REMARK    2  A    between atoms: C_15  and  N_4 
REMARK    3  A    between atoms: C_8  and  C_9 
REMARK       I    between atoms: N_10  and  C_8 
ROOT
ATOM      1  C   UNL d   1       2.321   0.002   0.107  0.00  0.00     0.194 A 
ATOM      2  N   UNL d   1       1.563  -1.082   0.178  0.00  0.00    -0.337 N 
ATOM      3  HN  UNL d   1       1.882  -2.049   0.229  1.00  0.00     0.167 HD
ATOM      4  N   UNL d   1       1.531   1.142   0.030  0.00  0.00    -0.323 N 
ATOM      5  C   UNL d   1       0.270  -0.647   0.168  0.00  0.00     0.061 A 
ATOM      6  C   UNL d   1       0.207   0.740   0.081  0.00  0.00     0.063 A 
ATOM      7  C   UNL d   1      -2.136  -0.754   0.112  0.00  0.00     0.034 A 
ATOM      8  C   UNL d   1      -0.905  -1.409   0.224  0.00  0.00     0.049 A 
ATOM      9  C   UNL d   1      -1.020   1.420   0.069  0.00  0.00     0.033 A 
ATOM     10  C   UNL d   1      -2.189   0.644   0.082  0.00  0.00     0.019 A 
ENDROOT
BRANCH   7  11
ATOM     11  C   UNL d   1      -3.413  -1.515   0.064  0.00  0.00     0.254 C 
ATOM     12  N   UNL d   1      -3.511  -2.648  -0.755  0.00  0.00    -0.344 N 
ATOM     13  C   UNL d   1      -4.800  -3.341  -0.816  0.00  0.00     0.152 C 
ATOM     14  C   UNL d   1      -2.652  -2.936  -1.912  0.00  0.00     0.152 C 
ATOM     15  C   UNL d   1      -4.624  -4.835  -1.124  0.00  0.00     0.187 C 
ATOM     16  O   UNL d   1      -3.792  -5.055  -2.274  0.00  0.00    -0.388 OA
ATOM     17  C   UNL d   1      -2.505  -4.448  -2.091  0.00  0.00     0.187 C 
ATOM     18  O   UNL d   1      -4.345  -1.107   0.750  0.00  0.00    -0.267 OA
ENDBRANCH   7  11
BRANCH   1  19
ATOM     19  C   UNL d   1       3.817   0.036   0.123  0.00  0.00     0.449 C 
ATOM     20  F   UNL d   1       4.381  -1.197   0.181  0.00  0.00    -0.163 F 
ATOM     21  F   UNL d   1       4.321   0.643  -0.985  0.00  0.00    -0.163 F 
ATOM     22  F   UNL d   1       4.287   0.734   1.192  0.00  0.00    -0.163 F 
ENDBRANCH   1  19
BRANCH   4  23
ATOM     23  C   UNL d   1       2.025   2.515  -0.094  0.00  0.00     0.084 C 
ATOM     24  C   UNL d   1       1.603   3.179  -1.406  0.00  0.00     0.032 C 
ATOM     25  C   UNL d   1       1.677   3.380   1.118  0.00  0.00     0.032 C 
ENDBRANCH   4  23
TORSDOF 3
