REMARK  5 active torsions:
REMARK  status: ('A' for Active; 'I' for Inactive)
REMARK    1  A    between atoms: C_8  and  N_1 
REMARK    2  A    between atoms: S_9  and  C_2 
REMARK    3  A    between atoms: O_12  and  C_13 
REMARK    4  A    between atoms: C_14  and  O_12 
REMARK    5  A    between atoms: C_17  and  C_14 
ROOT
ATOM      1  C   UNL d   1      -0.710   2.482   0.021  0.00  0.00     0.042 A 
ATOM      2  C   UNL d   1      -1.524   2.925   1.071  0.00  0.00     0.033 A 
ATOM      3  C   UNL d   1      -0.256   3.412  -0.923  0.00  0.00     0.033 A 
ATOM      4  C   UNL d   1      -1.504   5.176   0.180  0.00  0.00     0.069 A 
ATOM      5  C   UNL d   1      -0.651   4.751  -0.838  0.00  0.00     0.039 A 
ATOM      6  C   UNL d   1      -1.925   4.263   1.144  0.00  0.00     0.039 A 
ENDROOT
BRANCH   1   7
ATOM      7  N   UNL d   1      -0.307   1.122  -0.074  0.00  0.00    -0.286 N 
ATOM      8  C   UNL d   1      -0.915  -0.048   0.351  0.00  0.00     0.164 A 
ATOM      9  N   UNL d   1      -0.127  -1.076   0.124  0.00  0.00    -0.279 N 
ATOM     10  N   UNL d   1       1.001  -0.616  -0.500  0.00  0.00    -0.294 N 
ATOM     11  HN  UNL d   1      -0.323  -2.046   0.370  1.00  0.00     0.189 HD
ATOM     12  C   UNL d   1       0.874   0.683  -0.633  0.00  0.00     0.207 A 
ATOM     13  HN  UNL d   1       1.794  -1.180  -0.806  1.00  0.00     0.187 HD
BRANCH   8  14
ATOM     14  S   UNL d   1      -2.548  -0.233   0.910  0.00  0.00    -0.105 SA
ATOM     15  H   UNL d   1      -3.068   0.921   0.472  0.00  0.00     0.110 HD
ENDBRANCH   8  14
ENDBRANCH   1   7
BRANCH   4  16
ATOM     16  O   UNL d   1      -1.811   6.508   0.164  0.00  0.00    -0.347 OA
BRANCH  16  17
ATOM     17  C   UNL d   1      -3.044   6.878   0.785  0.00  0.00     0.214 C 
BRANCH  17  18
ATOM     18  C   UNL d   1      -3.234   8.376   0.716  0.00  0.00    -0.034 A 
ATOM     19  C   UNL d   1      -4.524   8.915   0.605  0.00  0.00     0.009 A 
ATOM     20  C   UNL d   1      -4.718  10.297   0.619  0.00  0.00     0.001 A 
ATOM     21  C   UNL d   1      -3.627  11.154   0.751  0.00  0.00     0.000 A 
ATOM     22  C   UNL d   1      -2.341  10.632   0.870  0.00  0.00     0.001 A 
ATOM     23  C   UNL d   1      -2.146   9.250   0.858  0.00  0.00     0.009 A 
ENDBRANCH  17  18
ENDBRANCH  16  17
ENDBRANCH   4  16
TORSDOF 5
