REMARK  2 active torsions:
REMARK  status: ('A' for Active; 'I' for Inactive)
REMARK    1  A    between atoms: C_6  and  C_1 
REMARK    2  A    between atoms: C_7  and  C_3 
ROOT
ATOM      1  C   UNL d   1      -0.176  -1.258  -0.006  0.00  0.00     0.041 A 
ATOM      2  C   UNL d   1      -1.503  -0.735   0.008  0.00  0.00     0.055 A 
ATOM      3  C   UNL d   1      -1.412   0.638   0.020  0.00  0.00     0.086 A 
ATOM      4  C   UNL d   1       0.648  -0.141  -0.018  0.00  0.00     0.063 A 
ATOM      5  O   UNL d   1      -0.100   0.999  -0.008  0.00  0.00    -0.314 OA
ATOM      6  C   UNL d   1       2.110   0.095  -0.022  0.00  0.00     0.077 C 
ENDROOT
BRANCH   3   7
ATOM      7  C   UNL d   1      -2.392   1.713   0.088  0.00  0.00    -0.002 A 
ATOM      8  C   UNL d   1      -3.763   1.413   0.157  0.00  0.00     0.016 A 
ATOM      9  C   UNL d   1      -4.715   2.428   0.281  0.00  0.00     0.024 A 
ATOM     10  C   UNL d   1      -4.304   3.757   0.332  0.00  0.00     0.034 A 
ATOM     11  C   UNL d   1      -2.952   4.078   0.244  0.00  0.00     0.024 A 
ATOM     12 CL   UNL d   1      -5.473   5.003   0.515  0.00  0.00    -0.084 Cl
ATOM     13  C   UNL d   1      -2.001   3.060   0.121  0.00  0.00     0.016 A 
ENDBRANCH   3   7
BRANCH   1  14
ATOM     14  C   UNL d   1       0.242  -2.655   0.002  0.00  0.00     0.158 C 
ATOM     15  O   UNL d   1       1.430  -2.971  -0.018  0.00  0.00    -0.293 OA
ATOM     16  C   UNL d   1      -0.807  -3.745   0.039  0.00  0.00     0.097 C 
ENDBRANCH   1  14
TORSDOF 2
