REMARK  3 active torsions:
REMARK  status: ('A' for Active; 'I' for Inactive)
REMARK    1  A    between atoms: O_14  and  C_2 
REMARK    2  A    between atoms: N_15  and  C_10 
REMARK    3  A    between atoms: O_16  and  C_11 
ROOT
ATOM      1  C   UNL d   1       0.060  -0.725  -0.056  0.00  0.00     0.069 A 
ATOM      2  C   UNL d   1       1.328  -1.326  -0.117  0.00  0.00     0.155 A 
ATOM      3  C   UNL d   1       0.029   0.681   0.004  0.00  0.00     0.036 A 
ATOM      4  N   UNL d   1       2.499  -0.663  -0.075  0.00  0.00    -0.340 N 
ATOM      5  HN  UNL d   1       3.388  -1.162  -0.107  1.00  0.00     0.167 HD
ATOM      6  N   UNL d   1      -2.348  -0.779  -0.057  0.00  0.00    -0.287 N 
ATOM      7  HN  UNL d   1      -3.217  -1.314  -0.090  1.00  0.00     0.188 HD
ATOM      8  N   UNL d   1      -2.387   0.579  -0.011  0.00  0.00    -0.278 N 
ATOM      9  HN  UNL d   1      -3.284   1.065   0.001  1.00  0.00     0.189 HD
ATOM     10  C   UNL d   1      -1.165  -1.418  -0.061  0.00  0.00     0.108 A 
ATOM     11  C   UNL d   1      -1.238   1.280   0.019  0.00  0.00     0.166 A 
ATOM     12  C   UNL d   1       1.258   1.382   0.053  0.00  0.00     0.041 A 
ATOM     13  C   UNL d   1       2.457   0.679   0.011  0.00  0.00     0.008 A 
ATOM     14  C   UNL d   1       3.777   1.389   0.051  0.00  0.00     0.068 C 
ENDROOT
BRANCH  10  15
ATOM     15  N   UNL d   1      -1.211  -2.830  -0.022  0.00  0.00    -0.287 NA
ATOM     16  H   UNL d   1      -2.204  -3.073  -0.065  0.00  0.00     0.125 HD
ATOM     17  H   UNL d   1      -0.846  -3.144   0.880  0.00  0.00     0.125 HD
ENDBRANCH  10  15
BRANCH   2  18
ATOM     18  O   UNL d   1       1.481  -2.678  -0.262  0.00  0.00    -0.345 OA
ATOM     19  H   UNL d   1       0.616  -3.028  -0.550  0.00  0.00     0.219 HD
ENDBRANCH   2  18
BRANCH  11  20
ATOM     20  O   UNL d   1      -1.422   2.633   0.064  0.00  0.00    -0.344 OA
ATOM     21  H   UNL d   1      -0.627   3.069  -0.270  0.00  0.00     0.219 HD
ENDBRANCH  11  20
TORSDOF 3
