REMARK  3 active torsions:
REMARK  status: ('A' for Active; 'I' for Inactive)
REMARK    1  A    between atoms: C_8  and  C_1 
REMARK    2  A    between atoms: C_9  and  C_3 
REMARK    3  A    between atoms: O_16  and  C_8 
ROOT
ATOM      1  C   UNL d   1       2.803  -0.826   0.118  0.00  0.00     0.052 C 
ATOM      2  C   UNL d   1       0.267  -0.695   0.095  0.00  0.00     0.024 C 
ATOM      3  C   UNL d   1       1.479  -1.523   0.495  0.00  0.00     0.100 C 
ATOM      4  C   UNL d   1       0.369   0.633  -0.101  0.00  0.00     0.021 C 
ATOM      5  C   UNL d   1       2.817   0.515  -0.107  0.00  0.00     0.018 C 
ATOM      6  N   UNL d   1       1.618   1.230  -0.074  0.00  0.00    -0.362 N 
ATOM      7  C   UNL d   1      -1.033  -1.384  -0.125  0.00  0.00     0.159 C 
ATOM      8  C   UNL d   1      -0.824   1.525  -0.340  0.00  0.00     0.067 C 
ATOM      9  C   UNL d   1      -2.180   0.862  -0.002  0.00  0.00    -0.036 C 
ATOM     10  C   UNL d   1      -2.207  -0.553  -0.600  0.00  0.00     0.092 C 
ATOM     11  O   UNL d   1      -1.128  -2.603  -0.008  0.00  0.00    -0.293 OA
ATOM     12  C   UNL d   1       4.027   1.365  -0.407  0.00  0.00     0.069 C 
ATOM     13  C   UNL d   1      -3.314   1.702  -0.613  0.00  0.00     0.015 C 
ATOM     14  C   UNL d   1      -2.408   0.789   1.524  0.00  0.00     0.015 C 
ATOM     15  H   UNL d   1       1.667   2.215  -0.327  0.00  0.00     0.165 HD
ENDROOT
BRANCH   3  16
ATOM     16  C   UNL d   1       1.450  -1.811   2.012  0.00  0.00    -0.023 A 
ATOM     17  C   UNL d   1       1.419  -3.103   2.552  0.00  0.00     0.041 A 
ATOM     18 CL   UNL d   1       1.397  -4.533   1.582  0.00  0.00    -0.084 Cl
ATOM     19  C   UNL d   1       1.411  -3.291   3.942  0.00  0.00     0.024 A 
ATOM     20  C   UNL d   1       1.424  -2.202   4.810  0.00  0.00     0.002 A 
ATOM     21  C   UNL d   1       1.446  -0.912   4.297  0.00  0.00     0.001 A 
ATOM     22  C   UNL d   1       1.466  -0.721   2.915  0.00  0.00     0.010 A 
ENDBRANCH   3  16
BRANCH   1  23
ATOM     23  C   UNL d   1       4.018  -1.693   0.067  0.00  0.00     0.291 C 
ATOM     24  O   UNL d   1       5.165  -1.318   0.235  0.00  0.00    -0.260 OA
BRANCH  23  25
ATOM     25  O   UNL d   1       3.652  -2.973  -0.193  0.00  0.00    -0.323 OA
ATOM     26  C   UNL d   1       4.707  -3.934  -0.144  0.00  0.00     0.213 C 
ENDBRANCH  23  25
ENDBRANCH   1  23
TORSDOF 3
