REMARK  4 active torsions:
REMARK  status: ('A' for Active; 'I' for Inactive)
REMARK       I    between atoms: N_2  and  C_1 
REMARK    1  A    between atoms: C_3  and  C_1 
REMARK    2  A    between atoms: C_8  and  N_2 
REMARK    3  A    between atoms: C_9  and  N_2 
REMARK    4  A    between atoms: C_5  and  C_4 
ROOT
ATOM      1  C   UNL d   1       0.863  -0.070   0.118  0.00  0.00     0.244 C 
ATOM      2  N   UNL d   1       0.231  -0.799  -0.894  0.00  0.00    -0.339 N 
ATOM      3  O   UNL d   1       2.010  -0.280   0.514  0.00  0.00    -0.268 OA
ENDROOT
BRANCH   1   4
ATOM      4  C   UNL d   1       0.172   1.049   0.798  0.00  0.00     0.075 C 
ATOM      5  C   UNL d   1       0.176   1.002   2.143  0.00  0.00     0.018 C 
BRANCH   5   6
ATOM      6  C   UNL d   1      -0.463   1.932   3.098  0.00  0.00    -0.025 A 
ATOM      7  C   UNL d   1       0.113   2.149   4.382  0.00  0.00    -0.016 A 
ATOM      8  C   UNL d   1      -0.649   2.819   5.374  0.00  0.00    -0.025 A 
ATOM      9  C   UNL d   1       1.419   1.727   4.738  0.00  0.00     0.013 A 
ATOM     10  C   UNL d   1      -0.119   3.004   6.661  0.00  0.00     0.012 A 
ATOM     11  C   UNL d   1      -1.935   3.283   5.068  0.00  0.00     0.012 A 
ATOM     12  C   UNL d   1       1.164   2.561   6.985  0.00  0.00     0.001 A 
ATOM     13  C   UNL d   1       1.935   1.930   6.017  0.00  0.00     0.001 A 
ATOM     14  C   UNL d   1      -2.472   3.112   3.796  0.00  0.00     0.002 A 
ATOM     15  C   UNL d   1      -1.739   2.445   2.817  0.00  0.00     0.012 A 
ENDBRANCH   5   6
ENDBRANCH   1   4
BRANCH   2  16
ATOM     16  C   UNL d   1      -1.257  -0.814  -1.224  0.00  0.00     0.088 C 
ATOM     17  C   UNL d   1      -2.287   0.111  -0.535  0.00  0.00     0.025 C 
ATOM     18  C   UNL d   1      -2.773  -0.347   0.843  0.00  0.00     0.002 C 
ATOM     19  C   UNL d   1      -3.170  -1.813   0.911  0.00  0.00     0.000 C 
ATOM     20  C   UNL d   1      -2.141  -2.709   0.238  0.00  0.00     0.002 C 
ATOM     21  C   UNL d   1      -1.877  -2.239  -1.188  0.00  0.00     0.025 C 
ENDBRANCH   2  16
BRANCH   2  22
ATOM     22  C   UNL d   1       1.058  -1.828  -1.655  0.00  0.00     0.088 C 
ATOM     23  C   UNL d   1       2.597  -1.929  -1.476  0.00  0.00     0.025 C 
ATOM     24  C   UNL d   1       3.394  -0.809  -2.147  0.00  0.00     0.002 C 
ATOM     25  C   UNL d   1       3.001  -0.589  -3.605  0.00  0.00     0.000 C 
ATOM     26  C   UNL d   1       1.490  -0.546  -3.805  0.00  0.00     0.002 C 
ATOM     27  C   UNL d   1       0.822  -1.770  -3.186  0.00  0.00     0.025 C 
ENDBRANCH   2  22
TORSDOF 4
