REMARK  6 active torsions:
REMARK  status: ('A' for Active; 'I' for Inactive)
REMARK    1  A    between atoms: S_12  and  C_3 
REMARK    2  A    between atoms: C_13  and  C_4 
REMARK    3  A    between atoms: C_5  and  N_11 
REMARK    4  A    between atoms: C_8  and  C_19 
REMARK       I    between atoms: N_11  and  C_8 
REMARK    5  A    between atoms: C_19  and  S_12 
REMARK    6  A    between atoms: O_25  and  C_22 
ROOT
ATOM      1  N   UNL d   1       1.289   3.785   0.128  0.00  0.00    -0.336 N 
ATOM      2  HN  UNL d   1       0.578   4.079   0.797  1.00  0.00     0.168 HD
ATOM      3  C   UNL d   1       0.964   3.095  -0.977  0.00  0.00     0.145 A 
ATOM      4  C   UNL d   1       2.599   4.075   0.319  0.00  0.00     0.045 A 
ATOM      5  N   UNL d   1       1.839   2.663  -1.895  0.00  0.00    -0.347 N 
ATOM      6  HN  UNL d   1       1.541   2.132  -2.713  1.00  0.00     0.167 HD
ATOM      7  C   UNL d   1       3.560   3.683  -0.597  0.00  0.00     0.047 A 
ATOM      8  C   UNL d   1       3.126   2.963  -1.682  0.00  0.00     0.092 A 
ENDROOT
BRANCH   3   9
ATOM      9  S   UNL d   1      -0.741   2.830  -1.399  0.00  0.00    -0.085 SA
BRANCH   9  10
ATOM     10  C   UNL d   1      -1.597   3.795  -0.125  0.00  0.00     0.185 C 
BRANCH  10  11
ATOM     11  C   UNL d   1      -1.246   5.274  -0.083  0.00  0.00     0.227 C 
ATOM     12  N   UNL d   1      -0.845   5.856  -1.264  0.00  0.00    -0.355 N 
ATOM     13  H   UNL d   1      -0.604   5.235  -2.029  0.00  0.00     0.162 HD
ATOM     14  O   UNL d   1      -1.409   5.929   0.947  0.00  0.00    -0.273 OA
BRANCH  12  15
ATOM     15  C   UNL d   1      -0.375   7.234  -1.322  0.00  0.00     0.092 C 
ATOM     16  C   UNL d   1      -0.741   7.908  -2.659  0.00  0.00     0.064 C 
ATOM     17  C   UNL d   1       0.408   8.842  -2.870  0.00  0.00    -0.050 A 
ATOM     18  C   UNL d   1       0.496   9.872  -3.791  0.00  0.00     0.007 A 
ATOM     19  C   UNL d   1       1.475   8.536  -2.026  0.00  0.00    -0.050 A 
ATOM     20  C   UNL d   1       1.680  10.611  -3.849  0.00  0.00     0.001 A 
ATOM     21  C   UNL d   1       2.753  10.306  -2.998  0.00  0.00     0.001 A 
ATOM     22  C   UNL d   1       2.658   9.258  -2.080  0.00  0.00     0.007 A 
ATOM     23  C   UNL d   1       1.159   7.356  -1.161  0.00  0.00     0.064 C 
ENDBRANCH  12  15
ENDBRANCH  10  11
ENDBRANCH   9  10
ENDBRANCH   3   9
BRANCH   4  24
ATOM     24  C   UNL d   1       2.937   4.871   1.524  0.00  0.00    -0.009 A 
ATOM     25  C   UNL d   1       4.218   4.832   2.107  0.00  0.00     0.016 A 
ATOM     26  C   UNL d   1       4.554   5.622   3.216  0.00  0.00     0.037 A 
ATOM     27  C   UNL d   1       3.608   6.470   3.782  0.00  0.00     0.068 A 
ATOM     28  C   UNL d   1       2.335   6.530   3.225  0.00  0.00     0.037 A 
ATOM     29  C   UNL d   1       2.000   5.729   2.125  0.00  0.00     0.016 A 
BRANCH  27  30
ATOM     30  O   UNL d   1       3.833   7.300   4.845  0.00  0.00    -0.356 OA
ATOM     31  C   UNL d   1       4.817   6.854   5.771  0.00  0.00     0.210 C 
ENDBRANCH  27  30
ENDBRANCH   4  24
TORSDOF 6
