REMARK  6 active torsions:
REMARK  status: ('A' for Active; 'I' for Inactive)
REMARK    1  A    between atoms: C_5  and  N_1 
REMARK    2  A    between atoms: C_4  and  S_12 
REMARK    3  A    between atoms: C_11  and  C_6 
REMARK    4  A    between atoms: S_12  and  C_19 
REMARK    5  A    between atoms: C_19  and  C_18 
REMARK    6  A    between atoms: O_23  and  C_20 
ROOT
ATOM      1  N   UNL d   1       2.659   0.141   7.040  0.00  0.00    -0.336 N 
ATOM      2  HN  UNL d   1       2.539   1.045   6.582  1.00  0.00     0.168 HD
ATOM      3  C   UNL d   1       2.423  -1.003   6.382  0.00  0.00     0.144 A 
ATOM      4  C   UNL d   1       3.061   0.061   8.326  0.00  0.00     0.045 A 
ATOM      5  N   UNL d   1       2.523  -2.225   6.920  0.00  0.00    -0.347 N 
ATOM      6  HN  UNL d   1       2.315  -3.070   6.387  1.00  0.00     0.167 HD
ATOM      7  C   UNL d   1       3.208  -1.157   8.956  0.00  0.00     0.047 A 
ATOM      8  C   UNL d   1       2.916  -2.273   8.205  0.00  0.00     0.092 A 
ENDROOT
BRANCH   3   9
ATOM      9  S   UNL d   1       2.080  -0.887   4.644  0.00  0.00    -0.089 SA
BRANCH   9  10
ATOM     10  C   UNL d   1       3.145   0.538   4.285  0.00  0.00     0.121 C 
BRANCH  10  11
ATOM     11  C   UNL d   1       3.162   0.904   2.822  0.00  0.00    -0.046 A 
ATOM     12  C   UNL d   1       4.120   0.356   1.956  0.00  0.00     0.043 A 
ATOM     13  C   UNL d   1       4.143   0.744   0.609  0.00  0.00     0.103 A 
ATOM     14  C   UNL d   1       3.209   1.664   0.112  0.00  0.00     0.036 A 
ATOM     15  C   UNL d   1       2.250   2.197   0.970  0.00  0.00     0.003 A 
ATOM     16  C   UNL d   1       2.224   1.819   2.313  0.00  0.00     0.008 A 
BRANCH  13  17
ATOM     17  N   UNL d   1       5.169   0.197  -0.289  0.00  0.00    -0.116 N 
ATOM     18  O   UNL d   1       5.997  -0.588   0.193  0.00  0.00    -0.532 OA
ATOM     19  O   UNL d   1       5.151   0.560  -1.475  0.00  0.00    -0.532 OA
ENDBRANCH  13  17
ENDBRANCH  10  11
ENDBRANCH   9  10
ENDBRANCH   3   9
BRANCH   4  20
ATOM     20  C   UNL d   1       3.398   1.355   8.956  0.00  0.00    -0.009 A 
ATOM     21  C   UNL d   1       3.280   1.579  10.338  0.00  0.00     0.016 A 
ATOM     22  C   UNL d   1       3.640   2.809  10.912  0.00  0.00     0.037 A 
ATOM     23  C   UNL d   1       4.120   3.842  10.111  0.00  0.00     0.068 A 
ATOM     24  C   UNL d   1       4.248   3.640   8.741  0.00  0.00     0.037 A 
ATOM     25  C   UNL d   1       3.881   2.419   8.172  0.00  0.00     0.016 A 
BRANCH  23  26
ATOM     26  O   UNL d   1       4.538   5.064  10.560  0.00  0.00    -0.356 OA
ATOM     27  C   UNL d   1       3.885   5.546  11.728  0.00  0.00     0.210 C 
ENDBRANCH  23  26
ENDBRANCH   4  20
TORSDOF 6
