REMARK  7 active torsions:
REMARK  status: ('A' for Active; 'I' for Inactive)
REMARK    1  A    between atoms: C_2  and  C_1 
REMARK    2  A    between atoms: S_4  and  C_1 
REMARK    3  A    between atoms: C_3  and  C_14 
REMARK    4  A    between atoms: C_15  and  S_4 
REMARK    5  A    between atoms: O_13  and  C_7 
REMARK    6  A    between atoms: C_9  and  C_10 
REMARK    7  A    between atoms: C_14  and  O_13 
ROOT
ATOM      1  C   UNL d   1       1.873   1.264  -1.008  0.00  0.00     0.037 A 
ATOM      2  N   UNL d   1       3.019  -0.583  -2.073  0.00  0.00    -0.346 N 
ATOM      3  HN  UNL d   1       3.110  -1.586  -2.231  1.00  0.00     0.167 HD
ATOM      4  C   UNL d   1       3.861   0.294  -2.662  0.00  0.00     0.142 A 
ATOM      5  C   UNL d   1       2.048  -0.087  -1.266  0.00  0.00     0.106 A 
ATOM      6  C   UNL d   1       2.744   2.152  -1.641  0.00  0.00     0.022 A 
ATOM      7  C   UNL d   1       3.752   1.666  -2.476  0.00  0.00     0.057 A 
ENDROOT
BRANCH   1   8
ATOM      8  C   UNL d   1       0.799   1.806  -0.143  0.00  0.00     0.225 C 
ATOM      9  O   UNL d   1       0.399   2.953  -0.311  0.00  0.00    -0.279 OA
BRANCH   8  10
ATOM     10  S   UNL d   1       0.236   0.811   1.194  0.00  0.00    -0.048 SA
BRANCH  10  11
ATOM     11  C   UNL d   1      -1.519   0.733   0.898  0.00  0.00     0.008 A 
ATOM     12  C   UNL d   1      -2.141  -0.516   0.856  0.00  0.00     0.019 A 
ATOM     13  C   UNL d   1      -3.517  -0.620   0.617  0.00  0.00     0.009 A 
ATOM     14  C   UNL d   1      -4.319   0.520   0.418  0.00  0.00    -0.051 A 
ATOM     15  C   UNL d   1      -3.683   1.768   0.503  0.00  0.00     0.009 A 
ATOM     16  C   UNL d   1      -2.306   1.873   0.747  0.00  0.00     0.019 A 
BRANCH  14  17
ATOM     17  C   UNL d   1      -5.818   0.370   0.105  0.00  0.00    -0.024 C 
ATOM     18  C   UNL d   1      -6.554   1.718  -0.074  0.00  0.00     0.019 C 
ATOM     19  C   UNL d   1      -5.990  -0.421  -1.211  0.00  0.00     0.019 C 
ATOM     20  C   UNL d   1      -6.530  -0.390   1.244  0.00  0.00     0.019 C 
ENDBRANCH  14  17
ENDBRANCH  10  11
ENDBRANCH   8  10
ENDBRANCH   1   8
BRANCH   4  21
ATOM     21  O   UNL d   1       4.760  -0.297  -3.501  0.00  0.00    -0.327 OA
BRANCH  21  22
ATOM     22  C   UNL d   1       6.047   0.325  -3.572  0.00  0.00     0.294 C 
BRANCH  22  23
ATOM     23  C   UNL d   1       7.020  -0.497  -4.415  0.00  0.00     0.408 C 
ATOM     24  F   UNL d   1       6.471  -1.615  -4.931  0.00  0.00    -0.169 F 
ATOM     25  F   UNL d   1       7.484   0.241  -5.454  0.00  0.00    -0.169 F 
ATOM     26  F   UNL d   1       8.097  -0.869  -3.683  0.00  0.00    -0.169 F 
ENDBRANCH  22  23
ENDBRANCH  21  22
ENDBRANCH   4  21
TORSDOF 7
