REMARK  3 active torsions:
REMARK  status: ('A' for Active; 'I' for Inactive)
REMARK    1  A    between atoms: O_4  and  C_5 
REMARK    2  A    between atoms: C_6  and  O_4 
REMARK    3  A    between atoms: C_11  and  C_6 
ROOT
ATOM      1  N   UNL d   1      -3.005   0.028  -0.915  0.00  0.00    -0.191 NA
ATOM      2  C   UNL d   1      -1.856   0.030  -0.740  0.00  0.00     0.099 C 
ATOM      3  C   UNL d   1      -0.439   0.038  -0.521  0.00  0.00     0.044 A 
ATOM      4  C   UNL d   1       2.337   0.056  -0.090  0.00  0.00     0.069 A 
ATOM      5  C   UNL d   1       0.162   1.094   0.173  0.00  0.00     0.025 A 
ATOM      6  C   UNL d   1       0.351  -1.011  -0.994  0.00  0.00     0.025 A 
ATOM      7  C   UNL d   1       1.731  -1.003  -0.770  0.00  0.00     0.038 A 
ATOM      8  C   UNL d   1       1.547   1.103   0.389  0.00  0.00     0.038 A 
ENDROOT
BRANCH   4   9
ATOM      9  O   UNL d   1       3.687  -0.070   0.091  0.00  0.00    -0.347 OA
BRANCH   9  10
ATOM     10  C   UNL d   1       4.429   1.147   0.186  0.00  0.00     0.214 C 
BRANCH  10  11
ATOM     11  C   UNL d   1       5.911   0.863   0.331  0.00  0.00    -0.034 A 
ATOM     12  C   UNL d   1       6.846   1.785  -0.166  0.00  0.00     0.009 A 
ATOM     13  C   UNL d   1       8.215   1.585   0.021  0.00  0.00     0.001 A 
ATOM     14  C   UNL d   1       8.668   0.467   0.717  0.00  0.00     0.000 A 
ATOM     15  C   UNL d   1       7.753  -0.454   1.221  0.00  0.00     0.001 A 
ATOM     16  C   UNL d   1       6.382  -0.256   1.032  0.00  0.00     0.009 A 
ENDBRANCH  10  11
ENDBRANCH   9  10
ENDBRANCH   4   9
TORSDOF 3
