REMARK  2 active torsions:
REMARK  status: ('A' for Active; 'I' for Inactive)
REMARK    1  A    between atoms: C_2  and  C_1 
REMARK       I    between atoms: N_6  and  C_2 
REMARK    2  A    between atoms: N_7  and  N_6 
ROOT
ATOM      1  C   UNL d   1       0.034  -1.288   0.556  0.00  0.00     0.043 C 
ATOM      2  C   UNL d   1      -0.046  -0.033   1.442  0.00  0.00     0.028 C 
ATOM      3  C   UNL d   1       0.020   1.238   0.587  0.00  0.00    -0.043 C 
ATOM      4  C   UNL d   1       1.357  -1.274  -0.247  0.00  0.00     0.019 C 
ATOM      5  C   UNL d   1      -1.196  -1.344  -0.370  0.00  0.00     0.019 C 
ATOM      6  C   UNL d   1      -1.184   1.302  -0.374  0.00  0.00     0.009 C 
ATOM      7  C   UNL d   1       1.356   1.262  -0.192  0.00  0.00     0.009 C 
ATOM      8  C   UNL d   1      -1.811  -0.019  -0.822  0.00  0.00     0.002 C 
ATOM      9  C   UNL d   1       1.604   0.011  -1.026  0.00  0.00     0.002 C 
ATOM     10  C   UNL d   1      -0.014   2.479   1.501  0.00  0.00     0.015 C 
ENDROOT
BRANCH   1  11
ATOM     11  C   UNL d   1       0.059  -2.549   1.449  0.00  0.00     0.240 C 
ATOM     12  O   UNL d   1       0.101  -2.507   2.682  0.00  0.00    -0.271 OA
ATOM     13  N   UNL d   1       0.080  -3.756   0.757  0.00  0.00    -0.293 N 
ATOM     14  H   UNL d   1      -0.118  -3.783  -0.240  0.00  0.00     0.183 HD
BRANCH  13  15
ATOM     15  N   UNL d   1       0.072  -4.970   1.478  0.00  0.00    -0.247 NA
ATOM     16  H   UNL d   1      -0.135  -4.729   2.458  0.00  0.00     0.143 HD
ATOM     17  H   UNL d   1       1.034  -5.317   1.514  0.00  0.00     0.143 HD
ENDBRANCH  13  15
ENDBRANCH   1  11
TORSDOF 2
