REMARK  8 active torsions:
REMARK  status: ('A' for Active; 'I' for Inactive)
REMARK    1  A    between atoms: N_2  and  C_1 
REMARK    2  A    between atoms: C_6  and  C_3 
REMARK    3  A    between atoms: C_4  and  C_12 
REMARK       I    between atoms: N_11  and  C_6 
REMARK    4  A    between atoms: O_25  and  C_7 
REMARK    5  A    between atoms: C_8  and  N_13 
REMARK    6  A    between atoms: N_14  and  C_8 
REMARK    7  A    between atoms: N_13  and  N_11 
REMARK    8  A    between atoms: C_20  and  N_14 
ROOT
ATOM      1  C   UNL d   1       0.750  -2.308  -1.169  0.00  0.00     0.271 C 
ATOM      2  N   UNL d   1       0.572  -3.625  -0.789  0.00  0.00    -0.264 N 
ATOM      3  O   UNL d   1      -0.139  -1.467  -1.103  0.00  0.00    -0.266 OA
ATOM      4  H   UNL d   1       1.345  -4.265  -0.632  0.00  0.00     0.190 HD
ENDROOT
BRANCH   2   5
ATOM      5  N   UNL d   1      -0.605  -3.951  -0.098  0.00  0.00    -0.273 N 
ATOM      6  H   UNL d   1      -1.314  -3.216  -0.102  0.00  0.00     0.189 HD
BRANCH   5   7
ATOM      7  C   UNL d   1      -1.037  -5.244  -0.021  0.00  0.00     0.191 C 
ATOM      8  S   UNL d   1      -0.479  -6.486  -1.003  0.00  0.00    -0.039 SA
BRANCH   7   9
ATOM      9  N   UNL d   1      -1.930  -5.576   0.957  0.00  0.00    -0.332 N 
ATOM     10  H   UNL d   1      -2.221  -6.546   0.879  0.00  0.00     0.168 HD
BRANCH   9  11
ATOM     11  C   UNL d   1      -2.235  -4.962   2.195  0.00  0.00     0.035 A 
ATOM     12  C   UNL d   1      -1.826  -3.686   2.588  0.00  0.00     0.045 A 
ATOM     13  C   UNL d   1      -2.091  -3.200   3.882  0.00  0.00     0.050 A 
ATOM     14  C   UNL d   1      -2.770  -4.017   4.794  0.00  0.00     0.016 A 
ATOM     15  C   UNL d   1      -3.194  -5.287   4.412  0.00  0.00     0.003 A 
ATOM     16  C   UNL d   1      -2.937  -5.749   3.119  0.00  0.00     0.029 A 
BRANCH  13  17
ATOM     17  C   UNL d   1      -1.622  -1.826   4.296  0.00  0.00     0.417 C 
ATOM     18  F   UNL d   1      -1.042  -1.118   3.287  0.00  0.00    -0.166 F 
ATOM     19  F   UNL d   1      -2.637  -1.047   4.762  0.00  0.00    -0.166 F 
ATOM     20  F   UNL d   1      -0.697  -1.874   5.294  0.00  0.00    -0.166 F 
ENDBRANCH  13  17
ENDBRANCH   9  11
ENDBRANCH   7   9
ENDBRANCH   5   7
ENDBRANCH   2   5
BRANCH   1  21
ATOM     21  C   UNL d   1       2.113  -1.925  -1.614  0.00  0.00     0.051 A 
ATOM     22  C   UNL d   1       2.497  -0.587  -1.589  0.00  0.00     0.059 A 
ATOM     23  C   UNL d   1       3.800  -0.240  -1.990  0.00  0.00     0.154 A 
ATOM     24  C   UNL d   1       4.700  -1.212  -2.398  0.00  0.00     0.175 A 
ATOM     25  N   UNL d   1       4.309  -2.514  -2.436  0.00  0.00    -0.344 N 
ATOM     26  C   UNL d   1       3.046  -2.843  -2.063  0.00  0.00     0.107 A 
ATOM     27  HN  UNL d   1       4.959  -3.237  -2.742  1.00  0.00     0.167 HD
BRANCH  23  28
ATOM     28  N   UNL d   1       4.117   1.156  -1.977  0.00  0.00    -0.111 N 
ATOM     29  O   UNL d   1       4.208   1.698  -0.867  0.00  0.00    -0.532 OA
ATOM     30  O   UNL d   1       4.248   1.720  -3.070  0.00  0.00    -0.532 OA
ENDBRANCH  23  28
BRANCH  24  31
ATOM     31  O   UNL d   1       5.984  -1.115  -2.816  0.00  0.00    -0.339 OA
ATOM     32  C   UNL d   1       6.773   0.031  -2.557  0.00  0.00     0.211 C 
ENDBRANCH  24  31
ENDBRANCH   1  21
TORSDOF 8
