REMARK  0 active torsions:
REMARK  status: ('A' for Active; 'I' for Inactive)
ROOT
ATOM      1  C   UNL d   1      -0.587  -0.301   0.001  0.00  0.00     0.049 A 
ATOM      2  C   UNL d   1      -1.723  -1.239   0.010  0.00  0.00     0.186 A 
ATOM      3  C   UNL d   1      -0.849   1.070  -0.008  0.00  0.00     0.089 A 
ATOM      4  C   UNL d   1      -3.067  -0.637   0.031  0.00  0.00     0.080 A 
ATOM      5  C   UNL d   1      -3.169   0.695   0.026  0.00  0.00     0.146 A 
ATOM      6  O   UNL d   1      -2.122   1.586   0.000  0.00  0.00    -0.322 OA
ATOM      7  C   UNL d   1       0.728  -0.776   0.002  0.00  0.00     0.042 A 
ATOM      8  O   UNL d   1      -1.572  -2.453   0.002  0.00  0.00    -0.287 OA
ATOM      9  C   UNL d   1       0.208   1.980  -0.024  0.00  0.00     0.040 A 
ATOM     10  C   UNL d   1       1.778   0.139  -0.009  0.00  0.00     0.035 A 
ATOM     11  C   UNL d   1       1.524   1.513  -0.024  0.00  0.00     0.026 A 
ATOM     12 CL   UNL d   1       3.403  -0.425  -0.002  0.00  0.00    -0.084 Cl
ENDROOT
TORSDOF 0
