REMARK  7 active torsions:
REMARK  status: ('A' for Active; 'I' for Inactive)
REMARK    1  A    between atoms: C_4  and  C_3 
REMARK    2  A    between atoms: O_20  and  C_7 
REMARK    3  A    between atoms: C_9  and  C_16 
REMARK    4  A    between atoms: C_10  and  O_21 
REMARK    5  A    between atoms: C_14  and  C_10 
REMARK    6  A    between atoms: C_23  and  C_11 
REMARK    7  A    between atoms: O_21  and  C_23 
ROOT
ATOM      1  N   UNL d   1       1.101   1.355  -0.031  0.00  0.00    -0.352 N 
ATOM      2  HN  UNL d   1       1.058   2.374  -0.047  1.00  0.00     0.166 HD
ATOM      3  C   UNL d   1       2.303   0.718  -0.041  0.00  0.00     0.119 A 
ATOM      4  C   UNL d   1      -0.025  -0.781   0.039  0.00  0.00     0.025 A 
ATOM      5  C   UNL d   1      -0.025   0.628   0.001  0.00  0.00     0.045 A 
ATOM      6  C   UNL d   1       1.231  -1.430   0.022  0.00  0.00     0.082 A 
ATOM      7  C   UNL d   1       2.399  -0.671  -0.018  0.00  0.00     0.072 A 
ATOM      8  C   UNL d   1      -1.267  -1.464   0.084  0.00  0.00     0.037 A 
ATOM      9  C   UNL d   1      -1.236   1.303  -0.017  0.00  0.00     0.032 A 
ATOM     10  C   UNL d   1      -2.474  -0.763   0.064  0.00  0.00     0.018 A 
ATOM     11  C   UNL d   1      -2.459   0.624   0.005  0.00  0.00     0.023 A 
ENDROOT
BRANCH  10  12
ATOM     12  C   UNL d   1      -3.722  -1.462   0.112  0.00  0.00    -0.065 C 
ATOM     13  C   UNL d   1      -4.770  -2.043   0.178  0.00  0.00    -0.074 C 
BRANCH  13  14
ATOM     14  C   UNL d   1      -6.040  -2.767   0.303  0.00  0.00     0.273 C 
BRANCH  14  15
ATOM     15  O   UNL d   1      -6.826  -2.214   1.369  0.00  0.00    -0.305 OA
BRANCH  15  16
ATOM     16  C   UNL d   1      -6.534  -2.709   2.596  0.00  0.00     0.294 C 
ATOM     17  O   UNL d   1      -5.709  -3.573   2.849  0.00  0.00    -0.259 OA
BRANCH  16  18
ATOM     18  C   UNL d   1      -7.395  -2.088   3.632  0.00  0.00     0.039 A 
ATOM     19  C   UNL d   1      -7.972  -0.823   3.465  0.00  0.00     0.017 A 
ATOM     20  C   UNL d   1      -8.736  -0.266   4.494  0.00  0.00     0.001 A 
ATOM     21  C   UNL d   1      -8.929  -0.970   5.684  0.00  0.00     0.000 A 
ATOM     22  C   UNL d   1      -8.363  -2.233   5.850  0.00  0.00     0.001 A 
ATOM     23  C   UNL d   1      -7.594  -2.790   4.828  0.00  0.00     0.017 A 
ENDBRANCH  16  18
ENDBRANCH  15  16
ENDBRANCH  14  15
ENDBRANCH  13  14
ENDBRANCH  10  12
BRANCH   6  24
ATOM     24  O   UNL d   1       1.208  -2.804   0.029  0.00  0.00    -0.355 OA
ATOM     25  C   UNL d   1       2.457  -3.487  -0.015  0.00  0.00     0.210 C 
ENDBRANCH   6  24
BRANCH   3  26
ATOM     26  C   UNL d   1       3.582   1.541  -0.101  0.00  0.00     0.432 C 
ATOM     27  F   UNL d   1       3.389   2.889  -0.114  0.00  0.00    -0.165 F 
ATOM     28  F   UNL d   1       4.410   1.294   0.956  0.00  0.00    -0.165 F 
ATOM     29  F   UNL d   1       4.324   1.261  -1.213  0.00  0.00    -0.165 F 
ENDBRANCH   3  26
TORSDOF 7
