REMARK  5 active torsions:
REMARK  status: ('A' for Active; 'I' for Inactive)
REMARK    1  A    between atoms: S_2  and  N_1 
REMARK    2  A    between atoms: C_15  and  S_2 
REMARK    3  A    between atoms: N_10  and  C_4 
REMARK    4  A    between atoms: N_8  and  C_9 
REMARK    5  A    between atoms: C_14  and  N_12 
ROOT
ATOM      1  N   UNL d   1      -0.084  -1.177   0.044  0.00  0.00    -0.179 N 
ATOM      2  C   UNL d   1       1.243  -0.768   0.119  0.00  0.00     0.072 C 
ATOM      3  C   UNL d   1       1.173   0.613   0.066  0.00  0.00     0.096 C 
ATOM      4  N   UNL d   1      -0.961  -0.131   0.184  0.00  0.00    -0.286 N 
ATOM      5  HN  UNL d   1      -1.971  -0.174   0.321  1.00  0.00     0.188 HD
ATOM      6  C   UNL d   1      -0.188   0.959   0.100  0.00  0.00     0.053 C 
ATOM      7  C   UNL d   1       2.447  -1.634   0.154  0.00  0.00     0.074 C 
ATOM      8  C   UNL d   1      -0.785   2.315   0.049  0.00  0.00     0.072 C 
ENDROOT
BRANCH   3   9
ATOM      9  N   UNL d   1       2.227   1.539   0.021  0.00  0.00    -0.296 N 
ATOM     10  N   UNL d   1       3.175   1.131  -0.678  0.00  0.00    -0.298 N 
ATOM     11  HN  UNL d   1       3.143   0.248  -1.187  1.00  0.00     0.187 HD
ATOM     12  HN  UNL d   1       2.219   2.437   0.504  1.00  0.00     0.187 HD
BRANCH  10  13
ATOM     13  C   UNL d   1       4.295   1.987  -0.711  0.00  0.00     0.081 A 
ATOM     14  C   UNL d   1       5.183   1.933  -1.792  0.00  0.00     0.131 A 
ATOM     15  C   UNL d   1       6.336   2.731  -1.871  0.00  0.00     0.045 A 
ATOM     16  C   UNL d   1       6.635   3.608  -0.828  0.00  0.00    -0.059 A 
ATOM     17  C   UNL d   1       5.766   3.680   0.269  0.00  0.00     0.009 A 
ATOM     18  C   UNL d   1       7.880   4.445  -0.890  0.00  0.00     0.048 C 
ATOM     19  C   UNL d   1       4.616   2.878   0.325  0.00  0.00     0.034 A 
BRANCH  14  20
ATOM     20  N   UNL d   1       4.927   1.017  -2.883  0.00  0.00    -0.113 N 
ATOM     21  O   UNL d   1       4.882  -0.192  -2.618  0.00  0.00    -0.532 OA
ATOM     22  O   UNL d   1       4.828   1.510  -4.016  0.00  0.00    -0.532 OA
ENDBRANCH  14  20
ENDBRANCH  10  13
ENDBRANCH   3   9
BRANCH   1  23
ATOM     23  S   UNL d   1      -0.611  -2.841  -0.078  0.00  0.00     0.282 S 
ATOM     24  O   UNL d   1      -1.982  -2.807  -0.554  0.00  0.00    -0.198 OA
ATOM     25  O   UNL d   1       0.426  -3.548  -0.804  0.00  0.00    -0.198 OA
BRANCH  23  26
ATOM     26  C   UNL d   1      -0.643  -3.418   1.603  0.00  0.00     0.081 A 
ATOM     27  C   UNL d   1      -1.567  -2.872   2.502  0.00  0.00     0.028 A 
ATOM     28  C   UNL d   1      -1.594  -3.335   3.822  0.00  0.00     0.044 A 
ATOM     29  C   UNL d   1      -0.712  -4.335   4.223  0.00  0.00     0.116 A 
ATOM     30  C   UNL d   1       0.184  -4.902   3.321  0.00  0.00     0.044 A 
ATOM     31  F   UNL d   1      -0.733  -4.764   5.490  0.00  0.00    -0.206 F 
ATOM     32  C   UNL d   1       0.217  -4.449   1.999  0.00  0.00     0.028 A 
ENDBRANCH  23  26
ENDBRANCH   1  23
TORSDOF 5
