REMARK  8 active torsions:
REMARK  status: ('A' for Active; 'I' for Inactive)
REMARK    1  A    between atoms: O_16  and  C_1 
REMARK    2  A    between atoms: C_3  and  C_2 
REMARK    3  A    between atoms: O_8  and  C_3 
REMARK    4  A    between atoms: O_19  and  C_4 
REMARK    5  A    between atoms: O_18  and  C_5 
REMARK    6  A    between atoms: C_12  and  O_8 
REMARK    7  A    between atoms: C_9  and  C_12 
REMARK    8  A    between atoms: C_10  and  C_9 
ROOT
ATOM      1  C   UNL d   1      -2.827   0.469  -0.027  0.00  0.00     0.293 C 
ATOM      2  O   UNL d   1      -3.626  -0.446   0.088  0.00  0.00    -0.259 OA
ENDROOT
BRANCH   1   3
ATOM      3  C   UNL d   1      -1.354   0.236  -0.026  0.00  0.00     0.045 A 
ATOM      4  C   UNL d   1      -0.402   1.255  -0.105  0.00  0.00     0.057 A 
ATOM      5  C   UNL d   1       0.975   0.957  -0.125  0.00  0.00     0.105 A 
ATOM      6  C   UNL d   1       1.397  -0.386  -0.066  0.00  0.00     0.135 A 
ATOM      7  C   UNL d   1       0.437  -1.413   0.074  0.00  0.00     0.105 A 
ATOM      8  C   UNL d   1      -0.924  -1.094   0.054  0.00  0.00     0.057 A 
BRANCH   5   9
ATOM      9  O   UNL d   1       1.746   2.089  -0.214  0.00  0.00    -0.353 OA
ATOM     10  C   UNL d   1       3.161   1.970  -0.159  0.00  0.00     0.210 C 
ENDBRANCH   5   9
BRANCH   6  11
ATOM     11  O   UNL d   1       2.739  -0.673  -0.028  0.00  0.00    -0.351 OA
ATOM     12  C   UNL d   1       3.184  -1.589  -1.029  0.00  0.00     0.210 C 
ENDBRANCH   6  11
BRANCH   7  13
ATOM     13  O   UNL d   1       0.905  -2.696   0.229  0.00  0.00    -0.353 OA
ATOM     14  C   UNL d   1      -0.018  -3.667   0.710  0.00  0.00     0.210 C 
ENDBRANCH   7  13
ENDBRANCH   1   3
BRANCH   1  15
ATOM     15  O   UNL d   1      -3.147   1.768  -0.249  0.00  0.00    -0.310 OA
BRANCH  15  16
ATOM     16  C   UNL d   1      -4.542   2.017  -0.464  0.00  0.00     0.263 C 
BRANCH  16  17
ATOM     17  C   UNL d   1      -5.247   2.785   0.655  0.00  0.00     0.183 C 
ATOM     18  O   UNL d   1      -4.655   3.199   1.651  0.00  0.00    -0.290 OA
BRANCH  17  19
ATOM     19  C   UNL d   1      -6.719   3.056   0.507  0.00  0.00     0.012 A 
ATOM     20  C   UNL d   1      -7.460   2.595  -0.593  0.00  0.00     0.017 A 
ATOM     21  C   UNL d   1      -8.829   2.868  -0.691  0.00  0.00     0.025 A 
ATOM     22  C   UNL d   1      -9.467   3.605   0.305  0.00  0.00     0.034 A 
ATOM     23  C   UNL d   1      -8.747   4.072   1.401  0.00  0.00     0.025 A 
ATOM     24 CL   UNL d   1     -11.150   3.939   0.175  0.00  0.00    -0.084 Cl
ATOM     25  C   UNL d   1      -7.375   3.796   1.502  0.00  0.00     0.017 A 
ENDBRANCH  17  19
ENDBRANCH  16  17
ENDBRANCH  15  16
ENDBRANCH   1  15
TORSDOF 8
