REMARK  9 active torsions:
REMARK  status: ('A' for Active; 'I' for Inactive)
REMARK    1  A    between atoms: C_2  and  C_1 
REMARK    2  A    between atoms: O_14  and  C_8 
REMARK    3  A    between atoms: C_15  and  O_14 
REMARK    4  A    between atoms: C_16  and  C_15 
REMARK    5  A    between atoms: C_20  and  C_16 
REMARK    6  A    between atoms: C_17  and  C_18 
REMARK    7  A    between atoms: C_18  and  C_19 
REMARK    8  A    between atoms: C_19  and  C_21 
REMARK    9  A    between atoms: C_21  and  C_20 
ROOT
ATOM      1  C   UNL d   1       1.328  -0.275   0.538  0.00  0.00    -0.026 A 
ATOM      2  C   UNL d   1       0.560  -1.188  -0.208  0.00  0.00     0.015 A 
ATOM      3  C   UNL d   1       0.668   0.868   1.020  0.00  0.00     0.015 A 
ATOM      4  C   UNL d   1      -1.437   0.159   0.051  0.00  0.00     0.068 A 
ATOM      5  C   UNL d   1      -0.800  -0.971  -0.456  0.00  0.00     0.037 A 
ATOM      6  C   UNL d   1      -0.694   1.083   0.781  0.00  0.00     0.037 A 
ENDROOT
BRANCH   4   7
ATOM      7  O   UNL d   1      -2.753   0.478  -0.137  0.00  0.00    -0.351 OA
BRANCH   7   8
ATOM      8  C   UNL d   1      -3.625  -0.637  -0.329  0.00  0.00     0.175 C 
BRANCH   8   9
ATOM      9  C   UNL d   1      -5.050  -0.112  -0.456  0.00  0.00     0.027 C 
BRANCH   9  10
ATOM     10  C   UNL d   1      -6.030  -1.265  -0.650  0.00  0.00     0.002 C 
BRANCH  10  11
ATOM     11  C   UNL d   1      -7.459  -0.760  -0.829  0.00  0.00     0.000 C 
BRANCH  11  12
ATOM     12  C   UNL d   1      -8.428  -1.927  -1.022  0.00  0.00     0.000 C 
BRANCH  12  13
ATOM     13  C   UNL d   1      -9.859  -1.427  -1.201  0.00  0.00    -0.000 C 
BRANCH  13  14
ATOM     14  C   UNL d   1     -10.832  -2.589  -1.390  0.00  0.00    -0.005 C 
ATOM     15  C   UNL d   1     -12.257  -2.090  -1.566  0.00  0.00     0.005 C 
ENDBRANCH  13  14
ENDBRANCH  12  13
ENDBRANCH  11  12
ENDBRANCH  10  11
ENDBRANCH   9  10
ENDBRANCH   8   9
ENDBRANCH   7   8
ENDBRANCH   4   7
BRANCH   1  16
ATOM     16  C   UNL d   1       2.769  -0.510   0.798  0.00  0.00    -0.026 A 
ATOM     17  C   UNL d   1       3.592  -1.161  -0.141  0.00  0.00     0.013 A 
ATOM     18  C   UNL d   1       4.949  -1.391   0.107  0.00  0.00     0.020 A 
ATOM     19  C   UNL d   1       5.514  -0.956   1.301  0.00  0.00     0.011 A 
ATOM     20  C   UNL d   1       4.733  -0.304   2.248  0.00  0.00     0.020 A 
ATOM     21 BR   UNL d   1       7.350  -1.254   1.637  0.00  0.00    -0.051 Br
ATOM     22  C   UNL d   1       3.373  -0.092   1.999  0.00  0.00     0.013 A 
ENDBRANCH   1  16
TORSDOF 9
