REMARK  0 active torsions:
REMARK  status: ('A' for Active; 'I' for Inactive)
ROOT
ATOM      1  C   UNL d   1       0.440  -1.365  -0.014  0.00  0.00     0.084 A 
ATOM      2  C   UNL d   1      -0.440   1.358  -0.029  0.00  0.00     0.084 A 
ATOM      3  C   UNL d   1       0.874   1.122  -0.016  0.00  0.00     0.087 A 
ATOM      4  C   UNL d   1      -0.875  -1.129  -0.029  0.00  0.00     0.087 A 
ATOM      5  C   UNL d   1       1.416  -0.260   0.030  0.00  0.00     0.195 A 
ATOM      6  C   UNL d   1      -1.418   0.253  -0.001  0.00  0.00     0.195 A 
ATOM      7  O   UNL d   1       2.612  -0.515   0.096  0.00  0.00    -0.287 OA
ATOM      8  O   UNL d   1      -2.615   0.508   0.041  0.00  0.00    -0.287 OA
ATOM      9 CL   UNL d   1      -1.997  -2.435  -0.086  0.00  0.00    -0.080 Cl
ATOM     10 CL   UNL d   1       1.998   2.427  -0.054  0.00  0.00    -0.080 Cl
ENDROOT
TORSDOF 0
