REMARK  3 active torsions:
REMARK  status: ('A' for Active; 'I' for Inactive)
REMARK    1  A    between atoms: C_2  and  S_1 
REMARK    2  A    between atoms: N_6  and  S_1 
REMARK    3  A    between atoms: C_11  and  N_6 
ROOT
ATOM      1  C   UNL d   1       0.605  -1.653  -0.206  0.00  0.00     0.128 A 
ATOM      2  S   UNL d   1      -0.807  -1.870  -1.142  0.00  0.00    -0.075 SA
ATOM      3  C   UNL d   1       1.112  -2.863   0.255  0.00  0.00    -0.020 A 
ATOM      4  C   UNL d   1       0.309  -3.985  -0.191  0.00  0.00    -0.009 A 
ATOM      5  C   UNL d   1      -0.774  -3.573  -0.968  0.00  0.00     0.017 A 
ATOM      6  C   UNL d   1       0.458  -5.375   0.052  0.00  0.00     0.037 A 
ATOM      7  C   UNL d   1      -1.697  -4.492  -1.506  0.00  0.00     0.021 A 
ATOM      8  C   UNL d   1      -0.457  -6.287  -0.480  0.00  0.00     0.035 A 
ATOM      9  C   UNL d   1       2.316  -3.030   1.133  0.00  0.00     0.051 C 
ATOM     10  C   UNL d   1      -1.524  -5.853  -1.251  0.00  0.00     0.025 A 
ATOM     11 CL   UNL d   1      -0.256  -7.968  -0.169  0.00  0.00    -0.084 Cl
ENDROOT
BRANCH   1  12
ATOM     12  S   UNL d   1       1.087   0.060   0.048  0.00  0.00     0.272 S 
ATOM     13  O   UNL d   1       0.582   0.803  -1.085  0.00  0.00    -0.199 OA
ATOM     14  O   UNL d   1       2.514   0.005   0.303  0.00  0.00    -0.199 OA
BRANCH  12  15
ATOM     15  N   UNL d   1       0.291   0.595   1.458  0.00  0.00    -0.276 N 
ATOM     16  C   UNL d   1      -1.097   1.058   1.331  0.00  0.00     0.170 C 
BRANCH  15  17
ATOM     17  C   UNL d   1       0.697   0.007   2.703  0.00  0.00     0.044 A 
ATOM     18  C   UNL d   1       1.699   0.650   3.429  0.00  0.00     0.030 A 
ATOM     19  C   UNL d   1       2.185   0.092   4.613  0.00  0.00     0.002 A 
ATOM     20  C   UNL d   1       1.672  -1.117   5.077  0.00  0.00     0.000 A 
ATOM     21  C   UNL d   1       0.665  -1.765   4.361  0.00  0.00     0.002 A 
ATOM     22  C   UNL d   1       0.173  -1.202   3.176  0.00  0.00     0.030 A 
ENDBRANCH  15  17
ENDBRANCH  12  15
ENDBRANCH   1  12
TORSDOF 3
