REMARK  8 active torsions:
REMARK  status: ('A' for Active; 'I' for Inactive)
REMARK    1  A    between atoms: C_2  and  S_1 
REMARK    2  A    between atoms: N_3  and  S_1 
REMARK    3  A    between atoms: N_4  and  N_3 
REMARK       I    between atoms: C_6  and  N_4 
REMARK    4  A    between atoms: C_10  and  C_6 
REMARK    5  A    between atoms: C_16  and  C_10 
REMARK    6  A    between atoms: S_14  and  C_16 
REMARK    7  A    between atoms: C_15  and  S_14 
REMARK    8  A    between atoms: O_22  and  C_17 
ROOT
ATOM      1  N   UNL d   1       0.382   0.917   2.532  0.00  0.00    -0.260 N 
ATOM      2  C   UNL d   1       0.576   2.087   3.227  0.00  0.00     0.237 C 
ATOM      3  O   UNL d   1       1.473   2.208   4.062  0.00  0.00    -0.272 OA
ATOM      4  H   UNL d   1      -0.334   0.804   1.811  0.00  0.00     0.190 HD
ENDROOT
BRANCH   2   5
ATOM      5  C   UNL d   1      -0.406   3.212   2.950  0.00  0.00     0.115 C 
BRANCH   5   6
ATOM      6  C   UNL d   1      -0.770   3.437   1.485  0.00  0.00     0.089 C 
BRANCH   6   7
ATOM      7  S   UNL d   1      -1.897   2.142   0.850  0.00  0.00    -0.130 SA
BRANCH   7   8
ATOM      8  C   UNL d   1      -2.231   2.673  -0.822  0.00  0.00     0.000 A 
ATOM      9  C   UNL d   1      -1.377   3.480  -1.579  0.00  0.00     0.021 A 
ATOM     10  C   UNL d   1      -1.705   3.839  -2.894  0.00  0.00     0.038 A 
ATOM     11  C   UNL d   1      -2.890   3.389  -3.471  0.00  0.00     0.068 A 
ATOM     12  C   UNL d   1      -3.738   2.571  -2.725  0.00  0.00     0.038 A 
ATOM     13  C   UNL d   1      -3.410   2.212  -1.415  0.00  0.00     0.021 A 
BRANCH  11  14
ATOM     14  O   UNL d   1      -3.329   3.669  -4.734  0.00  0.00    -0.356 OA
ATOM     15  C   UNL d   1      -2.488   4.479  -5.546  0.00  0.00     0.210 C 
ENDBRANCH  11  14
ENDBRANCH   7   8
ENDBRANCH   6   7
ENDBRANCH   5   6
ENDBRANCH   2   5
BRANCH   1  16
ATOM     16  N   UNL d   1       1.297  -0.182   2.763  0.00  0.00    -0.220 N 
ATOM     17  H   UNL d   1       2.077  -0.024   3.412  0.00  0.00     0.200 HD
BRANCH  16  18
ATOM     18  S   UNL d   1       1.560  -1.308   1.534  0.00  0.00     0.282 S 
ATOM     19  O   UNL d   1       2.514  -2.285   1.998  0.00  0.00    -0.198 OA
ATOM     20  O   UNL d   1       0.269  -1.671   0.982  0.00  0.00    -0.198 OA
BRANCH  18  21
ATOM     21  C   UNL d   1       2.366  -0.426   0.209  0.00  0.00     0.121 A 
ATOM     22  S   UNL d   1       3.832   0.363   0.605  0.00  0.00    -0.088 SA
ATOM     23  C   UNL d   1       4.003   0.981  -0.982  0.00  0.00     0.051 A 
ATOM     24  C   UNL d   1       2.961   0.600  -1.799  0.00  0.00     0.009 A 
ATOM     25  C   UNL d   1       2.016  -0.214  -1.111  0.00  0.00     0.033 A 
ENDBRANCH  18  21
ENDBRANCH  16  18
ENDBRANCH   1  16
TORSDOF 8
