REMARK  5 active torsions:
REMARK  status: ('A' for Active; 'I' for Inactive)
REMARK    1  A    between atoms: C_4  and  C_3 
REMARK    2  A    between atoms: S_10  and  C_5 
REMARK    3  A    between atoms: C_9  and  C_13 
REMARK       I    between atoms: N_12  and  C_9 
REMARK    4  A    between atoms: C_13  and  S_10 
REMARK    5  A    between atoms: N_17  and  N_12 
ROOT
ATOM      1  N   UNL d   1      -1.136   1.321   0.099  0.00  0.00    -0.352 N 
ATOM      2  HN  UNL d   1      -1.155   2.340   0.125  1.00  0.00     0.166 HD
ATOM      3  C   UNL d   1      -2.296   0.614   0.085  0.00  0.00     0.118 A 
ATOM      4  C   UNL d   1      -1.085  -1.468   0.069  0.00  0.00     0.015 A 
ATOM      5  C   UNL d   1      -2.301  -0.775   0.077  0.00  0.00     0.053 A 
ATOM      6  C   UNL d   1       0.034   0.664   0.080  0.00  0.00     0.044 A 
ATOM      7  C   UNL d   1       0.134  -0.743   0.047  0.00  0.00     0.007 A 
ATOM      8  C   UNL d   1       1.431  -1.315  -0.029  0.00  0.00     0.015 A 
ATOM      9  C   UNL d   1       1.191   1.433   0.064  0.00  0.00     0.030 A 
ATOM     10  C   UNL d   1       2.580  -0.523  -0.033  0.00  0.00     0.001 A 
ATOM     11  C   UNL d   1       2.460   0.857   0.016  0.00  0.00     0.002 A 
ENDROOT
BRANCH   4  12
ATOM     12  S   UNL d   1      -1.232  -3.258  -0.053  0.00  0.00    -0.120 SA
BRANCH  12  13
ATOM     13  C   UNL d   1      -0.456  -3.829   1.493  0.00  0.00     0.183 C 
BRANCH  13  14
ATOM     14  C   UNL d   1      -1.144  -3.308   2.735  0.00  0.00     0.241 C 
ATOM     15  O   UNL d   1      -0.541  -2.699   3.618  0.00  0.00    -0.271 OA
ATOM     16  N   UNL d   1      -2.482  -3.667   2.853  0.00  0.00    -0.293 N 
ATOM     17  H   UNL d   1      -2.991  -3.973   2.024  0.00  0.00     0.183 HD
BRANCH  16  18
ATOM     18  N   UNL d   1      -3.212  -3.231   3.979  0.00  0.00    -0.247 NA
ATOM     19  H   UNL d   1      -2.612  -2.563   4.486  0.00  0.00     0.143 HD
ATOM     20  H   UNL d   1      -3.292  -4.020   4.628  0.00  0.00     0.143 HD
ENDBRANCH  16  18
ENDBRANCH  13  14
ENDBRANCH  12  13
ENDBRANCH   4  12
BRANCH   3  21
ATOM     21  C   UNL d   1      -3.625   1.353   0.043  0.00  0.00     0.432 C 
ATOM     22  F   UNL d   1      -3.518   2.712   0.042  0.00  0.00    -0.165 F 
ATOM     23  F   UNL d   1      -4.355   1.040  -1.069  0.00  0.00    -0.165 F 
ATOM     24  F   UNL d   1      -4.430   1.044   1.102  0.00  0.00    -0.165 F 
ENDBRANCH   3  21
TORSDOF 5
