REMARK  5 active torsions:
REMARK  status: ('A' for Active; 'I' for Inactive)
REMARK    1  A    between atoms: N_2  and  C_1 
REMARK    2  A    between atoms: N_3  and  C_6 
REMARK    3  A    between atoms: N_7  and  C_5 
REMARK    4  A    between atoms: C_14  and  N_7 
REMARK    5  A    between atoms: N_16  and  C_15 
ROOT
ATOM      1  C   UNL d   1      -0.385   0.939  -0.246  0.00  0.00     0.131 A 
ATOM      2  C   UNL d   1      -1.193  -0.114   0.213  0.00  0.00     0.074 A 
ATOM      3  C   UNL d   1       0.991   1.021   0.032  0.00  0.00     0.066 A 
ATOM      4  C   UNL d   1      -0.599  -1.129   0.967  0.00  0.00     0.105 A 
ATOM      5  C   UNL d   1       1.555  -0.040   0.763  0.00  0.00     0.034 A 
ATOM      6  C   UNL d   1       0.775  -1.105   1.232  0.00  0.00     0.038 A 
ENDROOT
BRANCH   3   7
ATOM      7  N   UNL d   1       1.794   2.092  -0.419  0.00  0.00    -0.354 N 
ATOM      8  H   UNL d   1       1.407   3.010  -0.186  0.00  0.00     0.166 HD
BRANCH   7   9
ATOM      9  C   UNL d   1       3.186   2.097  -0.627  0.00  0.00     0.032 A 
ATOM     10  C   UNL d   1       3.808   1.057  -1.325  0.00  0.00     0.031 A 
ATOM     11  C   UNL d   1       5.198   1.012  -1.460  0.00  0.00     0.025 A 
ATOM     12  C   UNL d   1       6.002   1.974  -0.851  0.00  0.00     0.005 A 
ATOM     13  C   UNL d   1       5.381   3.052  -0.215  0.00  0.00     0.025 A 
ATOM     14  C   UNL d   1       3.987   3.106  -0.085  0.00  0.00     0.031 A 
BRANCH  12  15
ATOM     15  N   UNL d   1       7.383   1.978  -1.070  0.00  0.00    -0.303 NA
ATOM     16  H   UNL d   1       7.910   2.482  -0.365  0.00  0.00     0.124 HD
ATOM     17  H   UNL d   1       7.770   1.057  -1.252  0.00  0.00     0.124 HD
ENDBRANCH  12  15
ENDBRANCH   7   9
ENDBRANCH   3   7
BRANCH   1  18
ATOM     18  N   UNL d   1      -1.017   1.949  -1.076  0.00  0.00    -0.113 N 
ATOM     19  O   UNL d   1      -1.631   1.555  -2.074  0.00  0.00    -0.532 OA
ATOM     20  O   UNL d   1      -0.918   3.127  -0.701  0.00  0.00    -0.532 OA
ENDBRANCH   1  18
BRANCH   4  21
ATOM     21  N   UNL d   1      -1.420  -2.225   1.495  0.00  0.00    -0.116 N 
ATOM     22  O   UNL d   1      -2.642  -2.167   1.302  0.00  0.00    -0.532 OA
ATOM     23  O   UNL d   1      -0.844  -3.132   2.110  0.00  0.00    -0.532 OA
ENDBRANCH   4  21
TORSDOF 5
