REMARK  8 active torsions:
REMARK  status: ('A' for Active; 'I' for Inactive)
REMARK    1  A    between atoms: N_2  and  S_1 
REMARK    2  A    between atoms: C_3  and  S_1 
REMARK    3  A    between atoms: C_4  and  N_2 
REMARK    4  A    between atoms: C_10  and  N_2 
REMARK    5  A    between atoms: C_5  and  C_4 
REMARK    6  A    between atoms: C_8  and  C_10 
REMARK    7  A    between atoms: C_9  and  C_8 
REMARK    8  A    between atoms: O_21  and  C_9 
ROOT
ATOM      1  N   UNL d   1       0.470   0.575  -1.307  0.00  0.00    -0.200 NA
ENDROOT
BRANCH   1   2
ATOM      2  S   UNL d   1       1.099   0.022   0.206  0.00  0.00     0.244 S 
ATOM      3  O   UNL d   1       0.656   0.971   1.209  0.00  0.00    -0.206 OA
ATOM      4  O   UNL d   1       2.500  -0.285   0.034  0.00  0.00    -0.206 OA
BRANCH   2   5
ATOM      5  C   UNL d   1       0.296  -1.529   0.547  0.00  0.00     0.074 A 
ATOM      6  C   UNL d   1       0.481  -2.611  -0.317  0.00  0.00     0.026 A 
ATOM      7  C   UNL d   1      -0.112  -3.839  -0.008  0.00  0.00     0.025 A 
ATOM      8  C   UNL d   1      -0.868  -3.977   1.157  0.00  0.00     0.034 A 
ATOM      9  C   UNL d   1      -1.039  -2.898   2.025  0.00  0.00     0.025 A 
ATOM     10 CL   UNL d   1      -1.588  -5.493   1.537  0.00  0.00    -0.084 Cl
ATOM     11  C   UNL d   1      -0.456  -1.668   1.721  0.00  0.00     0.026 A 
ENDBRANCH   2   5
ENDBRANCH   1   2
BRANCH   1  12
ATOM     12  C   UNL d   1      -1.034   0.543  -1.345  0.00  0.00     0.172 C 
BRANCH  12  13
ATOM     13  C   UNL d   1      -1.573   0.900  -2.692  0.00  0.00     0.066 A 
ATOM     14  O   UNL d   1      -2.421   1.972  -2.728  0.00  0.00    -0.326 OA
ATOM     15  C   UNL d   1      -2.811   2.132  -4.018  0.00  0.00     0.142 A 
ATOM     16  C   UNL d   1      -2.228   1.177  -4.818  0.00  0.00     0.027 A 
ATOM     17  C   UNL d   1      -1.426   0.380  -3.963  0.00  0.00     0.036 A 
ENDBRANCH  12  13
ENDBRANCH   1  12
BRANCH   1  18
ATOM     18  C   UNL d   1       0.961   1.985  -1.635  0.00  0.00     0.118 C 
BRANCH  18  19
ATOM     19  C   UNL d   1       2.475   2.112  -1.752  0.00  0.00     0.126 C 
BRANCH  19  20
ATOM     20  C   UNL d   1       2.853   3.530  -2.099  0.00  0.00     0.259 C 
ATOM     21  O   UNL d   1       2.067   4.452  -2.259  0.00  0.00    -0.265 OA
BRANCH  20  22
ATOM     22  O   UNL d   1       4.209   3.635  -2.181  0.00  0.00    -0.326 OA
ATOM     23  C   UNL d   1       4.677   4.960  -2.439  0.00  0.00     0.213 C 
ENDBRANCH  20  22
ENDBRANCH  19  20
ENDBRANCH  18  19
ENDBRANCH   1  18
TORSDOF 8
