REMARK  3 active torsions:
REMARK  status: ('A' for Active; 'I' for Inactive)
REMARK    1  A    between atoms: C_2  and  S_1 
REMARK    2  A    between atoms: N_3  and  S_1 
REMARK    3  A    between atoms: C_9  and  N_3 
ROOT
ATOM      1  S   UNL d   1       0.793   0.164  -0.032  0.00  0.00     0.259 S 
ATOM      2  O   UNL d   1       1.046   0.844  -1.278  0.00  0.00    -0.201 OA
ATOM      3  O   UNL d   1      -0.238   0.615   0.880  0.00  0.00    -0.201 OA
ENDROOT
BRANCH   1   4
ATOM      4  C   UNL d   1       2.300   0.109   0.901  0.00  0.00     0.081 A 
ATOM      5  C   UNL d   1       3.464   0.683   0.382  0.00  0.00     0.050 A 
ATOM      6  C   UNL d   1       4.674   0.502   1.056  0.00  0.00     0.057 A 
ATOM      7 CL   UNL d   1       6.099   1.161   0.336  0.00  0.00    -0.083 Cl
ATOM      8  C   UNL d   1       4.708  -0.226   2.254  0.00  0.00     0.055 A 
ATOM      9  C   UNL d   1       3.525  -0.745   2.793  0.00  0.00     0.027 A 
ATOM     10 CL   UNL d   1       6.179  -0.545   3.102  0.00  0.00    -0.083 Cl
ATOM     11  C   UNL d   1       2.315  -0.575   2.120  0.00  0.00     0.027 A 
ENDBRANCH   1   4
BRANCH   1  12
ATOM     12  N   UNL d   1       0.466  -1.449  -0.329  0.00  0.00    -0.307 N 
ATOM     13  H   UNL d   1      -0.381  -1.778   0.133  0.00  0.00     0.173 HD
BRANCH  12  14
ATOM     14  C   UNL d   1       1.174  -2.364  -1.249  0.00  0.00     0.029 C 
ATOM     15  C   UNL d   1       2.592  -2.663  -0.759  0.00  0.00     0.038 C 
ATOM     16  C   UNL d   1       0.385  -3.689  -1.247  0.00  0.00     0.038 C 
ATOM     17  C   UNL d   1       1.203  -1.829  -2.684  0.00  0.00     0.038 C 
ENDBRANCH  12  14
ENDBRANCH   1  12
TORSDOF 3
