REMARK  6 active torsions:
REMARK  status: ('A' for Active; 'I' for Inactive)
REMARK    1  A    between atoms: O_11  and  C_1 
REMARK    2  A    between atoms: O_12  and  C_2 
REMARK    3  A    between atoms: O_13  and  C_3 
REMARK    4  A    between atoms: C_4  and  C_5 
REMARK    5  A    between atoms: O_14  and  C_4 
REMARK    6  A    between atoms: C_6  and  C_7 
ROOT
ATOM      1  C   UNL d   1       1.407  -0.386  -0.039  0.00  0.00     0.135 A 
ATOM      2  C   UNL d   1       0.489  -1.445   0.143  0.00  0.00     0.105 A 
ATOM      3  C   UNL d   1       0.931   0.927  -0.180  0.00  0.00     0.105 A 
ATOM      4  C   UNL d   1      -1.372   0.100  -0.144  0.00  0.00    -0.030 A 
ATOM      5  C   UNL d   1      -0.455   1.151  -0.225  0.00  0.00     0.051 A 
ATOM      6  C   UNL d   1      -0.886  -1.196   0.059  0.00  0.00     0.051 A 
ENDROOT
BRANCH   4   7
ATOM      7  C   UNL d   1      -2.812   0.392  -0.199  0.00  0.00     0.018 C 
ATOM      8  C   UNL d   1      -3.716  -0.436  -0.749  0.00  0.00     0.082 C 
BRANCH   8   9
ATOM      9  C   UNL d   1      -5.146  -0.071  -0.750  0.00  0.00     0.165 C 
ATOM     10  O   UNL d   1      -5.600   0.962  -0.287  0.00  0.00    -0.647 OA
BRANCH   9  11
ATOM     11  O   UNL d   1      -5.910  -1.025  -1.315  0.00  0.00    -0.773 OA
ATOM     12  H   UNL d   1      -5.435  -1.805  -1.653  0.00  0.00     0.167 HD
ENDBRANCH   9  11
ENDBRANCH   8   9
ENDBRANCH   4   7
BRANCH   3  13
ATOM     13  O   UNL d   1       1.639   2.095  -0.290  0.00  0.00    -0.353 OA
ATOM     14  C   UNL d   1       3.056   2.052  -0.247  0.00  0.00     0.210 C 
ENDBRANCH   3  13
BRANCH   2  15
ATOM     15  O   UNL d   1       1.013  -2.688   0.406  0.00  0.00    -0.353 OA
ATOM     16  C   UNL d   1       0.129  -3.665   0.942  0.00  0.00     0.210 C 
ENDBRANCH   2  15
BRANCH   1  17
ATOM     17  O   UNL d   1       2.758  -0.616   0.037  0.00  0.00    -0.351 OA
ATOM     18  C   UNL d   1       3.249  -1.538  -0.937  0.00  0.00     0.210 C 
ENDBRANCH   1  17
TORSDOF 6
