REMARK  6 active torsions:
REMARK  status: ('A' for Active; 'I' for Inactive)
REMARK    1  A    between atoms: C_9  and  C_1 
REMARK    2  A    between atoms: C_6  and  C_3 
REMARK    3  A    between atoms: C_4  and  O_13 
REMARK       I    between atoms: N_10  and  C_4 
REMARK    4  A    between atoms: C_15  and  C_7 
REMARK    5  A    between atoms: C_14  and  N_10 
REMARK    6  A    between atoms: O_13  and  C_15 
ROOT
ATOM      1  O   UNL d   1       5.522   2.367  -0.705  0.00  0.00    -0.292 OA
ENDROOT
BRANCH   1   2
ATOM      2  C   UNL d   1       6.331   2.994  -1.590  0.00  0.00     0.366 C 
ATOM      3  N   UNL d   1       7.546   2.404  -1.819  0.00  0.00    -0.303 N 
ATOM      4  H   UNL d   1       8.088   2.946  -2.481  0.00  0.00     0.171 HD
ATOM      5  O   UNL d   1       6.057   4.048  -2.156  0.00  0.00    -0.238 OA
BRANCH   3   6
ATOM      6  C   UNL d   1       8.200   1.309  -1.222  0.00  0.00     0.036 A 
ATOM      7  C   UNL d   1       7.634   0.460  -0.271  0.00  0.00     0.029 A 
ATOM      8  C   UNL d   1       8.399  -0.553   0.321  0.00  0.00     0.002 A 
ATOM      9  C   UNL d   1       9.732  -0.733  -0.039  0.00  0.00     0.000 A 
ATOM     10  C   UNL d   1      10.298   0.084  -1.011  0.00  0.00     0.002 A 
ATOM     11  C   UNL d   1       9.534   1.095  -1.602  0.00  0.00     0.029 A 
ENDBRANCH   3   6
ENDBRANCH   1   2
BRANCH   1  12
ATOM     12  C   UNL d   1       4.346   3.084  -0.308  0.00  0.00     0.274 C 
BRANCH  12  13
ATOM     13  C   UNL d   1       3.171   2.208  -0.368  0.00  0.00    -0.074 C 
ATOM     14  C   UNL d   1       2.201   1.501  -0.354  0.00  0.00    -0.057 C 
BRANCH  14  15
ATOM     15  C   UNL d   1       1.078   0.629  -0.265  0.00  0.00     0.059 A 
ATOM     16  S   UNL d   1       1.240  -1.066  -0.227  0.00  0.00    -0.078 SA
ATOM     17  C   UNL d   1      -0.451  -1.313  -0.045  0.00  0.00     0.051 A 
ATOM     18  C   UNL d   1      -1.123  -0.103  -0.025  0.00  0.00     0.025 A 
ATOM     19  C   UNL d   1      -0.241   1.017  -0.162  0.00  0.00     0.029 A 
BRANCH  17  20
ATOM     20  C   UNL d   1      -0.938  -2.686   0.064  0.00  0.00     0.162 C 
ATOM     21  O   UNL d   1      -0.195  -3.671   0.092  0.00  0.00    -0.292 OA
ATOM     22  C   UNL d   1      -2.427  -2.926   0.131  0.00  0.00     0.097 C 
ENDBRANCH  17  20
ENDBRANCH  14  15
ENDBRANCH  12  13
ENDBRANCH   1  12
TORSDOF 6
