REMARK  0 active torsions:
REMARK  status: ('A' for Active; 'I' for Inactive)
ROOT
ATOM      1  C   UNL d   1      -0.643  -0.492  -1.424  0.00  0.00     0.173 C 
ATOM      2  C   UNL d   1       0.218   0.782  -1.437  0.00  0.00     0.065 C 
ATOM      3  C   UNL d   1      -0.684  -0.835   0.071  0.00  0.00     0.065 A 
ATOM      4  C   UNL d   1       1.676   0.568  -0.916  0.00  0.00     0.070 C 
ATOM      5  C   UNL d   1       0.777  -1.089   0.620  0.00  0.00     0.070 A 
ATOM      6  C   UNL d   1       1.899  -0.873  -0.479  0.00  0.00     0.137 C 
ATOM      7  C   UNL d   1      -0.689   0.540   0.779  0.00  0.00     0.005 A 
ATOM      8  C   UNL d   1       0.723   0.291   1.331  0.00  0.00     0.007 A 
ATOM      9  C   UNL d   1      -0.439   1.618  -0.299  0.00  0.00     0.001 C 
ATOM     10  C   UNL d   1       1.607   1.256   0.481  0.00  0.00     0.003 C 
ATOM     11  C   UNL d   1       0.695   2.449   0.263  0.00  0.00     0.011 C 
ATOM     12  O   UNL d   1      -1.939  -0.192  -1.965  0.00  0.00    -0.352 OA
ATOM     13  O   UNL d   1      -0.068  -1.569  -2.167  0.00  0.00    -0.352 OA
ATOM     14  O   UNL d   1       2.815  -1.589  -0.858  0.00  0.00    -0.297 OA
ATOM     15  C   UNL d   1      -1.082  -1.966  -3.091  0.00  0.00     0.197 C 
ATOM     16  C   UNL d   1      -1.834  -0.684  -3.308  0.00  0.00     0.197 C 
ENDROOT
TORSDOF 0
