REMARK  2 active torsions:
REMARK  status: ('A' for Active; 'I' for Inactive)
REMARK    1  A    between atoms: C_2  and  C_1 
REMARK    2  A    between atoms: C_12  and  C_7 
ROOT
ATOM      1  C   UNL d   1       3.638   0.173  -0.006  0.00  0.00     0.057 A 
ATOM      2  N   UNL d   1       4.328   0.941   0.915  0.00  0.00    -0.348 N 
ATOM      3  HN  UNL d   1       3.885   1.515   1.632  1.00  0.00     0.166 HD
ATOM      4  C   UNL d   1       5.630   0.834   0.748  0.00  0.00     0.084 A 
ATOM      5  S   UNL d   1       6.099  -0.163  -0.575  0.00  0.00    -0.081 SA
ATOM      6  C   UNL d   1       4.450  -0.494  -0.902  0.00  0.00     0.082 A 
ENDROOT
BRANCH   1   7
ATOM      7  C   UNL d   1       2.127   0.080  -0.007  0.00  0.00     0.039 A 
ATOM      8  S   UNL d   1       1.290  -0.945  -1.094  0.00  0.00    -0.087 SA
ATOM      9  C   UNL d   1      -0.245  -0.537  -0.461  0.00  0.00     0.016 A 
ATOM     10  C   UNL d   1      -1.494  -1.041  -0.877  0.00  0.00     0.019 A 
ATOM     11  C   UNL d   1      -0.133   0.400   0.564  0.00  0.00    -0.012 A 
ATOM     12  C   UNL d   1      -2.653  -0.587  -0.248  0.00  0.00     0.001 A 
ATOM     13  C   UNL d   1      -2.577   0.350   0.770  0.00  0.00     0.001 A 
ATOM     14  C   UNL d   1      -1.335   0.843   1.179  0.00  0.00     0.013 A 
ATOM     15  C   UNL d   1       1.253   0.763   0.831  0.00  0.00    -0.031 A 
ATOM     16  C   UNL d   1       1.591   1.756   1.903  0.00  0.00     0.050 C 
ENDBRANCH   1   7
BRANCH   4  17
ATOM     17  C   UNL d   1       6.623   1.536   1.579  0.00  0.00    -0.002 A 
ATOM     18  C   UNL d   1       7.915   1.035   1.810  0.00  0.00     0.016 A 
ATOM     19  C   UNL d   1       8.819   1.729   2.621  0.00  0.00     0.024 A 
ATOM     20  C   UNL d   1       8.440   2.932   3.212  0.00  0.00     0.034 A 
ATOM     21  C   UNL d   1       7.163   3.445   3.004  0.00  0.00     0.024 A 
ATOM     22 CL   UNL d   1       9.553   3.785   4.208  0.00  0.00    -0.084 Cl
ATOM     23  C   UNL d   1       6.260   2.746   2.197  0.00  0.00     0.016 A 
ENDBRANCH   4  17
TORSDOF 2
