REMARK  3 active torsions:
REMARK  status: ('A' for Active; 'I' for Inactive)
REMARK    1  A    between atoms: C_12  and  C_2 
REMARK    2  A    between atoms: C_13  and  C_10 
REMARK    3  A    between atoms: C_18  and  C_11 
ROOT
ATOM      1  N   UNL d   1       0.292   0.621   0.032  0.00  0.00    -0.235 N 
ATOM      2  C   UNL d   1      -0.835   1.434   0.017  0.00  0.00     0.144 A 
ATOM      3  C   UNL d   1       0.152  -0.769   0.053  0.00  0.00     0.130 A 
ATOM      4  N   UNL d   1       1.597   0.969   0.024  0.00  0.00    -0.291 N 
ATOM      5  HN  UNL d   1       1.976   1.916   0.024  1.00  0.00     0.187 HD
ATOM      6  N   UNL d   1      -1.060  -1.392   0.080  0.00  0.00    -0.339 N 
ATOM      7  HN  UNL d   1      -1.133  -2.409   0.109  1.00  0.00     0.167 HD
ATOM      8  C   UNL d   1      -2.059   0.865   0.021  0.00  0.00     0.069 A 
ATOM      9  C   UNL d   1       1.423  -1.286   0.036  0.00  0.00     0.082 A 
ATOM     10  C   UNL d   1      -2.125  -0.636   0.068  0.00  0.00     0.070 A 
ATOM     11  C   UNL d   1       2.297  -0.175   0.016  0.00  0.00     0.062 A 
ENDROOT
BRANCH  10  12
ATOM     12  C   UNL d   1      -3.452  -1.243   0.109  0.00  0.00     0.101 A 
ATOM     13  N   UNL d   1      -4.568  -0.542   0.022  0.00  0.00    -0.358 N 
ATOM     14  C   UNL d   1      -5.656  -1.392   0.104  0.00  0.00     0.096 A 
ATOM     15  HN  UNL d   1      -4.620   0.471  -0.088  1.00  0.00     0.166 HD
ATOM     16  C   UNL d   1      -5.359  -2.728   0.261  0.00  0.00     0.069 A 
ATOM     17  S   UNL d   1      -3.660  -2.940   0.294  0.00  0.00    -0.081 SA
ENDBRANCH  10  12
BRANCH   2  18
ATOM     18  C   UNL d   1      -0.667   2.908  -0.005  0.00  0.00     0.434 C 
ATOM     19  F   UNL d   1       0.601   3.379   0.008  0.00  0.00    -0.165 F 
ATOM     20  F   UNL d   1      -1.262   3.442  -1.107  0.00  0.00    -0.165 F 
ATOM     21  F   UNL d   1      -1.294   3.475   1.063  0.00  0.00    -0.165 F 
ENDBRANCH   2  18
BRANCH  11  22
ATOM     22  C   UNL d   1       3.765  -0.176  -0.013  0.00  0.00    -0.008 A 
ATOM     23  C   UNL d   1       4.477   1.035   0.012  0.00  0.00     0.014 A 
ATOM     24  C   UNL d   1       5.874   1.046  -0.022  0.00  0.00     0.001 A 
ATOM     25  C   UNL d   1       6.579  -0.154  -0.080  0.00  0.00     0.000 A 
ATOM     26  C   UNL d   1       5.889  -1.363  -0.104  0.00  0.00     0.001 A 
ATOM     27  C   UNL d   1       4.492  -1.375  -0.070  0.00  0.00     0.014 A 
ENDBRANCH  11  22
TORSDOF 3
