REMARK  9 active torsions:
REMARK  status: ('A' for Active; 'I' for Inactive)
REMARK    1  A    between atoms: C_2  and  N_1 
REMARK    2  A    between atoms: N_5  and  C_2 
REMARK    3  A    between atoms: C_14  and  C_3 
REMARK    4  A    between atoms: C_9  and  N_5 
REMARK    5  A    between atoms: O_26  and  C_10 
REMARK    6  A    between atoms: O_28  and  C_13 
REMARK    7  A    between atoms: C_20  and  C_14 
REMARK    8  A    between atoms: O_29  and  C_16 
REMARK    9  A    between atoms: O_31  and  C_18 
ROOT
ATOM      1  N   UNL d   1       2.350   0.639   0.107  0.00  0.00    -0.349 N 
ATOM      2  C   UNL d   1       1.301   1.181  -0.793  0.00  0.00     0.124 C 
ATOM      3  C   UNL d   1      -0.043   0.540  -0.495  0.00  0.00    -0.026 A 
ATOM      4  C   UNL d   1      -0.096  -0.836  -0.239  0.00  0.00    -0.045 A 
ATOM      5  C   UNL d   1      -1.221   1.300  -0.440  0.00  0.00     0.049 A 
ATOM      6  C   UNL d   1       2.291  -0.791   0.459  0.00  0.00     0.130 C 
ATOM      7  C   UNL d   1      -2.454   0.705  -0.127  0.00  0.00     0.102 A 
ATOM      8  C   UNL d   1      -1.327  -1.443   0.019  0.00  0.00     0.047 A 
ATOM      9  C   UNL d   1      -2.509  -0.687   0.069  0.00  0.00     0.102 A 
ATOM     10  C   UNL d   1       1.196  -1.606  -0.242  0.00  0.00     0.059 C 
ENDROOT
BRANCH   1  11
ATOM     11  C   UNL d   1       2.986   1.459   1.060  0.00  0.00     0.175 C 
ATOM     12  S   UNL d   1       2.194   2.584   2.018  0.00  0.00    -0.041 SA
BRANCH  11  13
ATOM     13  N   UNL d   1       4.354   1.230   1.050  0.00  0.00    -0.333 N 
ATOM     14  H   UNL d   1       4.729   1.167   0.113  0.00  0.00     0.168 HD
BRANCH  13  15
ATOM     15  C   UNL d   1       5.289   1.354   2.097  0.00  0.00     0.040 A 
ATOM     16  C   UNL d   1       6.624   1.698   1.810  0.00  0.00    -0.034 A 
ATOM     17  C   UNL d   1       7.597   1.567   2.816  0.00  0.00     0.032 A 
ATOM     18  C   UNL d   1       7.070   2.219   0.473  0.00  0.00     0.050 C 
ATOM     19  C   UNL d   1       7.243   1.153   4.094  0.00  0.00     0.034 A 
ATOM     20  C   UNL d   1       5.914   0.883   4.399  0.00  0.00     0.026 A 
ATOM     21 CL   UNL d   1       8.458   0.952   5.295  0.00  0.00    -0.084 Cl
ATOM     22  C   UNL d   1       4.942   0.983   3.401  0.00  0.00     0.032 A 
ENDBRANCH  13  15
ENDBRANCH  11  13
ENDBRANCH   1  11
BRANCH   2  23
ATOM     23  C   UNL d   1       1.701   1.000  -2.287  0.00  0.00     0.068 C 
BRANCH  23  24
ATOM     24  C   UNL d   1       2.987   1.722  -2.640  0.00  0.00    -0.053 A 
ATOM     25  C   UNL d   1       4.227   1.060  -2.571  0.00  0.00     0.046 A 
ATOM     26  C   UNL d   1       5.436   1.747  -2.773  0.00  0.00     0.102 A 
ATOM     27  C   UNL d   1       5.395   3.120  -3.072  0.00  0.00     0.101 A 
ATOM     28  C   UNL d   1       4.155   3.766  -3.171  0.00  0.00     0.040 A 
ATOM     29  C   UNL d   1       2.962   3.079  -2.959  0.00  0.00     0.010 A 
BRANCH  26  30
ATOM     30  O   UNL d   1       6.661   1.164  -2.593  0.00  0.00    -0.353 OA
ATOM     31  C   UNL d   1       6.753  -0.253  -2.634  0.00  0.00     0.210 C 
ENDBRANCH  26  30
BRANCH  27  32
ATOM     32  O   UNL d   1       6.444   3.983  -3.255  0.00  0.00    -0.353 OA
ATOM     33  C   UNL d   1       7.735   3.445  -3.496  0.00  0.00     0.210 C 
ENDBRANCH  27  32
ENDBRANCH  23  24
ENDBRANCH   2  23
BRANCH   7  34
ATOM     34  O   UNL d   1      -3.613   1.424   0.009  0.00  0.00    -0.353 OA
ATOM     35  C   UNL d   1      -3.510   2.839   0.113  0.00  0.00     0.210 C 
ENDBRANCH   7  34
BRANCH   9  36
ATOM     36  O   UNL d   1      -3.606  -1.454   0.374  0.00  0.00    -0.353 OA
ATOM     37  C   UNL d   1      -4.887  -0.947   0.024  0.00  0.00     0.210 C 
ENDBRANCH   9  36
TORSDOF 9
