REMARK  7 active torsions:
REMARK  status: ('A' for Active; 'I' for Inactive)
REMARK    1  A    between atoms: C_2  and  S_1 
REMARK    2  A    between atoms: N_4  and  S_1 
REMARK    3  A    between atoms: C_3  and  N_4 
REMARK    4  A    between atoms: N_8  and  C_7 
REMARK    5  A    between atoms: C_12  and  C_13 
REMARK    6  A    between atoms: O_24  and  C_12 
REMARK    7  A    between atoms: C_29  and  O_24 
ROOT
ATOM      1  C   UNL d   1       0.603   2.360  -1.166  0.00  0.00     0.070 A 
ATOM      2  C   UNL d   1       1.948   2.636  -0.816  0.00  0.00     0.058 A 
ATOM      3  C   UNL d   1      -0.267   3.375  -1.567  0.00  0.00     0.050 A 
ATOM      4  C   UNL d   1       0.167   4.700  -1.617  0.00  0.00     0.041 A 
ATOM      5  C   UNL d   1       2.353   3.983  -0.861  0.00  0.00     0.033 A 
ATOM      6  C   UNL d   1       1.480   5.006  -1.257  0.00  0.00     0.020 A 
ENDROOT
BRANCH   1   7
ATOM      7  N   UNL d   1       0.075   1.040  -1.149  0.00  0.00    -0.278 N 
ATOM      8  H   UNL d   1      -0.220   0.617  -2.026  0.00  0.00     0.179 HD
BRANCH   7   9
ATOM      9  S   UNL d   1      -0.559   0.339   0.231  0.00  0.00     0.265 S 
ATOM     10  O   UNL d   1      -1.161  -0.895  -0.233  0.00  0.00    -0.200 OA
ATOM     11  O   UNL d   1       0.414   0.294   1.298  0.00  0.00    -0.200 OA
BRANCH   9  12
ATOM     12  C   UNL d   1      -1.902   1.414   0.695  0.00  0.00     0.103 A 
ATOM     13  C   UNL d   1      -3.182   1.094   0.201  0.00  0.00     0.052 A 
ATOM     14  C   UNL d   1      -4.291   1.876   0.536  0.00  0.00     0.057 A 
ATOM     15 CL   UNL d   1      -5.824   1.425  -0.118  0.00  0.00    -0.083 Cl
ATOM     16  C   UNL d   1      -4.131   2.978   1.379  0.00  0.00     0.057 A 
ATOM     17  C   UNL d   1      -2.864   3.285   1.883  0.00  0.00     0.051 A 
ATOM     18 CL   UNL d   1      -5.448   3.996   1.837  0.00  0.00    -0.082 Cl
ATOM     19  C   UNL d   1      -1.745   2.506   1.552  0.00  0.00     0.059 A 
ATOM     20 CL   UNL d   1      -0.246   3.026   2.226  0.00  0.00    -0.083 Cl
ENDBRANCH   9  12
ENDBRANCH   7   9
ENDBRANCH   1   7
BRANCH   2  21
ATOM     21  N   UNL d   1       2.823   1.626  -0.433  0.00  0.00    -0.375 N 
ATOM     22  C   UNL d   1       3.978   1.915   0.436  0.00  0.00     0.149 C 
ATOM     23  C   UNL d   1       4.391   0.616   1.149  0.00  0.00     0.187 C 
ATOM     24  O   UNL d   1       4.713  -0.420   0.202  0.00  0.00    -0.388 OA
ATOM     25  C   UNL d   1       3.570  -0.702  -0.627  0.00  0.00     0.187 C 
ATOM     26  C   UNL d   1       3.116   0.549  -1.399  0.00  0.00     0.149 C 
ENDBRANCH   2  21
BRANCH   4  27
ATOM     27  C   UNL d   1      -0.792   5.704  -2.138  0.00  0.00     0.293 C 
ATOM     28  O   UNL d   1      -1.956   5.437  -2.390  0.00  0.00    -0.259 OA
BRANCH  27  29
ATOM     29  O   UNL d   1      -0.153   6.865  -2.412  0.00  0.00    -0.318 OA
BRANCH  29  30
ATOM     30  C   UNL d   1      -0.824   7.722  -3.347  0.00  0.00     0.174 C 
ATOM     31  C   UNL d   1      -0.302   7.388  -4.733  0.00  0.00     0.034 C 
ENDBRANCH  29  30
ENDBRANCH  27  29
ENDBRANCH   4  27
TORSDOF 7
