REMARK  5 active torsions:
REMARK  status: ('A' for Active; 'I' for Inactive)
REMARK    1  A    between atoms: C_11  and  C_3 
REMARK    2  A    between atoms: C_12  and  C_8 
REMARK    3  A    between atoms: C_13  and  O_18 
REMARK       I    between atoms: N_17  and  C_13 
REMARK    4  A    between atoms: C_14  and  N_17 
REMARK    5  A    between atoms: O_18  and  N_15 
ROOT
ATOM      1  C   UNL d   1       3.632  -1.167  -0.262  0.00  0.00     0.048 C 
ATOM      2  N   UNL d   1       3.804  -2.453  -0.428  0.00  0.00    -0.259 N 
ATOM      3  HN  UNL d   1       4.686  -2.889  -0.695  1.00  0.00     0.194 HD
ATOM      4  C   UNL d   1       2.263  -0.562   0.006  0.00  0.00     0.072 C 
ENDROOT
BRANCH   1   5
ATOM      5  C   UNL d   1       4.817  -0.268  -0.274  0.00  0.00     0.057 A 
ATOM      6  S   UNL d   1       4.748   1.389  -0.880  0.00  0.00    -0.048 SA
ATOM      7  C   UNL d   1       6.364   1.627  -0.304  0.00  0.00     0.172 A 
ATOM      8  N   UNL d   1       6.867   0.495   0.266  0.00  0.00    -0.235 N 
ATOM      9  N   UNL d   1       7.179   2.636  -0.193  0.00  0.00    -0.316 N 
ATOM     10  N   UNL d   1       8.101   0.737   0.745  0.00  0.00    -0.273 N 
ATOM     11  C   UNL d   1       6.007  -0.583   0.290  0.00  0.00     0.052 A 
ATOM     12  C   UNL d   1       8.261   2.056   0.475  0.00  0.00     0.207 A 
ATOM     13  HN  UNL d   1       8.750   0.093   1.196  1.00  0.00     0.189 HD
ATOM     14  C   UNL d   1       6.409  -1.844   0.954  0.00  0.00     0.072 C 
ATOM     15  HN  UNL d   1       7.060   3.598  -0.511  1.00  0.00     0.169 HD
BRANCH  12  16
ATOM     16  C   UNL d   1       9.487   2.827   0.909  0.00  0.00     0.450 C 
ATOM     17  F   UNL d   1       9.457   4.132   0.525  0.00  0.00    -0.163 F 
ATOM     18  F   UNL d   1       9.631   2.830   2.265  0.00  0.00    -0.163 F 
ATOM     19  F   UNL d   1      10.635   2.301   0.400  0.00  0.00    -0.163 F 
ENDBRANCH  12  16
ENDBRANCH   1   5
BRANCH   2  20
ATOM     20  O   UNL d   1       2.607  -3.153  -0.190  0.00  0.00    -0.181 OA
BRANCH  20  21
ATOM     21  C   UNL d   1       2.620  -4.490  -0.537  0.00  0.00     0.387 C 
ATOM     22  N   UNL d   1       3.781  -5.108  -0.926  0.00  0.00    -0.300 N 
ATOM     23  H   UNL d   1       3.571  -5.864  -1.564  0.00  0.00     0.171 HD
ATOM     24  O   UNL d   1       1.556  -5.104  -0.639  0.00  0.00    -0.236 OA
BRANCH  22  25
ATOM     25  C   UNL d   1       5.050  -5.231  -0.319  0.00  0.00     0.048 A 
ATOM     26  C   UNL d   1       5.315  -5.058   1.058  0.00  0.00    -0.035 A 
ATOM     27  C   UNL d   1       6.604  -5.377   1.547  0.00  0.00     0.009 A 
ATOM     28  C   UNL d   1       4.305  -4.696   2.111  0.00  0.00     0.050 C 
ATOM     29  C   UNL d   1       7.613  -5.845   0.712  0.00  0.00     0.001 A 
ATOM     30  C   UNL d   1       7.356  -6.008  -0.639  0.00  0.00     0.009 A 
ATOM     31  C   UNL d   1       6.091  -5.702  -1.168  0.00  0.00    -0.035 A 
ATOM     32  C   UNL d   1       5.904  -5.928  -2.650  0.00  0.00     0.050 C 
ENDBRANCH  22  25
ENDBRANCH  20  21
ENDBRANCH   2  20
TORSDOF 5
