REMARK  5 active torsions:
REMARK  status: ('A' for Active; 'I' for Inactive)
REMARK    1  A    between atoms: N_2  and  C_1 
REMARK    2  A    between atoms: C_3  and  N_2 
REMARK    3  A    between atoms: C_7  and  N_2 
REMARK    4  A    between atoms: N_8  and  C_3 
REMARK    5  A    between atoms: C_13  and  N_8 
ROOT
ATOM      1  N   UNL d   1      -3.282  -1.369  -0.152  0.00  0.00    -0.268 N 
ENDROOT
BRANCH   1   2
ATOM      2  C   UNL d   1      -1.947  -0.926  -0.130  0.00  0.00     0.159 A 
ATOM      3  N   UNL d   1      -1.520   0.182  -0.699  0.00  0.00    -0.335 N 
ATOM      4  C   UNL d   1      -0.170   0.356  -0.462  0.00  0.00     0.051 A 
ATOM      5  HN  UNL d   1      -2.103   0.822  -1.239  1.00  0.00     0.168 HD
ATOM      6  C   UNL d   1       0.622   1.413  -0.950  0.00  0.00     0.031 A 
ATOM      7  C   UNL d   1       0.424  -0.618   0.340  0.00  0.00     0.035 A 
ATOM      8  C   UNL d   1       1.985   1.457  -0.641  0.00  0.00     0.002 A 
ATOM      9  C   UNL d   1       2.561   0.467   0.148  0.00  0.00     0.002 A 
ATOM     10  C   UNL d   1       1.791  -0.585   0.656  0.00  0.00     0.021 A 
ATOM     11  S   UNL d   1      -0.776  -1.748   0.823  0.00  0.00    -0.051 SA
ENDBRANCH   1   2
BRANCH   1  12
ATOM     12  C   UNL d   1      -3.605  -2.717   0.009  0.00  0.00     0.185 C 
ATOM     13  S   UNL d   1      -4.885  -3.303   0.947  0.00  0.00    -0.040 SA
BRANCH  12  14
ATOM     14  N   UNL d   1      -2.792  -3.698  -0.501  0.00  0.00    -0.333 N 
ATOM     15  H   UNL d   1      -2.898  -4.584  -0.017  0.00  0.00     0.168 HD
BRANCH  14  16
ATOM     16  C   UNL d   1      -1.968  -3.739  -1.642  0.00  0.00     0.034 A 
ATOM     17  C   UNL d   1      -0.972  -4.728  -1.667  0.00  0.00     0.032 A 
ATOM     18  C   UNL d   1      -0.134  -4.863  -2.775  0.00  0.00     0.044 A 
ATOM     19  C   UNL d   1      -0.321  -4.035  -3.873  0.00  0.00     0.116 A 
ATOM     20  C   UNL d   1      -1.315  -3.062  -3.871  0.00  0.00     0.044 A 
ATOM     21  F   UNL d   1       0.458  -4.186  -4.952  0.00  0.00    -0.206 F 
ATOM     22  C   UNL d   1      -2.134  -2.901  -2.747  0.00  0.00     0.032 A 
ENDBRANCH  14  16
ENDBRANCH  12  14
ENDBRANCH   1  12
BRANCH   1  23
ATOM     23  C   UNL d   1      -4.262  -0.306  -0.080  0.00  0.00     0.045 A 
ATOM     24  C   UNL d   1      -4.014   0.874   0.651  0.00  0.00     0.054 A 
ATOM     25  C   UNL d   1      -4.979   1.881   0.741  0.00  0.00     0.036 A 
ATOM     26 CL   UNL d   1      -4.648   3.296   1.664  0.00  0.00    -0.084 Cl
ATOM     27  C   UNL d   1      -6.206   1.739   0.109  0.00  0.00     0.024 A 
ATOM     28  C   UNL d   1      -6.472   0.582  -0.622  0.00  0.00     0.004 A 
ATOM     29  C   UNL d   1      -5.508  -0.431  -0.714  0.00  0.00     0.030 A 
ENDBRANCH   1  23
TORSDOF 5
