REMARK  7 active torsions:
REMARK  status: ('A' for Active; 'I' for Inactive)
REMARK    1  A    between atoms: C_2  and  C_1 
REMARK    2  A    between atoms: C_9  and  C_2 
REMARK    3  A    between atoms: C_4  and  C_3 
REMARK    4  A    between atoms: O_5  and  C_4 
REMARK    5  A    between atoms: C_11  and  O_5 
REMARK    6  A    between atoms: C_6  and  C_11 
REMARK    7  A    between atoms: C_7  and  C_6 
ROOT
ATOM      1  C   UNL d   1       1.385  -0.247   0.149  0.00  0.00     0.031 A 
ATOM      2  C   UNL d   1       0.365  -1.218   0.213  0.00  0.00     0.053 A 
ATOM      3  C   UNL d   1       1.009   1.110   0.048  0.00  0.00     0.016 A 
ATOM      4  C   UNL d   1      -0.984  -0.811   0.115  0.00  0.00     0.018 A 
ATOM      5  C   UNL d   1      -0.330   1.495  -0.040  0.00  0.00     0.001 A 
ATOM      6  C   UNL d   1      -1.328   0.533  -0.012  0.00  0.00     0.001 A 
ENDROOT
BRANCH   2   7
ATOM      7  C   UNL d   1       0.530  -2.682   0.416  0.00  0.00     0.294 C 
ATOM      8  O   UNL d   1      -0.182  -3.523  -0.104  0.00  0.00    -0.259 OA
BRANCH   7   9
ATOM      9  O   UNL d   1       1.410  -2.892   1.402  0.00  0.00    -0.310 OA
BRANCH   9  10
ATOM     10  C   UNL d   1       1.445  -4.185   1.992  0.00  0.00     0.263 C 
BRANCH  10  11
ATOM     11  C   UNL d   1       0.616  -4.144   3.259  0.00  0.00     0.183 C 
ATOM     12  O   UNL d   1       0.043  -3.136   3.670  0.00  0.00    -0.290 OA
BRANCH  11  13
ATOM     13  C   UNL d   1       0.495  -5.410   4.047  0.00  0.00     0.012 A 
ATOM     14  C   UNL d   1       1.095  -6.609   3.636  0.00  0.00     0.017 A 
ATOM     15  C   UNL d   1       0.958  -7.759   4.412  0.00  0.00     0.025 A 
ATOM     16  C   UNL d   1       0.230  -7.714   5.600  0.00  0.00     0.034 A 
ATOM     17  C   UNL d   1      -0.366  -6.528   6.018  0.00  0.00     0.025 A 
ATOM     18 CL   UNL d   1       0.069  -9.134   6.557  0.00  0.00    -0.084 Cl
ATOM     19  C   UNL d   1      -0.231  -5.376   5.242  0.00  0.00     0.017 A 
ENDBRANCH  11  13
ENDBRANCH  10  11
ENDBRANCH   9  10
ENDBRANCH   7   9
ENDBRANCH   2   7
BRANCH   1  20
ATOM     20  C   UNL d   1       2.854  -0.537   0.221  0.00  0.00     0.193 C 
ATOM     21  O   UNL d   1       3.303  -1.462   0.889  0.00  0.00    -0.287 OA
BRANCH  20  22
ATOM     22  C   UNL d   1       3.872   0.306  -0.468  0.00  0.00     0.015 A 
ATOM     23  C   UNL d   1       3.629   0.935  -1.693  0.00  0.00     0.015 A 
ATOM     24  C   UNL d   1       4.653   1.645  -2.323  0.00  0.00     0.001 A 
ATOM     25  C   UNL d   1       5.921   1.715  -1.744  0.00  0.00     0.000 A 
ATOM     26  C   UNL d   1       6.164   1.102  -0.517  0.00  0.00     0.001 A 
ATOM     27  C   UNL d   1       5.143   0.401   0.120  0.00  0.00     0.015 A 
ENDBRANCH  20  22
ENDBRANCH   1  20
TORSDOF 7
