REMARK  0 active torsions:
REMARK  status: ('A' for Active; 'I' for Inactive)
ROOT
ATOM      1  N   UNL d   1      -0.492   0.488  -0.009  0.00  0.00    -0.275 N 
ATOM      2  C   UNL d   1      -0.245  -0.880  -0.003  0.00  0.00     0.114 A 
ATOM      3  C   UNL d   1       0.571   1.376  -0.016  0.00  0.00     0.255 A 
ATOM      4  N   UNL d   1       0.939  -1.412  -0.000  0.00  0.00    -0.346 N 
ATOM      5  HN  UNL d   1       1.062  -2.425   0.010  1.00  0.00     0.167 HD
ATOM      6  C   UNL d   1       1.911   0.765  -0.023  0.00  0.00     0.099 A 
ATOM      7  C   UNL d   1       2.018  -0.568  -0.010  0.00  0.00     0.012 A 
ATOM      8  C   UNL d   1      -1.792   0.981  -0.008  0.00  0.00     0.102 A 
ATOM      9  C   UNL d   1      -1.432  -1.780  -0.005  0.00  0.00     0.049 A 
ATOM     10  O   UNL d   1       0.482   2.603  -0.020  0.00  0.00    -0.268 OA
ATOM     11  C   UNL d   1      -2.856   0.166  -0.010  0.00  0.00     0.018 A 
ATOM     12  C   UNL d   1      -2.666  -1.260  -0.012  0.00  0.00     0.005 A 
ATOM     13  C   UNL d   1       3.360  -1.242  -0.012  0.00  0.00     0.068 C 
ENDROOT
TORSDOF 0
