REMARK  7 active torsions:
REMARK  status: ('A' for Active; 'I' for Inactive)
REMARK    1  A    between atoms: C_8  and  C_1 
REMARK    2  A    between atoms: C_14  and  C_3 
REMARK    3  A    between atoms: O_13  and  C_4 
REMARK    4  A    between atoms: O_12  and  C_5 
REMARK    5  A    between atoms: C_7  and  C_8 
REMARK       I    between atoms: N_10  and  C_7 
REMARK    6  A    between atoms: N_11  and  N_10 
REMARK    7  A    between atoms: O_15  and  C_14 
ROOT
ATOM      1  C   UNL d   1       1.405  -0.319   0.013  0.00  0.00    -0.038 A 
ATOM      2  C   UNL d   1       0.468  -1.383   0.008  0.00  0.00     0.047 A 
ATOM      3  C   UNL d   1       0.924   1.000  -0.092  0.00  0.00    -0.025 A 
ATOM      4  C   UNL d   1      -0.919  -1.171  -0.049  0.00  0.00     0.102 A 
ATOM      5  C   UNL d   1      -1.393   0.141  -0.107  0.00  0.00     0.102 A 
ATOM      6  C   UNL d   1      -0.474   1.197  -0.115  0.00  0.00     0.049 A 
ENDROOT
BRANCH   1   7
ATOM      7  C   UNL d   1       2.874  -0.691   0.109  0.00  0.00     0.143 C 
BRANCH   7   8
ATOM      8  C   UNL d   1       3.566  -0.268   1.402  0.00  0.00     0.235 C 
ATOM      9  O   UNL d   1       3.311   0.761   2.028  0.00  0.00    -0.272 OA
ATOM     10  N   UNL d   1       4.607  -1.112   1.782  0.00  0.00    -0.294 N 
ATOM     11  H   UNL d   1       4.762  -2.004   1.318  0.00  0.00     0.183 HD
BRANCH  10  12
ATOM     12  N   UNL d   1       5.369  -0.797   2.929  0.00  0.00    -0.247 NA
ATOM     13  H   UNL d   1       4.790  -0.174   3.510  0.00  0.00     0.143 HD
ATOM     14  H   UNL d   1       6.140  -0.190   2.633  0.00  0.00     0.143 HD
ENDBRANCH  10  12
ENDBRANCH   7   8
ENDBRANCH   1   7
BRANCH   3  15
ATOM     15  C   UNL d   1       1.741   2.272  -0.196  0.00  0.00     0.203 C 
BRANCH  15  16
ATOM     16  O   UNL d   1       3.146   2.103  -0.247  0.00  0.00    -0.396 OA
ATOM     17  H   UNL d   1       3.418   2.050   0.693  0.00  0.00     0.209 HD
ENDBRANCH  15  16
ENDBRANCH   3  15
BRANCH   4  18
ATOM     18  O   UNL d   1      -1.827  -2.195  -0.075  0.00  0.00    -0.353 OA
ATOM     19  C   UNL d   1      -1.435  -3.424   0.523  0.00  0.00     0.210 C 
ENDBRANCH   4  18
BRANCH   5  20
ATOM     20  O   UNL d   1      -2.695   0.568  -0.096  0.00  0.00    -0.353 OA
ATOM     21  C   UNL d   1      -3.661  -0.274  -0.708  0.00  0.00     0.210 C 
ENDBRANCH   5  20
TORSDOF 7
