REMARK  3 active torsions:
REMARK  status: ('A' for Active; 'I' for Inactive)
REMARK    1  A    between atoms: C_4  and  N_1 
REMARK    2  A    between atoms: C_5  and  C_2 
REMARK    3  A    between atoms: O_13  and  C_5 
ROOT
ATOM      1  C   UNL d   1      -1.472  -2.646  -2.494  0.00  0.00     0.061 A 
ATOM      2  C   UNL d   1      -0.288  -3.115  -1.905  0.00  0.00     0.052 A 
ATOM      3  C   UNL d   1       0.088  -0.930  -0.917  0.00  0.00     0.104 A 
ATOM      4  C   UNL d   1       0.487  -2.259  -1.109  0.00  0.00     0.060 A 
ATOM      5  C   UNL d   1      -1.851  -1.303  -2.303  0.00  0.00     0.022 A 
ATOM      6  C   UNL d   1      -1.078  -0.445  -1.518  0.00  0.00     0.037 A 
ATOM      7 CL   UNL d   1       0.341  -4.705  -2.158  0.00  0.00    -0.083 Cl
ENDROOT
BRANCH   1   8
ATOM      8  C   UNL d   1      -2.366  -3.454  -3.357  0.00  0.00     0.294 C 
ATOM      9  O   UNL d   1      -2.977  -2.972  -4.299  0.00  0.00    -0.259 OA
BRANCH   8  10
ATOM     10  O   UNL d   1      -2.488  -4.718  -2.893  0.00  0.00    -0.322 OA
ATOM     11  C   UNL d   1      -3.358  -5.543  -3.670  0.00  0.00     0.213 C 
ENDBRANCH   8  10
ENDBRANCH   1   8
BRANCH   3  12
ATOM     12  N   UNL d   1       0.907  -0.034  -0.090  0.00  0.00    -0.116 N 
ATOM     13  O   UNL d   1       1.930  -0.505   0.426  0.00  0.00    -0.532 OA
ATOM     14  O   UNL d   1       0.525   1.137   0.042  0.00  0.00    -0.532 OA
ENDBRANCH   3  12
TORSDOF 3
