REMARK  3 active torsions:
REMARK  status: ('A' for Active; 'I' for Inactive)
REMARK    1  A    between atoms: C_4  and  S_1 
REMARK    2  A    between atoms: C_2  and  C_6 
REMARK       I    between atoms: N_3  and  C_2 
REMARK    3  A    between atoms: C_5  and  N_3 
ROOT
ATOM      1  C   UNL d   1       0.087   2.600   5.232  0.00  0.00     0.256 C 
ATOM      2  N   UNL d   1      -0.077   3.972   5.235  0.00  0.00    -0.321 N 
ATOM      3  O   UNL d   1       0.070   1.881   6.224  0.00  0.00    -0.267 OA
ATOM      4  H   UNL d   1      -0.432   4.410   4.392  0.00  0.00     0.169 HD
ENDROOT
BRANCH   1   5
ATOM      5  C   UNL d   1       0.238   1.970   3.888  0.00  0.00     0.032 A 
ATOM      6  C   UNL d   1       0.828   2.656   2.816  0.00  0.00     0.018 A 
ATOM      7  C   UNL d   1       1.023   2.009   1.592  0.00  0.00     0.024 A 
ATOM      8  C   UNL d   1       0.623   0.677   1.441  0.00  0.00     0.058 A 
ATOM      9  C   UNL d   1       0.049  -0.021   2.506  0.00  0.00     0.024 A 
ATOM     10  C   UNL d   1      -0.143   0.629   3.728  0.00  0.00     0.018 A 
BRANCH   8  11
ATOM     11  S   UNL d   1       0.921  -0.161  -0.102  0.00  0.00     0.171 S 
ATOM     12  O   UNL d   1       1.093  -1.573   0.194  0.00  0.00    -0.223 OA
ATOM     13  O   UNL d   1       1.950   0.581  -0.805  0.00  0.00    -0.223 OA
ATOM     14  C   UNL d   1      -0.604   0.043  -0.978  0.00  0.00     0.167 C 
ENDBRANCH   8  11
ENDBRANCH   1   5
BRANCH   2  15
ATOM     15  C   UNL d   1      -0.052   4.799   6.384  0.00  0.00     0.056 A 
ATOM     16  C   UNL d   1      -0.715   6.037   6.356  0.00  0.00     0.060 A 
ATOM     17 CL   UNL d   1      -1.633   6.522   4.970  0.00  0.00    -0.082 Cl
ATOM     18  C   UNL d   1      -0.680   6.892   7.460  0.00  0.00     0.026 A 
ATOM     19  C   UNL d   1       0.049   6.533   8.593  0.00  0.00     0.002 A 
ATOM     20  C   UNL d   1       0.726   5.316   8.626  0.00  0.00     0.002 A 
ATOM     21  C   UNL d   1       0.667   4.447   7.532  0.00  0.00     0.031 A 
ENDBRANCH   2  15
TORSDOF 3
