REMARK  4 active torsions:
REMARK  status: ('A' for Active; 'I' for Inactive)
REMARK    1  A    between atoms: N_7  and  C_1 
REMARK    2  A    between atoms: N_8  and  C_2 
REMARK    3  A    between atoms: C_9  and  N_7 
REMARK    4  A    between atoms: C_10  and  C_9 
ROOT
ATOM      1  C   UNL d   1      -1.049  -0.479  -0.023  0.00  0.00     0.113 A 
ATOM      2  C   UNL d   1      -0.073  -0.976  -0.848  0.00  0.00     0.111 A 
ATOM      3  C   UNL d   1      -0.044   0.206   0.833  0.00  0.00     0.252 A 
ATOM      4  C   UNL d   1       1.010  -0.387  -0.024  0.00  0.00     0.252 A 
ATOM      5  O   UNL d   1      -0.019   0.870   1.840  0.00  0.00    -0.281 OA
ATOM      6  O   UNL d   1       2.215  -0.357   0.009  0.00  0.00    -0.281 OA
ENDROOT
BRANCH   1   7
ATOM      7  N   UNL d   1      -2.364  -0.487   0.097  0.00  0.00    -0.385 N 
ATOM      8  H   UNL d   1      -2.786   0.108   0.814  0.00  0.00     0.159 HD
BRANCH   7   9
ATOM      9  C   UNL d   1      -3.118  -1.730  -0.060  0.00  0.00     0.119 C 
BRANCH   9  10
ATOM     10  C   UNL d   1      -4.478  -1.475  -0.700  0.00  0.00     0.015 C 
ATOM     11  C   UNL d   1      -4.365  -1.071  -2.162  0.00  0.00     0.006 C 
ENDBRANCH   9  10
ENDBRANCH   7   9
ENDBRANCH   1   7
BRANCH   2  12
ATOM     12  N   UNL d   1       0.013  -1.690  -1.946  0.00  0.00    -0.394 N 
ATOM     13  H   UNL d   1      -0.802  -1.904  -2.520  0.00  0.00     0.156 HD
ATOM     14  H   UNL d   1       0.896  -1.850  -2.431  0.00  0.00     0.156 HD
ENDBRANCH   2  12
TORSDOF 4
