REMARK  9 active torsions:
REMARK  status: ('A' for Active; 'I' for Inactive)
REMARK    1  A    between atoms: O_7  and  C_1 
REMARK    2  A    between atoms: C_2  and  C_20 
REMARK       I    between atoms: N_8  and  C_2 
REMARK    3  A    between atoms: N_3  and  N_8 
REMARK       I    between atoms: C_5  and  N_6 
REMARK    4  A    between atoms: C_30  and  C_5 
REMARK    5  A    between atoms: N_6  and  C_16 
REMARK    6  A    between atoms: C_17  and  O_7 
REMARK    7  A    between atoms: S_14  and  C_30 
REMARK    8  A    between atoms: C_20  and  S_14 
REMARK    9  A    between atoms: C_18  and  C_15 
ROOT
ATOM      1  S   UNL d   1       5.384  -1.192  -8.190  0.00  0.00    -0.150 SA
ENDROOT
BRANCH   1   2
ATOM      2  C   UNL d   1       3.805  -2.093  -8.006  0.00  0.00     0.177 C 
BRANCH   2   3
ATOM      3  C   UNL d   1       3.112  -1.642  -6.726  0.00  0.00     0.231 C 
ATOM      4  N   UNL d   1       2.862  -0.277  -6.691  0.00  0.00    -0.327 N 
ATOM      5  H   UNL d   1       3.107   0.247  -7.523  0.00  0.00     0.169 HD
ATOM      6  O   UNL d   1       2.804  -2.462  -5.866  0.00  0.00    -0.272 OA
BRANCH   4   7
ATOM      7  C   UNL d   1       2.395   0.473  -5.594  0.00  0.00     0.034 A 
ATOM      8  C   UNL d   1       2.173  -0.070  -4.329  0.00  0.00     0.032 A 
ATOM      9  C   UNL d   1       1.731   0.730  -3.268  0.00  0.00     0.039 A 
ATOM     10  C   UNL d   1       1.458   2.078  -3.472  0.00  0.00     0.078 A 
ATOM     11  C   UNL d   1       1.724   2.638  -4.724  0.00  0.00     0.039 A 
ATOM     12  C   UNL d   1       2.188   1.844  -5.780  0.00  0.00     0.032 A 
BRANCH  10  13
ATOM     13  O   UNL d   1       0.978   2.947  -2.543  0.00  0.00    -0.255 OA
BRANCH  13  14
ATOM     14  C   UNL d   1       0.178   2.456  -1.474  0.00  0.00     0.530 C 
ATOM     15  F   UNL d   1      -0.276   1.198  -1.652  0.00  0.00    -0.144 F 
ATOM     16  F   UNL d   1      -0.899   3.263  -1.345  0.00  0.00    -0.144 F 
ATOM     17  F   UNL d   1       0.883   2.509  -0.323  0.00  0.00    -0.144 F 
ENDBRANCH  13  14
ENDBRANCH  10  13
ENDBRANCH   4   7
ENDBRANCH   2   3
ENDBRANCH   1   2
BRANCH   1  18
ATOM     18  C   UNL d   1       6.022  -2.031  -9.676  0.00  0.00     0.178 C 
BRANCH  18  19
ATOM     19  C   UNL d   1       7.388  -1.527 -10.127  0.00  0.00     0.245 C 
ATOM     20  N   UNL d   1       7.917  -0.480  -9.387  0.00  0.00    -0.270 N 
ATOM     21  H   UNL d   1       7.412  -0.148  -8.568  0.00  0.00     0.190 HD
ATOM     22  O   UNL d   1       7.939  -2.044 -11.100  0.00  0.00    -0.271 OA
BRANCH  20  23
ATOM     23  N   UNL d   1       9.160  -0.014  -9.662  0.00  0.00    -0.308 N 
ATOM     24  C   UNL d   1       9.604   0.940  -8.903  0.00  0.00     0.118 C 
ATOM     25  HN  UNL d   1       9.718  -0.393 -10.428  1.00  0.00     0.186 HD
BRANCH  24  26
ATOM     26  C   UNL d   1      10.970   1.475  -9.086  0.00  0.00    -0.019 A 
ATOM     27  C   UNL d   1      11.799   0.950 -10.085  0.00  0.00     0.014 A 
ATOM     28  C   UNL d   1      13.105   1.421 -10.228  0.00  0.00     0.024 A 
ATOM     29  C   UNL d   1      13.578   2.415  -9.374  0.00  0.00     0.034 A 
ATOM     30  C   UNL d   1      12.751   2.949  -8.383  0.00  0.00     0.024 A 
ATOM     31 CL   UNL d   1      15.194   2.979  -9.535  0.00  0.00    -0.084 Cl
ATOM     32  C   UNL d   1      11.441   2.480  -8.236  0.00  0.00     0.014 A 
ENDBRANCH  24  26
ENDBRANCH  20  23
ENDBRANCH  18  19
ENDBRANCH   1  18
TORSDOF 9
