REMARK  4 active torsions:
REMARK  status: ('A' for Active; 'I' for Inactive)
REMARK    1  A    between atoms: C_2  and  C_1 
REMARK    2  A    between atoms: C_4  and  C_2 
REMARK    3  A    between atoms: N_6  and  C_3 
REMARK    4  A    between atoms: C_9  and  N_6 
ROOT
ATOM      1  C   UNL d   1       1.015   0.011  -0.062  0.00  0.00     0.072 C 
ATOM      2  C   UNL d   1       2.346   0.040   0.093  0.00  0.00     0.092 C 
ENDROOT
BRANCH   1   3
ATOM      3  C   UNL d   1       0.321   1.200  -0.632  0.00  0.00     0.183 C 
ATOM      4  O   UNL d   1       0.940   2.160  -1.082  0.00  0.00    -0.288 OA
BRANCH   3   5
ATOM      5  C   UNL d   1      -1.165   1.177  -0.707  0.00  0.00     0.014 A 
ATOM      6  C   UNL d   1      -1.958   0.540   0.252  0.00  0.00     0.016 A 
ATOM      7  C   UNL d   1      -3.351   0.569   0.141  0.00  0.00     0.007 A 
ATOM      8  C   UNL d   1      -3.970   1.241  -0.923  0.00  0.00    -0.062 A 
ATOM      9  C   UNL d   1      -3.173   1.884  -1.876  0.00  0.00     0.007 A 
ATOM     10  C   UNL d   1      -5.467   1.270  -1.021  0.00  0.00     0.048 C 
ATOM     11  C   UNL d   1      -1.781   1.859  -1.767  0.00  0.00     0.016 A 
ENDBRANCH   3   5
ENDBRANCH   1   3
BRANCH   2  12
ATOM     12  N   UNL d   1       3.152  -0.987   0.521  0.00  0.00    -0.366 N 
ATOM     13  H   UNL d   1       2.718  -1.898   0.618  0.00  0.00     0.165 HD
BRANCH  12  14
ATOM     14  C   UNL d   1       4.527  -0.933   0.807  0.00  0.00     0.032 A 
ATOM     15  C   UNL d   1       5.194   0.264   1.106  0.00  0.00     0.031 A 
ATOM     16  C   UNL d   1       6.575   0.287   1.333  0.00  0.00     0.026 A 
ATOM     17  C   UNL d   1       7.310  -0.891   1.240  0.00  0.00     0.034 A 
ATOM     18  C   UNL d   1       6.674  -2.089   0.928  0.00  0.00     0.026 A 
ATOM     19 CL   UNL d   1       9.009  -0.863   1.505  0.00  0.00    -0.084 Cl
ATOM     20  C   UNL d   1       5.291  -2.107   0.715  0.00  0.00     0.031 A 
ENDBRANCH  12  14
ENDBRANCH   2  12
TORSDOF 4
