REMARK  7 active torsions:
REMARK  status: ('A' for Active; 'I' for Inactive)
REMARK    1  A    between atoms: C_4  and  C_1 
REMARK       I    between atoms: N_5  and  C_1 
REMARK    2  A    between atoms: C_2  and  C_3 
REMARK       I    between atoms: N_7  and  C_2 
REMARK    3  A    between atoms: C_6  and  N_5 
REMARK    4  A    between atoms: C_14  and  N_7 
REMARK    5  A    between atoms: C_8  and  C_9 
REMARK    6  A    between atoms: O_18  and  C_8 
REMARK    7  A    between atoms: C_25  and  O_18 
ROOT
ATOM      1  C   UNL d   1      -1.826   1.130   0.284  0.00  0.00     0.059 A 
ATOM      2  C   UNL d   1      -1.119   0.975  -0.924  0.00  0.00     0.050 A 
ATOM      3  C   UNL d   1      -3.217   1.350   0.249  0.00  0.00     0.019 A 
ATOM      4  C   UNL d   1      -1.804   1.117  -2.139  0.00  0.00     0.030 A 
ATOM      5  C   UNL d   1      -3.892   1.430  -0.969  0.00  0.00     0.001 A 
ATOM      6  C   UNL d   1      -3.183   1.330  -2.162  0.00  0.00     0.002 A 
ENDROOT
BRANCH   1   7
ATOM      7  C   UNL d   1      -1.132   1.379   1.583  0.00  0.00     0.258 C 
ATOM      8  N   UNL d   1      -1.723   0.792   2.692  0.00  0.00    -0.323 N 
ATOM      9  H   UNL d   1      -2.444   0.105   2.511  0.00  0.00     0.169 HD
ATOM     10  O   UNL d   1      -0.165   2.135   1.581  0.00  0.00    -0.267 OA
BRANCH   8  11
ATOM     11  C   UNL d   1      -1.397   1.023   4.046  0.00  0.00     0.035 A 
ATOM     12  C   UNL d   1      -0.395   1.902   4.460  0.00  0.00     0.030 A 
ATOM     13  C   UNL d   1      -0.129   2.097   5.818  0.00  0.00     0.020 A 
ATOM     14  C   UNL d   1      -0.867   1.419   6.793  0.00  0.00     0.039 A 
ATOM     15  C   UNL d   1      -1.883   0.545   6.389  0.00  0.00     0.020 A 
ATOM     16  C   UNL d   1      -2.142   0.348   5.024  0.00  0.00     0.030 A 
BRANCH  14  17
ATOM     17  C   UNL d   1      -0.501   1.641   8.217  0.00  0.00     0.293 C 
ATOM     18  O   UNL d   1       0.413   2.371   8.569  0.00  0.00    -0.259 OA
BRANCH  17  19
ATOM     19  O   UNL d   1      -1.284   0.897   9.037  0.00  0.00    -0.318 OA
BRANCH  19  20
ATOM     20  C   UNL d   1      -0.908   0.911  10.422  0.00  0.00     0.174 C 
ATOM     21  C   UNL d   1       0.099  -0.195  10.676  0.00  0.00     0.034 C 
ENDBRANCH  19  20
ENDBRANCH  17  19
ENDBRANCH  14  17
ENDBRANCH   8  11
ENDBRANCH   1   7
BRANCH   2  22
ATOM     22  N   UNL d   1       0.265   0.714  -1.024  0.00  0.00    -0.322 N 
ATOM     23  C   UNL d   1       0.985  -0.086  -0.162  0.00  0.00     0.257 C 
ATOM     24  O   UNL d   1       0.457  -0.831   0.663  0.00  0.00    -0.267 OA
ATOM     25  H   UNL d   1       0.721   0.996  -1.883  0.00  0.00     0.169 HD
BRANCH  23  26
ATOM     26  C   UNL d   1       2.483  -0.074  -0.285  0.00  0.00     0.054 A 
ATOM     27  C   UNL d   1       3.233   0.489  -1.332  0.00  0.00     0.049 A 
ATOM     28 CL   UNL d   1       2.553   1.183  -2.765  0.00  0.00    -0.083 Cl
ATOM     29  C   UNL d   1       4.637   0.480  -1.279  0.00  0.00     0.025 A 
ATOM     30  C   UNL d   1       5.308  -0.098  -0.203  0.00  0.00     0.002 A 
ATOM     31  C   UNL d   1       4.580  -0.682   0.825  0.00  0.00     0.001 A 
ATOM     32  C   UNL d   1       3.183  -0.668   0.785  0.00  0.00     0.019 A 
ENDBRANCH  23  26
ENDBRANCH   2  22
TORSDOF 7
