REMARK  4 active torsions:
REMARK  status: ('A' for Active; 'I' for Inactive)
REMARK    1  A    between atoms: S_10  and  C_1 
REMARK    2  A    between atoms: C_4  and  N_9 
REMARK    3  A    between atoms: C_8  and  C_14 
REMARK       I    between atoms: N_9  and  C_8 
REMARK    4  A    between atoms: C_14  and  S_10 
ROOT
ATOM      1  C   UNL d   1       1.166  -6.659   0.271  0.00  0.00     0.227 C 
ATOM      2  N   UNL d   1       0.731  -5.503   0.882  0.00  0.00    -0.355 N 
ATOM      3  O   UNL d   1       0.419  -7.362  -0.407  0.00  0.00    -0.273 OA
ATOM      4  H   UNL d   1       1.397  -4.973   1.432  0.00  0.00     0.162 HD
ENDROOT
BRANCH   2   5
ATOM      5  C   UNL d   1      -0.654  -5.061   0.817  0.00  0.00     0.092 C 
ATOM      6  C   UNL d   1      -0.843  -3.651   1.418  0.00  0.00     0.064 C 
ATOM      7  C   UNL d   1      -2.268  -3.698   1.867  0.00  0.00    -0.050 A 
ATOM      8  C   UNL d   1      -3.083  -2.633   2.210  0.00  0.00     0.007 A 
ATOM      9  C   UNL d   1      -2.723  -5.018   1.954  0.00  0.00    -0.050 A 
ATOM     10  C   UNL d   1      -4.386  -2.907   2.630  0.00  0.00     0.001 A 
ATOM     11  C   UNL d   1      -4.847  -4.227   2.717  0.00  0.00     0.001 A 
ATOM     12  C   UNL d   1      -4.009  -5.298   2.384  0.00  0.00     0.007 A 
ATOM     13  C   UNL d   1      -1.645  -5.984   1.568  0.00  0.00     0.064 C 
ENDBRANCH   2   5
BRANCH   1  14
ATOM     14  C   UNL d   1       2.655  -6.962   0.389  0.00  0.00     0.184 C 
BRANCH  14  15
ATOM     15  S   UNL d   1       3.423  -6.343   1.916  0.00  0.00    -0.096 SA
BRANCH  15  16
ATOM     16  C   UNL d   1       2.427  -7.136   3.091  0.00  0.00     0.104 C 
ATOM     17  N   UNL d   1       1.879  -8.280   2.893  0.00  0.00    -0.378 N 
ATOM     18  C   UNL d   1       1.009  -8.643   4.026  0.00  0.00     0.131 C 
ATOM     19  HN  UNL d   1       2.025  -8.858   2.066  1.00  0.00     0.160 HD
ATOM     20  C   UNL d   1       1.163  -7.683   5.199  0.00  0.00     0.101 C 
ATOM     21  S   UNL d   1       2.147  -6.310   4.585  0.00  0.00    -0.104 SA
ENDBRANCH  15  16
ENDBRANCH  14  15
ENDBRANCH   1  14
TORSDOF 4
