REMARK  7 active torsions:
REMARK  status: ('A' for Active; 'I' for Inactive)
REMARK    1  A    between atoms: C_2  and  C_1 
REMARK    2  A    between atoms: C_3  and  C_1 
REMARK    3  A    between atoms: O_8  and  C_1 
REMARK    4  A    between atoms: C_17  and  C_1 
REMARK    5  A    between atoms: C_19  and  C_17 
REMARK    6  A    between atoms: C_18  and  C_20 
REMARK    7  A    between atoms: C_20  and  C_19 
ROOT
ATOM      1  C   UNL d   1       1.002   0.231   0.195  0.00  0.00     0.112 C 
ENDROOT
BRANCH   1   2
ATOM      2  C   UNL d   1       0.451  -0.310   1.538  0.00  0.00    -0.019 A 
ATOM      3  C   UNL d   1      -0.198  -1.556   1.631  0.00  0.00     0.012 A 
ATOM      4  C   UNL d   1      -0.625  -2.059   2.866  0.00  0.00     0.024 A 
ATOM      5  C   UNL d   1      -0.390  -1.339   4.033  0.00  0.00     0.034 A 
ATOM      6  C   UNL d   1       0.236  -0.102   3.974  0.00  0.00     0.024 A 
ATOM      7 CL   UNL d   1      -0.865  -1.982   5.555  0.00  0.00    -0.084 Cl
ATOM      8  C   UNL d   1       0.628   0.412   2.738  0.00  0.00     0.012 A 
ENDBRANCH   1   2
BRANCH   1   9
ATOM      9  C   UNL d   1       0.486   1.622  -0.233  0.00  0.00    -0.019 A 
ATOM     10  C   UNL d   1      -0.519   2.316   0.466  0.00  0.00     0.012 A 
ATOM     11  C   UNL d   1      -0.965   3.581   0.054  0.00  0.00     0.024 A 
ATOM     12  C   UNL d   1      -0.443   4.157  -1.093  0.00  0.00     0.034 A 
ATOM     13  C   UNL d   1       0.510   3.479  -1.843  0.00  0.00     0.024 A 
ATOM     14 CL   UNL d   1      -0.999   5.702  -1.606  0.00  0.00    -0.084 Cl
ATOM     15  C   UNL d   1       0.969   2.221  -1.417  0.00  0.00     0.012 A 
ENDBRANCH   1   9
BRANCH   1  16
ATOM     16  O   UNL d   1       0.544  -0.648  -0.854  0.00  0.00    -0.380 OA
ATOM     17  H   UNL d   1      -0.419  -0.527  -0.911  0.00  0.00     0.211 HD
ENDBRANCH   1  16
BRANCH   1  18
ATOM     18  C   UNL d   1       2.565   0.093   0.170  0.00  0.00     0.048 C 
BRANCH  18  19
ATOM     19  C   UNL d   1       3.325   0.934   1.203  0.00  0.00     0.008 C 
BRANCH  19  20
ATOM     20  C   UNL d   1       4.842   0.759   1.157  0.00  0.00     0.038 C 
BRANCH  20  21
ATOM     21  C   UNL d   1       5.481   1.540   2.288  0.00  0.00    -0.058 A 
ATOM     22  C   UNL d   1       5.551   0.998   3.581  0.00  0.00     0.007 A 
ATOM     23  C   UNL d   1       6.104   1.735   4.631  0.00  0.00     0.001 A 
ATOM     24  C   UNL d   1       6.585   3.022   4.401  0.00  0.00     0.000 A 
ATOM     25  C   UNL d   1       6.504   3.576   3.124  0.00  0.00     0.001 A 
ATOM     26  C   UNL d   1       5.951   2.841   2.074  0.00  0.00     0.007 A 
ENDBRANCH  20  21
ENDBRANCH  19  20
ENDBRANCH  18  19
ENDBRANCH   1  18
TORSDOF 7
