REMARK  3 active torsions:
REMARK  status: ('A' for Active; 'I' for Inactive)
REMARK    1  A    between atoms: N_2  and  S_1 
REMARK    2  A    between atoms: C_3  and  S_1 
REMARK    3  A    between atoms: N_8  and  N_2 
ROOT
ATOM      1  S   UNL d   1       1.000  -0.026   0.073  0.00  0.00     0.254 S 
ATOM      2  O   UNL d   1       0.219   1.073   0.611  0.00  0.00    -0.205 OA
ATOM      3  O   UNL d   1       2.446   0.002   0.076  0.00  0.00    -0.205 OA
ENDROOT
BRANCH   1   4
ATOM      4  N   UNL d   1       0.469  -0.216  -1.565  0.00  0.00    -0.150 NA
ATOM      5  H   UNL d   1      -0.548  -0.361  -1.602  0.00  0.00     0.159 HD
BRANCH   4   6
ATOM      6  N   UNL d   1       0.857   0.933  -2.320  0.00  0.00    -0.257 NA
ATOM      7  H   UNL d   1       1.882   1.009  -2.257  0.00  0.00     0.138 HD
ATOM      8  H   UNL d   1       0.509   1.771  -1.832  0.00  0.00     0.138 HD
ENDBRANCH   4   6
ENDBRANCH   1   4
BRANCH   1   9
ATOM      9  C   UNL d   1       0.463  -1.531   0.833  0.00  0.00     0.075 A 
ATOM     10  C   UNL d   1       0.938  -2.756   0.348  0.00  0.00     0.028 A 
ATOM     11  C   UNL d   1       0.565  -3.936   0.993  0.00  0.00     0.044 A 
ATOM     12  C   UNL d   1      -0.271  -3.880   2.106  0.00  0.00     0.116 A 
ATOM     13  C   UNL d   1      -0.755  -2.665   2.582  0.00  0.00     0.044 A 
ATOM     14  F   UNL d   1      -0.606  -5.013   2.736  0.00  0.00    -0.206 F 
ATOM     15  C   UNL d   1      -0.391  -1.480   1.942  0.00  0.00     0.028 A 
ENDBRANCH   1   9
TORSDOF 3
