REMARK  2 active torsions:
REMARK  status: ('A' for Active; 'I' for Inactive)
REMARK    1  A    between atoms: C_2  and  S_1 
REMARK    2  A    between atoms: C_5  and  S_1 
ROOT
ATOM      1  C   UNL d   1       0.367   1.655   0.493  0.00  0.00     0.167 C 
ATOM      2  C   UNL d   1       0.360   2.025   1.790  0.00  0.00     0.069 C 
ATOM      3  C   UNL d   1      -0.289   2.410  -0.513  0.00  0.00     0.114 C 
ATOM      4  N   UNL d   1      -0.818   3.027  -1.338  0.00  0.00    -0.191 NA
ATOM      5  S   UNL d   1      -0.594   3.395   2.351  0.00  0.00    -0.120 SA
ATOM      6  S   UNL d   1       1.192   1.207   3.088  0.00  0.00    -0.120 SA
ATOM      7  C   UNL d   1      -0.071   1.575   4.333  0.00  0.00     0.090 C 
ATOM      8  C   UNL d   1      -0.549   3.001   4.127  0.00  0.00     0.090 C 
ENDROOT
BRANCH   1   9
ATOM      9  S   UNL d   1       1.113   0.171  -0.001  0.00  0.00     0.218 S 
ATOM     10  O   UNL d   1       0.473  -0.943   0.682  0.00  0.00    -0.216 OA
ATOM     11  O   UNL d   1       2.558   0.312   0.030  0.00  0.00    -0.216 OA
BRANCH   9  12
ATOM     12  C   UNL d   1       0.676  -0.028  -1.727  0.00  0.00     0.065 A 
ATOM     13  C   UNL d   1       1.517   0.491  -2.714  0.00  0.00     0.024 A 
ATOM     14  C   UNL d   1       1.132   0.407  -4.053  0.00  0.00     0.008 A 
ATOM     15  C   UNL d   1      -0.074  -0.213  -4.411  0.00  0.00    -0.062 A 
ATOM     16  C   UNL d   1      -0.882  -0.773  -3.412  0.00  0.00     0.008 A 
ATOM     17  C   UNL d   1      -0.522  -0.206  -5.844  0.00  0.00     0.048 C 
ATOM     18  C   UNL d   1      -0.506  -0.692  -2.070  0.00  0.00     0.024 A 
ENDBRANCH   9  12
ENDBRANCH   1   9
TORSDOF 2
