REMARK  3 active torsions:
REMARK  status: ('A' for Active; 'I' for Inactive)
REMARK    1  A    between atoms: C_2  and  S_1 
REMARK    2  A    between atoms: N_6  and  S_1 
REMARK    3  A    between atoms: C_17  and  N_6 
ROOT
ATOM      1  S   UNL d   1       1.090  -0.005   0.055  0.00  0.00     0.269 S 
ATOM      2  O   UNL d   1       0.468  -0.846   1.056  0.00  0.00    -0.200 OA
ATOM      3  O   UNL d   1       2.518   0.236   0.044  0.00  0.00    -0.200 OA
ENDROOT
BRANCH   1   4
ATOM      4  C   UNL d   1       0.369   1.608   0.291  0.00  0.00     0.121 A 
ATOM      5  S   UNL d   1      -1.340   1.697   0.291  0.00  0.00    -0.074 SA
ATOM      6  C   UNL d   1      -1.331   3.407   0.442  0.00  0.00     0.042 A 
ATOM      7  C   UNL d   1      -2.533   4.198   0.418  0.00  0.00     0.117 A 
ATOM      8  C   UNL d   1      -0.042   3.885   0.575  0.00  0.00     0.024 A 
ATOM      9  O   UNL d   1      -2.511   5.566   0.549  0.00  0.00    -0.237 OA
ATOM     10  C   UNL d   1      -3.852   3.824   0.239  0.00  0.00     0.059 A 
ATOM     11  N   UNL d   1      -3.790   6.080   0.445  0.00  0.00    -0.272 N 
ATOM     12  C   UNL d   1      -4.580   5.025   0.255  0.00  0.00     0.117 A 
ATOM     13  HN  UNL d   1      -4.070   7.059   0.502  1.00  0.00     0.194 HD
ATOM     14  C   UNL d   1       0.935   2.852   0.486  0.00  0.00     0.034 A 
ENDBRANCH   1   4
BRANCH   1  15
ATOM     15  N   UNL d   1       0.622  -0.615  -1.450  0.00  0.00    -0.280 N 
ATOM     16  H   UNL d   1      -0.327  -0.986  -1.409  0.00  0.00     0.179 HD
BRANCH  15  17
ATOM     17  C   UNL d   1       0.949   0.132  -2.620  0.00  0.00     0.045 A 
ATOM     18  C   UNL d   1       0.042   1.057  -3.133  0.00  0.00     0.069 A 
ATOM     19  C   UNL d   1       0.347   1.747  -4.304  0.00  0.00     0.104 A 
ATOM     20  O   UNL d   1      -0.608   2.615  -4.766  0.00  0.00    -0.346 OA
ATOM     21  C   UNL d   1       1.568   1.533  -4.951  0.00  0.00     0.102 A 
ATOM     22  C   UNL d   1      -0.387   2.939  -6.144  0.00  0.00     0.202 C 
ATOM     23  C   UNL d   1       1.073   3.288  -6.387  0.00  0.00     0.202 C 
ATOM     24  O   UNL d   1       1.923   2.170  -6.111  0.00  0.00    -0.346 OA
ATOM     25  C   UNL d   1       2.478   0.616  -4.428  0.00  0.00     0.042 A 
ATOM     26  C   UNL d   1       2.175  -0.075  -3.250  0.00  0.00     0.033 A 
ENDBRANCH  15  17
ENDBRANCH   1  15
TORSDOF 3
