REMARK  6 active torsions:
REMARK  status: ('A' for Active; 'I' for Inactive)
REMARK    1  A    between atoms: C_15  and  N_1 
REMARK    2  A    between atoms: S_14  and  C_2 
REMARK    3  A    between atoms: O_22  and  C_3 
REMARK    4  A    between atoms: C_9  and  C_18 
REMARK    5  A    between atoms: C_18  and  S_14 
REMARK    6  A    between atoms: O_29  and  C_23 
ROOT
ATOM      1  N   UNL d   1       0.444   0.447  -0.114  0.00  0.00    -0.255 N 
ATOM      2  C   UNL d   1       0.919  -0.850   0.049  0.00  0.00     0.169 A 
ATOM      3  C   UNL d   1      -0.913   0.318   0.174  0.00  0.00     0.245 A 
ATOM      4  N   UNL d   1      -0.069  -1.666   0.344  0.00  0.00    -0.276 N 
ATOM      5  HN  UNL d   1       0.011  -2.671   0.499  1.00  0.00     0.189 HD
ATOM      6  N   UNL d   1      -1.222  -0.935   0.407  0.00  0.00    -0.263 N 
ATOM      7  HN  UNL d   1      -2.155  -1.299   0.602  1.00  0.00     0.190 HD
ENDROOT
BRANCH   2   8
ATOM      8  S   UNL d   1       2.543  -1.393  -0.241  0.00  0.00    -0.087 SA
BRANCH   8   9
ATOM      9  C   UNL d   1       2.377  -3.184   0.041  0.00  0.00     0.122 C 
BRANCH   9  10
ATOM     10  C   UNL d   1       3.724  -3.845  -0.134  0.00  0.00    -0.030 A 
ATOM     11  C   UNL d   1       4.634  -4.078   1.002  0.00  0.00     0.005 A 
ATOM     12  C   UNL d   1       5.841  -4.747   0.764  0.00  0.00     0.092 A 
ATOM     13  C   UNL d   1       4.367  -3.683   2.320  0.00  0.00     0.017 A 
ATOM     14  C   UNL d   1       6.750  -5.036   1.783  0.00  0.00     0.074 A 
ATOM     15  O   UNL d   1       6.212  -5.170  -0.526  0.00  0.00    -0.275 OA
ATOM     16  C   UNL d   1       6.451  -4.647   3.078  0.00  0.00     0.068 A 
ATOM     17  C   UNL d   1       5.270  -3.969   3.357  0.00  0.00     0.037 A 
ATOM     18  C   UNL d   1       5.390  -4.946  -1.613  0.00  0.00     0.288 A 
ATOM     19  C   UNL d   1       4.106  -4.283  -1.345  0.00  0.00     0.091 A 
ATOM     20  O   UNL d   1       5.695  -5.281  -2.751  0.00  0.00    -0.260 OA
BRANCH  16  21
ATOM     21  O   UNL d   1       7.348  -4.952   4.057  0.00  0.00    -0.361 OA
ATOM     22  H   UNL d   1       6.998  -4.655   4.913  0.00  0.00     0.217 HD
ENDBRANCH  16  21
ENDBRANCH   9  10
ENDBRANCH   8   9
ENDBRANCH   2   8
BRANCH   1  23
ATOM     23  C   UNL d   1       1.119   1.655  -0.473  0.00  0.00     0.045 A 
ATOM     24  C   UNL d   1       0.429   2.661  -1.174  0.00  0.00     0.032 A 
ATOM     25  C   UNL d   1       1.062   3.869  -1.491  0.00  0.00     0.026 A 
ATOM     26  C   UNL d   1       2.390   4.073  -1.128  0.00  0.00     0.034 A 
ATOM     27  C   UNL d   1       3.090   3.078  -0.453  0.00  0.00     0.026 A 
ATOM     28 CL   UNL d   1       3.164   5.561  -1.504  0.00  0.00    -0.084 Cl
ATOM     29  C   UNL d   1       2.457   1.875  -0.120  0.00  0.00     0.032 A 
ENDBRANCH   1  23
BRANCH   3  30
ATOM     30  O   UNL d   1      -1.795   1.299   0.318  0.00  0.00    -0.331 OA
ATOM     31  H   UNL d   1      -1.321   2.104   0.579  0.00  0.00     0.221 HD
ENDBRANCH   3  30
TORSDOF 6
