REMARK  6 active torsions:
REMARK  status: ('A' for Active; 'I' for Inactive)
REMARK    1  A    between atoms: C_8  and  C_1 
REMARK    2  A    between atoms: S_12  and  C_5 
REMARK    3  A    between atoms: C_9  and  C_21 
REMARK       I    between atoms: N_13  and  C_9 
REMARK    4  A    between atoms: C_21  and  S_12 
REMARK    5  A    between atoms: C_22  and  N_13 
REMARK    6  A    between atoms: C_14  and  C_15 
ROOT
ATOM      1  S   UNL d   1       4.136  -5.258   0.924  0.00  0.00    -0.094 SA
ENDROOT
BRANCH   1   2
ATOM      2  C   UNL d   1       5.799  -5.812   0.914  0.00  0.00     0.129 A 
ATOM      3  S   UNL d   1       7.133  -4.745   0.952  0.00  0.00    -0.043 SA
ATOM      4  C   UNL d   1       8.147  -6.115   0.671  0.00  0.00     0.119 A 
ATOM      5  N   UNL d   1       7.489  -7.261   0.695  0.00  0.00    -0.290 N 
ATOM      6  N   UNL d   1       6.126  -7.083   0.827  0.00  0.00    -0.287 N 
ATOM      7  HN  UNL d   1       7.937  -8.174   0.625  1.00  0.00     0.187 HD
ATOM      8  HN  UNL d   1       5.451  -7.847   0.854  1.00  0.00     0.188 HD
BRANCH   4   9
ATOM      9  C   UNL d   1       9.568  -5.964   0.350  0.00  0.00     0.083 A 
ATOM     10  N   UNL d   1      10.077  -4.702   0.322  0.00  0.00    -0.361 N 
ATOM     11  C   UNL d   1      11.357  -4.588  -0.102  0.00  0.00     0.105 A 
ATOM     12  HN  UNL d   1       9.527  -3.891   0.603  1.00  0.00     0.165 HD
ATOM     13  C   UNL d   1      12.115  -5.681  -0.483  0.00  0.00     0.104 A 
ATOM     14  N   UNL d   1      11.632  -6.942  -0.441  0.00  0.00    -0.372 N 
ATOM     15  C   UNL d   1      10.346  -7.058  -0.017  0.00  0.00     0.120 A 
ATOM     16  HN  UNL d   1      12.194  -7.750  -0.708  1.00  0.00     0.164 HD
ENDBRANCH   4   9
ENDBRANCH   1   2
BRANCH   1  17
ATOM     17  C   UNL d   1       3.288  -6.849   0.761  0.00  0.00     0.184 C 
BRANCH  17  18
ATOM     18  C   UNL d   1       1.774  -6.732   0.758  0.00  0.00     0.231 C 
ATOM     19  N   UNL d   1       1.238  -5.724  -0.030  0.00  0.00    -0.327 N 
ATOM     20  H   UNL d   1       1.888  -5.167  -0.571  0.00  0.00     0.169 HD
ATOM     21  O   UNL d   1       1.119  -7.576   1.369  0.00  0.00    -0.272 OA
BRANCH  19  22
ATOM     22  C   UNL d   1      -0.133  -5.370  -0.120  0.00  0.00     0.034 A 
ATOM     23  C   UNL d   1      -1.121  -5.921   0.686  0.00  0.00     0.030 A 
ATOM     24  C   UNL d   1      -2.452  -5.483   0.606  0.00  0.00     0.010 A 
ATOM     25  C   UNL d   1      -2.843  -4.474  -0.289  0.00  0.00    -0.051 A 
ATOM     26  C   UNL d   1      -1.846  -3.956  -1.132  0.00  0.00     0.010 A 
ATOM     27  C   UNL d   1      -0.509  -4.390  -1.044  0.00  0.00     0.030 A 
BRANCH  25  28
ATOM     28  C   UNL d   1      -4.296  -3.965  -0.276  0.00  0.00    -0.024 C 
ATOM     29  C   UNL d   1      -4.567  -2.840  -1.299  0.00  0.00     0.019 C 
ATOM     30  C   UNL d   1      -5.276  -5.117  -0.586  0.00  0.00     0.019 C 
ATOM     31  C   UNL d   1      -4.629  -3.397   1.123  0.00  0.00     0.019 C 
ENDBRANCH  25  28
ENDBRANCH  19  22
ENDBRANCH  17  18
ENDBRANCH   1  17
TORSDOF 6
