REMARK  5 active torsions:
REMARK  status: ('A' for Active; 'I' for Inactive)
REMARK    1  A    between atoms: N_2  and  C_1 
REMARK    2  A    between atoms: S_7  and  C_5 
REMARK    3  A    between atoms: C_12  and  S_7 
REMARK    4  A    between atoms: C_8  and  C_11 
REMARK    5  A    between atoms: N_21  and  C_19 
ROOT
ATOM      1  C   UNL d   1       1.131   0.264  -0.132  0.00  0.00     0.120 C 
ATOM      2  C   UNL d   1       0.414  -0.933  -0.233  0.00  0.00     0.038 C 
ATOM      3  C   UNL d   1       0.495   1.474   0.211  0.00  0.00     0.051 C 
ATOM      4  C   UNL d   1      -0.873   1.510   0.528  0.00  0.00    -0.006 C 
ATOM      5  C   UNL d   1      -0.979  -0.860  -0.086  0.00  0.00     0.022 C 
ATOM      6  C   UNL d   1      -1.608   0.337   0.291  0.00  0.00     0.015 C 
ENDROOT
BRANCH   4   7
ATOM      7  C   UNL d   1      -1.471   2.650   1.260  0.00  0.00     0.058 A 
ATOM      8  N   UNL d   1      -2.825   2.744   1.281  0.00  0.00    -0.353 N 
ATOM      9  C   UNL d   1      -3.375   3.578   2.197  0.00  0.00     0.059 A 
ATOM     10  HN  UNL d   1      -3.405   2.210   0.634  1.00  0.00     0.166 HD
ATOM     11  C   UNL d   1      -4.756   3.679   2.320  0.00  0.00     0.032 A 
ATOM     12  C   UNL d   1      -2.567   4.326   3.088  0.00  0.00     0.059 A 
ATOM     13  C   UNL d   1      -5.347   4.446   3.330  0.00  0.00     0.002 A 
ATOM     14  C   UNL d   1      -4.544   5.129   4.233  0.00  0.00     0.002 A 
ATOM     15  C   UNL d   1      -3.161   5.077   4.094  0.00  0.00     0.032 A 
ATOM     16  N   UNL d   1      -1.230   4.304   3.011  0.00  0.00    -0.362 N 
ATOM     17  C   UNL d   1      -0.706   3.458   2.100  0.00  0.00     0.118 A 
ATOM     18  HN  UNL d   1      -0.644   4.890   3.606  1.00  0.00     0.165 HD
ENDBRANCH   4   7
BRANCH   1  19
ATOM     19  N   UNL d   1       2.577   0.321  -0.309  0.00  0.00    -0.114 N 
ATOM     20  O   UNL d   1       3.067  -0.265  -1.284  0.00  0.00    -0.532 OA
ATOM     21  O   UNL d   1       3.215   1.022   0.488  0.00  0.00    -0.532 OA
ENDBRANCH   1  19
BRANCH   2  22
ATOM     22  S   UNL d   1       1.129  -2.553  -0.486  0.00  0.00    -0.086 SA
BRANCH  22  23
ATOM     23  C   UNL d   1       1.250  -3.147   1.209  0.00  0.00     0.026 A 
ATOM     24  C   UNL d   1       2.461  -3.088   1.932  0.00  0.00     0.023 A 
ATOM     25  C   UNL d   1       2.487  -3.567   3.250  0.00  0.00     0.024 A 
ATOM     26  C   UNL d   1       1.366  -4.184   3.813  0.00  0.00     0.002 A 
ATOM     27  C   UNL d   1       0.189  -4.284   3.080  0.00  0.00     0.001 A 
ATOM     28  C   UNL d   1       0.129  -3.764   1.787  0.00  0.00     0.021 A 
BRANCH  24  29
ATOM     29  N   UNL d   1       3.575  -2.371   1.454  0.00  0.00    -0.302 NA
ATOM     30  H   UNL d   1       3.616  -2.349   0.437  0.00  0.00     0.124 HD
ATOM     31  H   UNL d   1       4.460  -2.662   1.862  0.00  0.00     0.124 HD
ENDBRANCH  24  29
ENDBRANCH  22  23
ENDBRANCH   2  22
TORSDOF 5
