REMARK  4 active torsions:
REMARK  status: ('A' for Active; 'I' for Inactive)
REMARK    1  A    between atoms: C_7  and  C_1 
REMARK    2  A    between atoms: C_15  and  C_5 
REMARK    3  A    between atoms: O_16  and  C_15 
REMARK    4  A    between atoms: C_17  and  O_16 
ROOT
ATOM      1  C   UNL d   1       0.036   1.274   0.047  0.00  0.00     0.032 A 
ATOM      2  S   UNL d   1      -1.058  -0.051   0.140  0.00  0.00    -0.073 SA
ATOM      3  N   UNL d   1       1.447  -0.605  -0.059  0.00  0.00    -0.360 N 
ATOM      4  HN  UNL d   1       2.326  -1.115  -0.138  1.00  0.00     0.165 HD
ATOM      5  C   UNL d   1       0.254  -1.157   0.036  0.00  0.00     0.075 A 
ATOM      6  C   UNL d   1       1.324   0.771  -0.035  0.00  0.00     0.108 A 
ENDROOT
BRANCH   1   7
ATOM      7  C   UNL d   1      -0.429   2.668   0.093  0.00  0.00    -0.015 A 
ATOM      8  C   UNL d   1      -1.650   3.063  -0.478  0.00  0.00     0.052 A 
ATOM      9  C   UNL d   1      -2.075   4.396  -0.433  0.00  0.00     0.102 A 
ATOM     10  O   UNL d   1      -3.267   4.644  -1.069  0.00  0.00    -0.348 OA
ATOM     11  C   UNL d   1      -1.301   5.353   0.234  0.00  0.00     0.102 A 
ATOM     12  C   UNL d   1      -3.299   5.906  -1.735  0.00  0.00     0.178 C 
ATOM     13  C   UNL d   1      -3.720   7.017  -0.788  0.00  0.00     0.053 C 
ATOM     14  C   UNL d   1      -3.035   6.899   0.562  0.00  0.00     0.178 C 
ATOM     15  O   UNL d   1      -1.633   6.672   0.409  0.00  0.00    -0.348 OA
ATOM     16  C   UNL d   1      -0.069   4.981   0.771  0.00  0.00     0.040 A 
ATOM     17  C   UNL d   1       0.363   3.653   0.702  0.00  0.00     0.016 A 
ENDBRANCH   1   7
BRANCH   5  18
ATOM     18  C   UNL d   1      -0.008  -2.633   0.008  0.00  0.00     0.240 C 
BRANCH  18  19
ATOM     19  O   UNL d   1      -0.066  -3.087   1.361  0.00  0.00    -0.345 OA
BRANCH  19  20
ATOM     20  C   UNL d   1      -0.248  -4.431   1.547  0.00  0.00     0.069 A 
ATOM     21  C   UNL d   1      -0.462  -5.378   0.541  0.00  0.00     0.037 A 
ATOM     22  C   UNL d   1      -0.640  -6.725   0.870  0.00  0.00     0.003 A 
ATOM     23  C   UNL d   1      -0.606  -7.134   2.201  0.00  0.00     0.000 A 
ATOM     24  C   UNL d   1      -0.392  -6.196   3.208  0.00  0.00     0.003 A 
ATOM     25  C   UNL d   1      -0.216  -4.850   2.879  0.00  0.00     0.037 A 
ENDBRANCH  19  20
ENDBRANCH  18  19
ENDBRANCH   5  18
TORSDOF 4
