REMARK  3 active torsions:
REMARK  status: ('A' for Active; 'I' for Inactive)
REMARK    1  A    between atoms: C_5  and  C_2 
REMARK       I    between atoms: N_13  and  C_5 
REMARK    2  A    between atoms: C_15  and  N_13 
REMARK    3  A    between atoms: O_21  and  C_16 
ROOT
ATOM      1  C   UNL d   1      -3.437  -1.368  -0.035  0.00  0.00     0.256 C 
ATOM      2  N   UNL d   1      -3.553  -2.751  -0.027  0.00  0.00    -0.323 N 
ATOM      3  O   UNL d   1      -2.407  -0.749   0.218  0.00  0.00    -0.267 OA
ATOM      4  H   UNL d   1      -4.450  -3.166  -0.231  0.00  0.00     0.169 HD
ENDROOT
BRANCH   1   5
ATOM      5  C   UNL d   1      -4.646  -0.554  -0.403  0.00  0.00     0.034 A 
ATOM      6  C   UNL d   1      -5.905  -1.133  -0.672  0.00  0.00     0.051 A 
ATOM      7  C   UNL d   1      -6.908  -0.217  -1.058  0.00  0.00     0.086 A 
ATOM      8  C   UNL d   1      -6.676   1.216  -1.157  0.00  0.00     0.085 A 
ATOM      9  N   UNL d   1      -8.181  -0.459  -1.392  0.00  0.00    -0.240 N 
ATOM     10  N   UNL d   1      -7.813   1.800  -1.550  0.00  0.00    -0.240 N 
ATOM     11  C   UNL d   1      -5.433   1.796  -0.870  0.00  0.00     0.035 A 
ATOM     12  O   UNL d   1      -8.731   0.775  -1.699  0.00  0.00    -0.156 OA
ATOM     13  HN  UNL d   1      -7.971   2.795  -1.709  1.00  0.00     0.197 HD
ATOM     14  C   UNL d   1      -4.440   0.866  -0.498  0.00  0.00     0.019 A 
ATOM     15  HN  UNL d   1      -8.649  -1.365  -1.416  1.00  0.00     0.197 HD
ENDBRANCH   1   5
BRANCH   2  16
ATOM     16  C   UNL d   1      -2.498  -3.681   0.139  0.00  0.00     0.035 A 
ATOM     17  C   UNL d   1      -1.171  -3.321   0.380  0.00  0.00     0.032 A 
ATOM     18  C   UNL d   1      -0.159  -4.288   0.437  0.00  0.00     0.039 A 
ATOM     19  C   UNL d   1      -0.460  -5.634   0.255  0.00  0.00     0.068 A 
ATOM     20  C   UNL d   1      -1.792  -6.007   0.072  0.00  0.00     0.039 A 
ATOM     21  C   UNL d   1      -2.805  -5.041   0.015  0.00  0.00     0.032 A 
BRANCH  19  22
ATOM     22  O   UNL d   1       0.445  -6.659   0.234  0.00  0.00    -0.356 OA
ATOM     23  C   UNL d   1       1.820  -6.288   0.219  0.00  0.00     0.210 C 
ENDBRANCH  19  22
ENDBRANCH   2  16
TORSDOF 3
