REMARK  1 active torsions:
REMARK  status: ('A' for Active; 'I' for Inactive)
REMARK    1  A    between atoms: C_8  and  N_1 
ROOT
ATOM      1  N   UNL d   1       2.410   0.714  -0.046  0.00  0.00    -0.268 N 
ATOM      2  C   UNL d   1       1.235   1.472   0.056  0.00  0.00     0.266 A 
ATOM      3  C   UNL d   1       2.365  -0.670  -0.067  0.00  0.00     0.087 A 
ATOM      4  C   UNL d   1      -0.032   0.717   0.033  0.00  0.00     0.059 A 
ATOM      5  N   UNL d   1       1.261  -1.352  -0.034  0.00  0.00    -0.345 N 
ATOM      6  HN  UNL d   1       1.284  -2.372  -0.035  1.00  0.00     0.167 HD
ATOM      7  C   UNL d   1       0.042  -0.671   0.004  0.00  0.00     0.051 A 
ATOM      8  C   UNL d   1      -1.267   1.377   0.013  0.00  0.00     0.021 A 
ATOM      9  C   UNL d   1      -1.142  -1.412  -0.004  0.00  0.00     0.054 A 
ATOM     10  O   UNL d   1       1.177   2.697   0.130  0.00  0.00    -0.267 OA
ATOM     11  C   UNL d   1      -2.377  -0.762  -0.019  0.00  0.00     0.036 A 
ATOM     12  C   UNL d   1      -2.445   0.630  -0.020  0.00  0.00     0.025 A 
ATOM     13  C   UNL d   1       3.641  -1.488  -0.082  0.00  0.00     0.089 C 
ATOM     14 CL   UNL d   1      -3.828  -1.687  -0.049  0.00  0.00    -0.084 Cl
ENDROOT
BRANCH   1  15
ATOM     15  C   UNL d   1       3.631   1.440  -0.154  0.00  0.00     0.044 A 
ATOM     16  C   UNL d   1       4.013   2.323   0.866  0.00  0.00     0.032 A 
ATOM     17  C   UNL d   1       5.176   3.087   0.741  0.00  0.00     0.026 A 
ATOM     18  C   UNL d   1       5.946   2.988  -0.415  0.00  0.00     0.034 A 
ATOM     19  C   UNL d   1       5.577   2.114  -1.437  0.00  0.00     0.026 A 
ATOM     20 CL   UNL d   1       7.351   3.964  -0.590  0.00  0.00    -0.084 Cl
ATOM     21  C   UNL d   1       4.423   1.335  -1.306  0.00  0.00     0.032 A 
ENDBRANCH   1  15
TORSDOF 1
