REMARK  3 active torsions:
REMARK  status: ('A' for Active; 'I' for Inactive)
REMARK    1  A    between atoms: C_7  and  C_1 
REMARK    2  A    between atoms: C_6  and  C_7 
REMARK    3  A    between atoms: N_10  and  C_8 
ROOT
ATOM      1  C   UNL d   1       2.104   0.106   0.005  0.00  0.00     0.062 A 
ATOM      2  S   UNL d   1       1.236  -1.375   0.011  0.00  0.00    -0.085 SA
ATOM      3  C   UNL d   1       1.220   1.188   0.019  0.00  0.00    -0.029 A 
ATOM      4  C   UNL d   1      -0.174   0.767   0.009  0.00  0.00    -0.012 A 
ATOM      5  C   UNL d   1      -0.299  -0.619   0.018  0.00  0.00     0.016 A 
ATOM      6  C   UNL d   1       1.583   2.645   0.043  0.00  0.00     0.050 C 
ATOM      7  C   UNL d   1      -1.372   1.533   0.001  0.00  0.00     0.013 A 
ATOM      8  C   UNL d   1      -1.560  -1.252   0.029  0.00  0.00     0.019 A 
ATOM      9  C   UNL d   1      -2.625   0.912   0.007  0.00  0.00     0.001 A 
ATOM     10  C   UNL d   1      -2.718  -0.469   0.025  0.00  0.00     0.001 A 
ENDROOT
BRANCH   1  11
ATOM     11  C   UNL d   1       3.582   0.128  -0.008  0.00  0.00     0.190 C 
ATOM     12  O   UNL d   1       4.221   1.182  -0.010  0.00  0.00    -0.287 OA
BRANCH  11  13
ATOM     13  C   UNL d   1       4.367  -1.159  -0.025  0.00  0.00     0.073 C 
ATOM     14  C   UNL d   1       5.709  -1.164  -0.039  0.00  0.00     0.088 C 
BRANCH  14  15
ATOM     15  N   UNL d   1       6.599  -2.235  -0.057  0.00  0.00    -0.398 N 
ATOM     16  C   UNL d   1       6.210  -3.643  -0.062  0.00  0.00     0.148 C 
ATOM     17  C   UNL d   1       8.051  -2.029  -0.063  0.00  0.00     0.148 C 
ENDBRANCH  14  15
ENDBRANCH  11  13
ENDBRANCH   1  11
TORSDOF 3
