REMARK  10 active torsions:
REMARK  status: ('A' for Active; 'I' for Inactive)
REMARK    1  A    between atoms: C_11  and  C_1 
REMARK    2  A    between atoms: C_2  and  O_7 
REMARK    3  A    between atoms: C_3  and  C_2 
REMARK    4  A    between atoms: O_25  and  C_4 
REMARK    5  A    between atoms: O_27  and  C_5 
REMARK    6  A    between atoms: O_26  and  C_6 
REMARK    7  A    between atoms: O_7  and  C_8 
REMARK    8  A    between atoms: O_29  and  C_12 
REMARK    9  A    between atoms: N_13  and  C_23 
REMARK   10  A    between atoms: C_24  and  C_16 
ROOT
ATOM      1  C   UNL d   1       2.757  -8.966  -0.809  0.00  0.00     0.112 A 
ATOM      2  C   UNL d   1       2.531  -8.292   0.409  0.00  0.00     0.102 A 
ATOM      3  C   UNL d   1       2.116  -6.956   0.375  0.00  0.00     0.052 A 
ATOM      4  C   UNL d   1       2.491  -8.321  -2.025  0.00  0.00     0.041 A 
ATOM      5  C   UNL d   1       1.889  -6.310  -0.841  0.00  0.00    -0.018 A 
ATOM      6  C   UNL d   1       2.053  -6.994  -2.043  0.00  0.00     0.016 A 
ENDROOT
BRANCH   1   7
ATOM      7  O   UNL d   1       3.255 -10.309  -0.751  0.00  0.00    -0.272 OA
BRANCH   7   8
ATOM      8  C   UNL d   1       3.678 -11.073  -1.836  0.00  0.00     0.298 C 
ATOM      9  O   UNL d   1       3.659 -10.745  -3.020  0.00  0.00    -0.259 OA
BRANCH   8  10
ATOM     10  C   UNL d   1       4.157 -12.423  -1.427  0.00  0.00     0.045 A 
ATOM     11  C   UNL d   1       4.460 -13.359  -2.432  0.00  0.00     0.057 A 
ATOM     12  C   UNL d   1       4.843 -14.675  -2.120  0.00  0.00     0.105 A 
ATOM     13  C   UNL d   1       4.952 -15.060  -0.765  0.00  0.00     0.135 A 
ATOM     14  C   UNL d   1       4.733 -14.088   0.239  0.00  0.00     0.105 A 
ATOM     15  C   UNL d   1       4.312 -12.791  -0.094  0.00  0.00     0.057 A 
BRANCH  12  16
ATOM     16  O   UNL d   1       5.119 -15.615  -3.077  0.00  0.00    -0.353 OA
ATOM     17  C   UNL d   1       5.032 -15.266  -4.451  0.00  0.00     0.210 C 
ENDBRANCH  12  16
BRANCH  13  18
ATOM     18  O   UNL d   1       5.244 -16.319  -0.305  0.00  0.00    -0.351 OA
ATOM     19  C   UNL d   1       5.274 -17.433  -1.183  0.00  0.00     0.210 C 
ENDBRANCH  13  18
BRANCH  14  20
ATOM     20  O   UNL d   1       4.833 -14.267   1.599  0.00  0.00    -0.353 OA
ATOM     21  C   UNL d   1       5.760 -15.242   2.065  0.00  0.00     0.210 C 
ENDBRANCH  14  20
ENDBRANCH   8  10
ENDBRANCH   7   8
ENDBRANCH   1   7
BRANCH   2  22
ATOM     22  O   UNL d   1       2.759  -8.970   1.581  0.00  0.00    -0.353 OA
ATOM     23  C   UNL d   1       2.079  -8.454   2.730  0.00  0.00     0.210 C 
ENDBRANCH   2  22
BRANCH   5  24
ATOM     24  C   UNL d   1       1.492  -4.889  -0.856  0.00  0.00     0.100 C 
ATOM     25  N   UNL d   1       1.221  -4.256   0.241  0.00  0.00    -0.365 N 
ATOM     26  HN  UNL d   1       1.279  -4.738   1.138  1.00  0.00     0.165 HD
BRANCH  25  27
ATOM     27  C   UNL d   1       0.849  -2.904   0.193  0.00  0.00     0.032 A 
ATOM     28  C   UNL d   1       0.057  -2.365  -0.823  0.00  0.00     0.045 A 
ATOM     29  C   UNL d   1      -0.294  -1.005  -0.832  0.00  0.00     0.050 A 
ATOM     30  C   UNL d   1       0.122  -0.189   0.229  0.00  0.00     0.016 A 
ATOM     31  C   UNL d   1       0.879  -0.723   1.270  0.00  0.00     0.003 A 
ATOM     32  C   UNL d   1       1.243  -2.073   1.245  0.00  0.00     0.029 A 
BRANCH  29  33
ATOM     33  C   UNL d   1      -1.100  -0.439  -1.970  0.00  0.00     0.417 C 
ATOM     34  F   UNL d   1      -1.378  -1.351  -2.945  0.00  0.00    -0.166 F 
ATOM     35  F   UNL d   1      -0.463   0.588  -2.599  0.00  0.00    -0.166 F 
ATOM     36  F   UNL d   1      -2.303   0.054  -1.567  0.00  0.00    -0.166 F 
ENDBRANCH  29  33
ENDBRANCH  25  27
ENDBRANCH   5  24
TORSDOF 10
