REMARK  7 active torsions:
REMARK  status: ('A' for Active; 'I' for Inactive)
REMARK       I    between atoms: NH1_5  and  CZ_1 
REMARK       I    between atoms: NH2_9  and  CZ_1 
REMARK    1  A    between atoms: CA_4  and  C_2 
REMARK    2  A    between atoms: OXT_10  and  C_2 
REMARK    3  A    between atoms: N_3  and  CA_4 
REMARK       I    between atoms: C3_20  and  N_3 
REMARK    4  A    between atoms: CA_4  and  CB_11 
REMARK    5  A    between atoms: CD_12  and  NE_8 
REMARK    6  A    between atoms: CB_11  and  CG_13 
REMARK    7  A    between atoms: CG_13  and  CD_12 
ROOT
ATOM      1  CB  ARG d   1      -3.135  -2.477  -1.274  0.00  0.00     0.038 C 
ENDROOT
BRANCH   1   2
ATOM      2  CA  ARG d   1      -3.647  -3.811  -1.834  0.00  0.00     0.182 C 
BRANCH   2   3
ATOM      3  C   ARG d   1      -3.171  -4.130  -3.264  0.00  0.00     0.163 C 
ATOM      4  O   ARG d   1      -2.130  -3.741  -3.768  0.00  0.00    -0.648 OA
BRANCH   3   5
ATOM      5  OXT ARG d   1      -4.013  -4.969  -3.922  0.00  0.00    -0.775 OA
ATOM      6  HXT ARG d   1      -4.730  -5.323  -3.339  0.00  0.00     0.167 HD
ENDBRANCH   3   5
ENDBRANCH   2   3
BRANCH   2   7
ATOM      7  N   ARG d   1      -3.361  -4.932  -0.945  0.00  0.00    -0.347 N 
ATOM      8  C3  <1> d   1      -4.177  -6.038  -0.961  0.00  0.00     0.214 C 
ATOM      9  O2  <1> d   1      -5.148  -6.111  -1.713  0.00  0.00    -0.274 OA
ATOM     10  C5  <1> d   1      -3.774  -7.143  -0.025  0.00  0.00     0.117 C 
ATOM     11  H   ARG d   1      -2.409  -5.055  -0.617  0.00  0.00     0.163 HD
ENDBRANCH   2   7
ENDBRANCH   1   2
BRANCH   1  12
ATOM     12  CG  ARG d   1      -1.619  -2.361  -1.090  0.00  0.00     0.022 C 
BRANCH  12  13
ATOM     13  CD  ARG d   1      -1.247  -1.006  -0.489  0.00  0.00     0.122 C 
BRANCH  13  14
ATOM     14  NE  ARG d   1       0.192  -0.875  -0.391  0.00  0.00    -0.367 N 
ATOM     15  CZ  ARG d   1       0.962  -1.438   0.569  0.00  0.00     0.143 C 
ATOM     16  NH1 ARG d   1       0.596  -1.982   1.666  0.00  0.00    -0.376 N 
ATOM     17  NH2 ARG d   1       2.267  -1.352   0.264  0.00  0.00    -0.274 NA
ATOM     18  HH1 ARG d   1      -0.417  -1.942   1.751  0.00  0.00     0.158 HD
ATOM     19  HH1 ARG d   1       1.226  -2.395   2.353  1.00  0.00     0.158 HD
ATOM     20 1HH2 ARG d   1       2.816  -1.621   1.073  0.00  0.00     0.127 HD
ATOM     21 2HH2 ARG d   1       2.536  -0.429  -0.055  0.00  0.00     0.127 HD
ATOM     22  HE  ARG d   1       0.649  -0.888  -1.299  0.00  0.00     0.162 HD
ENDBRANCH  13  14
ENDBRANCH  12  13
ENDBRANCH   1  12
TORSDOF 7
