REMARK  10 active torsions:
REMARK  status: ('A' for Active; 'I' for Inactive)
REMARK    1  A    between atoms: C_10  and  N_1 
REMARK    2  A    between atoms: C_8  and  C_2 
REMARK    3  A    between atoms: S_11  and  C_5 
REMARK    4  A    between atoms: C_9  and  C_23 
REMARK    5  A    between atoms: C_26  and  S_11 
REMARK    6  A    between atoms: C_14  and  C_26 
REMARK       I    between atoms: N_16  and  C_14 
REMARK    7  A    between atoms: O_22  and  C_15 
REMARK    8  A    between atoms: C_18  and  N_16 
REMARK    9  A    between atoms: C_23  and  O_22 
REMARK   10  A    between atoms: S_33  and  C_31 
ROOT
ATOM      1  N   UNL d   1      -0.192  -1.432   0.231  0.00  0.00    -0.275 N 
ATOM      2  C   UNL d   1       1.017  -0.751   0.033  0.00  0.00     0.140 A 
ATOM      3  N   UNL d   1       0.789   0.549   0.093  0.00  0.00    -0.282 N 
ATOM      4  HN  UNL d   1       1.493   1.278  -0.023  1.00  0.00     0.188 HD
ATOM      5  C   UNL d   1      -1.104  -0.412   0.455  0.00  0.00     0.168 A 
ATOM      6  N   UNL d   1      -0.533   0.760   0.335  0.00  0.00    -0.278 N 
ATOM      7  HN  UNL d   1      -0.995   1.666   0.409  1.00  0.00     0.189 HD
ENDROOT
BRANCH   5   8
ATOM      8  S   UNL d   1      -2.703  -0.562   1.112  0.00  0.00    -0.083 SA
BRANCH   8   9
ATOM      9  C   UNL d   1      -2.372  -1.310   2.724  0.00  0.00     0.185 C 
BRANCH   9  10
ATOM     10  C   UNL d   1      -1.507  -0.525   3.700  0.00  0.00     0.231 C 
ATOM     11  N   UNL d   1      -1.208   0.782   3.379  0.00  0.00    -0.326 N 
ATOM     12  H   UNL d   1      -1.593   1.147   2.511  0.00  0.00     0.169 HD
ATOM     13  O   UNL d   1      -1.158  -1.096   4.736  0.00  0.00    -0.272 OA
BRANCH  11  14
ATOM     14  C   UNL d   1      -0.454   1.699   4.147  0.00  0.00     0.035 A 
ATOM     15  C   UNL d   1       0.259   1.339   5.295  0.00  0.00     0.048 A 
ATOM     16  C   UNL d   1       0.921   2.296   6.074  0.00  0.00     0.002 A 
ATOM     17  C   UNL d   1       0.896   3.632   5.663  0.00  0.00     0.018 A 
ATOM     18  C   UNL d   1       0.228   4.000   4.495  0.00  0.00     0.004 A 
ATOM     19  C   UNL d   1      -0.439   3.035   3.736  0.00  0.00     0.029 A 
BRANCH  16  20
ATOM     20  S   UNL d   1       1.830   1.890   7.561  0.00  0.00    -0.134 SA
ATOM     21  C   UNL d   1       0.972   0.394   8.136  0.00  0.00     0.095 C 
ENDBRANCH  16  20
ENDBRANCH  11  14
ENDBRANCH   9  10
ENDBRANCH   8   9
ENDBRANCH   5   8
BRANCH   1  22
ATOM     22  C   UNL d   1      -0.439  -2.836   0.219  0.00  0.00     0.043 A 
ATOM     23  C   UNL d   1       0.484  -3.729   0.782  0.00  0.00     0.032 A 
ATOM     24  C   UNL d   1       0.289  -5.109   0.664  0.00  0.00     0.026 A 
ATOM     25  C   UNL d   1      -0.844  -5.599   0.021  0.00  0.00     0.034 A 
ATOM     26  C   UNL d   1      -1.795  -4.720  -0.492  0.00  0.00     0.026 A 
ATOM     27 CL   UNL d   1      -1.065  -7.296  -0.150  0.00  0.00    -0.084 Cl
ATOM     28  C   UNL d   1      -1.594  -3.339  -0.397  0.00  0.00     0.032 A 
ENDBRANCH   1  22
BRANCH   2  29
ATOM     29  C   UNL d   1       2.353  -1.308  -0.197  0.00  0.00     0.025 A 
ATOM     30  C   UNL d   1       2.610  -2.401  -1.012  0.00  0.00     0.105 A 
ATOM     31  N   UNL d   1       3.826  -2.984  -1.145  0.00  0.00    -0.346 N 
ATOM     32  C   UNL d   1       4.864  -2.428  -0.486  0.00  0.00     0.142 A 
ATOM     33  HN  UNL d   1       3.953  -3.814  -1.724  1.00  0.00     0.167 HD
ATOM     34  C   UNL d   1       4.732  -1.271   0.262  0.00  0.00     0.057 A 
ATOM     35  C   UNL d   1       3.461  -0.712   0.413  0.00  0.00     0.021 A 
BRANCH  32  36
ATOM     36  O   UNL d   1       6.030  -3.112  -0.662  0.00  0.00    -0.327 OA
BRANCH  36  37
ATOM     37  C   UNL d   1       7.000  -2.992   0.382  0.00  0.00     0.294 C 
BRANCH  37  38
ATOM     38  C   UNL d   1       7.901  -4.223   0.460  0.00  0.00     0.408 C 
ATOM     39  F   UNL d   1       7.508  -5.224  -0.354  0.00  0.00    -0.169 F 
ATOM     40  F   UNL d   1       9.178  -3.909   0.139  0.00  0.00    -0.169 F 
ATOM     41  F   UNL d   1       7.919  -4.714   1.723  0.00  0.00    -0.169 F 
ENDBRANCH  37  38
ENDBRANCH  36  37
ENDBRANCH  32  36
ENDBRANCH   2  29
TORSDOF 10
