REMARK  4 active torsions:
REMARK  status: ('A' for Active; 'I' for Inactive)
REMARK    1  A    between atoms: C_8  and  N_1 
REMARK    2  A    between atoms: N_4  and  C_9 
REMARK    3  A    between atoms: C_17  and  C_7 
REMARK    4  A    between atoms: O_18  and  C_17 
ROOT
ATOM      1  N   UNL d   1       0.872  -0.725   0.030  0.00  0.00    -0.261 N 
ATOM      2  N   UNL d   1       0.917   0.625   0.216  0.00  0.00    -0.296 N 
ATOM      3  HN  UNL d   1       1.739   1.197   0.409  1.00  0.00     0.187 HD
ATOM      4  C   UNL d   1      -0.440  -1.177  -0.033  0.00  0.00     0.032 C 
ATOM      5  C   UNL d   1      -1.232  -0.048  -0.065  0.00  0.00     0.055 C 
ATOM      6  C   UNL d   1      -0.351   1.035   0.090  0.00  0.00     0.051 C 
ATOM      7  C   UNL d   1      -0.886  -2.594   0.019  0.00  0.00     0.070 C 
ENDROOT
BRANCH   1   8
ATOM      8  C   UNL d   1       2.091  -1.453  -0.082  0.00  0.00     0.056 A 
ATOM      9  C   UNL d   1       3.243  -0.964   0.559  0.00  0.00     0.034 A 
ATOM     10  C   UNL d   1       4.449  -1.670   0.480  0.00  0.00     0.038 A 
ATOM     11  C   UNL d   1       4.510  -2.850  -0.272  0.00  0.00     0.103 A 
ATOM     12  C   UNL d   1       3.377  -3.322  -0.946  0.00  0.00     0.038 A 
ATOM     13  C   UNL d   1       2.170  -2.623  -0.849  0.00  0.00     0.034 A 
BRANCH  11  14
ATOM     14  N   UNL d   1       5.772  -3.595  -0.361  0.00  0.00    -0.116 N 
ATOM     15  O   UNL d   1       6.749  -3.155   0.263  0.00  0.00    -0.532 OA
ATOM     16  O   UNL d   1       5.786  -4.624  -1.052  0.00  0.00    -0.532 OA
ENDBRANCH  11  14
ENDBRANCH   1   8
BRANCH   6  17
ATOM     17  C   UNL d   1      -0.684   2.490   0.131  0.00  0.00     0.222 C 
BRANCH  17  18
ATOM     18  O   UNL d   1       0.032   3.220  -0.868  0.00  0.00    -0.395 OA
ATOM     19  H   UNL d   1       0.928   2.831  -0.856  0.00  0.00     0.209 HD
ENDBRANCH  17  18
ENDBRANCH   6  17
TORSDOF 4
