REMARK  5 active torsions:
REMARK  status: ('A' for Active; 'I' for Inactive)
REMARK    1  A    between atoms: C_9  and  C_3 
REMARK    2  A    between atoms: S_12  and  C_4 
REMARK    3  A    between atoms: C_10  and  C_11 
REMARK    4  A    between atoms: C_19  and  S_12 
REMARK    5  A    between atoms: C_17  and  C_19 
ROOT
ATOM      1  N   UNL d   1       0.738  -0.595  -1.116  0.00  0.00    -0.282 N 
ATOM      2  HN  UNL d   1       1.025  -1.190  -1.893  1.00  0.00     0.188 HD
ATOM      3  C   UNL d   1       0.709  -0.987   0.132  0.00  0.00     0.145 C 
ATOM      4  C   UNL d   1       0.120   1.571  -0.198  0.00  0.00     0.174 C 
ATOM      5  N   UNL d   1       0.031   1.182   1.042  0.00  0.00    -0.277 N 
ATOM      6  HN  UNL d   1      -0.180   1.801   1.824  1.00  0.00     0.189 HD
ATOM      7  N   UNL d   1       0.256  -0.166   1.165  0.00  0.00    -0.282 N 
ATOM      8  N   UNL d   1       0.337   0.719  -1.260  0.00  0.00    -0.277 N 
ATOM      9  H   UNL d   1      -0.037  -0.603   2.037  0.00  0.00     0.188 HD
ATOM     10  H   UNL d   1       0.310   1.118  -2.194  0.00  0.00     0.189 HD
ENDROOT
BRANCH   3  11
ATOM     11  C   UNL d   1       1.224  -2.345   0.492  0.00  0.00     0.011 A 
ATOM     12  C   UNL d   1       1.770  -2.561   1.763  0.00  0.00     0.016 A 
ATOM     13  C   UNL d   1       2.294  -3.808   2.107  0.00  0.00     0.009 A 
ATOM     14  C   UNL d   1       2.301  -4.878   1.195  0.00  0.00    -0.051 A 
ATOM     15  C   UNL d   1       1.754  -4.638  -0.080  0.00  0.00     0.009 A 
ATOM     16  C   UNL d   1       1.228  -3.386  -0.434  0.00  0.00     0.016 A 
BRANCH  14  17
ATOM     17  C   UNL d   1       2.923  -6.228   1.599  0.00  0.00    -0.024 C 
ATOM     18  C   UNL d   1       2.863  -7.287   0.476  0.00  0.00     0.019 C 
ATOM     19  C   UNL d   1       4.411  -6.028   1.962  0.00  0.00     0.019 C 
ATOM     20  C   UNL d   1       2.188  -6.815   2.823  0.00  0.00     0.019 C 
ENDBRANCH  14  17
ENDBRANCH   3  11
BRANCH   4  21
ATOM     21  S   UNL d   1      -0.017   3.271  -0.587  0.00  0.00    -0.087 SA
BRANCH  21  22
ATOM     22  C   UNL d   1       0.785   3.971   0.889  0.00  0.00     0.108 C 
BRANCH  22  23
ATOM     23  C   UNL d   1       0.929   5.456   0.718  0.00  0.00    -0.026 C 
ATOM     24  C   UNL d   1       0.336   6.372   1.497  0.00  0.00     0.007 C 
ENDBRANCH  22  23
ENDBRANCH  21  22
ENDBRANCH   4  21
TORSDOF 5
