REMARK  3 active torsions:
REMARK  status: ('A' for Active; 'I' for Inactive)
REMARK       I    between atoms: N_2  and  C_1 
REMARK    1  A    between atoms: C_5  and  C_1 
REMARK    2  A    between atoms: C_3  and  N_2 
REMARK    3  A    between atoms: O_8  and  C_7 
ROOT
ATOM      1  C   UNL d   1       1.128  -0.086  -0.052  0.00  0.00     0.256 C 
ATOM      2  N   UNL d   1       0.459  -1.280  -0.271  0.00  0.00    -0.323 N 
ATOM      3  O   UNL d   1       2.254   0.026   0.425  0.00  0.00    -0.267 OA
ATOM      4  H   UNL d   1      -0.471  -1.244  -0.658  0.00  0.00     0.169 HD
ENDROOT
BRANCH   2   5
ATOM      5  C   UNL d   1       0.965  -2.584  -0.044  0.00  0.00     0.037 A 
ATOM      6  C   UNL d   1       2.184  -2.843   0.594  0.00  0.00     0.066 A 
ATOM      7  C   UNL d   1       2.655  -4.150   0.745  0.00  0.00     0.070 A 
ATOM      8  C   UNL d   1       1.891  -5.212   0.261  0.00  0.00     0.037 A 
ATOM      9  C   UNL d   1       0.664  -4.973  -0.355  0.00  0.00     0.005 A 
ATOM     10  C   UNL d   1       0.200  -3.664  -0.500  0.00  0.00     0.029 A 
BRANCH   7  11
ATOM     11  O   UNL d   1       3.836  -4.510   1.337  0.00  0.00    -0.356 OA
ATOM     12  C   UNL d   1       4.649  -3.450   1.834  0.00  0.00     0.210 C 
ENDBRANCH   7  11
ENDBRANCH   2   5
BRANCH   1  13
ATOM     13  C   UNL d   1       0.419   1.177  -0.438  0.00  0.00     0.032 A 
ATOM     14  C   UNL d   1       0.934   2.382   0.070  0.00  0.00     0.017 A 
ATOM     15  C   UNL d   1       0.355   3.607  -0.268  0.00  0.00     0.001 A 
ATOM     16  C   UNL d   1      -0.747   3.640  -1.117  0.00  0.00     0.000 A 
ATOM     17  C   UNL d   1      -1.264   2.452  -1.633  0.00  0.00     0.001 A 
ATOM     18  C   UNL d   1      -0.683   1.222  -1.302  0.00  0.00     0.017 A 
ENDBRANCH   1  13
TORSDOF 3
