REMARK  1 active torsions:
REMARK  status: ('A' for Active; 'I' for Inactive)
REMARK    1  A    between atoms: C_9  and  C_4 
ROOT
ATOM      1  N   UNL d   1      -0.325   0.450   0.924  0.00  0.00    -0.165 N 
ATOM      2  HN  UNL d   1      -0.592   0.774   1.853  1.00  0.00     0.186 HD
ATOM      3  C   UNL d   1       0.298   1.154  -0.078  0.00  0.00     0.702 A 
ATOM      4  C   UNL d   1      -0.494  -0.746   0.395  0.00  0.00     0.202 A 
ATOM      5  N   UNL d   1       0.528   0.429  -1.179  0.00  0.00    -0.089 N 
ATOM      6  HN  UNL d   1       0.976   0.729  -2.045  1.00  0.00     0.213 HD
ATOM      7  O   UNL d   1       0.018  -0.823  -0.872  0.00  0.00    -0.203 OA
ATOM      8  N   UNL d   1       0.568   2.474   0.095  0.00  0.00    -0.216 N 
ATOM      9  C   UNL d   1       0.728   3.012   1.444  0.00  0.00     0.141 C 
ATOM     10  C   UNL d   1       1.301   3.190  -0.950  0.00  0.00     0.141 C 
ATOM     11  C   UNL d   1       0.275   4.471   1.468  0.00  0.00     0.020 C 
ATOM     12  C   UNL d   1       0.867   4.655  -0.972  0.00  0.00     0.020 C 
ATOM     13  C   UNL d   1       0.989   5.302   0.405  0.00  0.00     0.003 C 
ENDROOT
BRANCH   4  14
ATOM     14  C   UNL d   1      -1.151  -1.840   1.052  0.00  0.00     0.058 A 
ATOM     15  S   UNL d   1      -1.255  -3.386   0.315  0.00  0.00    -0.098 SA
ATOM     16  C   UNL d   1      -2.129  -4.035   1.633  0.00  0.00     0.050 A 
ATOM     17  C   UNL d   1      -2.340  -3.101   2.620  0.00  0.00     0.009 A 
ATOM     18  C   UNL d   1      -1.775  -1.833   2.287  0.00  0.00     0.024 A 
ENDBRANCH   4  14
TORSDOF 1
