REMARK  2 active torsions:
REMARK  status: ('A' for Active; 'I' for Inactive)
REMARK       I    between atoms: N_2  and  C_1 
REMARK    1  A    between atoms: C_3  and  C_1 
REMARK       I    between atoms: C_4  and  N_2 
REMARK       I    between atoms: N_8  and  C_4 
REMARK    2  A    between atoms: C_14  and  N_8 
ROOT
ATOM      1  C   UNL d   1       1.143   0.080  -0.209  0.00  0.00     0.262 C 
ATOM      2  N   UNL d   1       0.555   0.952   0.687  0.00  0.00    -0.275 N 
ATOM      3  C   UNL d   1       1.096   1.996   1.396  0.00  0.00     0.327 C 
ATOM      4  N   UNL d   1       2.457   2.125   1.336  0.00  0.00    -0.309 N 
ATOM      5  O   UNL d   1       2.354   0.052  -0.427  0.00  0.00    -0.267 OA
ATOM      6  O   UNL d   1       0.312   2.730   1.994  0.00  0.00    -0.247 OA
ATOM      7  H   UNL d   1      -0.455   0.946   0.787  0.00  0.00     0.173 HD
ATOM      8  H   UNL d   1       2.920   1.553   0.634  0.00  0.00     0.170 HD
ENDROOT
BRANCH   1   9
ATOM      9  C   UNL d   1       0.228  -0.857  -0.926  0.00  0.00     0.071 A 
ATOM     10  C   UNL d   1      -1.166  -0.801  -0.792  0.00  0.00     0.135 A 
ATOM     11  C   UNL d   1      -2.000  -1.658  -1.503  0.00  0.00     0.085 A 
ATOM     12  F   UNL d   1      -1.742   0.093   0.026  0.00  0.00    -0.205 F 
ATOM     13  C   UNL d   1      -1.433  -2.590  -2.358  0.00  0.00     0.119 A 
ATOM     14  C   UNL d   1      -0.052  -2.683  -2.503  0.00  0.00     0.043 A 
ATOM     15  F   UNL d   1      -2.227  -3.410  -3.057  0.00  0.00    -0.206 F 
ATOM     16  C   UNL d   1       0.781  -1.817  -1.787  0.00  0.00     0.023 A 
ENDBRANCH   1   9
BRANCH   4  17
ATOM     17  C   UNL d   1       3.230   3.088   2.016  0.00  0.00     0.036 A 
ATOM     18  C   UNL d   1       2.741   3.830   3.095  0.00  0.00     0.029 A 
ATOM     19  C   UNL d   1       3.529   4.810   3.703  0.00  0.00     0.002 A 
ATOM     20  C   UNL d   1       4.817   5.053   3.238  0.00  0.00     0.000 A 
ATOM     21  C   UNL d   1       5.328   4.294   2.187  0.00  0.00     0.002 A 
ATOM     22  C   UNL d   1       4.543   3.305   1.586  0.00  0.00     0.029 A 
ENDBRANCH   4  17
TORSDOF 2
