REMARK  7 active torsions:
REMARK  status: ('A' for Active; 'I' for Inactive)
REMARK    1  A    between atoms: C_12  and  C_1 
REMARK    2  A    between atoms: C_18  and  C_3 
REMARK    3  A    between atoms: S_11  and  C_4 
REMARK    4  A    between atoms: C_16  and  C_5 
REMARK    5  A    between atoms: C_8  and  S_11 
REMARK    6  A    between atoms: O_28  and  C_18 
REMARK    7  A    between atoms: C_29  and  O_28 
ROOT
ATOM      1  C   UNL d   1      -5.503  -2.815   0.137  0.00  0.00     0.072 A 
ATOM      2  C   UNL d   1      -4.739  -3.481   1.083  0.00  0.00     0.134 A 
ATOM      3  N   UNL d   1      -3.366  -3.463   1.023  0.00  0.00    -0.345 N 
ATOM      4  HN  UNL d   1      -2.817  -3.922   1.751  1.00  0.00     0.166 HD
ATOM      5  C   UNL d   1      -2.736  -2.830  -0.012  0.00  0.00     0.099 A 
ATOM      6  C   UNL d   1      -3.459  -2.220  -1.034  0.00  0.00     0.079 A 
ATOM      7  C   UNL d   1      -4.858  -2.205  -0.948  0.00  0.00     0.045 A 
ATOM      8  C   UNL d   1      -2.829  -1.612  -2.171  0.00  0.00     0.102 C 
ATOM      9  N   UNL d   1      -2.362  -1.125  -3.115  0.00  0.00    -0.191 NA
ENDROOT
BRANCH   5  10
ATOM     10  S   UNL d   1      -0.949  -2.908  -0.012  0.00  0.00    -0.033 SA
BRANCH  10  11
ATOM     11  C   UNL d   1      -0.538  -2.752   1.657  0.00  0.00     0.167 A 
ATOM     12  N   UNL d   1      -1.266  -3.280   2.680  0.00  0.00    -0.317 N 
ATOM     13  C   UNL d   1      -0.588  -2.988   3.834  0.00  0.00     0.207 A 
ATOM     14  H   UNL d   1      -2.150  -3.763   2.588  0.00  0.00     0.169 HD
ATOM     15  N   UNL d   1       0.518  -2.340   3.514  0.00  0.00    -0.280 N 
ATOM     16  N   UNL d   1       0.550  -2.202   2.141  0.00  0.00    -0.278 N 
ATOM     17  HN  UNL d   1       1.224  -2.001   4.167  1.00  0.00     0.188 HD
ATOM     18  HN  UNL d   1       1.288  -1.752   1.599  1.00  0.00     0.189 HD
BRANCH  13  19
ATOM     19  C   UNL d   1      -1.099  -3.370   5.170  0.00  0.00     0.450 C 
ATOM     20  F   UNL d   1      -2.290  -4.024   5.068  0.00  0.00    -0.163 F 
ATOM     21  F   UNL d   1      -0.260  -4.204   5.833  0.00  0.00    -0.163 F 
ATOM     22  F   UNL d   1      -1.318  -2.296   5.969  0.00  0.00    -0.163 F 
ENDBRANCH  13  19
ENDBRANCH  10  11
ENDBRANCH   5  10
BRANCH   1  23
ATOM     23  C   UNL d   1      -6.965  -2.713   0.267  0.00  0.00     0.295 C 
ATOM     24  O   UNL d   1      -7.515  -2.462   1.323  0.00  0.00    -0.259 OA
BRANCH  23  25
ATOM     25  O   UNL d   1      -7.530  -3.001  -0.925  0.00  0.00    -0.318 OA
BRANCH  25  26
ATOM     26  C   UNL d   1      -8.943  -3.260  -0.904  0.00  0.00     0.174 C 
ATOM     27  C   UNL d   1      -9.130  -4.765  -0.923  0.00  0.00     0.034 C 
ENDBRANCH  25  26
ENDBRANCH  23  25
ENDBRANCH   1  23
BRANCH   2  28
ATOM     28  C   UNL d   1      -5.335  -4.304   2.224  0.00  0.00     0.433 C 
ATOM     29  F   UNL d   1      -6.635  -4.670   2.083  0.00  0.00    -0.165 F 
ATOM     30  F   UNL d   1      -4.662  -5.487   2.362  0.00  0.00    -0.165 F 
ATOM     31  F   UNL d   1      -5.215  -3.683   3.428  0.00  0.00    -0.165 F 
ENDBRANCH   2  28
TORSDOF 7
