REMARK  6 active torsions:
REMARK  status: ('A' for Active; 'I' for Inactive)
REMARK    1  A    between atoms: C_2  and  C_1 
REMARK       I    between atoms: N_11  and  C_2 
REMARK    2  A    between atoms: O_15  and  C_4 
REMARK    3  A    between atoms: O_16  and  C_6 
REMARK    4  A    between atoms: C_17  and  N_11 
REMARK    5  A    between atoms: C_13  and  C_18 
REMARK    6  A    between atoms: C_18  and  C_17 
ROOT
ATOM      1  C   UNL d   1       1.778   5.894  -0.020  0.00  0.00     0.058 C 
ENDROOT
BRANCH   1   2
ATOM      2  C   UNL d   1       1.544   7.390  -0.043  0.00  0.00    -0.054 A 
ATOM      3  C   UNL d   1       2.641   8.259  -0.198  0.00  0.00     0.046 A 
ATOM      4  C   UNL d   1       2.486   9.656  -0.181  0.00  0.00     0.102 A 
ATOM      5  C   UNL d   1       1.197  10.191  -0.020  0.00  0.00     0.101 A 
ATOM      6  C   UNL d   1       0.111   9.330   0.170  0.00  0.00     0.040 A 
ATOM      7  C   UNL d   1       0.281   7.947   0.167  0.00  0.00     0.010 A 
BRANCH   4   8
ATOM      8  O   UNL d   1       3.533  10.534  -0.272  0.00  0.00    -0.353 OA
ATOM      9  C   UNL d   1       4.846  10.005  -0.400  0.00  0.00     0.210 C 
ENDBRANCH   4   8
BRANCH   5  10
ATOM     10  O   UNL d   1       0.844  11.514   0.045  0.00  0.00    -0.353 OA
ATOM     11  C   UNL d   1       1.604  12.418  -0.744  0.00  0.00     0.210 C 
ENDBRANCH   5  10
ENDBRANCH   1   2
BRANCH   1  12
ATOM     12  C   UNL d   1       0.621   5.056  -0.574  0.00  0.00     0.127 C 
BRANCH  12  13
ATOM     13  N   UNL d   1       0.910   3.640  -0.550  0.00  0.00    -0.356 N 
ATOM     14  C   UNL d   1       0.623   2.839   0.541  0.00  0.00     0.258 C 
ATOM     15  O   UNL d   1       0.121   3.299   1.562  0.00  0.00    -0.267 OA
ATOM     16  H   UNL d   1       1.356   3.210  -1.349  0.00  0.00     0.162 HD
BRANCH  14  17
ATOM     17  C   UNL d   1       0.956   1.430   0.381  0.00  0.00     0.072 A 
ATOM     18  S   UNL d   1       1.680   0.818  -1.049  0.00  0.00    -0.097 SA
ATOM     19  C   UNL d   1       1.713  -0.776  -0.437  0.00  0.00     0.050 A 
ATOM     20  C   UNL d   1       1.185  -0.852   0.831  0.00  0.00     0.009 A 
ATOM     21  C   UNL d   1       0.748   0.420   1.304  0.00  0.00     0.025 A 
ENDBRANCH  14  17
ENDBRANCH  12  13
ENDBRANCH   1  12
TORSDOF 6
