REMARK  7 active torsions:
REMARK  status: ('A' for Active; 'I' for Inactive)
REMARK    1  A    between atoms: C_6  and  S_1 
REMARK    2  A    between atoms: C_17  and  S_1 
REMARK    3  A    between atoms: S_2  and  N_9 
REMARK    4  A    between atoms: O_14  and  S_2 
REMARK    5  A    between atoms: N_8  and  C_3 
REMARK    6  A    between atoms: N_13  and  C_7 
REMARK       I    between atoms: C_10  and  N_8 
REMARK       I    between atoms: N_9  and  C_10 
REMARK    7  A    between atoms: C_15  and  O_14 
ROOT
ATOM      1  C   UNL d   1      -0.523   0.498   2.226  0.00  0.00     0.128 C 
ATOM      2  N   UNL d   1      -0.634   0.297   3.556  0.00  0.00    -0.180 N 
ATOM      3  HN  UNL d   1      -0.401   1.037   4.219  1.00  0.00     0.185 HD
ATOM      4  C   UNL d   1      -0.999  -0.398   1.298  0.00  0.00     0.119 C 
ATOM      5  C   UNL d   1      -1.058  -0.900   3.985  0.00  0.00     0.681 C 
ATOM      6  N   UNL d   1      -1.431  -1.864   3.132  0.00  0.00    -0.200 N 
ATOM      7  HN  UNL d   1      -1.713  -2.783   3.473  1.00  0.00     0.183 HD
ATOM      8  C   UNL d   1      -1.425  -1.589   1.814  0.00  0.00     0.133 C 
ENDROOT
BRANCH   1   9
ATOM      9  N   UNL d   1       0.181   1.678   1.911  0.00  0.00    -0.193 NA
ATOM     10  C   UNL d   1       1.567   1.600   1.875  0.00  0.00     0.315 C 
ATOM     11  N   UNL d   1       2.111   0.577   1.116  0.00  0.00    -0.217 N 
ATOM     12  O   UNL d   1       2.233   2.409   2.503  0.00  0.00    -0.253 OA
ATOM     13  H   UNL d   1       1.559   0.246   0.322  0.00  0.00     0.185 HD
ATOM     14  H   UNL d   1       0.020   2.364   2.647  0.00  0.00     0.140 HD
BRANCH  11  15
ATOM     15  S   UNL d   1       3.702   0.470   0.653  0.00  0.00     0.370 S 
ATOM     16  O   UNL d   1       3.689  -0.609  -0.317  0.00  0.00    -0.175 OA
ATOM     17  O   UNL d   1       4.138   1.796   0.282  0.00  0.00    -0.175 OA
BRANCH  15  18
ATOM     18  O   UNL d   1       4.517  -0.019   1.982  0.00  0.00    -0.215 OA
BRANCH  18  19
ATOM     19  C   UNL d   1       5.483  -0.999   1.907  0.00  0.00     0.112 A 
ATOM     20  C   UNL d   1       6.518  -1.070   0.961  0.00  0.00     0.070 A 
ATOM     21  C   UNL d   1       7.439  -2.123   1.004  0.00  0.00     0.050 A 
ATOM     22 CL   UNL d   1       6.810   0.136  -0.239  0.00  0.00    -0.081 Cl
ATOM     23  C   UNL d   1       7.365  -3.075   2.015  0.00  0.00     0.035 A 
ATOM     24  C   UNL d   1       6.371  -2.993   2.985  0.00  0.00     0.026 A 
ATOM     25 CL   UNL d   1       8.531  -4.338   2.084  0.00  0.00    -0.084 Cl
ATOM     26  C   UNL d   1       5.430  -1.959   2.929  0.00  0.00     0.041 A 
ENDBRANCH  18  19
ENDBRANCH  15  18
ENDBRANCH  11  15
ENDBRANCH   1   9
BRANCH   4  27
ATOM     27  S   UNL d   1      -0.979  -0.187  -0.432  0.00  0.00     0.211 S 
ATOM     28  O   UNL d   1      -1.537  -1.397  -1.010  0.00  0.00    -0.217 OA
ATOM     29  O   UNL d   1       0.386   0.189  -0.779  0.00  0.00    -0.217 OA
BRANCH  27  30
ATOM     30  C   UNL d   1      -2.036   1.146  -0.955  0.00  0.00     0.064 A 
ATOM     31  C   UNL d   1      -1.525   2.450  -1.027  0.00  0.00     0.025 A 
ATOM     32  C   UNL d   1      -2.285   3.457  -1.626  0.00  0.00     0.025 A 
ATOM     33  C   UNL d   1      -3.535   3.159  -2.171  0.00  0.00     0.034 A 
ATOM     34  C   UNL d   1      -4.040   1.862  -2.106  0.00  0.00     0.025 A 
ATOM     35 CL   UNL d   1      -4.438   4.389  -2.964  0.00  0.00    -0.084 Cl
ATOM     36  C   UNL d   1      -3.291   0.851  -1.498  0.00  0.00     0.025 A 
ENDBRANCH  27  30
ENDBRANCH   4  27
BRANCH   5  37
ATOM     37  N   UNL d   1      -1.163  -1.163   5.330  0.00  0.00    -0.218 N 
ATOM     38  C   UNL d   1      -1.065  -0.078   6.294  0.00  0.00     0.141 C 
ATOM     39  C   UNL d   1      -1.922  -0.461   7.506  0.00  0.00     0.020 C 
ATOM     40  C   UNL d   1      -1.531  -1.829   8.072  0.00  0.00     0.003 C 
ATOM     41  C   UNL d   1      -1.485  -2.903   6.984  0.00  0.00     0.020 C 
ATOM     42  C   UNL d   1      -0.651  -2.452   5.785  0.00  0.00     0.141 C 
ENDBRANCH   5  37
TORSDOF 7
