REMARK  1 active torsions:
REMARK  status: ('A' for Active; 'I' for Inactive)
REMARK    1  A    between atoms: O_12  and  C_9 
ROOT
ATOM      1  C   UNL d   1      -0.041  -0.668   0.119  0.00  0.00     0.099 A 
ATOM      2  C   UNL d   1      -0.051   0.734   0.025  0.00  0.00     0.005 A 
ATOM      3  C   UNL d   1       1.234   1.456   0.024  0.00  0.00    -0.043 A 
ATOM      4  O   UNL d   1       1.189  -1.369   0.156  0.00  0.00    -0.274 OA
ATOM      5  C   UNL d   1      -1.215  -1.448   0.161  0.00  0.00     0.006 A 
ATOM      6  C   UNL d   1       2.406  -0.726   0.050  0.00  0.00     0.288 A 
ATOM      7  C   UNL d   1       2.366   0.741   0.023  0.00  0.00     0.090 A 
ATOM      8  C   UNL d   1      -1.297   1.361  -0.065  0.00  0.00     0.017 A 
ATOM      9  C   UNL d   1      -2.434  -0.773   0.058  0.00  0.00     0.074 A 
ATOM     10  O   UNL d   1       3.470  -1.329  -0.003  0.00  0.00    -0.260 OA
ATOM     11  C   UNL d   1      -2.478   0.614  -0.056  0.00  0.00     0.038 A 
ATOM     12  C   UNL d   1       1.319   2.956   0.038  0.00  0.00     0.049 C 
ATOM     13  C   UNL d   1      -1.160  -2.941   0.317  0.00  0.00     0.054 C 
ENDROOT
BRANCH   9  14
ATOM     14  O   UNL d   1      -3.644  -1.407   0.060  0.00  0.00    -0.360 OA
ATOM     15  H   UNL d   1      -3.512  -2.366   0.111  0.00  0.00     0.217 HD
ENDBRANCH   9  14
TORSDOF 1
