REMARK  1 active torsions:
REMARK  status: ('A' for Active; 'I' for Inactive)
REMARK    1  A    between atoms: O_9  and  N_7 
ROOT
ATOM      1  C   UNL d   1       2.116   0.788   0.341  0.00  0.00     0.020 A 
ATOM      2  C   UNL d   1       1.939  -0.385   1.048  0.00  0.00     0.065 A 
ATOM      3  C   UNL d   1       0.944   1.533  -0.093  0.00  0.00     0.044 C 
ATOM      4  O   UNL d   1       3.120  -0.966   1.360  0.00  0.00    -0.326 OA
ATOM      5  C   UNL d   1       3.518   0.938   0.219  0.00  0.00     0.040 A 
ATOM      6  C   UNL d   1       4.083  -0.151   0.849  0.00  0.00     0.143 A 
ATOM      7  N   UNL d   1       0.924   2.755  -0.530  0.00  0.00    -0.273 N 
ATOM      8  HN  UNL d   1       0.076   3.216  -0.861  1.00  0.00     0.194 HD
ATOM      9  C   UNL d   1       0.670  -1.033   1.454  0.00  0.00     0.066 C 
ATOM     10  C   UNL d   1      -0.382   0.768  -0.014  0.00  0.00     0.060 C 
ATOM     11  C   UNL d   1      -0.475  -0.012   1.308  0.00  0.00     0.013 C 
ENDROOT
BRANCH   7  12
ATOM     12  O   UNL d   1       2.174   3.380  -0.506  0.00  0.00    -0.290 OA
ATOM     13  H   UNL d   1       1.961   4.288  -0.791  0.00  0.00     0.244 HD
ENDBRANCH   7  12
TORSDOF 1
