REMARK  6 active torsions:
REMARK  status: ('A' for Active; 'I' for Inactive)
REMARK       I    between atoms: N_2  and  C_1 
REMARK       I    between atoms: N_3  and  C_1 
REMARK    1  A    between atoms: C_11  and  N_3 
REMARK    2  A    between atoms: C_10  and  N_4 
REMARK    3  A    between atoms: C_19  and  C_10 
REMARK    4  A    between atoms: O_14  and  C_15 
REMARK    5  A    between atoms: C_16  and  O_14 
REMARK    6  A    between atoms: C_22  and  C_16 
ROOT
ATOM      1  C   UNL d   1       1.003   0.066   0.096  0.00  0.00     0.323 C 
ATOM      2  N   UNL d   1       0.399  -0.878   0.911  0.00  0.00    -0.331 N 
ATOM      3  N   UNL d   1       0.287   0.470  -1.004  0.00  0.00    -0.309 N 
ATOM      4  N   UNL d   1      -0.408  -3.260   2.458  0.00  0.00     0.095 N 
ATOM      5  O   UNL d   1       2.128   0.486   0.376  0.00  0.00    -0.247 OA
ATOM      6  C   UNL d   1       1.147  -1.296   2.104  0.00  0.00     0.158 C 
ATOM      7  C   UNL d   1      -0.992  -1.348   0.865  0.00  0.00     0.158 C 
ATOM      8  C   UNL d   1       0.997  -2.802   2.357  0.00  0.00     0.292 C 
ATOM      9  C   UNL d   1      -1.111  -2.848   1.221  0.00  0.00     0.292 C 
ATOM     10  H   UNL d   1      -0.660   0.147  -1.097  0.00  0.00     0.170 HD
ENDROOT
BRANCH   3  11
ATOM     11  C   UNL d   1       0.701   1.396  -1.986  0.00  0.00     0.036 A 
ATOM     12  C   UNL d   1       1.986   1.934  -2.039  0.00  0.00     0.032 A 
ATOM     13  C   UNL d   1       2.319   2.902  -2.986  0.00  0.00     0.039 A 
ATOM     14  C   UNL d   1       1.367   3.352  -3.895  0.00  0.00     0.069 A 
ATOM     15  C   UNL d   1       0.101   2.767  -3.901  0.00  0.00     0.039 A 
ATOM     16  C   UNL d   1      -0.233   1.796  -2.949  0.00  0.00     0.032 A 
BRANCH  14  17
ATOM     17  O   UNL d   1       1.596   4.332  -4.823  0.00  0.00    -0.347 OA
BRANCH  17  18
ATOM     18  C   UNL d   1       2.504   5.345  -4.377  0.00  0.00     0.214 C 
BRANCH  18  19
ATOM     19  C   UNL d   1       2.638   6.414  -5.430  0.00  0.00    -0.034 A 
ATOM     20  C   UNL d   1       2.334   7.750  -5.140  0.00  0.00     0.009 A 
ATOM     21  C   UNL d   1       2.540   8.743  -6.098  0.00  0.00     0.001 A 
ATOM     22  C   UNL d   1       3.052   8.409  -7.351  0.00  0.00     0.000 A 
ATOM     23  C   UNL d   1       3.350   7.081  -7.652  0.00  0.00     0.001 A 
ATOM     24  C   UNL d   1       3.143   6.087  -6.697  0.00  0.00     0.009 A 
ENDBRANCH  18  19
ENDBRANCH  17  18
ENDBRANCH  14  17
ENDBRANCH   3  11
BRANCH   4  25
ATOM     25  C   UNL d   1      -1.103  -2.737   3.647  0.00  0.00     0.311 C 
BRANCH  25  26
ATOM     26  C   UNL d   1      -0.456  -3.111   4.960  0.00  0.00    -0.028 A 
ATOM     27  C   UNL d   1       0.032  -2.122   5.822  0.00  0.00     0.026 A 
ATOM     28  C   UNL d   1       0.610  -2.510   7.020  0.00  0.00     0.088 A 
ATOM     29  N   UNL d   1       0.732  -3.795   7.413  0.00  0.00    -0.375 N 
ATOM     30  C   UNL d   1       0.260  -4.735   6.565  0.00  0.00     0.088 A 
ATOM     31  HN  UNL d   1       1.159  -4.044   8.305  1.00  0.00     0.164 HD
ATOM     32  C   UNL d   1      -0.333  -4.448   5.346  0.00  0.00     0.026 A 
ENDBRANCH  25  26
ENDBRANCH   4  25
TORSDOF 6
