REMARK  6 active torsions:
REMARK  status: ('A' for Active; 'I' for Inactive)
REMARK    1  A    between atoms: S_10  and  C_2 
REMARK    2  A    between atoms: C_13  and  C_3 
REMARK       I    between atoms: C_8  and  N_11 
REMARK    3  A    between atoms: C_9  and  C_8 
REMARK    4  A    between atoms: C_19  and  S_10 
REMARK    5  A    between atoms: N_11  and  C_13 
REMARK    6  A    between atoms: C_20  and  C_19 
ROOT
ATOM      1  N   UNL d   1       0.880   0.068   0.003  0.00  0.00    -0.318 N 
ATOM      2  C   UNL d   1       0.021   1.132   0.054  0.00  0.00     0.162 A 
ATOM      3  C   UNL d   1       0.078  -1.053  -0.075  0.00  0.00     0.117 A 
ATOM      4  N   UNL d   1      -1.217   0.701  -0.012  0.00  0.00    -0.278 N 
ATOM      5  HN  UNL d   1      -2.056   1.281  -0.000  1.00  0.00     0.189 HD
ATOM      6  N   UNL d   1      -1.184  -0.669  -0.099  0.00  0.00    -0.285 N 
ATOM      7  HN  UNL d   1      -1.995  -1.284  -0.170  1.00  0.00     0.188 HD
ATOM      8  C   UNL d   1       2.319   0.063   0.054  0.00  0.00     0.160 C 
ENDROOT
BRANCH   3   9
ATOM      9  C   UNL d   1       0.560  -2.461  -0.071  0.00  0.00     0.201 C 
BRANCH   9  10
ATOM     10  N   UNL d   1       0.704  -2.942  -1.424  0.00  0.00    -0.349 N 
ATOM     11  C   UNL d   1       1.922  -3.190  -2.012  0.00  0.00     0.258 C 
ATOM     12  O   UNL d   1       2.974  -2.885  -1.449  0.00  0.00    -0.267 OA
ATOM     13  H   UNL d   1      -0.137  -3.144  -1.950  0.00  0.00     0.163 HD
BRANCH  11  14
ATOM     14  C   UNL d   1       1.882  -3.821  -3.325  0.00  0.00     0.072 A 
ATOM     15  S   UNL d   1       0.438  -4.491  -3.971  0.00  0.00    -0.097 SA
ATOM     16  C   UNL d   1       1.229  -5.017  -5.391  0.00  0.00     0.050 A 
ATOM     17  C   UNL d   1       2.566  -4.688  -5.389  0.00  0.00     0.009 A 
ATOM     18  C   UNL d   1       2.943  -4.008  -4.194  0.00  0.00     0.025 A 
ENDBRANCH  11  14
ENDBRANCH   9  10
ENDBRANCH   3   9
BRANCH   2  19
ATOM     19  S   UNL d   1       0.506   2.791   0.195  0.00  0.00    -0.088 SA
BRANCH  19  20
ATOM     20  C   UNL d   1      -1.025   3.523   0.849  0.00  0.00     0.121 C 
BRANCH  20  21
ATOM     21  C   UNL d   1      -0.929   5.017   1.066  0.00  0.00    -0.049 A 
ATOM     22  C   UNL d   1      -1.447   5.912   0.117  0.00  0.00     0.008 A 
ATOM     23  C   UNL d   1      -1.426   7.290   0.350  0.00  0.00     0.001 A 
ATOM     24  C   UNL d   1      -0.877   7.792   1.528  0.00  0.00     0.000 A 
ATOM     25  C   UNL d   1      -0.338   6.917   2.469  0.00  0.00     0.001 A 
ATOM     26  C   UNL d   1      -0.360   5.538   2.239  0.00  0.00     0.008 A 
ENDBRANCH  20  21
ENDBRANCH  19  20
ENDBRANCH   2  19
TORSDOF 6
