REMARK  2 active torsions:
REMARK  status: ('A' for Active; 'I' for Inactive)
REMARK    1  A    between atoms: O_3  and  C_1 
REMARK    2  A    between atoms: C_6  and  O_3 
REMARK       I    between atoms: N_9  and  C_6 
ROOT
ATOM      1  C   UNL d   1       1.445  -1.042   0.183  0.00  0.00     0.186 A 
ATOM      2  C   UNL d   1       0.051  -0.804   0.094  0.00  0.00     0.055 A 
ATOM      3  N   UNL d   1       2.148   0.086   0.340  0.00  0.00    -0.237 N 
ATOM      4  HN  UNL d   1       3.155   0.174   0.474  1.00  0.00     0.197 HD
ATOM      5  O   UNL d   1       1.214   1.109   0.279  0.00  0.00    -0.235 OA
ATOM      6  C   UNL d   1      -0.031   0.581   0.140  0.00  0.00     0.113 A 
ATOM      7  C   UNL d   1      -1.147  -1.538  -0.003  0.00  0.00     0.042 A 
ATOM      8  C   UNL d   1      -1.220   1.308   0.067  0.00  0.00     0.042 A 
ATOM      9  C   UNL d   1      -2.358  -0.836  -0.074  0.00  0.00     0.035 A 
ATOM     10  C   UNL d   1      -2.397   0.561  -0.046  0.00  0.00     0.026 A 
ATOM     11 CL   UNL d   1      -3.835  -1.716  -0.195  0.00  0.00    -0.084 Cl
ENDROOT
BRANCH   1  12
ATOM     12  O   UNL d   1       2.173  -2.174   0.244  0.00  0.00    -0.241 OA
BRANCH  12  13
ATOM     13  C   UNL d   1       1.852  -3.221  -0.566  0.00  0.00     0.368 C 
ATOM     14  N   UNL d   1       2.694  -4.316  -0.391  0.00  0.00    -0.336 N 
ATOM     15  C   UNL d   1       3.923  -4.258   0.383  0.00  0.00     0.154 C 
ATOM     16  C   UNL d   1       2.537  -5.453  -1.279  0.00  0.00     0.154 C 
ATOM     17  O   UNL d   1       0.933  -3.221  -1.380  0.00  0.00    -0.238 OA
ENDBRANCH  12  13
ENDBRANCH   1  12
TORSDOF 2
