REMARK  4 active torsions:
REMARK  status: ('A' for Active; 'I' for Inactive)
REMARK    1  A    between atoms: C_2  and  S_1 
REMARK    2  A    between atoms: N_3  and  S_1 
REMARK    3  A    between atoms: C_7  and  N_3 
REMARK    4  A    between atoms: C_10  and  C_7 
ROOT
ATOM      1  S   UNL d   1       0.985  -0.032   0.086  0.00  0.00     0.243 S 
ATOM      2  O   UNL d   1       0.664   1.124   0.894  0.00  0.00    -0.206 OA
ATOM      3  O   UNL d   1       2.356  -0.334  -0.264  0.00  0.00    -0.206 OA
ENDROOT
BRANCH   1   4
ATOM      4  C   UNL d   1       0.049   0.105  -1.427  0.00  0.00     0.091 A 
ATOM      5  C   UNL d   1      -1.332   0.337  -1.460  0.00  0.00     0.029 A 
ATOM      6  I   UNL d   1      -2.586   0.522   0.215  0.00  0.00    -0.043 I 
ATOM      7  C   UNL d   1      -1.979   0.467  -2.701  0.00  0.00     0.020 A 
ATOM      8  C   UNL d   1      -1.261   0.383  -3.895  0.00  0.00     0.001 A 
ATOM      9  C   UNL d   1       0.113   0.178  -3.863  0.00  0.00     0.002 A 
ATOM     10  C   UNL d   1       0.767   0.042  -2.636  0.00  0.00     0.026 A 
ENDBRANCH   1   4
BRANCH   1  11
ATOM     11  N   UNL d   1       0.348  -1.400   0.852  0.00  0.00    -0.211 NA
ATOM     12  H   UNL d   1      -0.667  -1.353   0.936  0.00  0.00     0.140 HD
BRANCH  11  13
ATOM     13  C   UNL d   1       0.858  -2.700   0.389  0.00  0.00     0.143 C 
BRANCH  13  14
ATOM     14  C   UNL d   1       0.236  -3.898   1.080  0.00  0.00    -0.044 A 
ATOM     15  C   UNL d   1       0.246  -5.140   0.421  0.00  0.00     0.008 A 
ATOM     16  C   UNL d   1      -0.256  -6.288   1.040  0.00  0.00     0.001 A 
ATOM     17  C   UNL d   1      -0.769  -6.214   2.332  0.00  0.00     0.000 A 
ATOM     18  C   UNL d   1      -0.770  -4.995   3.007  0.00  0.00     0.001 A 
ATOM     19  C   UNL d   1      -0.262  -3.846   2.391  0.00  0.00     0.008 A 
ENDBRANCH  13  14
ENDBRANCH  11  13
ENDBRANCH   1  11
TORSDOF 4
