REMARK  4 active torsions:
REMARK  status: ('A' for Active; 'I' for Inactive)
REMARK    1  A    between atoms: S_9  and  C_5 
REMARK    2  A    between atoms: C_17  and  S_9 
REMARK    3  A    between atoms: C_10  and  C_17 
REMARK       I    between atoms: N_12  and  C_10 
REMARK    4  A    between atoms: C_19  and  N_12 
ROOT
ATOM      1  N   UNL d   1      -0.248  -0.068   1.577  0.00  0.00    -0.314 N 
ATOM      2  C   UNL d   1      -0.274   1.139   0.916  0.00  0.00     0.158 A 
ATOM      3  N   UNL d   1       0.568   1.089  -0.099  0.00  0.00    -0.281 N 
ATOM      4  HN  UNL d   1       0.756   1.844  -0.758  1.00  0.00     0.188 HD
ATOM      5  C   UNL d   1       0.639  -0.844   0.877  0.00  0.00     0.163 A 
ATOM      6  N   UNL d   1       1.148  -0.154  -0.115  0.00  0.00    -0.278 N 
ATOM      7  HN  UNL d   1       1.849  -0.482  -0.780  1.00  0.00     0.189 HD
ATOM      8  C   UNL d   1      -1.092   2.278   1.204  0.00  0.00     0.120 A 
ATOM      9  O   UNL d   1      -1.716   2.498   2.407  0.00  0.00    -0.319 OA
ATOM     10  C   UNL d   1      -1.405   3.327   0.353  0.00  0.00     0.043 A 
ATOM     11  C   UNL d   1      -2.421   3.654   2.305  0.00  0.00     0.142 A 
ATOM     12  C   UNL d   1      -2.271   4.199   1.054  0.00  0.00     0.027 A 
ATOM     13  C   UNL d   1      -1.010  -0.460   2.733  0.00  0.00     0.160 C 
ENDROOT
BRANCH   5  14
ATOM     14  S   UNL d   1       0.993  -2.506   1.231  0.00  0.00    -0.083 SA
BRANCH  14  15
ATOM     15  C   UNL d   1       2.277  -2.801  -0.022  0.00  0.00     0.185 C 
BRANCH  15  16
ATOM     16  C   UNL d   1       2.798  -4.226  -0.107  0.00  0.00     0.231 C 
ATOM     17  N   UNL d   1       2.084  -5.198   0.568  0.00  0.00    -0.327 N 
ATOM     18  H   UNL d   1       1.222  -4.889   1.001  0.00  0.00     0.169 HD
ATOM     19  O   UNL d   1       3.795  -4.444  -0.800  0.00  0.00    -0.272 OA
BRANCH  17  20
ATOM     20  C   UNL d   1       2.417  -6.566   0.695  0.00  0.00     0.034 A 
ATOM     21  C   UNL d   1       3.628  -7.114   0.254  0.00  0.00     0.032 A 
ATOM     22  C   UNL d   1       3.905  -8.475   0.432  0.00  0.00     0.044 A 
ATOM     23  C   UNL d   1       2.970  -9.290   1.051  0.00  0.00     0.116 A 
ATOM     24  C   UNL d   1       1.762  -8.770   1.496  0.00  0.00     0.044 A 
ATOM     25  F   UNL d   1       3.235 -10.592   1.223  0.00  0.00    -0.206 F 
ATOM     26  C   UNL d   1       1.488  -7.408   1.323  0.00  0.00     0.032 A 
ENDBRANCH  17  20
ENDBRANCH  15  16
ENDBRANCH  14  15
ENDBRANCH   5  14
TORSDOF 4
