REMARK  8 active torsions:
REMARK  status: ('A' for Active; 'I' for Inactive)
REMARK    1  A    between atoms: C_2  and  S_1 
REMARK    2  A    between atoms: N_4  and  S_1 
REMARK    3  A    between atoms: C_19  and  N_4 
REMARK    4  A    between atoms: C_20  and  N_4 
REMARK    5  A    between atoms: O_17  and  C_9 
REMARK    6  A    between atoms: O_18  and  C_12 
REMARK    7  A    between atoms: C_15  and  C_20 
REMARK    8  A    between atoms: C_16  and  C_19 
ROOT
ATOM      1  N   UNL d   1      -2.656   1.725  -1.519  0.00  0.00    -0.197 NA
ATOM      2  C   UNL d   1      -1.513   1.904  -1.621  0.00  0.00     0.060 C 
ATOM      3  C   UNL d   1      -0.077   2.156  -1.761  0.00  0.00     0.144 C 
ENDROOT
BRANCH   3   4
ATOM      4  C   UNL d   1       0.604   2.352  -0.406  0.00  0.00     0.149 C 
BRANCH   4   5
ATOM      5  N   UNL d   1       0.425   1.211   0.563  0.00  0.00    -0.305 N 
BRANCH   5   6
ATOM      6  S   UNL d   1       1.315  -0.206   0.186  0.00  0.00     0.261 S 
ATOM      7  O   UNL d   1       1.011  -0.550  -1.189  0.00  0.00    -0.200 OA
ATOM      8  O   UNL d   1       2.688   0.018   0.582  0.00  0.00    -0.200 OA
BRANCH   6   9
ATOM      9  C   UNL d   1       0.645  -1.497   1.214  0.00  0.00     0.082 A 
ATOM     10  C   UNL d   1      -0.117  -2.515   0.627  0.00  0.00     0.065 A 
ATOM     11  C   UNL d   1      -0.509  -3.642   1.370  0.00  0.00     0.102 A 
ATOM     12  C   UNL d   1      -0.156  -3.715   2.731  0.00  0.00     0.101 A 
ATOM     13  C   UNL d   1       0.584  -2.674   3.310  0.00  0.00     0.041 A 
ATOM     14  C   UNL d   1       1.016  -1.587   2.553  0.00  0.00     0.028 A 
BRANCH  11  15
ATOM     15  O   UNL d   1      -1.215  -4.681   0.827  0.00  0.00    -0.353 OA
ATOM     16  C   UNL d   1      -1.505  -4.650  -0.565  0.00  0.00     0.210 C 
ENDBRANCH  11  15
BRANCH  12  17
ATOM     17  O   UNL d   1      -0.435  -4.704   3.638  0.00  0.00    -0.353 OA
ATOM     18  C   UNL d   1      -0.922  -5.951   3.165  0.00  0.00     0.210 C 
ENDBRANCH  12  17
ENDBRANCH   6   9
ENDBRANCH   5   6
BRANCH   5  19
ATOM     19  C   UNL d   1       0.416   1.687   1.993  0.00  0.00     0.149 C 
BRANCH  19  20
ATOM     20  C   UNL d   1       1.787   2.064   2.561  0.00  0.00     0.144 C 
ATOM     21  C   UNL d   1       1.659   2.493   3.958  0.00  0.00     0.060 C 
ATOM     22  N   UNL d   1       1.556   2.809   5.069  0.00  0.00    -0.197 NA
ENDBRANCH  19  20
ENDBRANCH   5  19
ENDBRANCH   4   5
ENDBRANCH   3   4
TORSDOF 8
