REMARK  4 active torsions:
REMARK  status: ('A' for Active; 'I' for Inactive)
REMARK    1  A    between atoms: C_4  and  C_1 
REMARK       I    between atoms: N_5  and  C_1 
REMARK    2  A    between atoms: C_2  and  C_3 
REMARK       I    between atoms: C_3  and  N_6 
REMARK    3  A    between atoms: N_6  and  N_5 
REMARK    4  A    between atoms: N_14  and  C_8 
ROOT
ATOM      1  C   UNL d   1      -1.863   0.317   2.327  0.00  0.00     0.271 C 
ATOM      2  N   UNL d   1      -1.141   0.394   1.157  0.00  0.00    -0.263 N 
ATOM      3  O   UNL d   1      -3.076   0.099   2.342  0.00  0.00    -0.266 OA
ATOM      4  H   UNL d   1      -0.162   0.689   1.127  0.00  0.00     0.190 HD
ENDROOT
BRANCH   1   5
ATOM      5  C   UNL d   1      -1.113   0.523   3.598  0.00  0.00     0.054 A 
ATOM      6  C   UNL d   1       0.227   0.124   3.788  0.00  0.00     0.021 A 
ATOM      7  C   UNL d   1       0.830   0.399   5.028  0.00  0.00     0.024 A 
ATOM      8  C   UNL d   1       0.103   0.960   6.083  0.00  0.00     0.002 A 
ATOM      9  C   UNL d   1      -1.230   1.308   5.900  0.00  0.00     0.001 A 
ATOM     10  C   UNL d   1      -1.834   1.095   4.662  0.00  0.00     0.019 A 
BRANCH   6  11
ATOM     11  N   UNL d   1       1.046  -0.361   2.749  0.00  0.00    -0.302 NA
ATOM     12  H   UNL d   1       0.550  -0.953   2.084  0.00  0.00     0.124 HD
ATOM     13  H   UNL d   1       1.885  -0.831   3.083  0.00  0.00     0.124 HD
ENDBRANCH   6  11
ENDBRANCH   1   5
BRANCH   2  14
ATOM     14  N   UNL d   1      -1.798   0.158  -0.056  0.00  0.00    -0.261 N 
ATOM     15  C   UNL d   1      -1.068   0.077  -1.227  0.00  0.00     0.293 C 
ATOM     16  O   UNL d   1       0.153   0.250  -1.238  0.00  0.00    -0.264 OA
ATOM     17  H   UNL d   1      -2.798  -0.038  -0.025  0.00  0.00     0.190 HD
BRANCH  15  18
ATOM     18  C   UNL d   1      -1.843  -0.224  -2.412  0.00  0.00     0.144 A 
ATOM     19  O   UNL d   1      -3.191  -0.457  -2.314  0.00  0.00    -0.317 OA
ATOM     20  C   UNL d   1      -3.647  -0.706  -3.571  0.00  0.00     0.143 A 
ATOM     21  C   UNL d   1      -2.619  -0.637  -4.481  0.00  0.00     0.027 A 
ATOM     22  C   UNL d   1      -1.456  -0.331  -3.736  0.00  0.00     0.045 A 
ENDBRANCH  15  18
ENDBRANCH   2  14
TORSDOF 4
