REMARK  8 active torsions:
REMARK  status: ('A' for Active; 'I' for Inactive)
REMARK    1  A    between atoms: C_9  and  S_1 
REMARK    2  A    between atoms: N_10  and  S_1 
REMARK    3  A    between atoms: C_7  and  C_2 
REMARK    4  A    between atoms: C_4  and  C_11 
REMARK    5  A    between atoms: C_8  and  C_5 
REMARK    6  A    between atoms: O_22  and  C_8 
REMARK    7  A    between atoms: C_23  and  N_10 
REMARK    8  A    between atoms: C_24  and  N_10 
ROOT
ATOM      1  C   UNL d   1       0.430  -0.784   1.589  0.00  0.00     0.074 A 
ATOM      2  C   UNL d   1      -0.144  -2.135   3.994  0.00  0.00    -0.025 A 
ATOM      3  C   UNL d   1       0.499  -2.171   1.637  0.00  0.00     0.025 A 
ATOM      4  C   UNL d   1       0.111  -0.063   2.743  0.00  0.00     0.025 A 
ATOM      5  C   UNL d   1      -0.210  -0.735   3.923  0.00  0.00     0.014 A 
ATOM      6  C   UNL d   1       0.256  -2.829   2.844  0.00  0.00     0.014 A 
ENDROOT
BRANCH   2   7
ATOM      7  C   UNL d   1      -0.472  -2.803   5.263  0.00  0.00    -0.002 A 
ATOM      8  C   UNL d   1      -1.044  -4.070   5.371  0.00  0.00     0.100 A 
ATOM      9  S   UNL d   1      -1.402  -4.457   7.011  0.00  0.00    -0.079 SA
ATOM     10  C   UNL d   1      -0.821  -2.968   7.597  0.00  0.00     0.081 A 
ATOM     11  C   UNL d   1      -0.315  -2.204   6.566  0.00  0.00     0.038 A 
BRANCH   8  12
ATOM     12  C   UNL d   1      -1.393  -5.083   4.318  0.00  0.00     0.424 C 
ATOM     13  F   UNL d   1      -2.130  -6.125   4.784  0.00  0.00    -0.166 F 
ATOM     14  F   UNL d   1      -2.112  -4.535   3.304  0.00  0.00    -0.166 F 
ATOM     15  F   UNL d   1      -0.282  -5.637   3.766  0.00  0.00    -0.166 F 
ENDBRANCH   8  12
BRANCH  10  16
ATOM     16  C   UNL d   1      -0.910  -2.663   9.013  0.00  0.00     0.299 C 
ATOM     17  O   UNL d   1      -1.369  -3.389   9.888  0.00  0.00    -0.259 OA
BRANCH  16  18
ATOM     18  O   UNL d   1      -0.410  -1.412   9.245  0.00  0.00    -0.322 OA
ATOM     19  C   UNL d   1      -0.464  -1.002  10.612  0.00  0.00     0.213 C 
ENDBRANCH  16  18
ENDBRANCH  10  16
ENDBRANCH   2   7
BRANCH   1  20
ATOM     20  S   UNL d   1       1.034   0.057   0.152  0.00  0.00     0.243 S 
ATOM     21  O   UNL d   1       1.472  -0.939  -0.800  0.00  0.00    -0.206 OA
ATOM     22  O   UNL d   1       1.964   1.059   0.654  0.00  0.00    -0.206 OA
BRANCH  20  23
ATOM     23  N   UNL d   1      -0.308   0.886  -0.543  0.00  0.00    -0.207 NA
BRANCH  23  24
ATOM     24  C   UNL d   1      -1.001   1.842   0.363  0.00  0.00     0.103 C 
ATOM     25  C   UNL d   1      -2.189   2.561  -0.247  0.00  0.00     0.021 C 
ENDBRANCH  23  24
BRANCH  23  26
ATOM     26  C   UNL d   1      -0.001   1.402  -1.918  0.00  0.00     0.103 C 
ATOM     27  C   UNL d   1       1.136   2.414  -1.965  0.00  0.00     0.021 C 
ENDBRANCH  23  26
ENDBRANCH  20  23
ENDBRANCH   1  20
TORSDOF 8
