REMARK  6 active torsions:
REMARK  status: ('A' for Active; 'I' for Inactive)
REMARK    1  A    between atoms: C_5  and  C_1 
REMARK    2  A    between atoms: C_2  and  C_4 
REMARK       I    between atoms: C_3  and  N_10 
REMARK       I    between atoms: N_7  and  C_3 
REMARK    3  A    between atoms: C_6  and  N_7 
REMARK    4  A    between atoms: N_10  and  C_9 
REMARK    5  A    between atoms: C_26  and  C_14 
REMARK    6  A    between atoms: C_25  and  C_15 
ROOT
ATOM      1  C   UNL d   1      -2.084   1.839   3.582  0.00  0.00     0.303 C 
ATOM      2  N   UNL d   1      -1.866   0.497   3.748  0.00  0.00    -0.209 NA
ATOM      3  N   UNL d   1      -3.132   2.398   4.251  0.00  0.00    -0.313 N 
ATOM      4  O   UNL d   1      -1.475   2.562   2.795  0.00  0.00    -0.253 OA
ATOM      5  H   UNL d   1      -2.753   0.031   3.871  0.00  0.00     0.138 HD
ATOM      6  H   UNL d   1      -3.311   3.317   3.861  0.00  0.00     0.170 HD
ENDROOT
BRANCH   3   7
ATOM      7  C   UNL d   1      -3.956   2.006   5.317  0.00  0.00     0.037 A 
ATOM      8  C   UNL d   1      -3.688   0.963   6.204  0.00  0.00     0.045 A 
ATOM      9  C   UNL d   1      -4.568   0.687   7.272  0.00  0.00     0.050 A 
ATOM     10  C   UNL d   1      -5.723   1.473   7.438  0.00  0.00     0.032 A 
ATOM     11  C   UNL d   1      -6.004   2.526   6.561  0.00  0.00     0.050 A 
ATOM     12  C   UNL d   1      -5.105   2.786   5.516  0.00  0.00     0.045 A 
BRANCH   9  13
ATOM     13  C   UNL d   1      -4.256  -0.424   8.251  0.00  0.00     0.417 C 
ATOM     14  F   UNL d   1      -5.254  -0.648   9.150  0.00  0.00    -0.166 F 
ATOM     15  F   UNL d   1      -3.140  -0.171   8.987  0.00  0.00    -0.166 F 
ATOM     16  F   UNL d   1      -4.041  -1.615   7.630  0.00  0.00    -0.166 F 
ENDBRANCH   9  13
BRANCH  11  17
ATOM     17  C   UNL d   1      -7.240   3.380   6.716  0.00  0.00     0.417 C 
ATOM     18  F   UNL d   1      -8.032   3.007   7.758  0.00  0.00    -0.166 F 
ATOM     19  F   UNL d   1      -6.940   4.692   6.922  0.00  0.00    -0.166 F 
ATOM     20  F   UNL d   1      -8.032   3.345   5.610  0.00  0.00    -0.166 F 
ENDBRANCH  11  17
ENDBRANCH   3   7
BRANCH   2  21
ATOM     21  C   UNL d   1      -0.977  -0.169   2.856  0.00  0.00     0.029 A 
ATOM     22  C   UNL d   1       0.425  -0.051   3.010  0.00  0.00    -0.036 A 
ATOM     23  C   UNL d   1       1.271  -0.739   2.121  0.00  0.00     0.009 A 
ATOM     24  C   UNL d   1       0.751  -1.522   1.096  0.00  0.00     0.001 A 
ATOM     25  C   UNL d   1      -0.626  -1.630   0.943  0.00  0.00     0.009 A 
ATOM     26  C   UNL d   1      -1.510  -0.967   1.815  0.00  0.00    -0.036 A 
BRANCH  22  27
ATOM     27  C   UNL d   1       1.077   0.768   4.103  0.00  0.00     0.036 C 
ATOM     28  C   UNL d   1       1.714   2.048   3.576  0.00  0.00     0.010 C 
ENDBRANCH  22  27
BRANCH  26  29
ATOM     29  C   UNL d   1      -2.987  -1.045   1.492  0.00  0.00     0.036 C 
ATOM     30  C   UNL d   1      -3.382  -0.040   0.417  0.00  0.00     0.010 C 
ENDBRANCH  26  29
ENDBRANCH   2  21
TORSDOF 6
