REMARK  3 active torsions:
REMARK  status: ('A' for Active; 'I' for Inactive)
REMARK    1  A    between atoms: C_6  and  N_1 
REMARK    2  A    between atoms: C_7  and  C_6 
REMARK    3  A    between atoms: C_12  and  C_7 
ROOT
ATOM      1  N   UNL d   1       0.058  -1.586   0.082  0.00  0.00    -0.345 N 
ATOM      2  C   UNL d   1       1.176  -0.769   0.046  0.00  0.00     0.046 A 
ATOM      3  C   UNL d   1      -1.100  -0.823   0.062  0.00  0.00     0.046 A 
ATOM      4  C   UNL d   1      -0.707   0.518   0.056  0.00  0.00     0.003 A 
ATOM      5  C   UNL d   1       0.719   0.551   0.055  0.00  0.00     0.003 A 
ATOM      6  C   UNL d   1       2.551  -1.065  -0.000  0.00  0.00     0.030 A 
ATOM      7  C   UNL d   1      -2.460  -1.184   0.035  0.00  0.00     0.030 A 
ATOM      8  C   UNL d   1       1.661   1.604   0.034  0.00  0.00     0.014 A 
ATOM      9  C   UNL d   1      -1.699   1.523   0.030  0.00  0.00     0.014 A 
ATOM     10  C   UNL d   1       3.027   1.314   0.008  0.00  0.00     0.001 A 
ATOM     11  C   UNL d   1       3.463  -0.005  -0.010  0.00  0.00     0.002 A 
ATOM     12  C   UNL d   1      -3.423  -0.170   0.009  0.00  0.00     0.002 A 
ATOM     13  C   UNL d   1      -3.050   1.168   0.007  0.00  0.00     0.001 A 
ENDROOT
BRANCH   1  14
ATOM     14  C   UNL d   1       0.087  -3.039   0.014  0.00  0.00     0.130 C 
BRANCH  14  15
ATOM     15  C   UNL d   1       0.750  -3.773   1.188  0.00  0.00     0.024 C 
BRANCH  15  16
ATOM     16  C   UNL d   1       0.202  -3.469   2.592  0.00  0.00    -0.021 C 
ATOM     17  C   UNL d   1      -1.271  -3.841   2.748  0.00  0.00     0.009 C 
ATOM     18  C   UNL d   1       1.031  -4.235   3.631  0.00  0.00     0.009 C 
ENDBRANCH  15  16
ENDBRANCH  14  15
ENDBRANCH   1  14
TORSDOF 3
