REMARK  2 active torsions:
REMARK  status: ('A' for Active; 'I' for Inactive)
REMARK    1  A    between atoms: C_6  and  C_1 
REMARK    2  A    between atoms: O_10  and  C_6 
ROOT
ATOM      1  C   UNL d   1      -0.336  -1.232   0.004  0.00  0.00     0.081 A 
ATOM      2  S   UNL d   1       1.339  -0.856  -0.001  0.00  0.00    -0.074 SA
ATOM      3  C   UNL d   1       1.031   0.815  -0.001  0.00  0.00     0.069 A 
ATOM      4  C   UNL d   1      -1.105  -0.079   0.005  0.00  0.00     0.046 A 
ATOM      5  C   UNL d   1      -0.309   1.098   0.002  0.00  0.00     0.036 A 
ATOM      6 BR   UNL d   1       2.419   2.077  -0.005  0.00  0.00    -0.042 Br
ATOM      7 BR   UNL d   1      -1.119   2.805   0.003  0.00  0.00    -0.049 Br
ENDROOT
BRANCH   1   8
ATOM      8  C   UNL d   1      -0.826  -2.599   0.007  0.00  0.00     0.183 C 
ATOM      9  O   UNL d   1      -2.005  -2.920   0.011  0.00  0.00    -0.646 OA
BRANCH   8  10
ATOM     10  O   UNL d   1       0.166  -3.526   0.004  0.00  0.00    -0.772 OA
ATOM     11  H   UNL d   1       1.052  -3.117   0.001  0.00  0.00     0.167 HD
ENDBRANCH   8  10
ENDBRANCH   1   8
TORSDOF 2
