REMARK  6 active torsions:
REMARK  status: ('A' for Active; 'I' for Inactive)
REMARK    1  A    between atoms: C_2  and  S_1 
REMARK    2  A    between atoms: C_3  and  S_1 
REMARK       I    between atoms: N_4  and  C_2 
REMARK    3  A    between atoms: C_15  and  C_6 
REMARK    4  A    between atoms: C_11  and  C_7 
REMARK    5  A    between atoms: O_20  and  C_11 
REMARK    6  A    between atoms: C_25  and  O_20 
ROOT
ATOM      1  S   UNL d   1       0.401   0.108   0.285  0.00  0.00     0.267 S 
ATOM      2  O   UNL d   1       0.549  -0.855  -0.794  0.00  0.00    -0.212 OA
ATOM      3  O   UNL d   1      -0.780   0.128   1.133  0.00  0.00    -0.212 OA
ENDROOT
BRANCH   1   4
ATOM      4  C   UNL d   1       0.577   1.750  -0.422  0.00  0.00     0.344 C 
ATOM      5  N   UNL d   1      -0.465   2.186  -1.270  0.00  0.00    -0.338 N 
ATOM      6  C   UNL d   1      -0.305   3.467  -1.953  0.00  0.00     0.141 C 
ATOM      7  C   UNL d   1      -1.616   1.385  -1.702  0.00  0.00     0.127 C 
ATOM      8  C   UNL d   1      -1.563   4.330  -1.879  0.00  0.00     0.103 C 
ATOM      9  C   UNL d   1      -2.804   3.535  -2.312  0.00  0.00     0.018 C 
ATOM     10  C   UNL d   1      -2.912   2.186  -1.602  0.00  0.00     0.021 C 
ATOM     11  O   UNL d   1       1.566   2.421  -0.152  0.00  0.00    -0.255 OA
BRANCH   8  12
ATOM     12  C   UNL d   1      -1.731   4.957  -0.502  0.00  0.00     0.264 C 
ATOM     13  O   UNL d   1      -2.694   4.782   0.232  0.00  0.00    -0.265 OA
BRANCH  12  14
ATOM     14  O   UNL d   1      -0.707   5.821  -0.251  0.00  0.00    -0.322 OA
BRANCH  14  15
ATOM     15  C   UNL d   1      -0.865   6.678   0.892  0.00  0.00     0.174 C 
ATOM     16  C   UNL d   1      -0.021   6.193   2.054  0.00  0.00     0.034 C 
ENDBRANCH  14  15
ENDBRANCH  12  14
ENDBRANCH   8  12
ENDBRANCH   1   4
BRANCH   1  17
ATOM     17  C   UNL d   1       1.750  -0.170   1.405  0.00  0.00     0.110 A 
ATOM     18  S   UNL d   1       3.292  -0.446   0.723  0.00  0.00    -0.076 SA
ATOM     19  C   UNL d   1       3.985  -0.863   2.243  0.00  0.00     0.033 A 
ATOM     20  C   UNL d   1       3.069  -0.655   3.261  0.00  0.00     0.023 A 
ATOM     21  C   UNL d   1       1.785  -0.271   2.781  0.00  0.00     0.033 A 
BRANCH  19  22
ATOM     22  C   UNL d   1       5.357  -1.386   2.363  0.00  0.00     0.049 A 
ATOM     23  N   UNL d   1       5.874  -1.310   3.616  0.00  0.00    -0.365 N 
ATOM     24  C   UNL d   1       7.089  -1.863   3.827  0.00  0.00     0.088 A 
ATOM     25  HN  UNL d   1       5.364  -0.851   4.371  1.00  0.00     0.165 HD
ATOM     26  C   UNL d   1       7.823  -2.508   2.848  0.00  0.00     0.017 A 
ATOM     27  C   UNL d   1       7.287  -2.576   1.569  0.00  0.00     0.004 A 
ATOM     28  C   UNL d   1       6.040  -2.006   1.318  0.00  0.00     0.031 A 
ENDBRANCH  19  22
ENDBRANCH   1  17
TORSDOF 6
