REMARK  4 active torsions:
REMARK  status: ('A' for Active; 'I' for Inactive)
REMARK       I    between atoms: N_2  and  C_1 
REMARK    1  A    between atoms: C_3  and  C_1 
REMARK    2  A    between atoms: C_4  and  N_2 
REMARK    3  A    between atoms: N_8  and  C_4 
REMARK    4  A    between atoms: C_13  and  N_8 
ROOT
ATOM      1  C   UNL d   1      -0.999   0.991  -0.659  0.00  0.00     0.260 C 
ATOM      2  N   UNL d   1       0.343   0.860  -0.995  0.00  0.00    -0.299 N 
ATOM      3  O   UNL d   1      -1.722   1.904  -1.051  0.00  0.00    -0.267 OA
ATOM      4  H   UNL d   1       0.871   0.146  -0.508  0.00  0.00     0.171 HD
ENDROOT
BRANCH   2   5
ATOM      5  C   UNL d   1       1.024   1.362  -2.091  0.00  0.00     0.179 C 
ATOM      6  S   UNL d   1       0.369   1.991  -3.491  0.00  0.00    -0.040 SA
BRANCH   5   7
ATOM      7  N   UNL d   1       2.392   1.223  -2.026  0.00  0.00    -0.333 N 
ATOM      8  H   UNL d   1       2.858   1.296  -2.925  0.00  0.00     0.168 HD
BRANCH   7   9
ATOM      9  C   UNL d   1       3.230   1.382  -0.902  0.00  0.00     0.034 A 
ATOM     10  C   UNL d   1       4.563   0.978  -1.028  0.00  0.00     0.031 A 
ATOM     11  C   UNL d   1       5.472   1.206   0.009  0.00  0.00     0.026 A 
ATOM     12  C   UNL d   1       5.054   1.866   1.163  0.00  0.00     0.034 A 
ATOM     13  C   UNL d   1       3.729   2.273   1.299  0.00  0.00     0.026 A 
ATOM     14 CL   UNL d   1       6.187   2.208   2.410  0.00  0.00    -0.084 Cl
ATOM     15  C   UNL d   1       2.815   2.024   0.271  0.00  0.00     0.031 A 
ENDBRANCH   7   9
ENDBRANCH   5   7
ENDBRANCH   2   5
BRANCH   1  16
ATOM     16  C   UNL d   1      -1.549   0.043   0.353  0.00  0.00     0.071 A 
ATOM     17  C   UNL d   1      -0.840  -1.061   0.836  0.00  0.00     0.135 A 
ATOM     18  C   UNL d   1      -1.392  -1.910   1.792  0.00  0.00     0.085 A 
ATOM     19  F   UNL d   1       0.399  -1.327   0.394  0.00  0.00    -0.205 F 
ATOM     20  C   UNL d   1      -2.669  -1.655   2.271  0.00  0.00     0.119 A 
ATOM     21  C   UNL d   1      -3.404  -0.569   1.807  0.00  0.00     0.043 A 
ATOM     22  F   UNL d   1      -3.204  -2.463   3.195  0.00  0.00    -0.206 F 
ATOM     23  C   UNL d   1      -2.846   0.278   0.848  0.00  0.00     0.023 A 
ENDBRANCH   1  16
TORSDOF 4
