REMARK  8 active torsions:
REMARK  status: ('A' for Active; 'I' for Inactive)
REMARK    1  A    between atoms: C_12  and  S_1 
REMARK    2  A    between atoms: N_18  and  S_1 
REMARK    3  A    between atoms: S_2  and  C_13 
REMARK    4  A    between atoms: N_19  and  S_2 
REMARK    5  A    between atoms: N_9  and  C_5 
REMARK    6  A    between atoms: N_10  and  C_6 
REMARK    7  A    between atoms: C_29  and  N_18 
REMARK    8  A    between atoms: C_30  and  N_19 
ROOT
ATOM      1  C   UNL d   1      -0.141  -1.566  -4.460  0.00  0.00     0.025 A 
ATOM      2  C   UNL d   1      -0.246  -2.374  -5.693  0.00  0.00     0.025 A 
ATOM      3  C   UNL d   1      -0.435  -0.260  -4.070  0.00  0.00     0.116 A 
ATOM      4  C   UNL d   1      -0.467  -2.136  -7.051  0.00  0.00     0.116 A 
ATOM      5  C   UNL d   1       0.036  -3.718  -5.364  0.00  0.00     0.030 A 
ATOM      6  C   UNL d   1       0.356  -2.401  -3.427  0.00  0.00     0.030 A 
ATOM      7  C   UNL d   1       0.432  -3.766  -3.953  0.00  0.00     0.194 A 
ATOM      8  C   UNL d   1       0.426  -0.664  -1.813  0.00  0.00     0.082 A 
ATOM      9  C   UNL d   1      -0.237  -4.512  -7.578  0.00  0.00     0.082 A 
ATOM     10  C   UNL d   1      -0.481  -3.192  -7.994  0.00  0.00     0.062 A 
ATOM     11  C   UNL d   1      -0.141   0.205  -2.764  0.00  0.00     0.062 A 
ATOM     12  C   UNL d   1       0.667  -1.995  -2.137  0.00  0.00     0.041 A 
ATOM     13  C   UNL d   1       0.033  -4.792  -6.244  0.00  0.00     0.041 A 
ATOM     14  O   UNL d   1       0.761  -4.755  -3.327  0.00  0.00    -0.287 OA
ENDROOT
BRANCH   8  15
ATOM     15  S   UNL d   1       0.896  -0.055  -0.208  0.00  0.00     0.259 S 
ATOM     16  O   UNL d   1       0.500   1.333  -0.128  0.00  0.00    -0.201 OA
ATOM     17  O   UNL d   1       2.276  -0.447  -0.030  0.00  0.00    -0.201 OA
BRANCH  15  18
ATOM     18  N   UNL d   1       0.025  -0.953   0.905  0.00  0.00    -0.307 N 
ATOM     19  H   UNL d   1       0.639  -1.400   1.589  0.00  0.00     0.173 HD
BRANCH  18  20
ATOM     20  C   UNL d   1      -1.408  -0.822   1.256  0.00  0.00     0.029 C 
ATOM     21  C   UNL d   1      -2.276  -1.382   0.127  0.00  0.00     0.038 C 
ATOM     22  C   UNL d   1      -1.648  -1.684   2.516  0.00  0.00     0.038 C 
ATOM     23  C   UNL d   1      -1.816   0.612   1.602  0.00  0.00     0.038 C 
ENDBRANCH  18  20
ENDBRANCH  15  18
ENDBRANCH   8  15
BRANCH   3  24
ATOM     24  N   UNL d   1      -1.210   0.633  -4.906  0.00  0.00    -0.115 N 
ATOM     25  O   UNL d   1      -2.296   0.199  -5.307  0.00  0.00    -0.532 OA
ATOM     26  O   UNL d   1      -0.751   1.760  -5.114  0.00  0.00    -0.532 OA
ENDBRANCH   3  24
BRANCH   4  27
ATOM     27  N   UNL d   1      -0.492  -0.798  -7.602  0.00  0.00    -0.115 N 
ATOM     28  O   UNL d   1       0.471  -0.074  -7.318  0.00  0.00    -0.532 OA
ATOM     29  O   UNL d   1      -1.434  -0.503  -8.345  0.00  0.00    -0.532 OA
ENDBRANCH   4  27
BRANCH   9  30
ATOM     30  S   UNL d   1      -0.335  -5.849  -8.747  0.00  0.00     0.259 S 
ATOM     31  O   UNL d   1      -1.199  -6.839  -8.140  0.00  0.00    -0.201 OA
ATOM     32  O   UNL d   1      -0.629  -5.279 -10.039  0.00  0.00    -0.201 OA
BRANCH  30  33
ATOM     33  N   UNL d   1       1.203  -6.525  -8.746  0.00  0.00    -0.307 N 
ATOM     34  H   UNL d   1       1.153  -7.516  -8.502  0.00  0.00     0.173 HD
BRANCH  33  35
ATOM     35  C   UNL d   1       2.305  -6.140  -9.665  0.00  0.00     0.029 C 
ATOM     36  C   UNL d   1       2.721  -4.688  -9.430  0.00  0.00     0.038 C 
ATOM     37  C   UNL d   1       3.504  -7.054  -9.332  0.00  0.00     0.038 C 
ATOM     38  C   UNL d   1       1.933  -6.391 -11.130  0.00  0.00     0.038 C 
ENDBRANCH  33  35
ENDBRANCH  30  33
ENDBRANCH   9  30
TORSDOF 8
