REMARK  4 active torsions:
REMARK  status: ('A' for Active; 'I' for Inactive)
REMARK    1  A    between atoms: C_17  and  N_2 
REMARK    2  A    between atoms: C_14  and  C_10 
REMARK    3  A    between atoms: C_18  and  C_13 
REMARK    4  A    between atoms: C_19  and  C_17 
ROOT
ATOM      1  C   UNL d   1      -0.578  -1.207   0.168  0.00  0.00     0.105 A 
ATOM      2  N   UNL d   1       0.729  -0.791   0.129  0.00  0.00    -0.284 N 
ATOM      3  C   UNL d   1      -1.067  -2.543   0.188  0.00  0.00     0.192 A 
ATOM      4  N   UNL d   1       0.842   0.565   0.074  0.00  0.00    -0.301 N 
ATOM      5  HN  UNL d   1       1.700   1.114   0.025  1.00  0.00     0.187 HD
ATOM      6  C   UNL d   1      -1.334  -0.053   0.163  0.00  0.00     0.063 A 
ATOM      7  O   UNL d   1      -2.412  -2.819   0.235  0.00  0.00    -0.276 OA
ATOM      8  N   UNL d   1      -0.346  -3.646   0.149  0.00  0.00    -0.276 N 
ATOM      9  HN  UNL d   1       0.671  -3.706   0.109  1.00  0.00     0.189 HD
ATOM     10  C   UNL d   1      -2.439  -4.184   0.232  0.00  0.00     0.144 A 
ATOM     11  N   UNL d   1      -1.233  -4.707   0.174  0.00  0.00    -0.281 N 
ATOM     12  HN  UNL d   1      -0.998  -5.700   0.151  1.00  0.00     0.189 HD
ATOM     13  C   UNL d   1      -0.416   1.018   0.100  0.00  0.00     0.036 A 
ENDROOT
BRANCH   2  14
ATOM     14  C   UNL d   1       1.946  -1.584  -0.015  0.00  0.00     0.187 C 
BRANCH  14  15
ATOM     15  C   UNL d   1       2.633  -1.901   1.297  0.00  0.00    -0.038 A 
ATOM     16  C   UNL d   1       2.886  -3.237   1.651  0.00  0.00     0.012 A 
ATOM     17  C   UNL d   1       3.628  -3.540   2.796  0.00  0.00     0.043 A 
ATOM     18  C   UNL d   1       4.113  -2.509   3.592  0.00  0.00     0.116 A 
ATOM     19  C   UNL d   1       3.860  -1.182   3.272  0.00  0.00     0.043 A 
ATOM     20  F   UNL d   1       4.845  -2.800   4.676  0.00  0.00    -0.206 F 
ATOM     21  C   UNL d   1       3.124  -0.877   2.125  0.00  0.00     0.012 A 
ENDBRANCH  14  15
ENDBRANCH   2  14
BRANCH  13  22
ATOM     22  C   UNL d   1      -0.744   2.502   0.044  0.00  0.00    -0.007 C 
ATOM     23  C   UNL d   1      -1.536   2.907   1.304  0.00  0.00     0.021 C 
ATOM     24  C   UNL d   1       0.523   3.378  -0.030  0.00  0.00     0.021 C 
ATOM     25  C   UNL d   1      -1.604   2.803  -1.202  0.00  0.00     0.021 C 
ENDBRANCH  13  22
BRANCH  10  26
ATOM     26  C   UNL d   1      -3.720  -4.997   0.306  0.00  0.00     0.062 A 
ATOM     27  C   UNL d   1      -4.973  -4.452  -0.353  0.00  0.00     0.013 A 
ATOM     28  C   UNL d   1      -4.863  -4.435   1.132  0.00  0.00     0.013 A 
ENDBRANCH  10  26
TORSDOF 4
