REMARK  3 active torsions:
REMARK  status: ('A' for Active; 'I' for Inactive)
REMARK    1  A    between atoms: S_2  and  N_1 
REMARK    2  A    between atoms: C_9  and  S_2 
REMARK    3  A    between atoms: C_8  and  C_10 
ROOT
ATOM      1  N   UNL d   1       3.097  -0.907   1.505  0.00  0.00    -0.179 NA
ATOM      2  C   UNL d   1       4.032  -2.043   1.407  0.00  0.00     0.212 A 
ATOM      3  N   UNL d   1       4.201  -2.446   0.034  0.00  0.00    -0.326 N 
ATOM      4  C   UNL d   1       4.091  -3.807  -0.148  0.00  0.00     0.256 A 
ATOM      5  C   UNL d   1       3.823  -3.340   2.120  0.00  0.00    -0.004 A 
ATOM      6  C   UNL d   1       3.851  -4.382   1.185  0.00  0.00     0.041 A 
ATOM      7  O   UNL d   1       4.235  -4.447  -1.169  0.00  0.00    -0.267 OA
ATOM      8  C   UNL d   1       3.638   0.206   0.640  0.00  0.00     0.112 C 
ATOM      9  C   UNL d   1       4.583  -1.480  -0.963  0.00  0.00     0.129 C 
ATOM     10  C   UNL d   1       3.734  -0.223  -0.826  0.00  0.00     0.035 C 
ATOM     11  C   UNL d   1       3.874  -3.633   3.473  0.00  0.00     0.011 A 
ATOM     12  C   UNL d   1       3.858  -5.718   1.539  0.00  0.00     0.018 A 
ATOM     13  C   UNL d   1       3.923  -4.981   3.857  0.00  0.00     0.001 A 
ATOM     14  C   UNL d   1       3.898  -6.015   2.900  0.00  0.00     0.001 A 
ENDROOT
BRANCH   1  15
ATOM     15  S   UNL d   1       1.429  -1.182   1.253  0.00  0.00     0.245 S 
ATOM     16  O   UNL d   1       0.819   0.086   0.907  0.00  0.00    -0.206 OA
ATOM     17  O   UNL d   1       1.262  -2.340   0.398  0.00  0.00    -0.206 OA
BRANCH  15  18
ATOM     18  C   UNL d   1       0.722  -1.579   2.834  0.00  0.00     0.075 A 
ATOM     19  C   UNL d   1       1.099  -0.875   3.982  0.00  0.00     0.041 A 
ATOM     20  C   UNL d   1       0.358  -1.034   5.169  0.00  0.00     0.049 A 
ATOM     21  C   UNL d   1      -0.746  -1.906   5.178  0.00  0.00     0.016 A 
ATOM     22  C   UNL d   1      -1.108  -2.611   4.030  0.00  0.00     0.002 A 
ATOM     23  C   UNL d   1      -0.373  -2.452   2.858  0.00  0.00     0.025 A 
BRANCH  20  24
ATOM     24  C   UNL d   1       0.703  -0.269   6.425  0.00  0.00     0.417 C 
ATOM     25  F   UNL d   1       1.668   0.673   6.237  0.00  0.00    -0.166 F 
ATOM     26  F   UNL d   1      -0.366   0.389   6.951  0.00  0.00    -0.166 F 
ATOM     27  F   UNL d   1       1.165  -1.084   7.413  0.00  0.00    -0.166 F 
ENDBRANCH  20  24
ENDBRANCH  15  18
ENDBRANCH   1  15
TORSDOF 3
