REMARK  3 active torsions:
REMARK  status: ('A' for Active; 'I' for Inactive)
REMARK       I    between atoms: N_3  and  C_1 
REMARK       I    between atoms: N_4  and  C_1 
REMARK    1  A    between atoms: C_7  and  N_3 
REMARK    2  A    between atoms: C_8  and  N_4 
REMARK    3  A    between atoms: C_14  and  C_9 
ROOT
ATOM      1  N   UNL d   1       4.749   4.343   5.109  0.00  0.00    -0.197 NA
ATOM      2  C   UNL d   1       3.993   4.758   4.334  0.00  0.00     0.063 C 
ATOM      3  C   UNL d   1       3.014   5.298   3.334  0.00  0.00     0.162 C 
ENDROOT
BRANCH   3   4
ATOM      4  C   UNL d   1       2.274   4.189   2.608  0.00  0.00    -0.045 A 
ATOM      5  C   UNL d   1       1.088   3.638   3.117  0.00  0.00     0.010 A 
ATOM      6  C   UNL d   1       0.494   2.523   2.505  0.00  0.00     0.030 A 
ATOM      7  C   UNL d   1       1.081   1.931   1.381  0.00  0.00     0.036 A 
ATOM      8  C   UNL d   1       2.229   2.519   0.845  0.00  0.00     0.030 A 
ATOM      9  C   UNL d   1       2.823   3.628   1.451  0.00  0.00     0.010 A 
BRANCH   7  10
ATOM     10  N   UNL d   1       0.497   0.749   0.861  0.00  0.00    -0.309 N 
ATOM     11  C   UNL d   1       1.116  -0.130  -0.020  0.00  0.00     0.325 C 
ATOM     12  N   UNL d   1       0.313  -1.224  -0.302  0.00  0.00    -0.309 N 
ATOM     13  O   UNL d   1       2.243   0.030  -0.471  0.00  0.00    -0.247 OA
ATOM     14  H   UNL d   1      -0.641  -1.190   0.019  0.00  0.00     0.170 HD
ATOM     15  H   UNL d   1      -0.337   0.421   1.322  0.00  0.00     0.170 HD
BRANCH  12  16
ATOM     16  C   UNL d   1       0.677  -2.357  -1.070  0.00  0.00     0.036 A 
ATOM     17  C   UNL d   1       1.949  -2.553  -1.619  0.00  0.00     0.029 A 
ATOM     18  C   UNL d   1       2.244  -3.700  -2.361  0.00  0.00     0.002 A 
ATOM     19  C   UNL d   1       1.270  -4.672  -2.559  0.00  0.00     0.000 A 
ATOM     20  C   UNL d   1       0.000  -4.495  -2.014  0.00  0.00     0.002 A 
ATOM     21  C   UNL d   1      -0.295  -3.344  -1.274  0.00  0.00     0.029 A 
ENDBRANCH  12  16
ENDBRANCH   7  10
ENDBRANCH   3   4
TORSDOF 3
