REMARK  8 active torsions:
REMARK  status: ('A' for Active; 'I' for Inactive)
REMARK    1  A    between atoms: C_4  and  C_2 
REMARK    2  A    between atoms: C_14  and  C_3 
REMARK       I    between atoms: N_9  and  C_4 
REMARK    3  A    between atoms: C_5  and  N_12 
REMARK    4  A    between atoms: N_8  and  C_5 
REMARK    5  A    between atoms: C_10  and  N_8 
REMARK    6  A    between atoms: N_12  and  N_9 
REMARK    7  A    between atoms: O_23  and  C_11 
REMARK    8  A    between atoms: O_27  and  C_20 
ROOT
ATOM      1  C   UNL d   1      -0.341   2.571   1.472  0.00  0.00     0.277 C 
ATOM      2  N   UNL d   1      -1.450   2.739   0.646  0.00  0.00    -0.263 N 
ATOM      3  O   UNL d   1       0.594   3.365   1.357  0.00  0.00    -0.265 OA
ATOM      4  H   UNL d   1      -1.435   3.587   0.082  0.00  0.00     0.190 HD
ENDROOT
BRANCH   2   5
ATOM      5  N   UNL d   1      -2.720   2.296   1.046  0.00  0.00    -0.273 N 
ATOM      6  H   UNL d   1      -2.754   1.353   1.428  0.00  0.00     0.189 HD
BRANCH   5   7
ATOM      7  C   UNL d   1      -3.894   2.786   0.527  0.00  0.00     0.191 C 
ATOM      8  S   UNL d   1      -4.008   3.961  -0.652  0.00  0.00    -0.039 SA
BRANCH   7   9
ATOM      9  N   UNL d   1      -5.037   2.191   1.008  0.00  0.00    -0.330 N 
ATOM     10  H   UNL d   1      -5.875   2.337   0.454  0.00  0.00     0.168 HD
BRANCH   9  11
ATOM     11  C   UNL d   1      -5.232   1.531   2.245  0.00  0.00     0.068 A 
ATOM     12  C   UNL d   1      -6.294   0.625   2.406  0.00  0.00     0.097 A 
ATOM     13  C   UNL d   1      -6.572   0.072   3.666  0.00  0.00     0.075 A 
ATOM     14  C   UNL d   1      -5.790   0.406   4.773  0.00  0.00     0.070 A 
ATOM     15  C   UNL d   1      -4.723   1.286   4.609  0.00  0.00     0.039 A 
ATOM     16  C   UNL d   1      -4.452   1.851   3.362  0.00  0.00     0.035 A 
BRANCH  12  17
ATOM     17  O   UNL d   1      -7.155   0.259   1.401  0.00  0.00    -0.354 OA
ATOM     18  C   UNL d   1      -6.518  -0.275   0.239  0.00  0.00     0.210 C 
ENDBRANCH  12  17
BRANCH  14  19
ATOM     19  O   UNL d   1      -5.960  -0.035   6.054  0.00  0.00    -0.356 OA
ATOM     20  C   UNL d   1      -7.121  -0.810   6.325  0.00  0.00     0.210 C 
ENDBRANCH  14  19
ENDBRANCH   9  11
ENDBRANCH   7   9
ENDBRANCH   5   7
ENDBRANCH   2   5
BRANCH   1  21
ATOM     21  C   UNL d   1      -0.338   1.505   2.475  0.00  0.00     0.075 C 
ATOM     22  S   UNL d   1      -1.127   0.002   2.234  0.00  0.00    -0.084 SA
ATOM     23  C   UNL d   1      -0.803  -0.532   3.832  0.00  0.00     0.016 C 
ATOM     24  C   UNL d   1       0.061   0.343   4.463  0.00  0.00     0.021 C 
ATOM     25  C   UNL d   1       0.340   1.503   3.680  0.00  0.00     0.026 C 
BRANCH  23  26
ATOM     26  C   UNL d   1      -1.391  -1.787   4.332  0.00  0.00    -0.019 A 
ATOM     27  C   UNL d   1      -0.633  -2.656   5.130  0.00  0.00     0.014 A 
ATOM     28  C   UNL d   1      -1.194  -3.839   5.631  0.00  0.00     0.024 A 
ATOM     29  C   UNL d   1      -2.513  -4.163   5.333  0.00  0.00     0.034 A 
ATOM     30  C   UNL d   1      -3.285  -3.310   4.548  0.00  0.00     0.024 A 
ATOM     31 CL   UNL d   1      -3.202  -5.614   5.948  0.00  0.00    -0.084 Cl
ATOM     32  C   UNL d   1      -2.725  -2.130   4.049  0.00  0.00     0.014 A 
ENDBRANCH  23  26
ENDBRANCH   1  21
TORSDOF 8
