REMARK  6 active torsions:
REMARK  status: ('A' for Active; 'I' for Inactive)
REMARK    1  A    between atoms: C_2  and  C_1 
REMARK       I    between atoms: C_3  and  N_4 
REMARK    2  A    between atoms: C_13  and  C_3 
REMARK    3  A    between atoms: N_4  and  C_7 
REMARK    4  A    between atoms: C_5  and  C_14 
REMARK    5  A    between atoms: O_15  and  C_5 
REMARK    6  A    between atoms: C_14  and  C_13 
ROOT
ATOM      1  C   UNL d   1       0.513  -0.345   1.241  0.00  0.00     0.050 A 
ATOM      2  C   UNL d   1       0.555  -1.749   1.299  0.00  0.00     0.045 A 
ATOM      3  C   UNL d   1       0.285  -2.427   2.490  0.00  0.00     0.035 A 
ATOM      4  C   UNL d   1       0.181   0.376   2.399  0.00  0.00     0.016 A 
ATOM      5  C   UNL d   1      -0.101  -0.295   3.586  0.00  0.00     0.003 A 
ATOM      6  C   UNL d   1      -0.055  -1.689   3.630  0.00  0.00     0.029 A 
ENDROOT
BRANCH   3   7
ATOM      7  N   UNL d   1       0.343  -3.831   2.622  0.00  0.00    -0.327 N 
ATOM      8  C   UNL d   1       0.891  -4.718   1.719  0.00  0.00     0.222 C 
ATOM      9  O   UNL d   1       1.404  -4.443   0.635  0.00  0.00    -0.273 OA
ATOM     10  H   UNL d   1       0.086  -4.196   3.532  0.00  0.00     0.169 HD
BRANCH   8  11
ATOM     11  C   UNL d   1       0.925  -6.149   2.220  0.00  0.00     0.113 C 
BRANCH  11  12
ATOM     12  C   UNL d   1       2.261  -6.776   1.841  0.00  0.00     0.119 C 
BRANCH  12  13
ATOM     13  C   UNL d   1       3.390  -6.029   2.505  0.00  0.00     0.139 C 
ATOM     14  O   UNL d   1       3.827  -6.318   3.610  0.00  0.00    -0.650 OA
BRANCH  13  15
ATOM     15  O   UNL d   1       3.829  -4.962   1.804  0.00  0.00    -0.776 OA
ATOM     16  H   UNL d   1       3.295  -4.759   1.000  0.00  0.00     0.167 HD
ENDBRANCH  13  15
ENDBRANCH  12  13
ENDBRANCH  11  12
ENDBRANCH   8  11
ENDBRANCH   3   7
BRANCH   1  17
ATOM     17  C   UNL d   1       0.812   0.386  -0.045  0.00  0.00     0.417 C 
ATOM     18  F   UNL d   1       1.186  -0.430  -1.069  0.00  0.00    -0.166 F 
ATOM     19  F   UNL d   1       1.818   1.294   0.095  0.00  0.00    -0.166 F 
ATOM     20  F   UNL d   1      -0.263   1.088  -0.502  0.00  0.00    -0.166 F 
ENDBRANCH   1  17
TORSDOF 6
