REMARK  2 active torsions:
REMARK  status: ('A' for Active; 'I' for Inactive)
REMARK    1  A    between atoms: N_3  and  C_1 
REMARK       I    between atoms: C_7  and  N_3 
REMARK       I    between atoms: N_10  and  C_7 
REMARK    2  A    between atoms: C_9  and  N_10 
ROOT
ATOM      1  N   UNL d   1       1.359  -2.152   0.428  0.00  0.00    -0.293 N 
ATOM      2  C   UNL d   1       1.214  -3.515   0.224  0.00  0.00     0.326 C 
ATOM      3  N   UNL d   1      -0.137  -3.829   0.110  0.00  0.00    -0.308 N 
ATOM      4  O   UNL d   1       2.136  -4.312   0.149  0.00  0.00    -0.247 OA
ATOM      5  H   UNL d   1       0.647  -1.742   1.017  0.00  0.00     0.172 HD
ATOM      6  H   UNL d   1      -0.715  -3.066  -0.205  0.00  0.00     0.170 HD
ENDROOT
BRANCH   1   7
ATOM      7  C   UNL d   1       2.585  -1.503   0.421  0.00  0.00     0.127 A 
ATOM      8  N   UNL d   1       3.690  -1.760  -0.363  0.00  0.00    -0.281 N 
ATOM      9  N   UNL d   1       4.705  -0.890  -0.139  0.00  0.00    -0.302 N 
ATOM     10  C   UNL d   1       3.849  -2.669  -1.474  0.00  0.00     0.179 C 
ATOM     11  C   UNL d   1       4.234  -0.055   0.788  0.00  0.00     0.025 A 
ATOM     12  HN  UNL d   1       5.624  -0.877  -0.580  1.00  0.00     0.186 HD
ATOM     13  C   UNL d   1       2.918  -0.392   1.169  0.00  0.00     0.076 A 
ATOM     14  C   UNL d   1       5.067   1.070   1.276  0.00  0.00     0.070 C 
ENDBRANCH   1   7
BRANCH   3  15
ATOM     15  C   UNL d   1      -0.710  -5.122   0.129  0.00  0.00     0.045 A 
ATOM     16  C   UNL d   1      -0.014  -6.207   0.680  0.00  0.00     0.072 A 
ATOM     17  C   UNL d   1      -0.613  -7.458   0.770  0.00  0.00     0.118 A 
ATOM     18  F   UNL d   1       0.063  -8.477   1.317  0.00  0.00    -0.206 F 
ATOM     19  C   UNL d   1      -1.909  -7.665   0.324  0.00  0.00     0.043 A 
ATOM     20  C   UNL d   1      -2.612  -6.600  -0.232  0.00  0.00     0.012 A 
ATOM     21  C   UNL d   1      -2.025  -5.323  -0.350  0.00  0.00    -0.035 A 
ATOM     22  C   UNL d   1      -2.875  -4.243  -0.966  0.00  0.00     0.050 C 
ENDBRANCH   3  15
TORSDOF 2
