REMARK  5 active torsions:
REMARK  status: ('A' for Active; 'I' for Inactive)
REMARK    1  A    between atoms: C_17  and  N_3 
REMARK    2  A    between atoms: C_14  and  N_4 
REMARK    3  A    between atoms: S_20  and  C_10 
REMARK    4  A    between atoms: C_18  and  C_13 
REMARK    5  A    between atoms: C_15  and  C_14 
ROOT
ATOM      1  C   UNL d   1      -0.063  -1.308   0.226  0.00  0.00     0.158 A 
ATOM      2  C   UNL d   1      -0.459  -2.685   0.224  0.00  0.00     0.099 C 
ATOM      3  N   UNL d   1       1.067  -0.753   0.844  0.00  0.00    -0.274 N 
ATOM      4  N   UNL d   1      -1.046  -3.372  -0.816  0.00  0.00    -0.284 N 
ATOM      5  N   UNL d   1      -0.793  -0.348  -0.304  0.00  0.00    -0.281 N 
ATOM      6  HN  UNL d   1      -1.664  -0.478  -0.819  1.00  0.00     0.188 HD
ATOM      7  N   UNL d   1      -1.045  -4.713  -0.609  0.00  0.00    -0.301 N 
ATOM      8  HN  UNL d   1      -1.332  -5.442  -1.262  1.00  0.00     0.187 HD
ATOM      9  C   UNL d   1      -0.322  -3.620   1.232  0.00  0.00     0.062 C 
ATOM     10  C   UNL d   1       0.912   0.613   0.633  0.00  0.00     0.167 A 
ATOM     11  N   UNL d   1      -0.188   0.851  -0.045  0.00  0.00    -0.278 N 
ATOM     12  HN  UNL d   1      -0.530   1.768  -0.330  1.00  0.00     0.189 HD
ATOM     13  C   UNL d   1      -0.587  -4.872   0.638  0.00  0.00     0.036 C 
ENDROOT
BRANCH   4  14
ATOM     14  C   UNL d   1      -1.642  -2.857  -2.048  0.00  0.00     0.189 C 
BRANCH  14  15
ATOM     15  C   UNL d   1      -0.672  -2.884  -3.207  0.00  0.00    -0.017 A 
ATOM     16  C   UNL d   1      -0.528  -3.997  -4.058  0.00  0.00     0.043 A 
ATOM     17  C   UNL d   1       0.441  -4.002  -5.067  0.00  0.00     0.048 A 
ATOM     18 CL   UNL d   1      -1.545  -5.388  -3.941  0.00  0.00    -0.084 Cl
ATOM     19  C   UNL d   1       1.265  -2.899  -5.246  0.00  0.00     0.035 A 
ATOM     20  C   UNL d   1       1.110  -1.769  -4.446  0.00  0.00     0.024 A 
ATOM     21 CL   UNL d   1       2.478  -2.919  -6.464  0.00  0.00    -0.084 Cl
ATOM     22  C   UNL d   1       0.147  -1.762  -3.434  0.00  0.00     0.012 A 
ENDBRANCH  14  15
ENDBRANCH   4  14
BRANCH   3  23
ATOM     23  C   UNL d   1       2.143  -1.435   1.494  0.00  0.00     0.043 A 
ATOM     24  C   UNL d   1       2.612  -2.661   0.997  0.00  0.00     0.030 A 
ATOM     25  C   UNL d   1       3.646  -3.340   1.647  0.00  0.00     0.002 A 
ATOM     26  C   UNL d   1       4.246  -2.789   2.775  0.00  0.00     0.000 A 
ATOM     27  C   UNL d   1       3.800  -1.565   3.268  0.00  0.00     0.002 A 
ATOM     28  C   UNL d   1       2.744  -0.898   2.641  0.00  0.00     0.030 A 
ENDBRANCH   3  23
BRANCH  13  29
ATOM     29  C   UNL d   1      -0.321  -6.253   1.218  0.00  0.00    -0.007 C 
ATOM     30  C   UNL d   1      -0.306  -6.211   2.763  0.00  0.00     0.021 C 
ATOM     31  C   UNL d   1      -1.396  -7.266   0.781  0.00  0.00     0.021 C 
ATOM     32  C   UNL d   1       1.058  -6.757   0.743  0.00  0.00     0.021 C 
ENDBRANCH  13  29
BRANCH  10  33
ATOM     33  S   UNL d   1       2.111   1.818   1.003  0.00  0.00    -0.096 SA
ATOM     34  C   UNL d   1       1.249   3.345   0.591  0.00  0.00     0.099 C 
ENDBRANCH  10  33
TORSDOF 5
