REMARK  4 active torsions:
REMARK  status: ('A' for Active; 'I' for Inactive)
REMARK    1  A    between atoms: C_10  and  C_1 
REMARK    2  A    between atoms: C_2  and  C_9 
REMARK    3  A    between atoms: C_3  and  N_4 
REMARK    4  A    between atoms: N_8  and  C_10 
ROOT
ATOM      1  N   UNL d   1       0.906  -1.639   0.332  0.00  0.00    -0.364 N 
ATOM      2  N   UNL d   1      -1.606  -3.188   0.302  0.00  0.00     0.095 N 
ATOM      3  C   UNL d   1       0.016  -1.632   1.521  0.00  0.00     0.154 C 
ATOM      4  C   UNL d   1       0.530  -2.448  -0.844  0.00  0.00     0.154 C 
ATOM      5  C   UNL d   1      -0.472  -3.583  -0.556  0.00  0.00     0.292 C 
ATOM      6  C   UNL d   1      -0.997  -2.790   1.591  0.00  0.00     0.292 C 
ENDROOT
BRANCH   1   7
ATOM      7  C   UNL d   1       1.442  -0.357   0.097  0.00  0.00     0.103 A 
ATOM      8  C   UNL d   1       1.847   0.060  -1.170  0.00  0.00     0.064 A 
ATOM      9  C   UNL d   1       2.186   1.400  -1.411  0.00  0.00     0.052 A 
ATOM     10  C   UNL d   1       2.227   2.282  -0.336  0.00  0.00     0.033 A 
ATOM     11  C   UNL d   1       1.902   1.790   0.909  0.00  0.00     0.090 A 
ATOM     12  N   UNL d   1       1.509   0.516   1.130  0.00  0.00    -0.352 N 
ATOM     13  HN  UNL d   1       1.264   0.213   2.073  1.00  0.00     0.166 HD
BRANCH   9  14
ATOM     14  C   UNL d   1       2.474   1.872  -2.807  0.00  0.00     0.417 C 
ATOM     15  F   UNL d   1       1.958   1.053  -3.767  0.00  0.00    -0.166 F 
ATOM     16  F   UNL d   1       1.956   3.107  -3.061  0.00  0.00    -0.166 F 
ATOM     17  F   UNL d   1       3.806   1.961  -3.065  0.00  0.00    -0.166 F 
ENDBRANCH   9  14
ENDBRANCH   1   7
BRANCH   2  18
ATOM     18  C   UNL d   1      -2.393  -2.105  -0.337  0.00  0.00     0.313 C 
BRANCH  18  19
ATOM     19  C   UNL d   1      -3.553  -1.714   0.524  0.00  0.00    -0.002 A 
ATOM     20  C   UNL d   1      -4.702  -2.449   0.745  0.00  0.00     0.098 A 
ATOM     21  N   UNL d   1      -5.437  -1.810   1.702  0.00  0.00    -0.365 N 
ATOM     22  C   UNL d   1      -4.804  -0.661   2.110  0.00  0.00     0.043 A 
ATOM     23  H   UNL d   1      -6.308  -2.151   2.089  0.00  0.00     0.165 HD
ATOM     24  C   UNL d   1      -3.666  -0.523   1.316  0.00  0.00    -0.000 A 
ATOM     25  C   UNL d   1      -5.142   0.250   3.118  0.00  0.00     0.030 A 
ATOM     26  C   UNL d   1      -2.875   0.635   1.484  0.00  0.00     0.014 A 
ATOM     27  C   UNL d   1      -3.191   1.552   2.490  0.00  0.00     0.001 A 
ATOM     28  C   UNL d   1      -4.298   1.349   3.307  0.00  0.00     0.002 A 
ENDBRANCH  18  19
ENDBRANCH   2  18
TORSDOF 4
