REMARK  4 active torsions:
REMARK  status: ('A' for Active; 'I' for Inactive)
REMARK    1  A    between atoms: C_2  and  S_1 
REMARK    2  A    between atoms: N_4  and  S_1 
REMARK    3  A    between atoms: C_21  and  N_14 
REMARK    4  A    between atoms: C_22  and  C_21 
ROOT
ATOM      1  S   UNL d   1       1.656   0.111  -0.348  0.00  0.00     0.263 S 
ATOM      2  O   UNL d   1       1.508   1.082   0.724  0.00  0.00    -0.200 OA
ATOM      3  O   UNL d   1       2.915  -0.566  -0.555  0.00  0.00    -0.200 OA
ENDROOT
BRANCH   1   4
ATOM      4  C   UNL d   1       1.248   0.935  -1.849  0.00  0.00     0.109 A 
ATOM      5  C   UNL d   1       1.255   0.265  -3.094  0.00  0.00     0.090 A 
ATOM      6  N   UNL d   1       1.532  -1.026  -3.341  0.00  0.00    -0.309 N 
ATOM      7  C   UNL d   1       0.911   1.026  -4.355  0.00  0.00     0.068 A 
ATOM      8  S   UNL d   1       1.417  -1.247  -4.979  0.00  0.00     0.068 SA
ATOM      9  HN  UNL d   1       1.770  -1.737  -2.650  1.00  0.00     0.176 HD
ATOM     10  N   UNL d   1       0.962   0.273  -5.464  0.00  0.00    -0.310 N 
ATOM     11  HN  UNL d   1       0.761   0.575  -6.417  1.00  0.00     0.176 HD
ATOM     12  C   UNL d   1       0.571   2.400  -4.313  0.00  0.00     0.032 A 
ATOM     13  C   UNL d   1       0.581   3.007  -3.045  0.00  0.00     0.004 A 
ATOM     14  C   UNL d   1       0.909   2.307  -1.860  0.00  0.00     0.028 A 
ENDBRANCH   1   4
BRANCH   1  15
ATOM     15  N   UNL d   1       0.394  -1.010  -0.207  0.00  0.00    -0.303 N 
ATOM     16  C   UNL d   1      -0.866  -0.521   0.409  0.00  0.00     0.165 C 
ATOM     17  C   UNL d   1      -0.834  -0.712   1.943  0.00  0.00     0.293 C 
ATOM     18  N   UNL d   1      -0.594  -2.110   2.375  0.00  0.00     0.095 N 
ATOM     19  C   UNL d   1       0.657  -2.587   1.736  0.00  0.00     0.293 C 
ATOM     20  C   UNL d   1       0.738  -2.399   0.207  0.00  0.00     0.165 C 
BRANCH  18  21
ATOM     21  C   UNL d   1      -1.772  -2.945   2.079  0.00  0.00     0.311 C 
BRANCH  21  22
ATOM     22  C   UNL d   1      -1.664  -4.375   2.559  0.00  0.00    -0.030 A 
ATOM     23  C   UNL d   1      -1.448  -4.671   3.912  0.00  0.00     0.009 A 
ATOM     24  C   UNL d   1      -1.329  -5.996   4.334  0.00  0.00     0.001 A 
ATOM     25  C   UNL d   1      -1.436  -7.036   3.412  0.00  0.00     0.000 A 
ATOM     26  C   UNL d   1      -1.676  -6.754   2.068  0.00  0.00     0.001 A 
ATOM     27  C   UNL d   1      -1.793  -5.432   1.645  0.00  0.00     0.009 A 
ENDBRANCH  21  22
ENDBRANCH  18  21
ENDBRANCH   1  15
TORSDOF 4
