REMARK  8 active torsions:
REMARK  status: ('A' for Active; 'I' for Inactive)
REMARK    1  A    between atoms: C_2  and  S_1 
REMARK    2  A    between atoms: N_5  and  S_1 
REMARK    3  A    between atoms: O_9  and  C_3 
REMARK    4  A    between atoms: C_6  and  C_16 
REMARK    5  A    between atoms: C_7  and  C_18 
REMARK    6  A    between atoms: C_16  and  O_9 
REMARK    7  A    between atoms: O_15  and  C_14 
REMARK    8  A    between atoms: C_18  and  O_15 
ROOT
ATOM      1  C   UNL d   1       0.641   1.446   1.029  0.00  0.00     0.109 A 
ATOM      2  C   UNL d   1       0.947   2.793   0.745  0.00  0.00     0.115 A 
ATOM      3  C   UNL d   1       0.457   3.779   1.640  0.00  0.00     0.112 A 
ATOM      4  C   UNL d   1       0.813   5.168   1.535  0.00  0.00     0.105 C 
ATOM      5  C   UNL d   1      -0.119   1.096   2.155  0.00  0.00     0.030 A 
ATOM      6  N   UNL d   1       1.115   6.284   1.419  0.00  0.00    -0.191 NA
ATOM      7  C   UNL d   1      -0.382   3.417   2.724  0.00  0.00     0.092 A 
ATOM      8  C   UNL d   1      -0.628   2.073   2.996  0.00  0.00     0.040 A 
ENDROOT
BRANCH   2   9
ATOM      9  O   UNL d   1       1.767   3.015  -0.333  0.00  0.00    -0.339 OA
BRANCH   9  10
ATOM     10  C   UNL d   1       1.670   4.248  -1.068  0.00  0.00     0.293 C 
BRANCH  10  11
ATOM     11  C   UNL d   1       2.095   4.126  -2.534  0.00  0.00     0.408 C 
ATOM     12  F   UNL d   1       2.352   2.861  -2.915  0.00  0.00    -0.169 F 
ATOM     13  F   UNL d   1       1.126   4.611  -3.348  0.00  0.00    -0.169 F 
ATOM     14  F   UNL d   1       3.212   4.855  -2.771  0.00  0.00    -0.169 F 
ENDBRANCH  10  11
ENDBRANCH   9  10
ENDBRANCH   2   9
BRANCH   7  15
ATOM     15  O   UNL d   1      -0.913   4.439   3.476  0.00  0.00    -0.341 OA
BRANCH  15  16
ATOM     16  C   UNL d   1      -2.033   4.112   4.316  0.00  0.00     0.293 C 
BRANCH  16  17
ATOM     17  C   UNL d   1      -2.779   5.350   4.804  0.00  0.00     0.408 C 
ATOM     18  F   UNL d   1      -2.097   6.494   4.595  0.00  0.00    -0.169 F 
ATOM     19  F   UNL d   1      -3.977   5.463   4.185  0.00  0.00    -0.169 F 
ATOM     20  F   UNL d   1      -3.023   5.258   6.133  0.00  0.00    -0.169 F 
ENDBRANCH  16  17
ENDBRANCH  15  16
ENDBRANCH   7  15
BRANCH   1  21
ATOM     21  S   UNL d   1       1.083   0.073  -0.027  0.00  0.00     0.246 S 
ATOM     22  O   UNL d   1       1.511   0.550  -1.322  0.00  0.00    -0.206 OA
ATOM     23  O   UNL d   1      -0.007  -0.878   0.069  0.00  0.00    -0.206 OA
BRANCH  21  24
ATOM     24  N   UNL d   1       2.419  -0.591   0.797  0.00  0.00    -0.202 NA
ATOM     25  C   UNL d   1       3.706   0.171   0.712  0.00  0.00     0.134 C 
ATOM     26  C   UNL d   1       4.461  -0.134  -0.590  0.00  0.00     0.183 C 
ATOM     27  O   UNL d   1       4.674  -1.544  -0.755  0.00  0.00    -0.389 OA
ATOM     28  C   UNL d   1       3.421  -2.246  -0.779  0.00  0.00     0.183 C 
ATOM     29  C   UNL d   1       2.672  -2.045   0.539  0.00  0.00     0.134 C 
ENDBRANCH  21  24
ENDBRANCH   1  21
TORSDOF 8
