REMARK  3 active torsions:
REMARK  status: ('A' for Active; 'I' for Inactive)
REMARK       I    between atoms: C_2  and  N_1 
REMARK    1  A    between atoms: C_13  and  C_2 
REMARK    2  A    between atoms: O_14  and  C_8 
REMARK    3  A    between atoms: O_15  and  C_10 
ROOT
ATOM      1  N   UNL d   1      -2.497   0.488  -0.263  0.00  0.00    -0.339 N 
ATOM      2  C   UNL d   1      -3.491   0.974  -1.119  0.00  0.00     0.254 C 
ATOM      3  C   UNL d   1      -0.019   0.625   0.034  0.00  0.00    -0.026 A 
ATOM      4  C   UNL d   1      -1.357   1.368   0.050  0.00  0.00     0.117 C 
ATOM      5  C   UNL d   1       0.047  -0.776  -0.060  0.00  0.00    -0.045 A 
ATOM      6  C   UNL d   1       1.185   1.351   0.090  0.00  0.00     0.049 A 
ATOM      7  C   UNL d   1      -2.425  -0.858   0.309  0.00  0.00     0.131 C 
ATOM      8  C   UNL d   1       2.426   0.700   0.071  0.00  0.00     0.102 A 
ATOM      9  C   UNL d   1       1.290  -1.426  -0.098  0.00  0.00     0.047 A 
ATOM     10  C   UNL d   1       2.481  -0.701  -0.031  0.00  0.00     0.102 A 
ATOM     11  O   UNL d   1      -3.472   2.109  -1.588  0.00  0.00    -0.267 OA
ATOM     12  C   UNL d   1      -1.203  -1.599  -0.207  0.00  0.00     0.059 C 
ATOM     13  C   UNL d   1      -1.589   2.069   1.395  0.00  0.00     0.037 C 
ENDROOT
BRANCH   2  14
ATOM     14  C   UNL d   1      -4.596   0.087  -1.551  0.00  0.00     0.032 A 
ATOM     15  C   UNL d   1      -5.426  -0.570  -0.635  0.00  0.00     0.017 A 
ATOM     16  C   UNL d   1      -6.407  -1.453  -1.093  0.00  0.00     0.001 A 
ATOM     17  C   UNL d   1      -6.601  -1.632  -2.463  0.00  0.00     0.000 A 
ATOM     18  C   UNL d   1      -5.829  -0.917  -3.380  0.00  0.00     0.001 A 
ATOM     19  C   UNL d   1      -4.827  -0.058  -2.925  0.00  0.00     0.017 A 
ENDBRANCH   2  14
BRANCH   8  20
ATOM     20  O   UNL d   1       3.632   1.357   0.097  0.00  0.00    -0.353 OA
ATOM     21  C   UNL d   1       3.643   2.632   0.725  0.00  0.00     0.210 C 
ENDBRANCH   8  20
BRANCH  10  22
ATOM     22  O   UNL d   1       3.732  -1.266  -0.056  0.00  0.00    -0.353 OA
ATOM     23  C   UNL d   1       3.807  -2.684  -0.118  0.00  0.00     0.210 C 
ENDBRANCH  10  22
TORSDOF 3
