REMARK  4 active torsions:
REMARK  status: ('A' for Active; 'I' for Inactive)
REMARK    1  A    between atoms: N_9  and  C_2 
REMARK    2  A    between atoms: C_12  and  N_9 
REMARK    3  A    between atoms: C_13  and  C_12 
REMARK    4  A    between atoms: C_14  and  C_13 
ROOT
ATOM      1  S   UNL d   1       1.666  -0.640   0.641  0.00  0.00    -0.034 SA
ATOM      2  C   UNL d   1       2.057   0.893  -0.044  0.00  0.00     0.147 A 
ATOM      3  N   UNL d   1       1.028   1.585  -0.496  0.00  0.00    -0.334 N 
ATOM      4  HN  UNL d   1       1.081   2.523  -0.892  1.00  0.00     0.168 HD
ATOM      5  C   UNL d   1       0.025  -0.378   0.284  0.00  0.00     0.104 A 
ATOM      6  C   UNL d   1      -0.131   0.847  -0.354  0.00  0.00     0.068 A 
ATOM      7  N   UNL d   1      -0.949  -1.275   0.571  0.00  0.00    -0.358 N 
ATOM      8  HN  UNL d   1      -0.776  -2.155   1.056  1.00  0.00     0.166 HD
ATOM      9  C   UNL d   1      -1.423   1.193  -0.781  0.00  0.00     0.034 A 
ATOM     10  C   UNL d   1      -2.174  -0.885   0.149  0.00  0.00     0.089 A 
ATOM     11  C   UNL d   1      -2.459   0.295  -0.525  0.00  0.00     0.019 A 
ENDROOT
BRANCH   2  12
ATOM     12  N   UNL d   1       3.336   1.324  -0.095  0.00  0.00    -0.370 N 
ATOM     13  H   UNL d   1       4.047   0.731   0.321  0.00  0.00     0.161 HD
BRANCH  12  14
ATOM     14  C   UNL d   1       3.579   2.758  -0.036  0.00  0.00     0.121 C 
BRANCH  14  15
ATOM     15  C   UNL d   1       5.082   3.039  -0.015  0.00  0.00     0.019 C 
BRANCH  15  16
ATOM     16  C   UNL d   1       5.364   4.542   0.003  0.00  0.00    -0.003 C 
ATOM     17  C   UNL d   1       6.857   4.833   0.008  0.00  0.00     0.005 C 
ENDBRANCH  15  16
ENDBRANCH  14  15
ENDBRANCH  12  14
ENDBRANCH   2  12
TORSDOF 4
