REMARK  4 active torsions:
REMARK  status: ('A' for Active; 'I' for Inactive)
REMARK    1  A    between atoms: S_10  and  C_3 
REMARK    2  A    between atoms: N_11  and  C_4 
REMARK    3  A    between atoms: C_12  and  S_10 
REMARK    4  A    between atoms: C_14  and  C_12 
ROOT
ATOM      1  N   UNL d   1      -0.210  -1.280   0.013  0.00  0.00    -0.313 N 
ATOM      2  HN  UNL d   1      -0.662  -2.195   0.027  1.00  0.00     0.170 HD
ATOM      3  C   UNL d   1       1.112  -1.135  -0.060  0.00  0.00     0.147 A 
ATOM      4  C   UNL d   1      -0.892  -0.145   0.064  0.00  0.00     0.157 A 
ATOM      5  N   UNL d   1       1.753   0.030  -0.105  0.00  0.00    -0.333 N 
ATOM      6  HN  UNL d   1       2.769   0.100  -0.166  1.00  0.00     0.168 HD
ATOM      7  N   UNL d   1      -0.364   1.067   0.013  0.00  0.00    -0.329 N 
ATOM      8  HN  UNL d   1      -0.930   1.915   0.031  1.00  0.00     0.169 HD
ATOM      9  C   UNL d   1       0.961   1.091  -0.065  0.00  0.00     0.184 A 
ENDROOT
BRANCH   3  10
ATOM     10  S   UNL d   1       2.151  -2.575  -0.116  0.00  0.00    -0.089 SA
BRANCH  10  11
ATOM     11  C   UNL d   1       0.911  -3.901  -0.024  0.00  0.00     0.121 C 
BRANCH  11  12
ATOM     12  C   UNL d   1       1.580  -5.258  -0.065  0.00  0.00    -0.048 A 
ATOM     13  C   UNL d   1       1.978  -5.893   1.122  0.00  0.00     0.009 A 
ATOM     14  C   UNL d   1       2.635  -7.126   1.082  0.00  0.00     0.024 A 
ATOM     15  C   UNL d   1       2.901  -7.728  -0.145  0.00  0.00     0.034 A 
ATOM     16  C   UNL d   1       2.517  -7.110  -1.333  0.00  0.00     0.024 A 
ATOM     17 CL   UNL d   1       3.719  -9.242  -0.196  0.00  0.00    -0.084 Cl
ATOM     18  C   UNL d   1       1.860  -5.878  -1.293  0.00  0.00     0.009 A 
ENDBRANCH  11  12
ENDBRANCH  10  11
ENDBRANCH   3  10
BRANCH   4  19
ATOM     19  N   UNL d   1      -2.267  -0.225   0.142  0.00  0.00    -0.274 NA
ATOM     20  H   UNL d   1      -2.607  -1.093  -0.244  0.00  0.00     0.127 HD
ATOM     21  H   UNL d   1      -2.689   0.630  -0.196  0.00  0.00     0.127 HD
ENDBRANCH   4  19
TORSDOF 4
