REMARK  7 active torsions:
REMARK  status: ('A' for Active; 'I' for Inactive)
REMARK    1  A    between atoms: C_2  and  C_1 
REMARK       I    between atoms: N_5  and  C_2 
REMARK    2  A    between atoms: C_4  and  C_3 
REMARK    3  A    between atoms: O_11  and  C_4 
REMARK    4  A    between atoms: C_8  and  N_5 
REMARK    5  A    between atoms: C_9  and  C_8 
REMARK    6  A    between atoms: C_10  and  C_9 
REMARK    7  A    between atoms: O_12  and  C_9 
ROOT
ATOM      1  C   UNL d   1       4.022   0.204   1.810  0.00  0.00     0.252 C 
ATOM      2  N   UNL d   1       3.625   0.671   0.584  0.00  0.00    -0.354 N 
ATOM      3  O   UNL d   1       4.297   0.939   2.753  0.00  0.00    -0.268 OA
ATOM      4  H   UNL d   1       3.294   0.017  -0.122  0.00  0.00     0.162 HD
ENDROOT
BRANCH   1   5
ATOM      5  C   UNL d   1       4.201  -1.271   1.966  0.00  0.00     0.048 A 
ATOM      6  C   UNL d   1       3.351  -2.267   1.464  0.00  0.00     0.053 A 
ATOM      7  C   UNL d   1       3.658  -3.627   1.673  0.00  0.00     0.019 A 
ATOM      8  C   UNL d   1       4.778  -3.995   2.416  0.00  0.00     0.001 A 
ATOM      9  C   UNL d   1       5.604  -3.012   2.952  0.00  0.00     0.001 A 
ATOM     10  C   UNL d   1       5.318  -1.662   2.728  0.00  0.00     0.018 A 
BRANCH   6  11
ATOM     11  C   UNL d   1       2.124  -1.975   0.699  0.00  0.00     0.177 C 
ATOM     12  O   UNL d   1       2.107  -1.258  -0.288  0.00  0.00    -0.646 OA
BRANCH  11  13
ATOM     13  O   UNL d   1       1.039  -2.626   1.168  0.00  0.00    -0.773 OA
ATOM     14  H   UNL d   1       1.171  -3.120   2.001  0.00  0.00     0.167 HD
ENDBRANCH  11  13
ENDBRANCH   6  11
ENDBRANCH   1   5
BRANCH   2  15
ATOM     15  C   UNL d   1       3.377   2.079   0.330  0.00  0.00     0.159 C 
BRANCH  15  16
ATOM     16  C   UNL d   1       4.626   2.981   0.258  0.00  0.00     0.169 C 
BRANCH  16  17
ATOM     17  C   UNL d   1       5.657   2.570  -0.783  0.00  0.00    -0.028 A 
ATOM     18  C   UNL d   1       5.331   2.429  -2.141  0.00  0.00     0.010 A 
ATOM     19  C   UNL d   1       6.312   2.095  -3.080  0.00  0.00     0.001 A 
ATOM     20  C   UNL d   1       7.629   1.891  -2.675  0.00  0.00     0.000 A 
ATOM     21  C   UNL d   1       7.968   2.023  -1.331  0.00  0.00     0.001 A 
ATOM     22  C   UNL d   1       6.991   2.363  -0.393  0.00  0.00     0.010 A 
ENDBRANCH  16  17
BRANCH  16  23
ATOM     23  O   UNL d   1       4.186   4.322  -0.015  0.00  0.00    -0.389 OA
ATOM     24  H   UNL d   1       4.370   4.514  -0.949  0.00  0.00     0.210 HD
ENDBRANCH  16  23
ENDBRANCH  15  16
ENDBRANCH   2  15
TORSDOF 7
