REMARK  5 active torsions:
REMARK  status: ('A' for Active; 'I' for Inactive)
REMARK    1  A    between atoms: C_5  and  C_3 
REMARK    2  A    between atoms: C_7  and  C_5 
REMARK    3  A    between atoms: C_6  and  N_10 
REMARK    4  A    between atoms: N_10  and  C_8 
REMARK    5  A    between atoms: O_16  and  C_13 
ROOT
ATOM      1  N   UNL d   1       2.406   2.514   1.999  0.00  0.00    -0.191 NA
ATOM      2  C   UNL d   1       1.913   1.752   1.275  0.00  0.00     0.102 C 
ATOM      3  C   UNL d   1       1.313   0.821   0.362  0.00  0.00     0.071 A 
ATOM      4  C   UNL d   1       0.110   1.124  -0.313  0.00  0.00     0.052 A 
ATOM      5  C   UNL d   1       1.957  -0.414   0.164  0.00  0.00     0.025 A 
ATOM      6  C   UNL d   1      -0.412   0.141  -1.175  0.00  0.00     0.031 A 
ATOM      7  C   UNL d   1       1.418  -1.363  -0.702  0.00  0.00     0.002 A 
ATOM      8  C   UNL d   1       0.235  -1.083  -1.373  0.00  0.00     0.002 A 
ENDROOT
BRANCH   4   9
ATOM      9  N   UNL d   1      -0.592   2.330  -0.073  0.00  0.00    -0.365 N 
ATOM     10  H   UNL d   1      -0.046   3.113   0.279  0.00  0.00     0.165 HD
BRANCH   9  11
ATOM     11  C   UNL d   1      -1.934   2.560  -0.261  0.00  0.00     0.092 C 
ATOM     12  C   UNL d   1      -2.587   3.729  -0.182  0.00  0.00     0.072 C 
BRANCH  12  13
ATOM     13  C   UNL d   1      -4.065   3.739  -0.374  0.00  0.00     0.183 C 
ATOM     14  O   UNL d   1      -4.734   2.713  -0.313  0.00  0.00    -0.288 OA
BRANCH  13  15
ATOM     15  C   UNL d   1      -4.736   5.047  -0.602  0.00  0.00     0.014 A 
ATOM     16  C   UNL d   1      -4.114   6.095  -1.290  0.00  0.00     0.018 A 
ATOM     17  C   UNL d   1      -4.791   7.304  -1.493  0.00  0.00     0.037 A 
ATOM     18  C   UNL d   1      -6.090   7.472  -1.010  0.00  0.00     0.068 A 
ATOM     19  C   UNL d   1      -6.726   6.412  -0.363  0.00  0.00     0.037 A 
ATOM     20  C   UNL d   1      -6.054   5.204  -0.157  0.00  0.00     0.018 A 
BRANCH  18  21
ATOM     21  O   UNL d   1      -6.843   8.604  -1.158  0.00  0.00    -0.356 OA
ATOM     22  C   UNL d   1      -6.110   9.824  -1.214  0.00  0.00     0.210 C 
ENDBRANCH  18  21
ENDBRANCH  13  15
ENDBRANCH  12  13
ENDBRANCH   9  11
ENDBRANCH   4   9
TORSDOF 5
