REMARK  7 active torsions:
REMARK  status: ('A' for Active; 'I' for Inactive)
REMARK    1  A    between atoms: C_10  and  N_1 
REMARK    2  A    between atoms: C_7  and  C_2 
REMARK    3  A    between atoms: C_11  and  N_5 
REMARK       I    between atoms: N_8  and  C_7 
REMARK       I    between atoms: C_9  and  N_8 
REMARK    4  A    between atoms: O_22  and  C_9 
REMARK    5  A    between atoms: C_21  and  C_10 
REMARK    6  A    between atoms: C_12  and  C_11 
REMARK    7  A    between atoms: C_29  and  O_22 
ROOT
ATOM      1  N   UNL d   1      -0.765   1.169   0.142  0.00  0.00    -0.261 N 
ATOM      2  C   UNL d   1       1.398   0.055   0.081  0.00  0.00     0.116 C 
ATOM      3  C   UNL d   1      -1.447  -0.039   0.029  0.00  0.00     0.332 C 
ATOM      4  C   UNL d   1       0.588   1.242   0.418  0.00  0.00     0.269 C 
ATOM      5  N   UNL d   1      -0.638  -1.169  -0.095  0.00  0.00    -0.304 N 
ATOM      6  C   UNL d   1       0.740  -1.086  -0.147  0.00  0.00     0.118 C 
ATOM      7  O   UNL d   1      -2.676  -0.112   0.064  0.00  0.00    -0.246 OA
ATOM      8  O   UNL d   1       1.138   2.220   0.926  0.00  0.00    -0.267 OA
ENDROOT
BRANCH   2   9
ATOM      9  C   UNL d   1       2.891   0.047   0.037  0.00  0.00     0.266 C 
ATOM     10  N   UNL d   1       3.480   1.147   0.613  0.00  0.00    -0.269 N 
ATOM     11  C   UNL d   1       4.816   1.419   0.662  0.00  0.00     0.367 C 
ATOM     12  H   UNL d   1       2.895   1.859   1.041  0.00  0.00     0.174 HD
ATOM     13  O   UNL d   1       5.723   0.779   0.152  0.00  0.00    -0.238 OA
ATOM     14  O   UNL d   1       3.488  -0.899  -0.464  0.00  0.00    -0.267 OA
BRANCH  11  15
ATOM     15  O   UNL d   1       4.989   2.563   1.377  0.00  0.00    -0.304 OA
BRANCH  15  16
ATOM     16  C   UNL d   1       6.345   3.017   1.510  0.00  0.00     0.176 C 
ATOM     17  C   UNL d   1       7.043   2.295   2.647  0.00  0.00     0.034 C 
ENDBRANCH  15  16
ENDBRANCH  11  15
ENDBRANCH   2   9
BRANCH   1  18
ATOM     18  C   UNL d   1      -1.534   2.407   0.210  0.00  0.00     0.175 C 
BRANCH  18  19
ATOM     19  C   UNL d   1      -1.404   3.208  -1.075  0.00  0.00    -0.040 A 
ATOM     20  C   UNL d   1      -2.332   3.039  -2.114  0.00  0.00     0.010 A 
ATOM     21  C   UNL d   1      -2.187   3.742  -3.314  0.00  0.00     0.024 A 
ATOM     22  C   UNL d   1      -1.110   4.609  -3.488  0.00  0.00     0.034 A 
ATOM     23  C   UNL d   1      -0.181   4.789  -2.467  0.00  0.00     0.024 A 
ATOM     24 CL   UNL d   1      -0.919   5.453  -4.976  0.00  0.00    -0.084 Cl
ATOM     25  C   UNL d   1      -0.330   4.093  -1.264  0.00  0.00     0.010 A 
ENDBRANCH  18  19
ENDBRANCH   1  18
BRANCH   5  26
ATOM     26  C   UNL d   1      -1.266  -2.498  -0.097  0.00  0.00     0.179 C 
BRANCH  26  27
ATOM     27  C   UNL d   1      -1.210  -3.061   1.299  0.00  0.00     0.001 A 
ATOM     28  S   UNL d   1       0.065  -4.111   1.765  0.00  0.00    -0.105 SA
ATOM     29  C   UNL d   1      -0.504  -4.196   3.374  0.00  0.00     0.050 A 
ATOM     30  C   UNL d   1      -1.667  -3.482   3.548  0.00  0.00     0.008 A 
ATOM     31  C   UNL d   1      -2.083  -2.836   2.347  0.00  0.00     0.017 A 
ENDBRANCH  26  27
ENDBRANCH   5  26
TORSDOF 7
