REMARK  9 active torsions:
REMARK  status: ('A' for Active; 'I' for Inactive)
REMARK    1  A    between atoms: N_2  and  S_1 
REMARK    2  A    between atoms: C_3  and  S_1 
REMARK    3  A    between atoms: C_6  and  N_2 
REMARK    4  A    between atoms: C_21  and  N_2 
REMARK    5  A    between atoms: O_12  and  C_5 
REMARK    6  A    between atoms: C_10  and  C_6 
REMARK    7  A    between atoms: C_22  and  O_12 
REMARK    8  A    between atoms: O_23  and  C_14 
REMARK    9  A    between atoms: C_20  and  C_21 
ROOT
ATOM      1  N   UNL d   1       2.856   3.097   4.003  0.00  0.00    -0.197 NA
ATOM      2  C   UNL d   1       2.815   2.364   3.103  0.00  0.00     0.060 C 
ATOM      3  C   UNL d   1       2.716   1.410   1.997  0.00  0.00     0.139 C 
ENDROOT
BRANCH   3   4
ATOM      4  C   UNL d   1       2.487   2.113   0.659  0.00  0.00     0.122 C 
BRANCH   4   5
ATOM      5  N   UNL d   1       2.373   1.159  -0.537  0.00  0.00    -0.200 NA
BRANCH   5   6
ATOM      6  S   UNL d   1       0.978   0.140  -0.356  0.00  0.00     0.244 S 
ATOM      7  O   UNL d   1      -0.183   0.999  -0.413  0.00  0.00    -0.206 OA
ATOM      8  O   UNL d   1       1.215  -0.692   0.804  0.00  0.00    -0.206 OA
BRANCH   6   9
ATOM      9  C   UNL d   1       0.879  -0.977  -1.728  0.00  0.00     0.077 A 
ATOM     10  C   UNL d   1       1.047  -2.339  -1.460  0.00  0.00     0.064 A 
ATOM     11  C   UNL d   1       0.733  -3.319  -2.407  0.00  0.00     0.104 A 
ATOM     12  C   UNL d   1       0.202  -2.909  -3.641  0.00  0.00     0.101 A 
ATOM     13  C   UNL d   1       0.049  -1.534  -3.906  0.00  0.00     0.041 A 
ATOM     14  C   UNL d   1       0.362  -0.567  -2.951  0.00  0.00     0.028 A 
BRANCH  11  15
ATOM     15  O   UNL d   1       0.887  -4.654  -2.122  0.00  0.00    -0.343 OA
BRANCH  15  16
ATOM     16  C   UNL d   1       1.885  -5.014  -1.159  0.00  0.00     0.129 C 
ATOM     17  C   UNL d   1       3.297  -4.677  -1.638  0.00  0.00     0.032 C 
ATOM     18  C   UNL d   1       4.217  -5.718  -1.020  0.00  0.00     0.002 C 
ATOM     19  C   UNL d   1       3.323  -6.828  -0.481  0.00  0.00     0.002 C 
ATOM     20  C   UNL d   1       1.919  -6.530  -0.990  0.00  0.00     0.032 C 
ENDBRANCH  15  16
ENDBRANCH  11  15
BRANCH  12  21
ATOM     21  O   UNL d   1      -0.209  -3.680  -4.695  0.00  0.00    -0.353 OA
ATOM     22  C   UNL d   1      -0.362  -5.075  -4.488  0.00  0.00     0.210 C 
ENDBRANCH  12  21
ENDBRANCH   6   9
ENDBRANCH   5   6
BRANCH   5  23
ATOM     23  C   UNL d   1       2.337   1.941  -1.823  0.00  0.00     0.172 C 
BRANCH  23  24
ATOM     24  C   UNL d   1       3.529   2.829  -1.993  0.00  0.00     0.066 A 
ATOM     25  O   UNL d   1       3.270   4.168  -2.079  0.00  0.00    -0.326 OA
ATOM     26  C   UNL d   1       4.465   4.798  -2.239  0.00  0.00     0.142 A 
ATOM     27  C   UNL d   1       5.495   3.890  -2.252  0.00  0.00     0.027 A 
ATOM     28  C   UNL d   1       4.886   2.611  -2.099  0.00  0.00     0.036 A 
ENDBRANCH  23  24
ENDBRANCH   5  23
ENDBRANCH   4   5
ENDBRANCH   3   4
TORSDOF 9
