REMARK  6 active torsions:
REMARK  status: ('A' for Active; 'I' for Inactive)
REMARK       I    between atoms: N_6  and  C_1 
REMARK       I    between atoms: N_7  and  C_1 
REMARK    1  A    between atoms: N_2  and  N_7 
REMARK    2  A    between atoms: N_4  and  N_6 
REMARK    3  A    between atoms: C_11  and  C_9 
REMARK    4  A    between atoms: C_12  and  C_10 
REMARK    5  A    between atoms: O_23  and  C_13 
REMARK    6  A    between atoms: O_24  and  C_14 
ROOT
ATOM      1  C   UNL d   1       0.949  -0.010   0.023  0.00  0.00     0.353 C 
ATOM      2  N   UNL d   1       0.276   1.211   0.120  0.00  0.00    -0.251 N 
ATOM      3  N   UNL d   1       0.054  -1.079  -0.038  0.00  0.00    -0.251 N 
ATOM      4  O   UNL d   1       2.172  -0.126  -0.011  0.00  0.00    -0.244 OA
ATOM      5  H   UNL d   1      -0.731   1.245   0.168  0.00  0.00     0.191 HD
ATOM      6  H   UNL d   1      -0.938  -0.915   0.024  0.00  0.00     0.191 HD
ENDROOT
BRANCH   2   7
ATOM      7  N   UNL d   1       0.991   2.370   0.182  0.00  0.00    -0.307 N 
ATOM      8  C   UNL d   1       0.319   3.473   0.266  0.00  0.00     0.118 C 
ATOM      9  HN  UNL d   1       2.011   2.368   0.163  1.00  0.00     0.186 HD
BRANCH   8  10
ATOM     10  C   UNL d   1       1.012   4.779   0.334  0.00  0.00    -0.019 A 
ATOM     11  C   UNL d   1       2.410   4.835   0.322  0.00  0.00     0.015 A 
ATOM     12  C   UNL d   1       3.057   6.070   0.375  0.00  0.00     0.037 A 
ATOM     13  C   UNL d   1       2.307   7.238   0.439  0.00  0.00     0.065 A 
ATOM     14  C   UNL d   1       0.914   7.194   0.458  0.00  0.00     0.037 A 
ATOM     15  C   UNL d   1       0.261   5.958   0.405  0.00  0.00     0.015 A 
BRANCH  13  16
ATOM     16  O   UNL d   1       2.983   8.421   0.478  0.00  0.00    -0.361 OA
ATOM     17  H   UNL d   1       2.346   9.152   0.470  0.00  0.00     0.217 HD
ENDBRANCH  13  16
ENDBRANCH   8  10
ENDBRANCH   2   7
BRANCH   3  18
ATOM     18  N   UNL d   1       0.518  -2.363  -0.107  0.00  0.00    -0.307 N 
ATOM     19  C   UNL d   1      -0.388  -3.286  -0.155  0.00  0.00     0.118 C 
ATOM     20  HN  UNL d   1       1.514  -2.580  -0.119  1.00  0.00     0.186 HD
BRANCH  19  21
ATOM     21  C   UNL d   1      -0.044  -4.723  -0.197  0.00  0.00    -0.019 A 
ATOM     22  C   UNL d   1       1.288  -5.147  -0.197  0.00  0.00     0.015 A 
ATOM     23  C   UNL d   1       1.579  -6.513  -0.189  0.00  0.00     0.037 A 
ATOM     24  C   UNL d   1       0.542  -7.441  -0.182  0.00  0.00     0.065 A 
ATOM     25  C   UNL d   1      -0.787  -7.028  -0.200  0.00  0.00     0.037 A 
ATOM     26  C   UNL d   1      -1.083  -5.662  -0.208  0.00  0.00     0.015 A 
BRANCH  24  27
ATOM     27  O   UNL d   1       0.874  -8.763  -0.150  0.00  0.00    -0.361 OA
ATOM     28  H   UNL d   1       0.061  -9.290  -0.087  0.00  0.00     0.217 HD
ENDBRANCH  24  27
ENDBRANCH  19  21
ENDBRANCH   3  18
TORSDOF 6
