REMARK  6 active torsions:
REMARK  status: ('A' for Active; 'I' for Inactive)
REMARK    1  A    between atoms: C_5  and  C_1 
REMARK    2  A    between atoms: C_8  and  C_2 
REMARK    3  A    between atoms: O_15  and  C_8 
REMARK    4  A    between atoms: N_9  and  O_15 
REMARK    5  A    between atoms: C_11  and  C_12 
REMARK    6  A    between atoms: C_17  and  C_11 
ROOT
ATOM      1  C   UNL d   1      -1.275  -0.849   0.037  0.00  0.00     0.085 A 
ATOM      2  C   UNL d   1       0.059  -1.374  -0.084  0.00  0.00     0.102 A 
ATOM      3  N   UNL d   1      -1.223   0.480   0.216  0.00  0.00    -0.259 N 
ATOM      4  HN  UNL d   1      -2.017   1.105   0.357  1.00  0.00     0.195 HD
ATOM      5  O   UNL d   1       0.099   0.840   0.173  0.00  0.00    -0.241 OA
ATOM      6  C   UNL d   1       0.872  -0.262   0.013  0.00  0.00     0.091 A 
ATOM      7  C   UNL d   1       2.322   0.009  -0.039  0.00  0.00     0.080 C 
ENDROOT
BRANCH   2   8
ATOM      8  C   UNL d   1       0.463  -2.748  -0.282  0.00  0.00     0.320 C 
ATOM      9  O   UNL d   1      -0.249  -3.560  -0.867  0.00  0.00    -0.257 OA
BRANCH   8  10
ATOM     10  O   UNL d   1       1.675  -3.046   0.312  0.00  0.00    -0.195 OA
BRANCH  10  11
ATOM     11  N   UNL d   1       1.933  -4.427   0.175  0.00  0.00    -0.265 N 
ATOM     12  C   UNL d   1       3.047  -4.746   0.739  0.00  0.00     0.170 C 
ATOM     13  HN  UNL d   1       1.320  -5.084  -0.307  1.00  0.00     0.194 HD
BRANCH  12  14
ATOM     14  C   UNL d   1       3.521  -6.169   0.681  0.00  0.00     0.199 C 
ATOM     15  O   UNL d   1       4.718  -6.352   0.502  0.00  0.00    -0.286 OA
BRANCH  14  16
ATOM     16  C   UNL d   1       2.562  -7.290   0.826  0.00  0.00     0.015 A 
ATOM     17  C   UNL d   1       2.838  -8.498   0.174  0.00  0.00     0.015 A 
ATOM     18  C   UNL d   1       1.944  -9.566   0.272  0.00  0.00     0.001 A 
ATOM     19  C   UNL d   1       0.785  -9.438   1.036  0.00  0.00     0.000 A 
ATOM     20  C   UNL d   1       0.518  -8.242   1.703  0.00  0.00     0.001 A 
ATOM     21  C   UNL d   1       1.402  -7.166   1.599  0.00  0.00     0.015 A 
ENDBRANCH  14  16
ENDBRANCH  12  14
ENDBRANCH  10  11
ENDBRANCH   8  10
ENDBRANCH   2   8
BRANCH   1  22
ATOM     22  C   UNL d   1      -2.564  -1.558   0.096  0.00  0.00     0.015 A 
ATOM     23  C   UNL d   1      -3.744  -1.074  -0.503  0.00  0.00     0.046 A 
ATOM     24 CL   UNL d   1      -3.801   0.349  -1.489  0.00  0.00    -0.083 Cl
ATOM     25  C   UNL d   1      -4.956  -1.765  -0.350  0.00  0.00     0.025 A 
ATOM     26  C   UNL d   1      -5.011  -2.954   0.375  0.00  0.00     0.002 A 
ATOM     27  C   UNL d   1      -3.853  -3.455   0.957  0.00  0.00     0.001 A 
ATOM     28  C   UNL d   1      -2.649  -2.757   0.833  0.00  0.00     0.015 A 
ENDBRANCH   1  22
TORSDOF 6
