REMARK  7 active torsions:
REMARK  status: ('A' for Active; 'I' for Inactive)
REMARK    1  A    between atoms: C_9  and  N_1 
REMARK    2  A    between atoms: C_7  and  N_10 
REMARK    3  A    between atoms: N_13  and  C_7 
REMARK    4  A    between atoms: C_8  and  C_9 
REMARK       I    between atoms: N_11  and  C_8 
REMARK    5  A    between atoms: N_10  and  N_11 
REMARK    6  A    between atoms: C_15  and  N_13 
REMARK    7  A    between atoms: C_16  and  C_15 
ROOT
ATOM      1  C   UNL d   1       1.656  -2.625   2.360  0.00  0.00     0.254 C 
ATOM      2  N   UNL d   1       2.261  -1.511   2.920  0.00  0.00    -0.266 N 
ATOM      3  O   UNL d   1       2.142  -3.754   2.477  0.00  0.00    -0.270 OA
ATOM      4  H   UNL d   1       1.920  -0.575   2.733  0.00  0.00     0.190 HD
ENDROOT
BRANCH   1   5
ATOM      5  C   UNL d   1       0.283  -2.379   1.689  0.00  0.00     0.234 C 
BRANCH   5   6
ATOM      6  N   UNL d   1       0.323  -1.573   0.434  0.00  0.00    -0.336 N 
ATOM      7  C   UNL d   1       1.041  -2.192  -0.620  0.00  0.00     0.052 A 
ATOM      8  C   UNL d   1       2.230  -1.640  -1.130  0.00  0.00     0.032 A 
ATOM      9  C   UNL d   1       0.514  -3.341  -1.240  0.00  0.00     0.031 A 
ATOM     10  C   UNL d   1       2.940  -2.315  -2.134  0.00  0.00     0.021 A 
ATOM     11  S   UNL d   1       2.860  -0.072  -0.548  0.00  0.00    -0.086 SA
ATOM     12  C   UNL d   1       2.428  -3.484  -2.702  0.00  0.00     0.002 A 
ATOM     13  C   UNL d   1       1.196  -3.973  -2.283  0.00  0.00     0.002 A 
ATOM     14  C   UNL d   1       1.386   0.637   0.182  0.00  0.00     0.032 A 
ATOM     15  C   UNL d   1       0.327  -0.172   0.634  0.00  0.00     0.052 A 
ATOM     16  C   UNL d   1       1.329   2.026   0.360  0.00  0.00     0.021 A 
ATOM     17  C   UNL d   1      -0.785   0.445   1.235  0.00  0.00     0.031 A 
ATOM     18  C   UNL d   1      -0.835   1.828   1.409  0.00  0.00     0.002 A 
ATOM     19  C   UNL d   1       0.224   2.618   0.974  0.00  0.00     0.002 A 
ENDBRANCH   5   6
ENDBRANCH   1   5
BRANCH   2  20
ATOM     20  N   UNL d   1       3.539  -1.601   3.537  0.00  0.00    -0.274 N 
ATOM     21  H   UNL d   1       3.904  -2.550   3.605  0.00  0.00     0.189 HD
BRANCH  20  22
ATOM     22  C   UNL d   1       3.930  -0.647   4.485  0.00  0.00     0.186 C 
ATOM     23  S   UNL d   1       2.899   0.536   5.073  0.00  0.00    -0.040 SA
BRANCH  22  24
ATOM     24  N   UNL d   1       5.267  -0.769   4.831  0.00  0.00    -0.362 N 
ATOM     25  H   UNL d   1       5.821  -1.425   4.297  0.00  0.00     0.162 HD
BRANCH  24  26
ATOM     26  C   UNL d   1       6.012   0.024   5.823  0.00  0.00     0.160 C 
BRANCH  26  27
ATOM     27  C   UNL d   1       6.913   1.122   5.288  0.00  0.00    -0.041 A 
ATOM     28  C   UNL d   1       6.838   1.614   3.978  0.00  0.00     0.009 A 
ATOM     29  C   UNL d   1       7.672   2.661   3.559  0.00  0.00     0.001 A 
ATOM     30  C   UNL d   1       8.577   3.245   4.436  0.00  0.00     0.000 A 
ATOM     31  C   UNL d   1       8.661   2.781   5.744  0.00  0.00     0.001 A 
ATOM     32  C   UNL d   1       7.835   1.733   6.165  0.00  0.00     0.009 A 
ENDBRANCH  26  27
ENDBRANCH  24  26
ENDBRANCH  22  24
ENDBRANCH  20  22
ENDBRANCH   2  20
TORSDOF 7
