REMARK  4 active torsions:
REMARK  status: ('A' for Active; 'I' for Inactive)
REMARK       I    between atoms: N_3  and  C_1 
REMARK       I    between atoms: N_4  and  C_1 
REMARK    1  A    between atoms: N_2  and  C_5 
REMARK    2  A    between atoms: C_13  and  N_3 
REMARK    3  A    between atoms: C_14  and  N_4 
REMARK    4  A    between atoms: C_6  and  C_7 
ROOT
ATOM      1  C   UNL d   1       1.121  -0.063   0.081  0.00  0.00     0.325 C 
ATOM      2  N   UNL d   1       0.528  -1.242   0.501  0.00  0.00    -0.309 N 
ATOM      3  N   UNL d   1       0.274   0.712  -0.693  0.00  0.00    -0.309 N 
ATOM      4  O   UNL d   1       2.277   0.251   0.345  0.00  0.00    -0.247 OA
ATOM      5  H   UNL d   1      -0.313  -1.534   0.024  0.00  0.00     0.170 HD
ATOM      6  H   UNL d   1      -0.699   0.460  -0.714  0.00  0.00     0.170 HD
ENDROOT
BRANCH   2   7
ATOM      7  C   UNL d   1       1.176  -2.213   1.305  0.00  0.00     0.036 A 
ATOM      8  C   UNL d   1       2.338  -1.942   2.022  0.00  0.00     0.032 A 
ATOM      9  C   UNL d   1       2.984  -2.939   2.748  0.00  0.00     0.031 A 
ATOM     10  C   UNL d   1       2.486  -4.241   2.815  0.00  0.00     0.030 A 
ATOM     11  C   UNL d   1       1.305  -4.508   2.113  0.00  0.00     0.031 A 
ATOM     12  C   UNL d   1       0.645  -3.505   1.376  0.00  0.00     0.032 A 
BRANCH  10  13
ATOM     13  N   UNL d   1       3.183  -5.188   3.537  0.00  0.00    -0.381 N 
ATOM     14  C   UNL d   1       3.217  -6.595   3.161  0.00  0.00     0.123 C 
ATOM     15  C   UNL d   1       4.646  -7.110   3.372  0.00  0.00     0.020 C 
ATOM     16  C   UNL d   1       5.163  -6.818   4.783  0.00  0.00     0.003 C 
ATOM     17  C   UNL d   1       4.993  -5.344   5.152  0.00  0.00     0.020 C 
ATOM     18  C   UNL d   1       3.558  -4.882   4.919  0.00  0.00     0.123 C 
ENDBRANCH  10  13
ENDBRANCH   2   7
BRANCH   3  19
ATOM     19  C   UNL d   1       0.654   1.887  -1.391  0.00  0.00     0.036 A 
ATOM     20  C   UNL d   1       1.962   2.367  -1.438  0.00  0.00     0.030 A 
ATOM     21  C   UNL d   1       2.296   3.493  -2.191  0.00  0.00     0.010 A 
ATOM     22  C   UNL d   1       1.335   4.184  -2.940  0.00  0.00    -0.051 A 
ATOM     23  C   UNL d   1       0.012   3.718  -2.861  0.00  0.00     0.010 A 
ATOM     24  C   UNL d   1      -0.324   2.586  -2.098  0.00  0.00     0.030 A 
BRANCH  22  25
ATOM     25  C   UNL d   1       1.773   5.374  -3.806  0.00  0.00    -0.024 C 
ATOM     26  C   UNL d   1       0.620   6.000  -4.617  0.00  0.00     0.019 C 
ATOM     27  C   UNL d   1       2.373   6.481  -2.912  0.00  0.00     0.019 C 
ATOM     28  C   UNL d   1       2.847   4.910  -4.817  0.00  0.00     0.019 C 
ENDBRANCH  22  25
ENDBRANCH   3  19
TORSDOF 4
