REMARK  5 active torsions:
REMARK  status: ('A' for Active; 'I' for Inactive)
REMARK    1  A    between atoms: C_6  and  C_1 
REMARK    2  A    between atoms: C_7  and  N_2 
REMARK    3  A    between atoms: O_11  and  C_6 
REMARK    4  A    between atoms: C_13  and  C_7 
REMARK    5  A    between atoms: C_17  and  O_11 
ROOT
ATOM      1  C   UNL d   1      -0.414  -1.267   0.031  0.00  0.00     0.063 A 
ATOM      2  N   UNL d   1       0.929   0.529   0.079  0.00  0.00    -0.349 N 
ATOM      3  C   UNL d   1       0.908  -0.852   0.175  0.00  0.00     0.024 A 
ATOM      4  C   UNL d   1      -1.204  -0.087  -0.027  0.00  0.00     0.044 A 
ATOM      5  C   UNL d   1      -0.365   1.008   0.013  0.00  0.00     0.009 A 
ATOM      6  C   UNL d   1       2.133  -1.688   0.350  0.00  0.00     0.069 C 
ATOM      7  C   UNL d   1      -0.711   2.455  -0.025  0.00  0.00     0.068 C 
ENDROOT
BRANCH   2   8
ATOM      8  C   UNL d   1       2.134   1.356  -0.017  0.00  0.00     0.167 C 
BRANCH   8   9
ATOM      9  C   UNL d   1       2.580   1.971   1.287  0.00  0.00    -0.037 A 
ATOM     10  C   UNL d   1       2.042   1.633   2.533  0.00  0.00     0.026 A 
ATOM     11  C   UNL d   1       2.518   2.274   3.666  0.00  0.00     0.088 A 
ATOM     12  N   UNL d   1       3.493   3.207   3.649  0.00  0.00    -0.375 N 
ATOM     13  C   UNL d   1       4.016   3.510   2.444  0.00  0.00     0.088 A 
ATOM     14  HN  UNL d   1       3.818   3.659   4.504  1.00  0.00     0.164 HD
ATOM     15  C   UNL d   1       3.603   2.928   1.255  0.00  0.00     0.026 A 
ENDBRANCH   8   9
ENDBRANCH   2   8
BRANCH   1  16
ATOM     16  C   UNL d   1      -0.865  -2.652  -0.089  0.00  0.00     0.295 C 
ATOM     17  O   UNL d   1      -0.112  -3.619  -0.070  0.00  0.00    -0.259 OA
BRANCH  16  18
ATOM     18  O   UNL d   1      -2.204  -2.728  -0.344  0.00  0.00    -0.318 OA
BRANCH  18  19
ATOM     19  C   UNL d   1      -2.635  -3.956  -0.943  0.00  0.00     0.174 C 
ATOM     20  C   UNL d   1      -2.479  -3.828  -2.449  0.00  0.00     0.034 C 
ENDBRANCH  18  19
ENDBRANCH  16  18
ENDBRANCH   1  16
TORSDOF 5
