REMARK  5 active torsions:
REMARK  status: ('A' for Active; 'I' for Inactive)
REMARK    1  A    between atoms: C_21  and  N_1 
REMARK    2  A    between atoms: C_23  and  N_3 
REMARK    3  A    between atoms: C_9  and  C_22 
REMARK    4  A    between atoms: N_24  and  C_13 
REMARK    5  A    between atoms: N_18  and  N_24 
ROOT
ATOM      1  N   UNL d   1       3.130  -1.244  -1.015  0.00  0.00    -0.239 N 
ATOM      2  C   UNL d   1       1.881  -0.687  -0.728  0.00  0.00     0.143 A 
ATOM      3  N   UNL d   1       4.102  -0.281  -1.066  0.00  0.00    -0.302 N 
ATOM      4  HN  UNL d   1       5.099  -0.408  -1.241  1.00  0.00     0.186 HD
ATOM      5  C   UNL d   1       2.080   0.680  -0.615  0.00  0.00     0.072 A 
ATOM      6  C   UNL d   1       3.453   0.858  -0.836  0.00  0.00     0.127 A 
ATOM      7  C   UNL d   1       0.970   1.489  -0.331  0.00  0.00     0.136 A 
ATOM      8  N   UNL d   1       0.693  -1.310  -0.578  0.00  0.00    -0.336 N 
ATOM      9  HN  UNL d   1       0.566  -2.319  -0.665  1.00  0.00     0.168 HD
ATOM     10  N   UNL d   1      -0.232   0.884  -0.169  0.00  0.00    -0.337 N 
ATOM     11  HN  UNL d   1      -1.066   1.430   0.047  1.00  0.00     0.168 HD
ATOM     12  C   UNL d   1      -0.300  -0.454  -0.300  0.00  0.00     0.183 A 
ENDROOT
BRANCH   7  13
ATOM     13  N   UNL d   1       1.006   2.883  -0.208  0.00  0.00    -0.285 N 
ATOM     14  H   UNL d   1       0.132   3.272   0.134  0.00  0.00     0.188 HD
BRANCH  13  15
ATOM     15  N   UNL d   1       2.191   3.536  -0.206  0.00  0.00    -0.309 N 
ATOM     16  C   UNL d   1       2.132   4.814  -0.020  0.00  0.00     0.122 C 
ATOM     17  HN  UNL d   1       3.077   3.050  -0.343  1.00  0.00     0.186 HD
BRANCH  16  18
ATOM     18  C   UNL d   1       3.362   5.569  -0.018  0.00  0.00     0.022 A 
ATOM     19  C   UNL d   1       4.639   5.082  -0.206  0.00  0.00     0.131 A 
ATOM     20  N   UNL d   1       5.510   6.142  -0.098  0.00  0.00    -0.267 N 
ATOM     21  N   UNL d   1       4.839   7.300   0.138  0.00  0.00    -0.298 N 
ATOM     22  C   UNL d   1       3.547   6.957   0.170  0.00  0.00     0.035 A 
ATOM     23  HN  UNL d   1       5.236   8.231   0.264  1.00  0.00     0.187 HD
ATOM     24  C   UNL d   1       2.509   7.996   0.387  0.00  0.00     0.070 C 
BRANCH  20  25
ATOM     25  C   UNL d   1       6.931   6.123  -0.196  0.00  0.00     0.056 A 
ATOM     26  C   UNL d   1       7.623   4.950  -0.528  0.00  0.00     0.031 A 
ATOM     27  C   UNL d   1       9.020   4.960  -0.608  0.00  0.00     0.002 A 
ATOM     28  C   UNL d   1       9.730   6.132  -0.351  0.00  0.00     0.000 A 
ATOM     29  C   UNL d   1       9.048   7.301  -0.020  0.00  0.00     0.002 A 
ATOM     30  C   UNL d   1       7.653   7.300   0.053  0.00  0.00     0.031 A 
ENDBRANCH  20  25
ENDBRANCH  16  18
ENDBRANCH  13  15
ENDBRANCH   7  13
BRANCH   1  31
ATOM     31  C   UNL d   1       3.488  -2.607  -1.249  0.00  0.00     0.058 A 
ATOM     32  C   UNL d   1       2.535  -3.632  -1.270  0.00  0.00     0.031 A 
ATOM     33  C   UNL d   1       2.930  -4.953  -1.506  0.00  0.00     0.002 A 
ATOM     34  C   UNL d   1       4.271  -5.262  -1.721  0.00  0.00     0.000 A 
ATOM     35  C   UNL d   1       5.227  -4.250  -1.702  0.00  0.00     0.002 A 
ATOM     36  C   UNL d   1       4.840  -2.929  -1.470  0.00  0.00     0.031 A 
ENDBRANCH   1  31
TORSDOF 5
