REMARK  4 active torsions:
REMARK  status: ('A' for Active; 'I' for Inactive)
REMARK    1  A    between atoms: C_8  and  N_1 
REMARK    2  A    between atoms: C_9  and  C_4 
REMARK    3  A    between atoms: O_14  and  C_9 
REMARK    4  A    between atoms: C_20  and  O_14 
ROOT
ATOM      1  C   UNL d   1       3.230  -1.064   0.635  0.00  0.00     0.111 A 
ATOM      2  C   UNL d   1       2.059  -1.474  -0.035  0.00  0.00     0.080 A 
ATOM      3  C   UNL d   1       3.287   0.032   1.560  0.00  0.00     0.105 C 
ATOM      4  N   UNL d   1       3.370   0.880   2.350  0.00  0.00    -0.191 NA
ATOM      5  C   UNL d   1       4.395  -1.821   0.478  0.00  0.00     0.139 A 
ATOM      6  F   UNL d   1       5.520  -1.476   1.122  0.00  0.00    -0.204 F 
ATOM      7  C   UNL d   1       2.101  -2.614  -0.860  0.00  0.00     0.033 A 
ATOM      8  C   UNL d   1       3.277  -3.353  -1.000  0.00  0.00     0.005 A 
ATOM      9  C   UNL d   1       4.427  -2.958  -0.325  0.00  0.00     0.044 A 
ENDROOT
BRANCH   2  10
ATOM     10  N   UNL d   1       0.856  -0.720   0.059  0.00  0.00    -0.259 N 
ATOM     11  N   UNL d   1       0.934   0.625   0.141  0.00  0.00    -0.288 N 
ATOM     12  C   UNL d   1      -0.327   1.077   0.057  0.00  0.00     0.126 A 
ATOM     13  HN  UNL d   1       1.780   1.184   0.246  1.00  0.00     0.188 HD
ATOM     14  C   UNL d   1      -1.233  -0.003  -0.021  0.00  0.00     0.064 A 
ATOM     15  C   UNL d   1      -0.464  -1.148   0.009  0.00  0.00     0.033 A 
ATOM     16  C   UNL d   1      -0.923  -2.557   0.091  0.00  0.00     0.070 C 
BRANCH  12  17
ATOM     17  C   UNL d   1      -0.673   2.505   0.002  0.00  0.00     0.311 C 
ATOM     18  O   UNL d   1      -1.822   2.901  -0.162  0.00  0.00    -0.258 OA
BRANCH  17  19
ATOM     19  O   UNL d   1       0.425   3.315   0.046  0.00  0.00    -0.317 OA
BRANCH  19  20
ATOM     20  C   UNL d   1       0.241   4.640  -0.462  0.00  0.00     0.175 C 
ATOM     21  C   UNL d   1       0.506   4.606  -1.957  0.00  0.00     0.034 C 
ENDBRANCH  19  20
ENDBRANCH  17  19
ENDBRANCH  12  17
ENDBRANCH   2  10
TORSDOF 4
