REMARK  4 active torsions:
REMARK  status: ('A' for Active; 'I' for Inactive)
REMARK       I    between atoms: C_2  and  N_1 
REMARK    1  A    between atoms: C_3  and  N_1 
REMARK    2  A    between atoms: C_4  and  C_2 
REMARK    3  A    between atoms: C_13  and  C_6 
REMARK    4  A    between atoms: C_14  and  C_7 
ROOT
ATOM      1  C   UNL d   1       2.381   0.004  -0.020  0.00  0.00     0.047 A 
ATOM      2  C   UNL d   1       3.187   1.157  -0.232  0.00  0.00    -0.031 A 
ATOM      3  C   UNL d   1       2.986  -1.274  -0.019  0.00  0.00    -0.031 A 
ATOM      4  C   UNL d   1       5.184  -0.217  -0.279  0.00  0.00     0.001 A 
ATOM      5  C   UNL d   1       4.582   1.028  -0.346  0.00  0.00     0.009 A 
ATOM      6  C   UNL d   1       4.392  -1.352  -0.139  0.00  0.00     0.009 A 
ENDROOT
BRANCH   1   7
ATOM      7  N   UNL d   1       1.034   0.245   0.336  0.00  0.00    -0.324 N 
ATOM      8  C   UNL d   1      -0.111  -0.430  -0.047  0.00  0.00     0.255 C 
ATOM      9  O   UNL d   1      -0.180  -1.250  -0.960  0.00  0.00    -0.270 OA
ATOM     10  H   UNL d   1       0.860   1.132   0.787  0.00  0.00     0.169 HD
BRANCH   8  11
ATOM     11  C   UNL d   1      -1.380   0.036   0.674  0.00  0.00     0.270 C 
ATOM     12 CL   UNL d   1      -1.099   0.162   2.428  0.00  0.00    -0.098 Cl
ATOM     13 CL   UNL d   1      -1.855   1.621   0.021  0.00  0.00    -0.098 Cl
ENDBRANCH   8  11
ENDBRANCH   1   7
BRANCH   2  14
ATOM     14  C   UNL d   1       2.606   2.529  -0.532  0.00  0.00     0.036 C 
ATOM     15  C   UNL d   1       2.322   2.666  -2.025  0.00  0.00     0.010 C 
ENDBRANCH   2  14
BRANCH   3  16
ATOM     16  C   UNL d   1       2.284  -2.598   0.186  0.00  0.00     0.036 C 
ATOM     17  C   UNL d   1       1.973  -2.899   1.642  0.00  0.00     0.010 C 
ENDBRANCH   3  16
TORSDOF 4
