REMARK  5 active torsions:
REMARK  status: ('A' for Active; 'I' for Inactive)
REMARK    1  A    between atoms: C_2  and  S_1 
REMARK    2  A    between atoms: N_4  and  S_1 
REMARK    3  A    between atoms: C_14  and  C_19 
REMARK    4  A    between atoms: O_23  and  C_14 
REMARK    5  A    between atoms: C_24  and  O_23 
ROOT
ATOM      1  S   UNL d   1       1.130   0.009  -0.059  0.00  0.00     0.263 S 
ATOM      2  O   UNL d   1       0.521   1.318  -0.055  0.00  0.00    -0.200 OA
ATOM      3  O   UNL d   1       2.564  -0.120   0.135  0.00  0.00    -0.200 OA
ENDROOT
BRANCH   1   4
ATOM      4  C   UNL d   1       0.764  -0.799  -1.584  0.00  0.00     0.109 A 
ATOM      5  C   UNL d   1      -0.416  -0.603  -2.335  0.00  0.00     0.090 A 
ATOM      6  N   UNL d   1      -1.484   0.153  -2.030  0.00  0.00    -0.309 N 
ATOM      7  C   UNL d   1      -0.588  -1.315  -3.668  0.00  0.00     0.068 A 
ATOM      8  S   UNL d   1      -2.538   0.054  -3.308  0.00  0.00     0.068 SA
ATOM      9  HN  UNL d   1      -1.621   0.688  -1.173  1.00  0.00     0.176 HD
ATOM     10  N   UNL d   1      -1.744  -1.026  -4.283  0.00  0.00    -0.310 N 
ATOM     11  HN  UNL d   1      -2.071  -1.398  -5.175  1.00  0.00     0.176 HD
ATOM     12  C   UNL d   1       0.406  -2.189  -4.172  0.00  0.00     0.032 A 
ATOM     13  C   UNL d   1       1.559  -2.333  -3.389  0.00  0.00     0.004 A 
ATOM     14  C   UNL d   1       1.736  -1.661  -2.159  0.00  0.00     0.028 A 
ENDBRANCH   1   4
BRANCH   1  15
ATOM     15  N   UNL d   1       0.403  -0.964   1.145  0.00  0.00    -0.307 N 
ATOM     16  C   UNL d   1      -1.014  -0.680   1.463  0.00  0.00     0.136 C 
ATOM     17  C   UNL d   1      -1.381  -1.351   2.790  0.00  0.00     0.035 C 
ATOM     18  C   UNL d   1      -1.142  -2.865   2.737  0.00  0.00     0.088 C 
ATOM     19  C   UNL d   1       0.336  -3.109   2.402  0.00  0.00     0.035 C 
ATOM     20  C   UNL d   1       0.766  -2.403   1.118  0.00  0.00     0.136 C 
BRANCH  18  21
ATOM     21  C   UNL d   1      -2.070  -3.524   1.723  0.00  0.00     0.263 C 
ATOM     22  O   UNL d   1      -1.703  -4.256   0.814  0.00  0.00    -0.265 OA
BRANCH  21  23
ATOM     23  O   UNL d   1      -3.356  -3.131   1.938  0.00  0.00    -0.322 OA
BRANCH  23  24
ATOM     24  C   UNL d   1      -4.263  -3.295   0.839  0.00  0.00     0.174 C 
ATOM     25  C   UNL d   1      -5.221  -4.440   1.086  0.00  0.00     0.034 C 
ENDBRANCH  23  24
ENDBRANCH  21  23
ENDBRANCH  18  21
ENDBRANCH   1  15
TORSDOF 5
