REMARK  2 active torsions:
REMARK  status: ('A' for Active; 'I' for Inactive)
REMARK    1  A    between atoms: C_9  and  C_1 
REMARK    2  A    between atoms: N_5  and  C_8 
ROOT
ATOM      1  C   UNL d   1      -1.491  -1.119   0.011  0.00  0.00     0.122 A 
ATOM      2  N   UNL d   1      -0.167  -0.680  -0.035  0.00  0.00    -0.306 N 
ATOM      3  N   UNL d   1      -2.319  -0.084  -0.028  0.00  0.00    -0.349 N 
ATOM      4  HN  UNL d   1      -3.338  -0.120  -0.060  1.00  0.00     0.167 HD
ATOM      5  C   UNL d   1      -0.210   0.710   0.001  0.00  0.00     0.056 A 
ATOM      6  C   UNL d   1      -1.540   1.042  -0.017  0.00  0.00     0.119 A 
ATOM      7  C   UNL d   1       1.043  -1.380  -0.122  0.00  0.00     0.099 A 
ATOM      8  C   UNL d   1       1.019   1.425   0.024  0.00  0.00     0.031 A 
ATOM      9  C   UNL d   1       2.206  -0.707  -0.112  0.00  0.00     0.018 A 
ATOM     10  C   UNL d   1       2.179   0.744  -0.020  0.00  0.00     0.004 A 
ENDROOT
BRANCH   1  11
ATOM     11  C   UNL d   1      -1.941  -2.517   0.057  0.00  0.00     0.009 A 
ATOM     12  C   UNL d   1      -1.292  -3.492   0.829  0.00  0.00     0.018 A 
ATOM     13  C   UNL d   1      -1.735  -4.819   0.834  0.00  0.00     0.037 A 
ATOM     14  C   UNL d   1      -2.865  -5.172   0.085  0.00  0.00     0.102 A 
ATOM     15  C   UNL d   1      -3.558  -4.205  -0.651  0.00  0.00     0.037 A 
ATOM     16  C   UNL d   1      -3.094  -2.886  -0.658  0.00  0.00     0.018 A 
BRANCH  14  17
ATOM     17  N   UNL d   1      -3.325  -6.566   0.080  0.00  0.00    -0.116 N 
ATOM     18  O   UNL d   1      -4.369  -6.827  -0.534  0.00  0.00    -0.532 OA
ATOM     19  O   UNL d   1      -2.636  -7.402   0.683  0.00  0.00    -0.532 OA
ENDBRANCH  14  17
ENDBRANCH   1  11
TORSDOF 2
