REMARK  3 active torsions:
REMARK  status: ('A' for Active; 'I' for Inactive)
REMARK       I    between atoms: C_2  and  N_1 
REMARK    1  A    between atoms: C_11  and  C_2 
REMARK    2  A    between atoms: O_17  and  C_8 
REMARK    3  A    between atoms: O_18  and  C_10 
ROOT
ATOM      1  N   UNL d   1      -2.456   0.706  -0.304  0.00  0.00    -0.339 N 
ATOM      2  C   UNL d   1      -3.392   1.132  -1.254  0.00  0.00     0.254 C 
ATOM      3  C   UNL d   1      -0.003   0.630   0.059  0.00  0.00    -0.026 A 
ATOM      4  C   UNL d   1      -1.275   1.448   0.147  0.00  0.00     0.117 C 
ATOM      5  C   UNL d   1      -0.024  -0.766  -0.040  0.00  0.00    -0.045 A 
ATOM      6  C   UNL d   1       1.227   1.309   0.084  0.00  0.00     0.049 A 
ATOM      7  C   UNL d   1      -2.552  -0.658   0.225  0.00  0.00     0.131 C 
ATOM      8  C   UNL d   1       2.433   0.615   0.005  0.00  0.00     0.102 A 
ATOM      9  C   UNL d   1       1.193  -1.466  -0.092  0.00  0.00     0.047 A 
ATOM     10  C   UNL d   1       2.424  -0.784  -0.058  0.00  0.00     0.102 A 
ATOM     11  O   UNL d   1      -4.306   0.405  -1.643  0.00  0.00    -0.267 OA
ATOM     12  C   UNL d   1      -1.337  -1.503  -0.177  0.00  0.00     0.059 C 
ATOM     13  C   UNL d   1      -1.473   1.972   1.577  0.00  0.00     0.037 C 
ENDROOT
BRANCH   2  14
ATOM     14  C   UNL d   1      -3.291   2.480  -1.902  0.00  0.00     0.032 A 
ATOM     15  C   UNL d   1      -3.576   2.571  -3.275  0.00  0.00     0.020 A 
ATOM     16  C   UNL d   1      -3.422   3.784  -3.954  0.00  0.00     0.043 A 
ATOM     17  C   UNL d   1      -2.973   4.902  -3.264  0.00  0.00     0.116 A 
ATOM     18  C   UNL d   1      -2.742   4.848  -1.896  0.00  0.00     0.043 A 
ATOM     19  F   UNL d   1      -2.769   6.051  -3.921  0.00  0.00    -0.206 F 
ATOM     20  C   UNL d   1      -2.951   3.650  -1.210  0.00  0.00     0.020 A 
ENDBRANCH   2  14
BRANCH   8  21
ATOM     21  O   UNL d   1       3.655   1.248   0.028  0.00  0.00    -0.353 OA
ATOM     22  C   UNL d   1       3.679   2.580  -0.481  0.00  0.00     0.210 C 
ENDBRANCH   8  21
BRANCH  10  23
ATOM     23  O   UNL d   1       3.651  -1.396  -0.104  0.00  0.00    -0.353 OA
ATOM     24  C   UNL d   1       3.679  -2.816  -0.145  0.00  0.00     0.210 C 
ENDBRANCH  10  23
TORSDOF 3
