REMARK  3 active torsions:
REMARK  status: ('A' for Active; 'I' for Inactive)
REMARK    1  A    between atoms: C_2  and  C_8 
REMARK    2  A    between atoms: O_7  and  C_5 
REMARK    3  A    between atoms: C_8  and  O_7 
ROOT
ATOM      1  C   UNL d   1      -0.428   0.320  -0.001  0.00  0.00     0.116 A 
ATOM      2  C   UNL d   1      -1.855   0.313   0.059  0.00  0.00     0.105 C 
ATOM      3  N   UNL d   1      -3.016   0.347   0.080  0.00  0.00    -0.191 NA
ATOM      4  C   UNL d   1       0.345   1.490  -0.008  0.00  0.00     0.092 A 
ATOM      5  C   UNL d   1       0.219  -0.921  -0.016  0.00  0.00     0.139 A 
ATOM      6  F   UNL d   1      -0.498  -2.055  -0.016  0.00  0.00    -0.204 F 
ATOM      7  C   UNL d   1       2.376   0.133   0.000  0.00  0.00     0.006 A 
ATOM      8  C   UNL d   1       1.746   1.379   0.010  0.00  0.00     0.038 A 
ATOM      9  C   UNL d   1       1.607  -1.024  -0.018  0.00  0.00     0.044 A 
ENDROOT
BRANCH   4  10
ATOM     10  O   UNL d   1      -0.083   2.790   0.040  0.00  0.00    -0.341 OA
BRANCH  10  11
ATOM     11  C   UNL d   1      -1.298   3.143  -0.639  0.00  0.00     0.293 C 
BRANCH  11  12
ATOM     12  C   UNL d   1      -1.263   4.587  -1.141  0.00  0.00     0.408 C 
ATOM     13  F   UNL d   1      -0.065   5.180  -0.943  0.00  0.00    -0.169 F 
ATOM     14  F   UNL d   1      -1.519   4.635  -2.470  0.00  0.00    -0.169 F 
ATOM     15  F   UNL d   1      -2.199   5.343  -0.523  0.00  0.00    -0.169 F 
ENDBRANCH  11  12
ENDBRANCH  10  11
ENDBRANCH   4  10
TORSDOF 3
