REMARK  9 active torsions:
REMARK  status: ('A' for Active; 'I' for Inactive)
REMARK    1  A    between atoms: C_6  and  N_1 
REMARK    2  A    between atoms: C_11  and  C_6 
REMARK    3  A    between atoms: C_12  and  C_11 
REMARK    4  A    between atoms: O_20  and  C_11 
REMARK    5  A    between atoms: N_15  and  C_12 
REMARK    6  A    between atoms: C_21  and  N_15 
REMARK    7  A    between atoms: C_22  and  N_15 
REMARK    8  A    between atoms: C_23  and  C_21 
REMARK    9  A    between atoms: C_24  and  C_22 
ROOT
ATOM      1  N   UNL d   1       0.035  -1.078   0.727  0.00  0.00    -0.343 N 
ATOM      2  C   UNL d   1       0.511   0.621  -0.644  0.00  0.00     0.005 A 
ATOM      3  C   UNL d   1       0.711   1.048   0.705  0.00  0.00     0.005 A 
ATOM      4  C   UNL d   1       0.006  -0.679  -0.601  0.00  0.00     0.046 A 
ATOM      5  C   UNL d   1       0.320   0.000   1.542  0.00  0.00     0.046 A 
ATOM      6  C   UNL d   1      -0.403  -1.354  -1.765  0.00  0.00     0.032 A 
ATOM      7  C   UNL d   1       0.282   0.146   2.938  0.00  0.00     0.032 A 
ATOM      8  C   UNL d   1       1.145   2.263   1.280  0.00  0.00     0.038 A 
ATOM      9  C   UNL d   1       0.672   1.255  -1.895  0.00  0.00     0.038 A 
ATOM     10  C   UNL d   1       1.125   2.403   2.668  0.00  0.00     0.035 A 
ATOM     11  C   UNL d   1       0.273   0.585  -3.053  0.00  0.00     0.035 A 
ATOM     12  C   UNL d   1      -0.271  -0.693  -2.991  0.00  0.00     0.026 A 
ATOM     13  C   UNL d   1       0.685   1.370   3.486  0.00  0.00     0.026 A 
ATOM     14 CL   UNL d   1       1.639   3.888   3.375  0.00  0.00    -0.084 Cl
ATOM     15 CL   UNL d   1       0.439   1.367  -4.580  0.00  0.00    -0.084 Cl
ENDROOT
BRANCH   1  16
ATOM     16  C   UNL d   1      -0.228  -2.439   1.181  0.00  0.00     0.163 C 
BRANCH  16  17
ATOM     17  C   UNL d   1       0.864  -3.443   0.772  0.00  0.00     0.164 C 
BRANCH  17  18
ATOM     18  C   UNL d   1       2.138  -3.451   1.666  0.00  0.00     0.305 C 
BRANCH  18  19
ATOM     19  N   UNL d   1       2.030  -3.662   3.121  0.00  0.00     0.090 N 
BRANCH  19  20
ATOM     20  C   UNL d   1       1.242  -4.831   3.560  0.00  0.00     0.272 C 
BRANCH  20  21
ATOM     21  C   UNL d   1       1.904  -6.224   3.657  0.00  0.00     0.026 C 
ATOM     22  C   UNL d   1       2.325  -6.859   2.344  0.00  0.00     0.007 C 
ENDBRANCH  20  21
ENDBRANCH  19  20
BRANCH  19  23
ATOM     23  C   UNL d   1       3.338  -3.630   3.810  0.00  0.00     0.272 C 
BRANCH  23  24
ATOM     24  C   UNL d   1       4.231  -2.395   3.610  0.00  0.00     0.026 C 
ATOM     25  C   UNL d   1       3.583  -1.093   4.040  0.00  0.00     0.007 C 
ENDBRANCH  23  24
ENDBRANCH  19  23
ENDBRANCH  18  19
ENDBRANCH  17  18
BRANCH  17  26
ATOM     26  O   UNL d   1       0.284  -4.750   0.656  0.00  0.00    -0.392 OA
ATOM     27  H   UNL d   1       0.991  -5.352   0.367  0.00  0.00     0.210 HD
ENDBRANCH  17  26
ENDBRANCH  16  17
ENDBRANCH   1  16
TORSDOF 9
