REMARK  1 active torsions:
REMARK  status: ('A' for Active; 'I' for Inactive)
REMARK    1  A    between atoms: C_11  and  C_3 
ROOT
ATOM      1  N   UNL d   1       0.579   0.756   0.006  0.00  0.00    -0.304 N 
ATOM      2  C   UNL d   1      -0.130  -0.417  -0.005  0.00  0.00     0.123 A 
ATOM      3  C   UNL d   1      -0.077   2.063  -0.008  0.00  0.00     0.225 C 
ATOM      4  N   UNL d   1       0.682  -1.455  -0.022  0.00  0.00    -0.340 N 
ATOM      5  HN  UNL d   1       0.425  -2.441  -0.059  1.00  0.00     0.167 HD
ATOM      6  N   UNL d   1      -1.540   2.059   0.173  0.00  0.00    -0.364 N 
ATOM      7  C   UNL d   1      -1.585  -0.396   0.002  0.00  0.00     0.035 A 
ATOM      8  C   UNL d   1       1.918   0.466   0.058  0.00  0.00     0.065 A 
ATOM      9  C   UNL d   1      -2.240   0.850   0.044  0.00  0.00     0.043 A 
ATOM     10  C   UNL d   1       1.951  -0.926   0.021  0.00  0.00     0.061 A 
ATOM     11  C   UNL d   1      -2.321  -1.587  -0.030  0.00  0.00     0.017 A 
ATOM     12  C   UNL d   1       3.075   1.250   0.116  0.00  0.00     0.032 A 
ATOM     13  C   UNL d   1      -3.640   0.865   0.108  0.00  0.00     0.030 A 
ATOM     14  C   UNL d   1       3.190  -1.585   0.036  0.00  0.00     0.032 A 
ATOM     15  C   UNL d   1      -3.714  -1.551   0.010  0.00  0.00     0.001 A 
ATOM     16  C   UNL d   1       4.301   0.575   0.134  0.00  0.00     0.002 A 
ATOM     17  C   UNL d   1       4.361  -0.819   0.093  0.00  0.00     0.002 A 
ATOM     18  C   UNL d   1      -4.372  -0.326   0.084  0.00  0.00     0.002 A 
ATOM     19  H   UNL d   1      -2.009   2.855  -0.248  0.00  0.00     0.162 HD
ENDROOT
BRANCH   3  20
ATOM     20  C   UNL d   1       0.283   2.838  -1.271  0.00  0.00    -0.016 A 
ATOM     21  C   UNL d   1      -0.022   2.338  -2.549  0.00  0.00     0.011 A 
ATOM     22  C   UNL d   1       0.366   3.035  -3.695  0.00  0.00     0.001 A 
ATOM     23  C   UNL d   1       1.056   4.240  -3.582  0.00  0.00     0.000 A 
ATOM     24  C   UNL d   1       1.348   4.758  -2.322  0.00  0.00     0.001 A 
ATOM     25  C   UNL d   1       0.958   4.067  -1.173  0.00  0.00     0.011 A 
ENDBRANCH   3  20
TORSDOF 1
