REMARK  4 active torsions:
REMARK  status: ('A' for Active; 'I' for Inactive)
REMARK    1  A    between atoms: C_8  and  C_1 
REMARK    2  A    between atoms: C_9  and  C_4 
REMARK    3  A    between atoms: O_24  and  C_8 
REMARK    4  A    between atoms: C_11  and  C_10 
ROOT
ATOM      1  C   UNL d   1       2.082  -1.332  -0.003  0.00  0.00     0.054 A 
ATOM      2  C   UNL d   1      -0.325  -0.487   0.079  0.00  0.00     0.025 A 
ATOM      3  C   UNL d   1       0.166   0.768   0.070  0.00  0.00     0.021 A 
ATOM      4  C   UNL d   1       0.586  -1.709   0.030  0.00  0.00     0.122 A 
ATOM      5  C   UNL d   1       2.479  -0.038   0.057  0.00  0.00     0.018 A 
ATOM      6  N   UNL d   1       1.529   0.973   0.082  0.00  0.00    -0.362 N 
ATOM      7  C   UNL d   1      -1.802  -0.684   0.073  0.00  0.00     0.159 C 
ATOM      8  C   UNL d   1      -2.148   1.714  -0.462  0.00  0.00     0.056 C 
ATOM      9  C   UNL d   1      -0.707   2.005  -0.007  0.00  0.00     0.069 C 
ATOM     10  C   UNL d   1      -2.677   0.523   0.330  0.00  0.00     0.095 C 
ATOM     11  O   UNL d   1      -2.302  -1.785  -0.147  0.00  0.00    -0.293 OA
ATOM     12  C   UNL d   1       3.905   0.464   0.091  0.00  0.00     0.069 C 
ATOM     13  H   UNL d   1       1.867   1.933   0.071  0.00  0.00     0.165 HD
ENDROOT
BRANCH   4  14
ATOM     14  C   UNL d   1       0.264  -2.740   1.089  0.00  0.00     0.066 A 
ATOM     15  O   UNL d   1       0.842  -2.591   2.316  0.00  0.00    -0.326 OA
ATOM     16  C   UNL d   1       0.454  -3.655   3.065  0.00  0.00     0.142 A 
ATOM     17  C   UNL d   1      -0.378  -4.479   2.347  0.00  0.00     0.027 A 
ATOM     18  C   UNL d   1      -0.499  -3.892   1.069  0.00  0.00     0.035 A 
ENDBRANCH   4  14
BRANCH   1  19
ATOM     19  C   UNL d   1       3.039  -2.473  -0.049  0.00  0.00     0.292 C 
ATOM     20  O   UNL d   1       4.157  -2.481   0.443  0.00  0.00    -0.260 OA
BRANCH  19  21
ATOM     21  O   UNL d   1       2.478  -3.513  -0.721  0.00  0.00    -0.323 OA
ATOM     22  C   UNL d   1       3.228  -4.729  -0.690  0.00  0.00     0.213 C 
ENDBRANCH  19  21
ENDBRANCH   1  19
BRANCH   8  23
ATOM     23  C   UNL d   1      -2.241   1.505  -1.950  0.00  0.00     0.057 A 
ATOM     24  O   UNL d   1      -1.827   2.547  -2.728  0.00  0.00    -0.327 OA
ATOM     25  C   UNL d   1      -1.957   2.157  -4.022  0.00  0.00     0.142 A 
ATOM     26  C   UNL d   1      -2.462   0.883  -4.095  0.00  0.00     0.027 A 
ATOM     27  C   UNL d   1      -2.664   0.467  -2.760  0.00  0.00     0.035 A 
ENDBRANCH   8  23
TORSDOF 4
