REMARK  6 active torsions:
REMARK  status: ('A' for Active; 'I' for Inactive)
REMARK    1  A    between atoms: N_4  and  C_8 
REMARK    2  A    between atoms: S_15  and  C_7 
REMARK       I    between atoms: C_9  and  N_13 
REMARK    3  A    between atoms: C_19  and  C_9 
REMARK    4  A    between atoms: C_10  and  C_23 
REMARK       I    between atoms: N_16  and  C_10 
REMARK    5  A    between atoms: N_13  and  N_16 
REMARK    6  A    between atoms: C_23  and  S_15 
ROOT
ATOM      1  C   UNL d   1      -4.230   2.050   1.437  0.00  0.00     0.179 C 
ENDROOT
BRANCH   1   2
ATOM      2  C   UNL d   1      -4.681   3.072   2.463  0.00  0.00     0.245 C 
ATOM      3  N   UNL d   1      -5.503   2.562   3.448  0.00  0.00    -0.267 N 
ATOM      4  H   UNL d   1      -5.782   1.582   3.543  0.00  0.00     0.190 HD
ATOM      5  O   UNL d   1      -4.351   4.258   2.441  0.00  0.00    -0.271 OA
BRANCH   3   6
ATOM      6  N   UNL d   1      -5.925   3.431   4.462  0.00  0.00    -0.263 N 
ATOM      7  C   UNL d   1      -7.031   3.071   5.208  0.00  0.00     0.270 C 
ATOM      8  O   UNL d   1      -7.628   2.013   5.026  0.00  0.00    -0.266 OA
ATOM      9  H   UNL d   1      -5.574   4.384   4.397  0.00  0.00     0.190 HD
BRANCH   7  10
ATOM     10  C   UNL d   1      -7.463   4.013   6.284  0.00  0.00     0.033 A 
ATOM     11  C   UNL d   1      -6.691   5.112   6.687  0.00  0.00     0.019 A 
ATOM     12  C   UNL d   1      -7.091   5.899   7.771  0.00  0.00     0.025 A 
ATOM     13  C   UNL d   1      -8.272   5.604   8.448  0.00  0.00     0.034 A 
ATOM     14  C   UNL d   1      -9.063   4.532   8.043  0.00  0.00     0.025 A 
ATOM     15 CL   UNL d   1      -8.745   6.560   9.797  0.00  0.00    -0.084 Cl
ATOM     16  C   UNL d   1      -8.658   3.737   6.966  0.00  0.00     0.019 A 
ENDBRANCH   7  10
ENDBRANCH   3   6
ENDBRANCH   1   2
BRANCH   1  17
ATOM     17  S   UNL d   1      -2.421   2.052   1.167  0.00  0.00    -0.149 SA
BRANCH  17  18
ATOM     18  C   UNL d   1      -1.759   1.337   2.723  0.00  0.00     0.096 A 
ATOM     19  C   UNL d   1      -2.216  -0.108   2.975  0.00  0.00     0.165 A 
ATOM     20  S   UNL d   1      -2.999  -0.138   4.581  0.00  0.00     0.177 S 
ATOM     21  C   UNL d   1      -2.638   1.518   5.000  0.00  0.00     0.069 A 
ATOM     22  O   UNL d   1      -2.259  -0.996   5.476  0.00  0.00    -0.223 OA
ATOM     23  O   UNL d   1      -4.431  -0.213   4.389  0.00  0.00    -0.223 OA
ATOM     24  C   UNL d   1      -2.013   2.180   3.946  0.00  0.00    -0.022 A 
ATOM     25  C   UNL d   1      -2.994   2.126   6.192  0.00  0.00     0.060 A 
ATOM     26  C   UNL d   1      -1.700   3.530   4.093  0.00  0.00     0.012 A 
ATOM     27  C   UNL d   1      -2.064   4.193   5.270  0.00  0.00     0.037 A 
ATOM     28  C   UNL d   1      -2.703   3.488   6.307  0.00  0.00     0.104 A 
BRANCH  28  29
ATOM     29  N   UNL d   1      -3.106   4.210   7.512  0.00  0.00    -0.116 N 
ATOM     30  O   UNL d   1      -3.174   3.567   8.568  0.00  0.00    -0.532 OA
ATOM     31  O   UNL d   1      -3.375   5.413   7.391  0.00  0.00    -0.532 OA
ENDBRANCH  28  29
ENDBRANCH  17  18
ENDBRANCH   1  17
TORSDOF 6
