REMARK  6 active torsions:
REMARK  status: ('A' for Active; 'I' for Inactive)
REMARK    1  A    between atoms: C_5  and  N_1 
REMARK    2  A    between atoms: C_2  and  C_4 
REMARK    3  A    between atoms: C_10  and  C_2 
REMARK    4  A    between atoms: C_3  and  C_5 
REMARK    5  A    between atoms: C_4  and  C_3 
REMARK    6  A    between atoms: C_8  and  C_3 
ROOT
ATOM      1  C   UNL d   1       1.113  -0.826   2.144  0.00  0.00     0.050 C 
ENDROOT
BRANCH   1   2
ATOM      2  C   UNL d   1       0.096  -0.436   1.056  0.00  0.00     0.211 C 
BRANCH   2   3
ATOM      3  N   UNL d   1       0.821   0.028  -0.167  0.00  0.00    -0.155 N 
ATOM      4  O   UNL d   1       1.170  -0.840  -0.980  0.00  0.00    -0.537 OA
ATOM      5  O   UNL d   1       1.044   1.240  -0.270  0.00  0.00    -0.537 OA
ENDBRANCH   2   3
ENDBRANCH   1   2
BRANCH   1   6
ATOM      6  C   UNL d   1       2.060   0.320   2.590  0.00  0.00     0.095 C 
BRANCH   6   7
ATOM      7  C   UNL d   1       1.358   1.546   3.156  0.00  0.00     0.160 C 
ATOM      8  O   UNL d   1       0.134   1.600   3.284  0.00  0.00    -0.292 OA
BRANCH   7   9
ATOM      9  C   UNL d   1       2.163   2.741   3.536  0.00  0.00     0.010 A 
ATOM     10  C   UNL d   1       3.549   2.812   3.354  0.00  0.00     0.015 A 
ATOM     11  C   UNL d   1       4.232   3.994   3.656  0.00  0.00     0.001 A 
ATOM     12  C   UNL d   1       3.541   5.101   4.148  0.00  0.00     0.000 A 
ATOM     13  C   UNL d   1       2.166   5.027   4.360  0.00  0.00     0.001 A 
ATOM     14  C   UNL d   1       1.481   3.850   4.058  0.00  0.00     0.015 A 
ENDBRANCH   7   9
ENDBRANCH   6   7
ENDBRANCH   1   6
BRANCH   1  15
ATOM     15  C   UNL d   1       0.463  -1.498   3.358  0.00  0.00    -0.052 A 
ATOM     16  C   UNL d   1       1.194  -2.434   4.109  0.00  0.00     0.009 A 
ATOM     17  C   UNL d   1       0.647  -3.011   5.261  0.00  0.00     0.024 A 
ATOM     18  C   UNL d   1      -0.634  -2.658   5.675  0.00  0.00     0.034 A 
ATOM     19  C   UNL d   1      -1.377  -1.741   4.942  0.00  0.00     0.024 A 
ATOM     20 CL   UNL d   1      -1.297  -3.343   7.106  0.00  0.00    -0.084 Cl
ATOM     21  C   UNL d   1      -0.833  -1.169   3.790  0.00  0.00     0.009 A 
ENDBRANCH   1  15
TORSDOF 6
