REMARK  3 active torsions:
REMARK  status: ('A' for Active; 'I' for Inactive)
REMARK    1  A    between atoms: O_10  and  C_1 
REMARK    2  A    between atoms: C_5  and  C_4 
REMARK    3  A    between atoms: C_18  and  O_10 
ROOT
ATOM      1  C   UNL d   1       1.274  -1.386  -0.029  0.00  0.00     0.090 A 
ATOM      2  N   UNL d   1       1.087   1.388  -0.066  0.00  0.00    -0.352 N 
ATOM      3  HN  UNL d   1       1.023   2.405  -0.032  1.00  0.00     0.166 HD
ATOM      4  C   UNL d   1       2.299   0.778  -0.156  0.00  0.00     0.119 A 
ATOM      5  C   UNL d   1       0.006  -0.772   0.001  0.00  0.00     0.026 A 
ATOM      6  C   UNL d   1      -0.024   0.638  -0.024  0.00  0.00     0.045 A 
ATOM      7  C   UNL d   1       2.418  -0.605  -0.189  0.00  0.00     0.072 A 
ATOM      8  N   UNL d   1      -4.667  -2.148  -0.006  0.00  0.00    -0.191 NA
ATOM      9  C   UNL d   1      -3.671  -1.556   0.011  0.00  0.00     0.099 C 
ATOM     10  C   UNL d   1      -1.214  -1.489   0.036  0.00  0.00     0.039 A 
ATOM     11  C   UNL d   1      -1.252   1.282  -0.012  0.00  0.00     0.032 A 
ATOM     12  C   UNL d   1      -2.441  -0.819   0.022  0.00  0.00     0.045 A 
ATOM     13  C   UNL d   1      -2.457   0.573   0.000  0.00  0.00     0.025 A 
ENDROOT
BRANCH   1  14
ATOM     14  O   UNL d   1       1.319  -2.768   0.052  0.00  0.00    -0.310 OA
BRANCH  14  15
ATOM     15  C   UNL d   1       2.422  -3.383   0.606  0.00  0.00     0.076 A 
ATOM     16  C   UNL d   1       3.148  -2.865   1.686  0.00  0.00     0.040 A 
ATOM     17  C   UNL d   1       4.313  -3.503   2.112  0.00  0.00     0.045 A 
ATOM     18  C   UNL d   1       4.702  -4.692   1.509  0.00  0.00     0.116 A 
ATOM     19  C   UNL d   1       3.937  -5.266   0.499  0.00  0.00     0.045 A 
ATOM     20  F   UNL d   1       5.829  -5.295   1.908  0.00  0.00    -0.206 F 
ATOM     21  C   UNL d   1       2.791  -4.610   0.046  0.00  0.00     0.040 A 
ENDBRANCH  14  15
ENDBRANCH   1  14
BRANCH   4  22
ATOM     22  C   UNL d   1       3.571   1.615  -0.179  0.00  0.00     0.432 C 
ATOM     23  F   UNL d   1       3.365   2.959  -0.100  0.00  0.00    -0.165 F 
ATOM     24  F   UNL d   1       4.407   1.306   0.857  0.00  0.00    -0.165 F 
ATOM     25  F   UNL d   1       4.306   1.413  -1.311  0.00  0.00    -0.165 F 
ENDBRANCH   4  22
TORSDOF 3
