REMARK  7 active torsions:
REMARK  status: ('A' for Active; 'I' for Inactive)
REMARK    1  A    between atoms: N_6  and  C_1 
REMARK    2  A    between atoms: C_7  and  C_2 
REMARK       I    between atoms: C_8  and  N_6 
REMARK    3  A    between atoms: O_13  and  C_7 
REMARK    4  A    between atoms: C_12  and  C_8 
REMARK    5  A    between atoms: O_11  and  C_12 
REMARK    6  A    between atoms: C_16  and  O_11 
REMARK    7  A    between atoms: C_17  and  O_13 
ROOT
ATOM      1  C   UNL d   1      -2.208  -0.889  -0.119  0.00  0.00     0.094 A 
ATOM      2  C   UNL d   1      -1.101  -1.722  -0.075  0.00  0.00     0.080 A 
ATOM      3  S   UNL d   1      -1.798   0.760  -0.111  0.00  0.00    -0.075 SA
ATOM      4  C   UNL d   1       0.122  -0.949  -0.055  0.00  0.00    -0.026 A 
ATOM      5  C   UNL d   1      -0.136   0.410  -0.071  0.00  0.00    -0.008 A 
ATOM      6  C   UNL d   1       1.530  -1.476  -0.035  0.00  0.00     0.041 C 
ATOM      7  C   UNL d   1       0.900   1.493  -0.018  0.00  0.00     0.047 C 
ATOM      8  C   UNL d   1       2.541  -0.404   0.397  0.00  0.00     0.005 C 
ATOM      9  C   UNL d   1       2.296   0.927  -0.325  0.00  0.00     0.005 C 
ENDROOT
BRANCH   1  10
ATOM     10  N   UNL d   1      -3.540  -1.279  -0.097  0.00  0.00    -0.319 N 
ATOM     11  C   UNL d   1      -4.533  -0.657  -0.834  0.00  0.00     0.246 C 
ATOM     12  O   UNL d   1      -4.388   0.282  -1.615  0.00  0.00    -0.271 OA
ATOM     13  H   UNL d   1      -3.711  -2.259   0.132  0.00  0.00     0.169 HD
BRANCH  11  14
ATOM     14  C   UNL d   1      -5.909  -1.276  -0.594  0.00  0.00     0.278 C 
BRANCH  14  15
ATOM     15  O   UNL d   1      -5.956  -2.594  -1.131  0.00  0.00    -0.342 OA
BRANCH  15  16
ATOM     16  C   UNL d   1      -7.177  -3.214  -1.117  0.00  0.00     0.069 A 
ATOM     17  C   UNL d   1      -8.322  -2.755  -0.460  0.00  0.00     0.037 A 
ATOM     18  C   UNL d   1      -9.508  -3.493  -0.510  0.00  0.00     0.003 A 
ATOM     19  C   UNL d   1      -9.558  -4.693  -1.213  0.00  0.00     0.000 A 
ATOM     20  C   UNL d   1      -8.423  -5.156  -1.871  0.00  0.00     0.003 A 
ATOM     21  C   UNL d   1      -7.238  -4.421  -1.820  0.00  0.00     0.037 A 
ENDBRANCH  15  16
ENDBRANCH  14  15
ENDBRANCH  11  14
ENDBRANCH   1  10
BRANCH   2  22
ATOM     22  C   UNL d   1      -1.246  -3.174  -0.109  0.00  0.00     0.296 C 
ATOM     23  O   UNL d   1      -2.274  -3.745   0.244  0.00  0.00    -0.259 OA
BRANCH  22  24
ATOM     24  O   UNL d   1      -0.155  -3.800  -0.630  0.00  0.00    -0.318 OA
BRANCH  24  25
ATOM     25  C   UNL d   1      -0.264  -5.220  -0.783  0.00  0.00     0.174 C 
ATOM     26  C   UNL d   1       0.241  -5.899   0.474  0.00  0.00     0.034 C 
ENDBRANCH  24  25
ENDBRANCH  22  24
ENDBRANCH   2  22
TORSDOF 7
