REMARK  5 active torsions:
REMARK  status: ('A' for Active; 'I' for Inactive)
REMARK    1  A    between atoms: C_7  and  C_1 
REMARK    2  A    between atoms: C_6  and  C_12 
REMARK    3  A    between atoms: O_11  and  N_8 
REMARK    4  A    between atoms: C_10  and  O_11 
REMARK    5  A    between atoms: C_13  and  C_10 
ROOT
ATOM      1  C   UNL d   1       3.849  -0.140   0.040  0.00  0.00     0.046 C 
ATOM      2  N   UNL d   1       4.577  -1.216   0.116  0.00  0.00    -0.261 N 
ATOM      3  HN  UNL d   1       5.597  -1.206   0.130  1.00  0.00     0.194 HD
ATOM      4  C   UNL d   1       2.332  -0.206   0.008  0.00  0.00     0.071 C 
ENDROOT
BRANCH   2   5
ATOM      5  O   UNL d   1       3.805  -2.398   0.178  0.00  0.00    -0.195 OA
BRANCH   5   6
ATOM      6  C   UNL d   1       4.633  -3.484   0.255  0.00  0.00     0.315 C 
ATOM      7  O   UNL d   1       5.859  -3.480   0.258  0.00  0.00    -0.257 OA
BRANCH   6   8
ATOM      8  C   UNL d   1       3.850  -4.753   0.319  0.00  0.00     0.041 A 
ATOM      9  C   UNL d   1       4.567  -5.959   0.339  0.00  0.00     0.018 A 
ATOM     10  C   UNL d   1       3.901  -7.190   0.365  0.00  0.00     0.017 A 
ATOM     11  C   UNL d   1       2.502  -7.240   0.372  0.00  0.00     0.048 A 
ATOM     12  C   UNL d   1       1.784  -6.031   0.378  0.00  0.00     0.017 A 
ATOM     13  C   UNL d   1       2.451  -4.796   0.350  0.00  0.00     0.018 A 
BRANCH  11  14
ATOM     14  C   UNL d   1       1.768  -8.562   0.358  0.00  0.00     0.417 C 
ATOM     15  F   UNL d   1       2.594  -9.644   0.320  0.00  0.00    -0.166 F 
ATOM     16  F   UNL d   1       0.978  -8.732   1.454  0.00  0.00    -0.166 F 
ATOM     17  F   UNL d   1       0.945  -8.683  -0.719  0.00  0.00    -0.166 F 
ENDBRANCH  11  14
ENDBRANCH   6   8
ENDBRANCH   5   6
ENDBRANCH   2   5
BRANCH   1  18
ATOM     18  C   UNL d   1       4.532   1.156  -0.013  0.00  0.00     0.036 A 
ATOM     19  S   UNL d   1       3.797   2.522   0.713  0.00  0.00    -0.087 SA
ATOM     20  C   UNL d   1       5.104   3.562   0.341  0.00  0.00     0.016 A 
ATOM     21  C   UNL d   1       5.208   4.935   0.648  0.00  0.00     0.021 A 
ATOM     22  C   UNL d   1       6.119   2.878  -0.328  0.00  0.00    -0.010 A 
ATOM     23  C   UNL d   1       6.363   5.628   0.281  0.00  0.00     0.025 A 
ATOM     24  C   UNL d   1       7.389   4.969  -0.377  0.00  0.00     0.035 A 
ATOM     25  C   UNL d   1       7.282   3.611  -0.686  0.00  0.00     0.037 A 
ATOM     26 CL   UNL d   1       8.813   5.832  -0.817  0.00  0.00    -0.084 Cl
ATOM     27  C   UNL d   1       5.778   1.480  -0.544  0.00  0.00    -0.031 A 
ATOM     28  C   UNL d   1       6.703   0.541  -1.263  0.00  0.00     0.050 C 
ENDBRANCH   1  18
TORSDOF 5
