REMARK  5 active torsions:
REMARK  status: ('A' for Active; 'I' for Inactive)
REMARK       I    between atoms: N_3  and  C_1 
REMARK    1  A    between atoms: C_4  and  C_1 
REMARK    2  A    between atoms: N_5  and  N_3 
REMARK    3  A    between atoms: C_8  and  C_4 
REMARK    4  A    between atoms: O_13  and  C_6 
REMARK    5  A    between atoms: C_7  and  C_8 
ROOT
ATOM      1  C   UNL d   1       2.948  -0.684  -1.210  0.00  0.00     0.048 C 
ENDROOT
BRANCH   1   2
ATOM      2  C   UNL d   1       4.459  -0.687  -1.193  0.00  0.00    -0.058 A 
ATOM      3  C   UNL d   1       5.163  -1.275  -0.133  0.00  0.00     0.010 A 
ATOM      4  C   UNL d   1       6.558  -1.277  -0.123  0.00  0.00     0.037 A 
ATOM      5  C   UNL d   1       7.255  -0.704  -1.179  0.00  0.00     0.065 A 
ATOM      6  C   UNL d   1       6.578  -0.128  -2.249  0.00  0.00     0.037 A 
ATOM      7  C   UNL d   1       5.181  -0.119  -2.255  0.00  0.00     0.010 A 
BRANCH   5   8
ATOM      8  O   UNL d   1       8.616  -0.733  -1.132  0.00  0.00    -0.361 OA
ATOM      9  H   UNL d   1       8.963  -0.322  -1.940  0.00  0.00     0.217 HD
ENDBRANCH   5   8
ENDBRANCH   1   2
BRANCH   1  10
ATOM     10  C   UNL d   1       2.351   0.084  -0.031  0.00  0.00     0.108 C 
BRANCH  10  11
ATOM     11  C   UNL d   1       0.840   0.124  -0.097  0.00  0.00     0.232 C 
ATOM     12  O   UNL d   1       0.173  -0.351  -1.012  0.00  0.00    -0.272 OA
ATOM     13  N   UNL d   1       0.275   0.784   0.991  0.00  0.00    -0.294 N 
ATOM     14  H   UNL d   1       0.841   0.996   1.810  0.00  0.00     0.183 HD
BRANCH  13  15
ATOM     15  N   UNL d   1      -1.131   0.841   1.106  0.00  0.00    -0.247 NA
ATOM     16  H   UNL d   1      -1.515   0.217   0.381  0.00  0.00     0.143 HD
ATOM     17  H   UNL d   1      -1.432   1.773   0.809  0.00  0.00     0.143 HD
ENDBRANCH  13  15
ENDBRANCH  10  11
ENDBRANCH   1  10
TORSDOF 5
