REMARK  6 active torsions:
REMARK  status: ('A' for Active; 'I' for Inactive)
REMARK    1  A    between atoms: C_2  and  S_1 
REMARK    2  A    between atoms: N_3  and  S_1 
REMARK    3  A    between atoms: C_18  and  N_8 
REMARK    4  A    between atoms: C_21  and  C_18 
REMARK    5  A    between atoms: O_19  and  C_21 
REMARK    6  A    between atoms: C_20  and  O_19 
ROOT
ATOM      1  N   UNL d   1       0.419  -0.626  -1.215  0.00  0.00    -0.203 NA
ATOM      2  N   UNL d   1      -1.567  -2.767  -0.606  0.00  0.00     0.092 N 
ATOM      3  C   UNL d   1      -1.048  -0.383  -1.384  0.00  0.00     0.138 C 
ATOM      4  C   UNL d   1       0.727  -2.068  -1.442  0.00  0.00     0.138 C 
ATOM      5  C   UNL d   1      -1.891  -1.325  -0.485  0.00  0.00     0.288 C 
ATOM      6  C   UNL d   1      -0.101  -2.954  -0.493  0.00  0.00     0.288 C 
ENDROOT
BRANCH   1   7
ATOM      7  S   UNL d   1       1.163   0.052   0.164  0.00  0.00     0.246 S 
ATOM      8  O   UNL d   1       0.172   0.156   1.215  0.00  0.00    -0.206 OA
ATOM      9  O   UNL d   1       2.424  -0.621   0.406  0.00  0.00    -0.206 OA
BRANCH   7  10
ATOM     10  C   UNL d   1       1.560   1.696  -0.334  0.00  0.00     0.113 A 
ATOM     11  C   UNL d   1       2.447   1.887  -1.388  0.00  0.00     0.142 A 
ATOM     12  C   UNL d   1       2.868   3.169  -1.726  0.00  0.00     0.086 A 
ATOM     13  F   UNL d   1       2.925   0.852  -2.091  0.00  0.00    -0.204 F 
ATOM     14  C   UNL d   1       2.395   4.253  -0.995  0.00  0.00     0.119 A 
ATOM     15  C   UNL d   1       1.506   4.076   0.062  0.00  0.00     0.044 A 
ATOM     16  F   UNL d   1       2.808   5.488  -1.306  0.00  0.00    -0.206 F 
ATOM     17  C   UNL d   1       1.083   2.790   0.400  0.00  0.00     0.031 A 
ENDBRANCH   7  10
ENDBRANCH   1   7
BRANCH   2  18
ATOM     18  C   UNL d   1      -2.148  -3.341  -1.833  0.00  0.00     0.299 C 
BRANCH  18  19
ATOM     19  C   UNL d   1      -2.002  -4.866  -1.905  0.00  0.00     0.206 C 
BRANCH  19  20
ATOM     20  O   UNL d   1      -2.629  -5.349  -3.094  0.00  0.00    -0.349 OA
BRANCH  20  21
ATOM     21  C   UNL d   1      -2.517  -6.699  -3.305  0.00  0.00     0.068 A 
ATOM     22  C   UNL d   1      -1.868  -7.607  -2.463  0.00  0.00     0.037 A 
ATOM     23  C   UNL d   1      -1.829  -8.964  -2.787  0.00  0.00     0.003 A 
ATOM     24  C   UNL d   1      -2.441  -9.420  -3.952  0.00  0.00     0.000 A 
ATOM     25  C   UNL d   1      -3.087  -8.520  -4.797  0.00  0.00     0.003 A 
ATOM     26  C   UNL d   1      -3.121  -7.163  -4.474  0.00  0.00     0.037 A 
ENDBRANCH  20  21
ENDBRANCH  19  20
ENDBRANCH  18  19
ENDBRANCH   2  18
TORSDOF 6
