REMARK  6 active torsions:
REMARK  status: ('A' for Active; 'I' for Inactive)
REMARK       I    between atoms: N_2  and  C_1 
REMARK    1  A    between atoms: C_4  and  C_1 
REMARK    2  A    between atoms: C_3  and  N_2 
REMARK    3  A    between atoms: C_5  and  N_2 
REMARK    4  A    between atoms: C_10  and  C_3 
REMARK    5  A    between atoms: C_16  and  C_9 
REMARK    6  A    between atoms: C_15  and  C_10 
ROOT
ATOM      1  C   UNL d   1       0.854  -0.100   0.016  0.00  0.00     0.232 C 
ATOM      2  N   UNL d   1       0.216   0.567   1.063  0.00  0.00    -0.317 N 
ATOM      3  O   UNL d   1       2.072  -0.326   0.100  0.00  0.00    -0.272 OA
ENDROOT
BRANCH   2   4
ATOM      4  C   UNL d   1      -1.231   0.874   1.280  0.00  0.00     0.138 C 
BRANCH   4   5
ATOM      5  C   UNL d   1      -1.463   2.377   1.532  0.00  0.00     0.077 C 
BRANCH   5   6
ATOM      6  C   UNL d   1      -2.794   2.842   2.064  0.00  0.00     0.010 A 
ATOM      7  N   UNL d   1      -3.605   1.972   2.707  0.00  0.00    -0.369 N 
ATOM      8  C   UNL d   1      -4.665   2.498   3.368  0.00  0.00     0.088 A 
ATOM      9  HN  UNL d   1      -3.428   0.968   2.695  1.00  0.00     0.165 HD
ATOM     10  C   UNL d   1      -4.956   3.855   3.423  0.00  0.00     0.017 A 
ATOM     11  C   UNL d   1      -4.120   4.731   2.746  0.00  0.00     0.003 A 
ATOM     12  C   UNL d   1      -3.028   4.220   2.058  0.00  0.00     0.025 A 
ENDBRANCH   5   6
ENDBRANCH   4   5
ENDBRANCH   2   4
BRANCH   2  13
ATOM     13  C   UNL d   1       1.059   1.114   2.096  0.00  0.00     0.037 A 
ATOM     14  C   UNL d   1       1.891   2.201   1.786  0.00  0.00     0.030 A 
ATOM     15  C   UNL d   1       2.479   2.958   2.807  0.00  0.00     0.010 A 
ATOM     16  C   UNL d   1       2.272   2.628   4.153  0.00  0.00    -0.055 A 
ATOM     17  C   UNL d   1       1.495   1.494   4.449  0.00  0.00     0.010 A 
ATOM     18  C   UNL d   1       0.876   0.755   3.432  0.00  0.00     0.030 A 
BRANCH  16  19
ATOM     19  C   UNL d   1       2.881   3.425   5.297  0.00  0.00     0.010 C 
ATOM     20  C   UNL d   1       4.301   2.933   5.583  0.00  0.00     0.015 C 
ATOM     21  C   UNL d   1       2.871   4.944   5.091  0.00  0.00     0.015 C 
ENDBRANCH  16  19
ENDBRANCH   2  13
BRANCH   1  22
ATOM     22  C   UNL d   1       0.148  -0.500  -1.320  0.00  0.00     0.030 C 
ATOM     23  C   UNL d   1      -0.081   0.758  -2.165  0.00  0.00     0.025 C 
ATOM     24  C   UNL d   1       1.146  -1.409  -2.101  0.00  0.00     0.025 C 
ATOM     25  C   UNL d   1      -1.143  -1.320  -1.221  0.00  0.00     0.025 C 
ENDBRANCH   1  22
TORSDOF 6
