REMARK  4 active torsions:
REMARK  status: ('A' for Active; 'I' for Inactive)
REMARK    1  A    between atoms: C_6  and  C_1 
REMARK    2  A    between atoms: C_3  and  C_6 
REMARK    3  A    between atoms: C_11  and  C_4 
REMARK    4  A    between atoms: C_13  and  C_8 
ROOT
ATOM      1  C   UNL d   1      -1.068  -3.651   0.084  0.00  0.00     0.096 C 
ATOM      2  C   UNL d   1      -0.831  -4.905  -0.351  0.00  0.00     0.038 C 
ATOM      3  C   UNL d   1      -2.324  -3.261   0.625  0.00  0.00     0.103 C 
ATOM      4  N   UNL d   1      -3.352  -2.919   1.044  0.00  0.00    -0.191 NA
ENDROOT
BRANCH   1   5
ATOM      5  C   UNL d   1       0.081  -2.686   0.029  0.00  0.00     0.205 C 
ATOM      6  O   UNL d   1       1.242  -3.085   0.029  0.00  0.00    -0.286 OA
BRANCH   5   7
ATOM      7  C   UNL d   1      -0.254  -1.265  -0.015  0.00  0.00     0.048 A 
ATOM      8  C   UNL d   1      -1.404  -0.608  -0.550  0.00  0.00     0.056 A 
ATOM      9  C   UNL d   1      -1.285   0.736  -0.265  0.00  0.00     0.086 A 
ATOM     10  O   UNL d   1      -0.076   0.967   0.315  0.00  0.00    -0.314 OA
ATOM     11  C   UNL d   1       0.551  -0.237   0.460  0.00  0.00     0.064 A 
ATOM     12  C   UNL d   1       1.878  -0.170   1.112  0.00  0.00     0.077 C 
BRANCH   9  13
ATOM     13  C   UNL d   1      -2.179   1.879  -0.410  0.00  0.00    -0.002 A 
ATOM     14  C   UNL d   1      -3.566   1.672  -0.497  0.00  0.00     0.016 A 
ATOM     15  C   UNL d   1      -4.448   2.751  -0.595  0.00  0.00     0.024 A 
ATOM     16  C   UNL d   1      -3.950   4.050  -0.613  0.00  0.00     0.034 A 
ATOM     17  C   UNL d   1      -2.578   4.278  -0.535  0.00  0.00     0.024 A 
ATOM     18 CL   UNL d   1      -5.037   5.379  -0.721  0.00  0.00    -0.084 Cl
ATOM     19  C   UNL d   1      -1.696   3.195  -0.432  0.00  0.00     0.016 A 
ENDBRANCH   9  13
ENDBRANCH   5   7
ENDBRANCH   1   5
BRANCH   2  20
ATOM     20  C   UNL d   1      -1.830  -5.980  -0.372  0.00  0.00    -0.034 A 
ATOM     21  C   UNL d   1      -1.996  -6.818   0.738  0.00  0.00     0.018 A 
ATOM     22  C   UNL d   1      -2.948  -7.848   0.716  0.00  0.00    -0.061 A 
ATOM     23  C   UNL d   1      -3.132  -8.760   1.894  0.00  0.00     0.048 C 
ATOM     24  C   UNL d   1      -3.740  -8.022  -0.426  0.00  0.00     0.007 A 
ATOM     25  C   UNL d   1      -3.581  -7.185  -1.530  0.00  0.00     0.001 A 
ATOM     26  C   UNL d   1      -2.627  -6.167  -1.505  0.00  0.00     0.011 A 
ENDBRANCH   2  20
TORSDOF 4
