REMARK  3 active torsions:
REMARK  status: ('A' for Active; 'I' for Inactive)
REMARK    1  A    between atoms: C_2  and  C_1 
REMARK    2  A    between atoms: C_8  and  N_3 
REMARK    3  A    between atoms: O_13  and  C_5 
ROOT
ATOM      1  C   UNL d   1      -2.762  -2.490   0.059  0.00  0.00     0.102 C 
ATOM      2  N   UNL d   1      -4.051  -2.546  -0.068  0.00  0.00    -0.365 N 
ATOM      3  HN  UNL d   1      -4.594  -1.694  -0.212  1.00  0.00     0.165 HD
ENDROOT
BRANCH   1   4
ATOM      4  C   UNL d   1      -2.044  -1.199   0.022  0.00  0.00     0.014 A 
ATOM      5  C   UNL d   1      -2.721   0.027   0.025  0.00  0.00     0.077 A 
ATOM      6  C   UNL d   1      -2.010   1.224   0.020  0.00  0.00     0.039 A 
ATOM      7  C   UNL d   1      -0.614   1.203   0.001  0.00  0.00     0.022 A 
ATOM      8  C   UNL d   1       0.059  -0.020  -0.012  0.00  0.00     0.011 A 
ATOM      9  C   UNL d   1      -0.646  -1.224   0.002  0.00  0.00     0.034 A 
ATOM     10 BR   UNL d   1       1.949  -0.046  -0.048  0.00  0.00    -0.051 Br
BRANCH   5  11
ATOM     11  O   UNL d   1      -4.085   0.122   0.041  0.00  0.00    -0.360 OA
ATOM     12  H   UNL d   1      -4.441  -0.794  -0.013  0.00  0.00     0.217 HD
ENDBRANCH   5  11
ENDBRANCH   1   4
BRANCH   2  13
ATOM     13  C   UNL d   1      -4.690  -3.797  -0.004  0.00  0.00     0.032 A 
ATOM     14  C   UNL d   1      -5.924  -3.865   0.656  0.00  0.00     0.032 A 
ATOM     15  C   UNL d   1      -6.628  -5.067   0.739  0.00  0.00     0.044 A 
ATOM     16  C   UNL d   1      -6.096  -6.210   0.156  0.00  0.00     0.116 A 
ATOM     17  C   UNL d   1      -4.883  -6.167  -0.518  0.00  0.00     0.044 A 
ATOM     18  F   UNL d   1      -6.766  -7.367   0.237  0.00  0.00    -0.206 F 
ATOM     19  C   UNL d   1      -4.187  -4.958  -0.610  0.00  0.00     0.032 A 
ENDBRANCH   2  13
TORSDOF 3
