REMARK  7 active torsions:
REMARK  status: ('A' for Active; 'I' for Inactive)
REMARK    1  A    between atoms: C_3  and  C_1 
REMARK    2  A    between atoms: S_2  and  N_7 
REMARK       I    between atoms: N_8  and  C_3 
REMARK    3  A    between atoms: C_4  and  C_5 
REMARK    4  A    between atoms: O_20  and  C_6 
REMARK    5  A    between atoms: N_7  and  N_8 
REMARK    6  A    between atoms: C_12  and  C_22 
REMARK    7  A    between atoms: C_22  and  O_20 
ROOT
ATOM      1  C   UNL d   1       0.037   1.350  -0.034  0.00  0.00     0.107 A 
ATOM      2  C   UNL d   1       1.293   0.771  -0.118  0.00  0.00     0.092 A 
ATOM      3  S   UNL d   1      -1.188   0.143   0.104  0.00  0.00    -0.094 SA
ATOM      4  C   UNL d   1       1.236  -0.656   0.010  0.00  0.00     0.045 A 
ATOM      5  C   UNL d   1      -0.053  -1.124   0.108  0.00  0.00     0.053 A 
ENDROOT
BRANCH   2   6
ATOM      6  O   UNL d   1       2.406   1.536  -0.301  0.00  0.00    -0.344 OA
BRANCH   6   7
ATOM      7  C   UNL d   1       3.563   0.776  -0.689  0.00  0.00     0.234 C 
BRANCH   7   8
ATOM      8  C   UNL d   1       4.705   1.630  -1.204  0.00  0.00     0.055 A 
ATOM      9  N   UNL d   1       4.601   2.981  -1.097  0.00  0.00    -0.365 N 
ATOM     10  C   UNL d   1       5.622   3.738  -1.571  0.00  0.00     0.104 A 
ATOM     11  HN  UNL d   1       3.780   3.413  -0.672  1.00  0.00     0.165 HD
ATOM     12  C   UNL d   1       6.765   3.213  -2.158  0.00  0.00     0.064 A 
ATOM     13  C   UNL d   1       6.865   1.823  -2.251  0.00  0.00     0.043 A 
ATOM     14  C   UNL d   1       5.832   1.020  -1.767  0.00  0.00     0.059 A 
ATOM     15 CL   UNL d   1       6.002  -0.692  -1.893  0.00  0.00    -0.082 Cl
BRANCH  12  16
ATOM     16  C   UNL d   1       7.840   4.125  -2.663  0.00  0.00     0.418 C 
ATOM     17  F   UNL d   1       8.889   3.459  -3.221  0.00  0.00    -0.166 F 
ATOM     18  F   UNL d   1       7.395   4.982  -3.619  0.00  0.00    -0.166 F 
ATOM     19  F   UNL d   1       8.375   4.898  -1.679  0.00  0.00    -0.166 F 
ENDBRANCH  12  16
ENDBRANCH   7   8
ENDBRANCH   6   7
ENDBRANCH   2   6
BRANCH   1  20
ATOM     20  C   UNL d   1      -0.394   2.740  -0.064  0.00  0.00     0.280 C 
ATOM     21  N   UNL d   1       0.604   3.703  -0.080  0.00  0.00    -0.256 N 
ATOM     22  H   UNL d   1       1.600   3.482  -0.151  0.00  0.00     0.191 HD
ATOM     23  O   UNL d   1      -1.575   3.102  -0.079  0.00  0.00    -0.265 OA
BRANCH  21  24
ATOM     24  N   UNL d   1       0.172   5.106  -0.152  0.00  0.00    -0.225 N 
ATOM     25  H   UNL d   1      -0.829   5.199  -0.372  0.00  0.00     0.200 HD
BRANCH  24  26
ATOM     26  S   UNL d   1       1.217   6.221  -0.859  0.00  0.00     0.240 S 
ATOM     27  O   UNL d   1       2.485   6.153  -0.163  0.00  0.00    -0.205 OA
ATOM     28  O   UNL d   1       1.134   6.047  -2.292  0.00  0.00    -0.205 OA
ATOM     29  C   UNL d   1       0.411   7.750  -0.433  0.00  0.00     0.187 C 
ENDBRANCH  24  26
ENDBRANCH  21  24
ENDBRANCH   1  20
TORSDOF 7
