REMARK  4 active torsions:
REMARK  status: ('A' for Active; 'I' for Inactive)
REMARK    1  A    between atoms: C_6  and  C_1 
REMARK    2  A    between atoms: C_8  and  C_6 
REMARK       I    between atoms: C_7  and  N_9 
REMARK    3  A    between atoms: C_14  and  C_7 
REMARK       I    between atoms: N_10  and  C_8 
REMARK    4  A    between atoms: N_9  and  N_10 
ROOT
ATOM      1  C   UNL d   1       4.207   1.666   0.125  0.00  0.00     0.240 C 
ATOM      2  N   UNL d   1       3.272   2.638  -0.140  0.00  0.00    -0.267 N 
ATOM      3  O   UNL d   1       5.403   1.982   0.238  0.00  0.00    -0.271 OA
ATOM      4  H   UNL d   1       2.273   2.496  -0.268  0.00  0.00     0.190 HD
ENDROOT
BRANCH   1   5
ATOM      5  C   UNL d   1       3.804   0.228   0.334  0.00  0.00     0.151 C 
BRANCH   5   6
ATOM      6  C   UNL d   1       2.400  -0.179  -0.006  0.00  0.00    -0.001 A 
ATOM      7  S   UNL d   1       2.039  -0.628  -1.616  0.00  0.00    -0.093 SA
ATOM      8  C   UNL d   1       0.534  -1.328  -1.178  0.00  0.00     0.016 A 
ATOM      9  C   UNL d   1      -0.334  -2.065  -2.011  0.00  0.00     0.021 A 
ATOM     10  C   UNL d   1       0.239  -1.091   0.166  0.00  0.00    -0.011 A 
ATOM     11  C   UNL d   1      -1.521  -2.570  -1.477  0.00  0.00     0.025 A 
ATOM     12  C   UNL d   1      -1.851  -2.321  -0.154  0.00  0.00     0.035 A 
ATOM     13  C   UNL d   1      -0.994  -1.586   0.669  0.00  0.00     0.037 A 
ATOM     14 CL   UNL d   1      -3.320  -2.944   0.492  0.00  0.00    -0.084 Cl
ATOM     15  C   UNL d   1       1.327  -0.408   0.845  0.00  0.00    -0.037 A 
ATOM     16  C   UNL d   1       1.303  -0.121   2.316  0.00  0.00     0.050 C 
ENDBRANCH   5   6
ENDBRANCH   1   5
BRANCH   2  17
ATOM     17  N   UNL d   1       3.796   3.935  -0.331  0.00  0.00    -0.263 N 
ATOM     18  C   UNL d   1       2.990   5.046  -0.194  0.00  0.00     0.270 C 
ATOM     19  O   UNL d   1       1.769   4.986  -0.091  0.00  0.00    -0.266 OA
ATOM     20  H   UNL d   1       4.797   3.993  -0.149  0.00  0.00     0.190 HD
BRANCH  18  21
ATOM     21  C   UNL d   1       3.717   6.357  -0.124  0.00  0.00     0.033 A 
ATOM     22  C   UNL d   1       5.017   6.521  -0.631  0.00  0.00     0.017 A 
ATOM     23  C   UNL d   1       5.682   7.742  -0.494  0.00  0.00     0.001 A 
ATOM     24  C   UNL d   1       5.051   8.815   0.134  0.00  0.00     0.000 A 
ATOM     25  C   UNL d   1       3.750   8.672   0.613  0.00  0.00     0.001 A 
ATOM     26  C   UNL d   1       3.083   7.449   0.482  0.00  0.00     0.017 A 
ENDBRANCH  18  21
ENDBRANCH   2  17
TORSDOF 4
