REMARK  6 active torsions:
REMARK  status: ('A' for Active; 'I' for Inactive)
REMARK    1  A    between atoms: C_2  and  C_1 
REMARK    2  A    between atoms: C_3  and  C_1 
REMARK    3  A    between atoms: C_5  and  C_1 
REMARK    4  A    between atoms: O_6  and  C_1 
REMARK    5  A    between atoms: C_8  and  C_3 
REMARK    6  A    between atoms: N_7  and  C_4 
ROOT
ATOM      1  C   UNL d   1       0.803  -0.104  -0.173  0.00  0.00     0.117 C 
ENDROOT
BRANCH   1   2
ATOM      2  C   UNL d   1       0.472  -1.544   0.302  0.00  0.00     0.002 A 
ATOM      3  C   UNL d   1       0.772  -2.680  -0.499  0.00  0.00     0.015 A 
ATOM      4  C   UNL d   1       0.451  -3.969  -0.034  0.00  0.00     0.024 A 
ATOM      5  C   UNL d   1      -0.188  -4.158   1.186  0.00  0.00     0.002 A 
ATOM      6  C   UNL d   1      -0.472  -3.062   1.983  0.00  0.00     0.001 A 
ATOM      7  C   UNL d   1      -0.139  -1.775   1.550  0.00  0.00     0.012 A 
BRANCH   3   8
ATOM      8  N   UNL d   1       1.599  -2.609  -1.636  0.00  0.00    -0.302 NA
ATOM      9  H   UNL d   1       1.630  -1.697  -2.087  0.00  0.00     0.124 HD
ATOM     10  H   UNL d   1       1.404  -3.339  -2.317  0.00  0.00     0.124 HD
ENDBRANCH   3   8
ENDBRANCH   1   2
BRANCH   1  11
ATOM     11  C   UNL d   1       0.483   1.087   0.811  0.00  0.00     0.086 C 
BRANCH  11  12
ATOM     12  C   UNL d   1      -0.919   1.399   1.313  0.00  0.00    -0.055 A 
ATOM     13  C   UNL d   1      -1.092   1.748   2.665  0.00  0.00     0.007 A 
ATOM     14  C   UNL d   1      -2.356   2.061   3.178  0.00  0.00     0.001 A 
ATOM     15  C   UNL d   1      -3.468   2.040   2.344  0.00  0.00     0.000 A 
ATOM     16  C   UNL d   1      -3.311   1.737   0.998  0.00  0.00     0.001 A 
ATOM     17  C   UNL d   1      -2.044   1.444   0.485  0.00  0.00     0.007 A 
ENDBRANCH  11  12
ENDBRANCH   1  11
BRANCH   1  18
ATOM     18  C   UNL d   1       0.287   0.231  -1.591  0.00  0.00    -0.019 A 
ATOM     19  C   UNL d   1      -0.874  -0.362  -2.125  0.00  0.00     0.010 A 
ATOM     20  C   UNL d   1      -1.325  -0.050  -3.408  0.00  0.00     0.001 A 
ATOM     21  C   UNL d   1      -0.617   0.855  -4.195  0.00  0.00     0.000 A 
ATOM     22  C   UNL d   1       0.538   1.449  -3.696  0.00  0.00     0.001 A 
ATOM     23  C   UNL d   1       0.984   1.146  -2.407  0.00  0.00     0.010 A 
ENDBRANCH   1  18
BRANCH   1  24
ATOM     24  O   UNL d   1       2.259  -0.060  -0.266  0.00  0.00    -0.380 OA
ATOM     25  H   UNL d   1       2.597  -0.907   0.082  0.00  0.00     0.211 HD
ENDBRANCH   1  24
TORSDOF 6
