REMARK  8 active torsions:
REMARK  status: ('A' for Active; 'I' for Inactive)
REMARK    1  A    between atoms: C_5  and  C_1 
REMARK    2  A    between atoms: N_2  and  C_14 
REMARK    3  A    between atoms: C_15  and  N_3 
REMARK    4  A    between atoms: C_9  and  O_13 
REMARK    5  A    between atoms: C_14  and  C_9 
REMARK    6  A    between atoms: O_30  and  C_9 
REMARK    7  A    between atoms: C_12  and  C_15 
REMARK    8  A    between atoms: O_13  and  C_26 
ROOT
ATOM      1  N   UNL d   1       0.038   3.751   4.176  0.00  0.00     0.096 N 
ATOM      2  N   UNL d   1       0.674   2.785   6.988  0.00  0.00     0.096 N 
ATOM      3  C   UNL d   1      -0.640   2.589   4.800  0.00  0.00     0.302 C 
ATOM      4  C   UNL d   1      -0.643   2.565   6.350  0.00  0.00     0.303 C 
ATOM      5  C   UNL d   1       1.338   3.970   4.842  0.00  0.00     0.302 C 
ATOM      6  C   UNL d   1       1.276   3.997   6.391  0.00  0.00     0.303 C 
ENDROOT
BRANCH   1   7
ATOM      7  C   UNL d   1      -0.818   4.959   4.194  0.00  0.00     0.333 C 
BRANCH   7   8
ATOM      8  C   UNL d   1      -0.240   6.190   3.421  0.00  0.00     0.291 C 
BRANCH   8   9
ATOM      9  O   UNL d   1      -1.129   7.303   3.514  0.00  0.00    -0.319 OA
BRANCH   9  10
ATOM     10  C   UNL d   1      -1.064   8.101   4.622  0.00  0.00     0.072 A 
ATOM     11  C   UNL d   1      -1.936   9.189   4.597  0.00  0.00     0.037 A 
ATOM     12  C   UNL d   1      -2.031  10.056   5.686  0.00  0.00     0.019 A 
ATOM     13  C   UNL d   1      -1.252   9.844   6.831  0.00  0.00     0.048 A 
ATOM     14  C   UNL d   1      -0.349   8.772   6.840  0.00  0.00     0.019 A 
ATOM     15  C   UNL d   1      -0.254   7.912   5.742  0.00  0.00     0.037 A 
BRANCH  13  16
ATOM     16  C   UNL d   1      -1.409  10.747   8.029  0.00  0.00     0.417 C 
ATOM     17  F   UNL d   1      -0.607  10.406   9.077  0.00  0.00    -0.166 F 
ATOM     18  F   UNL d   1      -2.680  10.741   8.518  0.00  0.00    -0.166 F 
ATOM     19  F   UNL d   1      -1.123  12.046   7.747  0.00  0.00    -0.166 F 
ENDBRANCH  13  16
ENDBRANCH   9  10
ENDBRANCH   8   9
BRANCH   8  20
ATOM     20  O   UNL d   1      -0.068   5.879   2.035  0.00  0.00    -0.369 OA
ATOM     21  H   UNL d   1      -0.738   5.212   1.816  0.00  0.00     0.212 HD
ENDBRANCH   8  20
ENDBRANCH   7   8
ENDBRANCH   1   7
BRANCH   2  22
ATOM     22  C   UNL d   1       1.603   1.652   6.821  0.00  0.00     0.311 C 
BRANCH  22  23
ATOM     23  C   UNL d   1       1.141   0.344   7.414  0.00  0.00    -0.027 A 
ATOM     24  C   UNL d   1       0.956  -0.767   6.571  0.00  0.00     0.048 A 
ATOM     25  C   UNL d   1       0.605  -1.965   7.143  0.00  0.00     0.105 A 
ATOM     26  O   UNL d   1       0.412  -3.133   6.475  0.00  0.00    -0.323 OA
ATOM     27  C   UNL d   1       0.429  -2.098   8.500  0.00  0.00     0.105 A 
ATOM     28  C   UNL d   1       0.125  -4.025   7.570  0.00  0.00     0.352 A 
ATOM     29  O   UNL d   1       0.101  -3.369   8.855  0.00  0.00    -0.323 OA
ATOM     30  C   UNL d   1       0.585  -1.029   9.357  0.00  0.00     0.040 A 
ATOM     31  C   UNL d   1       0.945   0.204   8.807  0.00  0.00     0.012 A 
ENDBRANCH  22  23
ENDBRANCH   2  22
TORSDOF 8
