REMARK  9 active torsions:
REMARK  status: ('A' for Active; 'I' for Inactive)
REMARK    1  A    between atoms: C_8  and  C_1 
REMARK    2  A    between atoms: C_15  and  C_4 
REMARK    3  A    between atoms: C_9  and  C_7 
REMARK    4  A    between atoms: O_20  and  C_8 
REMARK    5  A    between atoms: O_21  and  C_9 
REMARK    6  A    between atoms: C_18  and  C_10 
REMARK    7  A    between atoms: C_11  and  C_22 
REMARK    8  A    between atoms: C_22  and  O_20 
REMARK    9  A    between atoms: C_27  and  O_21 
ROOT
ATOM      1  O   UNL d   1       1.699  -2.895   0.108  0.00  0.00    -0.305 OA
ENDROOT
BRANCH   1   2
ATOM      2  C   UNL d   1       0.351  -2.736   0.030  0.00  0.00     0.299 C 
ATOM      3  O   UNL d   1      -0.442  -3.651  -0.140  0.00  0.00    -0.259 OA
BRANCH   2   4
ATOM      4  C   UNL d   1      -0.050  -1.363   0.223  0.00  0.00     0.100 A 
ATOM      5  C   UNL d   1      -1.226  -0.848   0.856  0.00  0.00     0.084 A 
ATOM      6  N   UNL d   1      -1.244   0.493   0.769  0.00  0.00    -0.259 N 
ATOM      7  O   UNL d   1      -0.089   0.865   0.124  0.00  0.00    -0.241 OA
ATOM      8  HN  UNL d   1      -1.975   1.116   1.115  1.00  0.00     0.195 HD
ATOM      9  C   UNL d   1       0.632  -0.239  -0.194  0.00  0.00     0.091 A 
ATOM     10  C   UNL d   1       1.902   0.003  -0.908  0.00  0.00     0.080 C 
BRANCH   5  11
ATOM     11  C   UNL d   1      -2.297  -1.560   1.561  0.00  0.00    -0.006 A 
ATOM     12  C   UNL d   1      -3.607  -1.057   1.549  0.00  0.00     0.014 A 
ATOM     13  C   UNL d   1      -4.636  -1.725   2.220  0.00  0.00     0.001 A 
ATOM     14  C   UNL d   1      -4.369  -2.906   2.909  0.00  0.00     0.000 A 
ATOM     15  C   UNL d   1      -3.072  -3.410   2.943  0.00  0.00     0.001 A 
ATOM     16  C   UNL d   1      -2.041  -2.733   2.286  0.00  0.00     0.014 A 
ENDBRANCH   5  11
ENDBRANCH   2   4
ENDBRANCH   1   2
BRANCH   1  17
ATOM     17  C   UNL d   1       2.180  -4.237  -0.012  0.00  0.00     0.273 C 
BRANCH  17  18
ATOM     18  C   UNL d   1       2.964  -4.343  -1.243  0.00  0.00    -0.074 C 
ATOM     19  C   UNL d   1       3.574  -4.407  -2.273  0.00  0.00    -0.063 C 
BRANCH  19  20
ATOM     20  C   UNL d   1       4.258  -4.467  -3.524  0.00  0.00     0.034 A 
ATOM     21  C   UNL d   1       5.634  -4.266  -3.604  0.00  0.00     0.041 A 
ATOM     22  C   UNL d   1       6.260  -4.338  -4.851  0.00  0.00     0.056 A 
ATOM     23  C   UNL d   1       5.475  -4.600  -5.968  0.00  0.00     0.105 A 
ATOM     24  N   UNL d   1       4.134  -4.796  -5.919  0.00  0.00    -0.373 N 
ATOM     25  C   UNL d   1       3.559  -4.730  -4.697  0.00  0.00     0.108 A 
ATOM     26  HN  UNL d   1       3.588  -4.983  -6.760  1.00  0.00     0.164 HD
BRANCH  22  27
ATOM     27  C   UNL d   1       7.721  -4.236  -5.043  0.00  0.00     0.294 C 
ATOM     28  O   UNL d   1       8.263  -4.342  -6.131  0.00  0.00    -0.259 OA
BRANCH  27  29
ATOM     29  O   UNL d   1       8.340  -4.135  -3.842  0.00  0.00    -0.318 OA
BRANCH  29  30
ATOM     30  C   UNL d   1       9.730  -4.491  -3.841  0.00  0.00     0.174 C 
ATOM     31  C   UNL d   1       9.825  -5.982  -3.574  0.00  0.00     0.034 C 
ENDBRANCH  29  30
ENDBRANCH  27  29
ENDBRANCH  22  27
ENDBRANCH  19  20
ENDBRANCH  17  18
ENDBRANCH   1  17
TORSDOF 9
