REMARK  6 active torsions:
REMARK  status: ('A' for Active; 'I' for Inactive)
REMARK    1  A    between atoms: C_4  and  S_1 
REMARK    2  A    between atoms: N_8  and  S_1 
REMARK    3  A    between atoms: S_2  and  N_3 
REMARK    4  A    between atoms: C_7  and  S_2 
REMARK    5  A    between atoms: N_3  and  C_5 
REMARK       I    between atoms: C_13  and  N_14 
REMARK    6  A    between atoms: N_14  and  C_21 
ROOT
ATOM      1  N   UNL d   1      -0.733   1.544  -4.816  0.00  0.00    -0.280 N 
ATOM      2  H   UNL d   1       0.111   1.872  -5.285  0.00  0.00     0.179 HD
ENDROOT
BRANCH   1   3
ATOM      3  S   UNL d   1      -1.983   2.653  -4.855  0.00  0.00     0.263 S 
ATOM      4  O   UNL d   1      -2.311   3.055  -3.505  0.00  0.00    -0.200 OA
ATOM      5  O   UNL d   1      -1.609   3.631  -5.857  0.00  0.00    -0.200 OA
BRANCH   3   6
ATOM      6  C   UNL d   1      -3.364   1.738  -5.514  0.00  0.00     0.080 A 
ATOM      7  C   UNL d   1      -4.337   1.233  -4.649  0.00  0.00     0.027 A 
ATOM      8  C   UNL d   1      -5.488   0.625  -5.171  0.00  0.00     0.031 A 
ATOM      9  C   UNL d   1      -5.684   0.523  -6.557  0.00  0.00     0.034 A 
ATOM     10  C   UNL d   1      -4.695   1.023  -7.409  0.00  0.00     0.031 A 
ATOM     11  C   UNL d   1      -3.543   1.637  -6.895  0.00  0.00     0.027 A 
BRANCH   9  12
ATOM     12  N   UNL d   1      -6.894  -0.056  -7.008  0.00  0.00    -0.328 N 
ATOM     13  C   UNL d   1      -7.290  -0.245  -8.321  0.00  0.00     0.218 C 
ATOM     14  O   UNL d   1      -6.638   0.020  -9.326  0.00  0.00    -0.274 OA
ATOM     15  C   UNL d   1      -8.674  -0.832  -8.462  0.00  0.00     0.117 C 
ATOM     16  H   UNL d   1      -7.545  -0.342  -6.287  0.00  0.00     0.169 HD
ENDBRANCH   9  12
ENDBRANCH   3   6
ENDBRANCH   1   3
BRANCH   1  17
ATOM     17  C   UNL d   1      -0.579   0.552  -3.808  0.00  0.00     0.050 A 
ATOM     18  C   UNL d   1      -0.124   0.892  -2.527  0.00  0.00     0.055 A 
ATOM     19  C   UNL d   1       0.286  -0.126  -1.651  0.00  0.00     0.081 A 
ATOM     20  C   UNL d   1       0.305  -1.459  -2.063  0.00  0.00     0.026 A 
ATOM     21  C   UNL d   1      -0.168  -1.793  -3.326  0.00  0.00     0.010 A 
ATOM     22  C   UNL d   1      -0.627  -0.798  -4.201  0.00  0.00    -0.035 A 
ATOM     23  C   UNL d   1      -1.104  -1.210  -5.566  0.00  0.00     0.050 C 
BRANCH  19  24
ATOM     24  S   UNL d   1       0.920   0.250  -0.027  0.00  0.00     0.260 S 
ATOM     25  O   UNL d   1       1.271   1.657  -0.014  0.00  0.00    -0.200 OA
ATOM     26  O   UNL d   1       1.901  -0.765   0.296  0.00  0.00    -0.200 OA
BRANCH  24  27
ATOM     27  N   UNL d   1      -0.436   0.023   0.977  0.00  0.00    -0.315 N 
ATOM     28  C   UNL d   1      -1.498   1.038   0.882  0.00  0.00     0.162 C 
ATOM     29  C   UNL d   1      -0.948  -1.348   1.142  0.00  0.00     0.162 C 
ENDBRANCH  24  27
ENDBRANCH  19  24
ENDBRANCH   1  17
TORSDOF 6
