REMARK  9 active torsions:
REMARK  status: ('A' for Active; 'I' for Inactive)
REMARK    1  A    between atoms: N_2  and  S_1 
REMARK    2  A    between atoms: C_5  and  S_1 
REMARK    3  A    between atoms: N_3  and  N_2 
REMARK    4  A    between atoms: C_4  and  N_3 
REMARK    5  A    between atoms: N_9  and  C_4 
REMARK    6  A    between atoms: C_18  and  N_9 
REMARK    7  A    between atoms: C_16  and  C_18 
REMARK    8  A    between atoms: C_19  and  C_16 
REMARK    9  A    between atoms: O_17  and  C_19 
ROOT
ATOM      1  N   UNL d   1       0.900  -1.377  -0.906  0.00  0.00    -0.221 N 
ATOM      2  H   UNL d   1       0.661  -2.301  -0.535  0.00  0.00     0.200 HD
ENDROOT
BRANCH   1   3
ATOM      3  S   UNL d   1       0.892  -0.089   0.170  0.00  0.00     0.276 S 
ATOM      4  O   UNL d   1       1.836   0.903  -0.303  0.00  0.00    -0.199 OA
ATOM      5  O   UNL d   1       0.947  -0.631   1.507  0.00  0.00    -0.199 OA
BRANCH   3   6
ATOM      6  C   UNL d   1      -0.750   0.560  -0.063  0.00  0.00     0.081 A 
ATOM      7  C   UNL d   1      -1.849  -0.286   0.123  0.00  0.00     0.027 A 
ATOM      8  C   UNL d   1      -3.142   0.220  -0.032  0.00  0.00     0.025 A 
ATOM      9  C   UNL d   1      -3.327   1.560  -0.372  0.00  0.00     0.034 A 
ATOM     10  C   UNL d   1      -2.229   2.401  -0.564  0.00  0.00     0.025 A 
ATOM     11 CL   UNL d   1      -4.920   2.187  -0.542  0.00  0.00    -0.084 Cl
ATOM     12  C   UNL d   1      -0.934   1.903  -0.402  0.00  0.00     0.027 A 
ENDBRANCH   3   6
ENDBRANCH   1   3
BRANCH   1  13
ATOM     13  N   UNL d   1       1.049  -1.184  -2.322  0.00  0.00    -0.267 N 
ATOM     14  H   UNL d   1       1.415  -0.284  -2.647  0.00  0.00     0.190 HD
BRANCH  13  15
ATOM     15  C   UNL d   1       0.597  -2.123  -3.213  0.00  0.00     0.186 C 
ATOM     16  S   UNL d   1      -0.461  -3.364  -2.841  0.00  0.00    -0.040 SA
BRANCH  15  17
ATOM     17  N   UNL d   1       1.065  -2.019  -4.492  0.00  0.00    -0.366 N 
ATOM     18  H   UNL d   1       0.690  -2.722  -5.121  0.00  0.00     0.161 HD
BRANCH  17  19
ATOM     19  C   UNL d   1       2.356  -1.450  -4.850  0.00  0.00     0.124 C 
BRANCH  19  20
ATOM     20  C   UNL d   1       2.241  -0.225  -5.746  0.00  0.00     0.046 C 
BRANCH  20  21
ATOM     21  C   UNL d   1       1.434   0.909  -5.126  0.00  0.00     0.168 C 
BRANCH  21  22
ATOM     22  O   UNL d   1       1.980   1.236  -3.849  0.00  0.00    -0.396 OA
ATOM     23  C   UNL d   1       1.306   2.346  -3.268  0.00  0.00     0.201 C 
ENDBRANCH  21  22
ENDBRANCH  20  21
ENDBRANCH  19  20
ENDBRANCH  17  19
ENDBRANCH  15  17
ENDBRANCH  13  15
ENDBRANCH   1  13
TORSDOF 9
