REMARK  6 active torsions:
REMARK  status: ('A' for Active; 'I' for Inactive)
REMARK    1  A    between atoms: C_2  and  N_1 
REMARK       I    between atoms: C_3  and  N_1 
REMARK    2  A    between atoms: N_9  and  C_2 
REMARK    3  A    between atoms: C_6  and  C_3 
REMARK    4  A    between atoms: C_4  and  C_7 
REMARK    5  A    between atoms: C_14  and  N_9 
REMARK    6  A    between atoms: C_15  and  C_14 
ROOT
ATOM      1  N   UNL d   1       1.115   0.356   0.136  0.00  0.00    -0.300 N 
ATOM      2  C   UNL d   1       2.456   0.339   0.477  0.00  0.00     0.247 C 
ATOM      3  O   UNL d   1       3.066  -0.702   0.663  0.00  0.00    -0.268 OA
ATOM      4  H   UNL d   1       0.744  -0.586   0.139  0.00  0.00     0.171 HD
ENDROOT
BRANCH   1   5
ATOM      5  C   UNL d   1       0.379   1.199  -0.686  0.00  0.00     0.174 C 
ATOM      6  S   UNL d   1       0.941   2.371  -1.730  0.00  0.00    -0.041 SA
BRANCH   5   7
ATOM      7  N   UNL d   1      -0.978   1.042  -0.594  0.00  0.00    -0.363 N 
ATOM      8  H   UNL d   1      -1.508   1.652  -1.207  0.00  0.00     0.162 HD
BRANCH   7   9
ATOM      9  C   UNL d   1      -1.695   0.452   0.522  0.00  0.00     0.160 C 
BRANCH   9  10
ATOM     10  C   UNL d   1      -1.897  -1.027   0.346  0.00  0.00    -0.041 A 
ATOM     11  C   UNL d   1      -1.381  -1.935   1.281  0.00  0.00     0.009 A 
ATOM     12  C   UNL d   1      -1.572  -3.307   1.112  0.00  0.00     0.001 A 
ATOM     13  C   UNL d   1      -2.285  -3.782   0.013  0.00  0.00     0.000 A 
ATOM     14  C   UNL d   1      -2.808  -2.889  -0.919  0.00  0.00     0.001 A 
ATOM     15  C   UNL d   1      -2.615  -1.518  -0.755  0.00  0.00     0.009 A 
ENDBRANCH   9  10
ENDBRANCH   7   9
ENDBRANCH   5   7
ENDBRANCH   1   5
BRANCH   2  16
ATOM     16  C   UNL d   1       3.071   1.666   0.660  0.00  0.00     0.076 C 
ATOM     17  C   UNL d   1       4.275   1.932   0.139  0.00  0.00     0.024 C 
BRANCH  17  18
ATOM     18  C   UNL d   1       4.822   3.251   0.207  0.00  0.00     0.004 A 
ATOM     19  S   UNL d   1       6.335   3.575  -0.552  0.00  0.00    -0.102 SA
ATOM     20  C   UNL d   1       6.301   5.221  -0.094  0.00  0.00     0.050 A 
ATOM     21  C   UNL d   1       5.169   5.536   0.618  0.00  0.00     0.008 A 
ATOM     22  C   UNL d   1       4.319   4.407   0.784  0.00  0.00     0.019 A 
ENDBRANCH  17  18
ENDBRANCH   2  16
TORSDOF 6
