REMARK  0 active torsions:
REMARK  status: ('A' for Active; 'I' for Inactive)
ROOT
ATOM      1  C   UNL d   1      -1.816   0.206   0.046  0.00  0.00     0.118 A 
ATOM      2  C   UNL d   1      -1.518  -1.086   0.357  0.00  0.00     0.118 A 
ATOM      3  C   UNL d   1      -3.180   0.104   0.568  0.00  0.00     0.253 A 
ATOM      4  C   UNL d   1      -2.840  -1.315   0.957  0.00  0.00     0.253 A 
ATOM      5  N   UNL d   1      -0.348  -1.651   0.211  0.00  0.00    -0.349 N 
ATOM      6  N   UNL d   1      -0.965   1.072  -0.443  0.00  0.00    -0.349 N 
ATOM      7  C   UNL d   1       0.415   0.655  -0.397  0.00  0.00     0.060 A 
ATOM      8  C   UNL d   1       0.730  -0.731  -0.073  0.00  0.00     0.060 A 
ATOM      9  C   UNL d   1       1.434   1.603  -0.408  0.00  0.00     0.039 A 
ATOM     10  C   UNL d   1       2.046  -1.099   0.178  0.00  0.00     0.039 A 
ATOM     11  C   UNL d   1       2.742   1.238  -0.036  0.00  0.00    -0.054 A 
ATOM     12  C   UNL d   1       3.052  -0.117   0.243  0.00  0.00    -0.054 A 
ATOM     13  O   UNL d   1      -4.124   0.811   0.785  0.00  0.00    -0.281 OA
ATOM     14  O   UNL d   1      -3.398  -2.142   1.628  0.00  0.00    -0.281 OA
ATOM     15  C   UNL d   1       3.750   2.337   0.177  0.00  0.00     0.049 C 
ATOM     16  C   UNL d   1       4.410  -0.564   0.716  0.00  0.00     0.049 C 
ATOM     17  H   UNL d   1      -0.089  -2.600   0.468  0.00  0.00     0.166 HD
ATOM     18  H   UNL d   1      -1.150   2.038  -0.701  0.00  0.00     0.166 HD
ENDROOT
TORSDOF 0
