REMARK  7 active torsions:
REMARK  status: ('A' for Active; 'I' for Inactive)
REMARK    1  A    between atoms: C_11  and  C_3 
REMARK    2  A    between atoms: C_12  and  C_6 
REMARK    3  A    between atoms: O_18  and  C_12 
REMARK    4  A    between atoms: C_13  and  O_16 
REMARK    5  A    between atoms: N_14  and  O_18 
REMARK    6  A    between atoms: O_16  and  C_27 
REMARK    7  A    between atoms: C_28  and  C_25 
ROOT
ATOM      1  C   UNL d   1       3.590  -1.462  -0.040  0.00  0.00     0.324 C 
ATOM      2  O   UNL d   1       3.721  -2.677  -0.158  0.00  0.00    -0.257 OA
ENDROOT
BRANCH   1   3
ATOM      3  C   UNL d   1       2.247  -0.851   0.100  0.00  0.00     0.109 A 
ATOM      4  S   UNL d   1       1.986   0.890   0.266  0.00  0.00    -0.044 SA
ATOM      5  C   UNL d   1       0.277   0.586   0.347  0.00  0.00     0.172 A 
ATOM      6  N   UNL d   1      -0.001  -0.747   0.250  0.00  0.00    -0.235 N 
ATOM      7  N   UNL d   1      -0.797   1.308   0.470  0.00  0.00    -0.316 N 
ATOM      8  N   UNL d   1      -1.332  -0.935   0.316  0.00  0.00    -0.273 N 
ATOM      9  C   UNL d   1       1.097  -1.569   0.112  0.00  0.00     0.056 A 
ATOM     10  C   UNL d   1      -1.800   0.331   0.448  0.00  0.00     0.207 A 
ATOM     11  HN  UNL d   1      -1.856  -1.809   0.276  1.00  0.00     0.189 HD
ATOM     12  C   UNL d   1       0.918  -3.045  -0.005  0.00  0.00     0.072 C 
ATOM     13  HN  UNL d   1      -0.885   2.321   0.560  1.00  0.00     0.169 HD
BRANCH  10  14
ATOM     14  C   UNL d   1      -3.280   0.644   0.556  0.00  0.00     0.450 C 
ATOM     15  F   UNL d   1      -3.534   1.974   0.694  0.00  0.00    -0.163 F 
ATOM     16  F   UNL d   1      -3.971   0.233  -0.544  0.00  0.00    -0.163 F 
ATOM     17  F   UNL d   1      -3.857   0.030   1.627  0.00  0.00    -0.163 F 
ENDBRANCH  10  14
ENDBRANCH   1   3
BRANCH   1  18
ATOM     18  O   UNL d   1       4.618  -0.550  -0.022  0.00  0.00    -0.195 OA
BRANCH  18  19
ATOM     19  N   UNL d   1       5.829  -1.266  -0.163  0.00  0.00    -0.268 N 
ATOM     20  C   UNL d   1       6.864  -0.495  -0.143  0.00  0.00     0.126 C 
ATOM     21  HN  UNL d   1       5.880  -2.280  -0.268  1.00  0.00     0.194 HD
BRANCH  20  22
ATOM     22  C   UNL d   1       8.225  -1.071  -0.273  0.00  0.00    -0.019 A 
ATOM     23  C   UNL d   1       8.393  -2.449  -0.442  0.00  0.00     0.015 A 
ATOM     24  C   UNL d   1       9.677  -2.985  -0.571  0.00  0.00     0.038 A 
ATOM     25  C   UNL d   1      10.803  -2.158  -0.546  0.00  0.00     0.078 A 
ATOM     26  C   UNL d   1      10.635  -0.788  -0.336  0.00  0.00     0.038 A 
ATOM     27  C   UNL d   1       9.347  -0.241  -0.215  0.00  0.00     0.015 A 
BRANCH  25  28
ATOM     28  O   UNL d   1      11.987  -2.817  -0.668  0.00  0.00    -0.255 OA
BRANCH  28  29
ATOM     29  C   UNL d   1      13.094  -2.177  -1.287  0.00  0.00     0.530 C 
ATOM     30  F   UNL d   1      12.802  -0.987  -1.851  0.00  0.00    -0.144 F 
ATOM     31  F   UNL d   1      14.072  -1.998  -0.373  0.00  0.00    -0.144 F 
ATOM     32  F   UNL d   1      13.570  -2.989  -2.258  0.00  0.00    -0.144 F 
ENDBRANCH  28  29
ENDBRANCH  25  28
ENDBRANCH  20  22
ENDBRANCH  18  19
ENDBRANCH   1  18
TORSDOF 7
