REMARK  7 active torsions:
REMARK  status: ('A' for Active; 'I' for Inactive)
REMARK       I    between atoms: N_2  and  C_1 
REMARK    1  A    between atoms: C_4  and  C_1 
REMARK    2  A    between atoms: C_3  and  N_2 
REMARK    3  A    between atoms: C_6  and  C_5 
REMARK    4  A    between atoms: O_19  and  C_6 
REMARK    5  A    between atoms: O_13  and  C_10 
REMARK    6  A    between atoms: C_20  and  O_13 
REMARK    7  A    between atoms: C_17  and  C_20 
ROOT
ATOM      1  C   UNL d   1       1.043  -2.452   0.277  0.00  0.00     0.142 A 
ATOM      2  N   UNL d   1       0.556  -3.483  -0.447  0.00  0.00    -0.350 N 
ATOM      3  HN  UNL d   1      -0.294  -3.393  -1.002  1.00  0.00     0.166 HD
ATOM      4  C   UNL d   1       2.138  -2.553   1.152  0.00  0.00     0.113 A 
ATOM      5  C   UNL d   1       1.252  -4.637  -0.397  0.00  0.00     0.090 A 
ATOM      6  C   UNL d   1       2.817  -3.770   1.190  0.00  0.00     0.042 A 
ATOM      7  C   UNL d   1       2.382  -4.820   0.380  0.00  0.00     0.020 A 
ENDROOT
BRANCH   1   8
ATOM      8  N   UNL d   1       0.360  -1.250   0.056  0.00  0.00    -0.306 N 
ATOM      9  C   UNL d   1       1.030  -0.080  -0.224  0.00  0.00     0.258 C 
ATOM     10  O   UNL d   1       2.245   0.049  -0.313  0.00  0.00    -0.267 OA
ATOM     11  H   UNL d   1      -0.543  -1.394  -0.377  0.00  0.00     0.170 HD
BRANCH   9  12
ATOM     12  C   UNL d   1       0.179   1.095  -0.517  0.00  0.00     0.049 A 
ATOM     13  C   UNL d   1      -0.999   1.427   0.171  0.00  0.00     0.053 A 
ATOM     14  C   UNL d   1      -1.722   2.562  -0.246  0.00  0.00     0.019 A 
ATOM     15  C   UNL d   1      -1.281   3.357  -1.303  0.00  0.00     0.001 A 
ATOM     16  C   UNL d   1      -0.100   3.038  -1.966  0.00  0.00     0.001 A 
ATOM     17  C   UNL d   1       0.627   1.916  -1.573  0.00  0.00     0.018 A 
BRANCH  13  18
ATOM     18  C   UNL d   1      -1.586   0.686   1.316  0.00  0.00     0.177 C 
ATOM     19  O   UNL d   1      -2.798   0.631   1.471  0.00  0.00    -0.646 OA
BRANCH  18  20
ATOM     20  O   UNL d   1      -0.734   0.158   2.212  0.00  0.00    -0.773 OA
ATOM     21  H   UNL d   1       0.222   0.154   2.013  0.00  0.00     0.167 HD
ENDBRANCH  18  20
ENDBRANCH  13  18
ENDBRANCH   9  12
ENDBRANCH   1   8
BRANCH   4  22
ATOM     22  O   UNL d   1       2.394  -1.499   1.990  0.00  0.00    -0.343 OA
BRANCH  22  23
ATOM     23  C   UNL d   1       3.735  -1.364   2.456  0.00  0.00     0.214 C 
BRANCH  23  24
ATOM     24  C   UNL d   1       3.930   0.082   2.852  0.00  0.00    -0.032 A 
ATOM     25  C   UNL d   1       4.282   1.027   1.875  0.00  0.00     0.035 A 
ATOM     26  C   UNL d   1       4.428   2.379   2.201  0.00  0.00     0.056 A 
ATOM     27 CL   UNL d   1       4.848   3.472   0.930  0.00  0.00    -0.083 Cl
ATOM     28  C   UNL d   1       4.224   2.799   3.518  0.00  0.00     0.055 A 
ATOM     29  C   UNL d   1       3.865   1.866   4.496  0.00  0.00     0.026 A 
ATOM     30 CL   UNL d   1       4.396   4.449   4.001  0.00  0.00    -0.083 Cl
ATOM     31  C   UNL d   1       3.711   0.516   4.164  0.00  0.00     0.011 A 
ENDBRANCH  23  24
ENDBRANCH  22  23
ENDBRANCH   4  22
TORSDOF 7
