REMARK  3 active torsions:
REMARK  status: ('A' for Active; 'I' for Inactive)
REMARK    1  A    between atoms: C_12  and  C_5 
REMARK    2  A    between atoms: C_10  and  C_7 
REMARK    3  A    between atoms: C_11  and  C_8 
ROOT
ATOM      1  N   UNL d   1      -0.284   1.526   0.003  0.00  0.00    -0.300 N 
ATOM      2  HN  UNL d   1      -0.460   2.525  -0.104  1.00  0.00     0.187 HD
ATOM      3  N   UNL d   1       1.033   1.175   0.065  0.00  0.00    -0.303 N 
ATOM      4  HN  UNL d   1       1.685   1.944   0.220  1.00  0.00     0.186 HD
ATOM      5  C   UNL d   1      -0.526  -1.575   0.054  0.00  0.00    -0.040 C 
ATOM      6  C   UNL d   1      -1.500  -0.677   0.199  0.00  0.00     0.040 C 
ATOM      7  C   UNL d   1      -1.338   0.788   0.059  0.00  0.00     0.059 C 
ATOM      8  C   UNL d   1       1.573   0.001  -0.045  0.00  0.00     0.040 C 
ATOM      9  C   UNL d   1       0.919  -1.352  -0.178  0.00  0.00     0.099 C 
ENDROOT
BRANCH   7  10
ATOM     10  C   UNL d   1      -2.654   1.540   0.005  0.00  0.00    -0.008 A 
ATOM     11  C   UNL d   1      -2.722   2.826   0.568  0.00  0.00     0.017 A 
ATOM     12  C   UNL d   1      -3.923   3.542   0.558  0.00  0.00     0.043 A 
ATOM     13  C   UNL d   1      -5.054   2.975  -0.015  0.00  0.00     0.116 A 
ATOM     14  C   UNL d   1      -5.005   1.714  -0.596  0.00  0.00     0.043 A 
ATOM     15  F   UNL d   1      -6.208   3.655  -0.014  0.00  0.00    -0.206 F 
ATOM     16  C   UNL d   1      -3.803   1.000  -0.600  0.00  0.00     0.017 A 
ENDBRANCH   7  10
BRANCH   5  17
ATOM     17  C   UNL d   1      -0.898  -3.004   0.055  0.00  0.00    -0.029 A 
ATOM     18  C   UNL d   1      -1.143  -3.654  -1.163  0.00  0.00     0.012 A 
ATOM     19  C   UNL d   1      -1.408  -5.023  -1.188  0.00  0.00     0.001 A 
ATOM     20  C   UNL d   1      -1.433  -5.747   0.003  0.00  0.00     0.000 A 
ATOM     21  C   UNL d   1      -1.206  -5.101   1.220  0.00  0.00     0.001 A 
ATOM     22  C   UNL d   1      -0.942  -3.731   1.248  0.00  0.00     0.012 A 
ENDBRANCH   5  17
BRANCH   8  23
ATOM     23  C   UNL d   1       3.087  -0.030  -0.065  0.00  0.00    -0.012 A 
ATOM     24  C   UNL d   1       3.812   0.979   0.585  0.00  0.00     0.016 A 
ATOM     25  C   UNL d   1       5.211   0.965   0.565  0.00  0.00     0.043 A 
ATOM     26  C   UNL d   1       5.881  -0.049  -0.108  0.00  0.00     0.116 A 
ATOM     27  C   UNL d   1       5.183  -1.054  -0.764  0.00  0.00     0.043 A 
ATOM     28  F   UNL d   1       7.220  -0.059  -0.129  0.00  0.00    -0.206 F 
ATOM     29  C   UNL d   1       3.784  -1.044  -0.745  0.00  0.00     0.016 A 
ENDBRANCH   8  23
TORSDOF 3
