REMARK  1 active torsions:
REMARK  status: ('A' for Active; 'I' for Inactive)
REMARK    1  A    between atoms: C_7  and  N_4 
ROOT
ATOM      1  C   UNL d   1      -2.172  -0.548  -1.333  0.00  0.00     0.146 C 
ATOM      2  N   UNL d   1      -2.512   0.427  -0.437  0.00  0.00    -0.356 N 
ATOM      3  S   UNL d   1      -1.143   0.145  -2.594  0.00  0.00    -0.057 SA
ATOM      4  N   UNL d   1      -2.532  -1.788  -1.190  0.00  0.00    -0.336 N 
ATOM      5  HN  UNL d   1      -3.149  -2.035  -0.416  1.00  0.00     0.168 HD
ATOM      6  C   UNL d   1      -0.815   1.550  -1.598  0.00  0.00     0.005 C 
ATOM      7  C   UNL d   1      -1.939   1.763  -0.580  0.00  0.00     0.065 C 
ATOM      8  C   UNL d   1       0.340   2.221  -1.723  0.00  0.00     0.029 C 
ATOM      9  C   UNL d   1      -2.993   2.692  -1.218  0.00  0.00     0.036 C 
ATOM     10  C   UNL d   1      -1.465   2.285   0.796  0.00  0.00     0.036 C 
ATOM     11  C   UNL d   1      -4.114   3.078  -0.260  0.00  0.00     0.003 C 
ATOM     12  C   UNL d   1      -2.606   2.740   1.712  0.00  0.00     0.003 C 
ATOM     13  C   UNL d   1      -3.550   3.706   1.005  0.00  0.00     0.000 C 
ATOM     14  H   UNL d   1      -3.112   0.182   0.338  0.00  0.00     0.162 HD
ENDROOT
BRANCH   4  15
ATOM     15  C   UNL d   1      -2.100  -2.804  -2.067  0.00  0.00     0.046 A 
ATOM     16  C   UNL d   1      -0.737  -3.164  -2.191  0.00  0.00    -0.034 A 
ATOM     17  C   UNL d   1      -0.355  -4.179  -3.086  0.00  0.00     0.015 A 
ATOM     18  C   UNL d   1       0.367  -2.512  -1.404  0.00  0.00     0.050 C 
ATOM     19  C   UNL d   1      -1.301  -4.921  -3.792  0.00  0.00    -0.061 A 
ATOM     20  C   UNL d   1      -2.653  -4.625  -3.612  0.00  0.00     0.015 A 
ATOM     21  C   UNL d   1      -0.851  -6.021  -4.704  0.00  0.00     0.048 C 
ATOM     22  C   UNL d   1      -3.062  -3.578  -2.760  0.00  0.00    -0.034 A 
ATOM     23  C   UNL d   1      -4.544  -3.397  -2.558  0.00  0.00     0.050 C 
ENDBRANCH   4  15
TORSDOF 1
