REMARK  7 active torsions:
REMARK  status: ('A' for Active; 'I' for Inactive)
REMARK    1  A    between atoms: S_4  and  C_1 
REMARK    2  A    between atoms: C_20  and  N_2 
REMARK    3  A    between atoms: N_7  and  C_3 
REMARK    4  A    between atoms: C_8  and  S_4 
REMARK    5  A    between atoms: O_22  and  C_9 
REMARK    6  A    between atoms: C_16  and  C_12 
REMARK    7  A    between atoms: O_23  and  C_16 
ROOT
ATOM      1  C   UNL d   1      -0.308  -1.404   0.493  0.00  0.00     0.171 A 
ATOM      2  N   UNL d   1       0.774  -0.596   0.223  0.00  0.00    -0.286 N 
ATOM      3  N   UNL d   1      -1.325  -0.683   0.902  0.00  0.00    -0.276 N 
ATOM      4  HN  UNL d   1      -2.254  -1.032   1.137  1.00  0.00     0.189 HD
ATOM      5  C   UNL d   1       0.348   0.658   0.611  0.00  0.00     0.240 A 
ATOM      6  N   UNL d   1      -0.915   0.628   0.957  0.00  0.00    -0.263 N 
ATOM      7  HN  UNL d   1      -1.488   1.430   1.219  1.00  0.00     0.190 HD
ENDROOT
BRANCH   1   8
ATOM      8  S   UNL d   1      -0.278  -3.116   0.388  0.00  0.00    -0.032 SA
BRANCH   8   9
ATOM      9  C   UNL d   1      -1.925  -3.622   0.828  0.00  0.00     0.110 A 
ATOM     10  C   UNL d   1      -2.238  -4.154   2.075  0.00  0.00     0.137 A 
ATOM     11  C   UNL d   1      -3.309  -5.048   2.218  0.00  0.00     0.058 A 
ATOM     12  C   UNL d   1      -4.061  -5.374   1.091  0.00  0.00     0.057 A 
ATOM     13  C   UNL d   1      -3.774  -4.714  -0.097  0.00  0.00     0.106 A 
ATOM     14  N   UNL d   1      -2.723  -3.865  -0.249  0.00  0.00    -0.357 N 
ATOM     15  HN  UNL d   1      -2.537  -3.420  -1.148  1.00  0.00     0.166 HD
BRANCH  10  16
ATOM     16  N   UNL d   1      -1.374  -3.937   3.211  0.00  0.00    -0.113 N 
ATOM     17  O   UNL d   1      -1.123  -2.772   3.534  0.00  0.00    -0.532 OA
ATOM     18  O   UNL d   1      -0.968  -4.947   3.803  0.00  0.00    -0.532 OA
ENDBRANCH  10  16
BRANCH  12  19
ATOM     19  C   UNL d   1      -5.038  -6.480   1.057  0.00  0.00     0.294 C 
ATOM     20  O   UNL d   1      -5.887  -6.614   0.191  0.00  0.00    -0.259 OA
BRANCH  19  21
ATOM     21  O   UNL d   1      -4.727  -7.371   2.030  0.00  0.00    -0.322 OA
ATOM     22  C   UNL d   1      -5.403  -8.627   1.922  0.00  0.00     0.213 C 
ENDBRANCH  19  21
ENDBRANCH  12  19
ENDBRANCH   8   9
ENDBRANCH   1   8
BRANCH   2  23
ATOM     23  C   UNL d   1       2.072  -0.864  -0.395  0.00  0.00     0.095 C 
ATOM     24  C   UNL d   1       2.050  -1.377  -1.845  0.00  0.00     0.026 C 
ATOM     25  C   UNL d   1       2.115  -2.889  -2.019  0.00  0.00     0.002 C 
ATOM     26  C   UNL d   1       3.144  -3.569  -1.122  0.00  0.00     0.000 C 
ATOM     27  C   UNL d   1       3.137  -3.107   0.332  0.00  0.00     0.002 C 
ATOM     28  C   UNL d   1       3.096  -1.593   0.489  0.00  0.00     0.026 C 
ENDBRANCH   2  23
BRANCH   5  29
ATOM     29  O   UNL d   1       1.082   1.761   0.638  0.00  0.00    -0.331 OA
ATOM     30  H   UNL d   1       1.967   1.524   0.957  0.00  0.00     0.221 HD
ENDBRANCH   5  29
TORSDOF 7
