REMARK  2 active torsions:
REMARK  status: ('A' for Active; 'I' for Inactive)
REMARK    1  A    between atoms: C_6  and  C_3 
REMARK    2  A    between atoms: O_10  and  N_7 
ROOT
ATOM      1  S   UNL d   1      -1.532  -1.094   0.021  0.00  0.00    -0.081 SA
ATOM      2  C   UNL d   1      -0.407   0.174  -0.007  0.00  0.00     0.052 A 
ATOM      3  C   UNL d   1      -2.845   0.004   0.029  0.00  0.00     0.023 A 
ATOM      4  C   UNL d   1      -0.989   1.417  -0.015  0.00  0.00     0.028 A 
ATOM      5  C   UNL d   1      -2.412   1.317   0.006  0.00  0.00     0.022 A 
ATOM      6 BR   UNL d   1       1.446  -0.098  -0.025  0.00  0.00    -0.043 Br
ENDROOT
BRANCH   3   7
ATOM      7  C   UNL d   1      -4.195  -0.499   0.056  0.00  0.00     0.132 C 
ATOM      8  N   UNL d   1      -5.198   0.324   0.062  0.00  0.00    -0.279 N 
ATOM      9  HN  UNL d   1      -5.125   1.342   0.047  1.00  0.00     0.193 HD
BRANCH   8  10
ATOM     10  O   UNL d   1      -6.395  -0.402   0.092  0.00  0.00    -0.290 OA
ATOM     11  H   UNL d   1      -7.067   0.306   0.096  0.00  0.00     0.244 HD
ENDBRANCH   8  10
ENDBRANCH   3   7
TORSDOF 2
