REMARK  1 active torsions:
REMARK  status: ('A' for Active; 'I' for Inactive)
REMARK    1  A    between atoms: C_6  and  C_3 
ROOT
ATOM      1  N   UNL d   1      -0.249   0.496  -0.631  0.00  0.00    -0.203 N 
ATOM      2  C   UNL d   1      -0.104  -0.363   0.437  0.00  0.00     0.133 A 
ATOM      3  C   UNL d   1      -2.235  -0.017  -0.050  0.00  0.00     0.070 A 
ATOM      4  N   UNL d   1      -1.548   0.711  -0.940  0.00  0.00    -0.288 N 
ATOM      5  HN  UNL d   1      -1.922   1.297  -1.687  1.00  0.00     0.188 HD
ATOM      6  C   UNL d   1      -1.366  -0.701   0.844  0.00  0.00     0.083 A 
ATOM      7  C   UNL d   1       0.820   1.083  -1.329  0.00  0.00     0.270 A 
ATOM      8  C   UNL d   1       2.161   0.685  -0.820  0.00  0.00     0.101 A 
ATOM      9  N   UNL d   1       1.143  -0.686   0.849  0.00  0.00    -0.345 N 
ATOM     10  C   UNL d   1       2.265  -0.167   0.220  0.00  0.00     0.012 A 
ATOM     11  O   UNL d   1       0.652   1.846  -2.271  0.00  0.00    -0.266 OA
ATOM     12  C   UNL d   1       3.606  -0.595   0.745  0.00  0.00     0.068 C 
ATOM     13  H   UNL d   1       1.305  -1.325   1.626  0.00  0.00     0.167 HD
ENDROOT
BRANCH   3  14
ATOM     14  C   UNL d   1      -3.746  -0.065  -0.027  0.00  0.00     0.040 A 
ATOM     15  S   UNL d   1      -4.581  -0.874   1.229  0.00  0.00    -0.087 SA
ATOM     16  C   UNL d   1      -6.120  -0.444   0.620  0.00  0.00     0.016 A 
ATOM     17  C   UNL d   1      -7.370  -0.758   1.190  0.00  0.00     0.021 A 
ATOM     18  C   UNL d   1      -6.009   0.283  -0.564  0.00  0.00    -0.010 A 
ATOM     19  C   UNL d   1      -8.534  -0.332   0.548  0.00  0.00     0.025 A 
ATOM     20  C   UNL d   1      -8.452   0.383  -0.637  0.00  0.00     0.035 A 
ATOM     21  C   UNL d   1      -7.212   0.695  -1.198  0.00  0.00     0.037 A 
ATOM     22 CL   UNL d   1      -9.894   0.896  -1.425  0.00  0.00    -0.084 Cl
ATOM     23  C   UNL d   1      -4.620   0.500  -0.949  0.00  0.00    -0.031 A 
ATOM     24  C   UNL d   1      -4.278   1.250  -2.204  0.00  0.00     0.050 C 
ENDBRANCH   3  14
TORSDOF 1
