REMARK  5 active torsions:
REMARK  status: ('A' for Active; 'I' for Inactive)
REMARK    1  A    between atoms: C_6  and  N_1 
REMARK    2  A    between atoms: C_7  and  N_2 
REMARK    3  A    between atoms: C_10  and  C_5 
REMARK    4  A    between atoms: C_15  and  C_10 
REMARK    5  A    between atoms: C_16  and  C_15 
ROOT
ATOM      1  N   UNL d   1      -0.664   1.188  -0.187  0.00  0.00    -0.214 N 
ATOM      2  N   UNL d   1       0.735   1.168  -0.309  0.00  0.00    -0.214 N 
ATOM      3  C   UNL d   1      -1.135  -0.089   0.141  0.00  0.00     0.257 C 
ATOM      4  C   UNL d   1       1.220  -0.120  -0.089  0.00  0.00     0.257 C 
ATOM      5  C   UNL d   1       0.021  -1.039  -0.103  0.00  0.00     0.174 C 
ATOM      6  O   UNL d   1      -2.257  -0.424   0.474  0.00  0.00    -0.270 OA
ATOM      7  O   UNL d   1       2.380  -0.489   0.020  0.00  0.00    -0.270 OA
ENDROOT
BRANCH   1   8
ATOM      8  C   UNL d   1      -1.418   2.360   0.006  0.00  0.00     0.060 A 
ATOM      9  C   UNL d   1      -1.649   2.919   1.268  0.00  0.00     0.031 A 
ATOM     10  C   UNL d   1      -2.370   4.112   1.370  0.00  0.00     0.002 A 
ATOM     11  C   UNL d   1      -2.866   4.731   0.218  0.00  0.00     0.000 A 
ATOM     12  C   UNL d   1      -2.653   4.159  -1.034  0.00  0.00     0.002 A 
ATOM     13  C   UNL d   1      -1.936   2.970  -1.137  0.00  0.00     0.031 A 
ENDBRANCH   1   8
BRANCH   2  14
ATOM     14  C   UNL d   1       1.561   2.307  -0.347  0.00  0.00     0.060 A 
ATOM     15  C   UNL d   1       1.477   3.216  -1.408  0.00  0.00     0.031 A 
ATOM     16  C   UNL d   1       2.392   4.267  -1.504  0.00  0.00     0.002 A 
ATOM     17  C   UNL d   1       3.373   4.433  -0.527  0.00  0.00     0.000 A 
ATOM     18  C   UNL d   1       3.444   3.546   0.545  0.00  0.00     0.002 A 
ATOM     19  C   UNL d   1       2.553   2.478   0.625  0.00  0.00     0.031 A 
ENDBRANCH   2  14
BRANCH   5  20
ATOM     20  C   UNL d   1      -0.155  -1.694  -1.483  0.00  0.00     0.024 C 
BRANCH  20  21
ATOM     21  C   UNL d   1       0.988  -2.644  -1.860  0.00  0.00     0.001 C 
BRANCH  21  22
ATOM     22  C   UNL d   1       0.797  -3.233  -3.259  0.00  0.00    -0.005 C 
ATOM     23  C   UNL d   1       1.960  -4.138  -3.640  0.00  0.00     0.005 C 
ENDBRANCH  21  22
ENDBRANCH  20  21
ENDBRANCH   5  20
TORSDOF 5
