REMARK  11 active torsions:
REMARK  status: ('A' for Active; 'I' for Inactive)
REMARK    1  A    between atoms: C_9  and  C_1 
REMARK    2  A    between atoms: C_22  and  C_3 
REMARK    3  A    between atoms: O_17  and  C_4 
REMARK    4  A    between atoms: O_16  and  C_5 
REMARK    5  A    between atoms: C_7  and  C_9 
REMARK       I    between atoms: N_13  and  C_7 
REMARK    6  A    between atoms: O_19  and  C_8 
REMARK    7  A    between atoms: O_20  and  C_10 
REMARK    8  A    between atoms: C_21  and  N_13 
REMARK    9  A    between atoms: C_15  and  C_24 
REMARK   10  A    between atoms: C_24  and  C_21 
REMARK   11  A    between atoms: O_23  and  C_22 
ROOT
ATOM      1  C   UNL d   1       3.154  -2.108   0.478  0.00  0.00     0.221 C 
ATOM      2  O   UNL d   1       2.249  -2.904   0.740  0.00  0.00    -0.273 OA
ATOM      3  N   UNL d   1       4.482  -2.444   0.529  0.00  0.00    -0.361 N 
ATOM      4  H   UNL d   1       5.165  -1.819   0.132  0.00  0.00     0.162 HD
ENDROOT
BRANCH   1   5
ATOM      5  C   UNL d   1       2.845  -0.668   0.151  0.00  0.00     0.142 C 
BRANCH   5   6
ATOM      6  C   UNL d   1       2.662  -0.355  -1.319  0.00  0.00    -0.038 A 
ATOM      7  C   UNL d   1       1.353  -0.452  -1.848  0.00  0.00     0.047 A 
ATOM      8  C   UNL d   1       1.019   0.015  -3.129  0.00  0.00     0.102 A 
ATOM      9  C   UNL d   1       2.042   0.502  -3.946  0.00  0.00     0.102 A 
ATOM     10  C   UNL d   1       3.356   0.531  -3.453  0.00  0.00     0.049 A 
ATOM     11  C   UNL d   1       3.698   0.100  -2.155  0.00  0.00    -0.025 A 
BRANCH   8  12
ATOM     12  O   UNL d   1      -0.265   0.002  -3.603  0.00  0.00    -0.353 OA
ATOM     13  C   UNL d   1      -1.304   0.137  -2.635  0.00  0.00     0.210 C 
ENDBRANCH   8  12
BRANCH   9  14
ATOM     14  O   UNL d   1       1.931   1.034  -5.205  0.00  0.00    -0.353 OA
ATOM     15  C   UNL d   1       0.914   0.504  -6.045  0.00  0.00     0.210 C 
ENDBRANCH   9  14
BRANCH  11  16
ATOM     16  C   UNL d   1       5.175   0.052  -1.834  0.00  0.00     0.203 C 
BRANCH  16  17
ATOM     17  O   UNL d   1       5.500   0.199  -0.461  0.00  0.00    -0.396 OA
ATOM     18  H   UNL d   1       5.585   1.157  -0.301  0.00  0.00     0.209 HD
ENDBRANCH  16  17
ENDBRANCH  11  16
ENDBRANCH   5   6
ENDBRANCH   1   5
BRANCH   3  19
ATOM     19  C   UNL d   1       4.870  -3.771   0.997  0.00  0.00     0.127 C 
BRANCH  19  20
ATOM     20  C   UNL d   1       4.974  -4.772  -0.142  0.00  0.00     0.058 C 
BRANCH  20  21
ATOM     21  C   UNL d   1       5.289  -6.157   0.374  0.00  0.00    -0.054 A 
ATOM     22  C   UNL d   1       6.619  -6.571   0.543  0.00  0.00     0.046 A 
ATOM     23  C   UNL d   1       6.933  -7.862   0.998  0.00  0.00     0.102 A 
ATOM     24  C   UNL d   1       5.883  -8.729   1.349  0.00  0.00     0.101 A 
ATOM     25  C   UNL d   1       4.555  -8.307   1.190  0.00  0.00     0.040 A 
ATOM     26  C   UNL d   1       4.257  -7.033   0.710  0.00  0.00     0.010 A 
BRANCH  23  27
ATOM     27  O   UNL d   1       8.217  -8.334   1.077  0.00  0.00    -0.353 OA
ATOM     28  C   UNL d   1       9.274  -7.462   0.696  0.00  0.00     0.210 C 
ENDBRANCH  23  27
BRANCH  24  29
ATOM     29  O   UNL d   1       5.979 -10.020   1.803  0.00  0.00    -0.353 OA
ATOM     30  C   UNL d   1       7.122 -10.348   2.581  0.00  0.00     0.210 C 
ENDBRANCH  24  29
ENDBRANCH  20  21
ENDBRANCH  19  20
ENDBRANCH   3  19
TORSDOF 11
