REMARK  1 active torsions:
REMARK  status: ('A' for Active; 'I' for Inactive)
REMARK    1  A    between atoms: C_8  and  C_4 
ROOT
ATOM      1  N   UNL d   1       1.243  -1.429  -0.025  0.00  0.00    -0.333 N 
ATOM      2  HN  UNL d   1       1.260  -2.448  -0.063  1.00  0.00     0.168 HD
ATOM      3  C   UNL d   1       0.021   0.651  -0.011  0.00  0.00     0.070 A 
ATOM      4  C   UNL d   1       2.340  -0.752   0.029  0.00  0.00     0.169 A 
ATOM      5  C   UNL d   1       0.034  -0.736  -0.032  0.00  0.00     0.072 A 
ATOM      6  C   UNL d   1       1.313   1.348   0.024  0.00  0.00     0.302 A 
ATOM      7  O   UNL d   1       2.437   0.598   0.061  0.00  0.00    -0.256 OA
ATOM      8  C   UNL d   1      -1.195  -1.414  -0.042  0.00  0.00     0.063 A 
ATOM      9  C   UNL d   1      -2.403  -0.712  -0.029  0.00  0.00     0.050 A 
ATOM     10  C   UNL d   1      -1.180   1.371  -0.005  0.00  0.00     0.044 A 
ATOM     11  O   UNL d   1       1.355   2.572   0.029  0.00  0.00    -0.259 OA
ATOM     12  C   UNL d   1      -2.387   0.679  -0.013  0.00  0.00     0.036 A 
ATOM     13 CL   UNL d   1      -1.261  -3.141  -0.054  0.00  0.00    -0.082 Cl
ATOM     14 CL   UNL d   1      -3.870   1.548   0.007  0.00  0.00    -0.084 Cl
ENDROOT
BRANCH   4  15
ATOM     15  C   UNL d   1       3.649  -1.372   0.075  0.00  0.00     0.056 A 
ATOM     16  S   UNL d   1       3.793  -3.082  -0.009  0.00  0.00    -0.098 SA
ATOM     17  C   UNL d   1       5.494  -3.020   0.131  0.00  0.00     0.050 A 
ATOM     18  C   UNL d   1       5.956  -1.728   0.234  0.00  0.00     0.009 A 
ATOM     19  C   UNL d   1       4.894  -0.777   0.193  0.00  0.00     0.024 A 
ENDBRANCH   4  15
TORSDOF 1
