REMARK  4 active torsions:
REMARK  status: ('A' for Active; 'I' for Inactive)
REMARK    1  A    between atoms: N_11  and  C_3 
REMARK    2  A    between atoms: N_8  and  C_4 
REMARK    3  A    between atoms: C_13  and  N_8 
REMARK    4  A    between atoms: C_12  and  C_13 
ROOT
ATOM      1  N   UNL d   1       1.370  -0.663   0.036  0.00  0.00    -0.020 N 
ATOM      2  HN  UNL d   1       2.166  -1.301   0.042  1.00  0.00     0.203 HD
ATOM      3  C   UNL d   1       0.044  -0.969   0.050  0.00  0.00     0.705 A 
ATOM      4  C   UNL d   1       1.378   0.647   0.015  0.00  0.00     0.708 A 
ATOM      5  N   UNL d   1      -0.785   0.069   0.003  0.00  0.00    -0.118 N 
ATOM      6  HN  UNL d   1      -1.805   0.084  -0.025  1.00  0.00     0.206 HD
ATOM      7  N   UNL d   1       0.085   1.091   0.001  0.00  0.00    -0.117 N 
ATOM      8  H   UNL d   1      -0.252   2.044  -0.018  0.00  0.00     0.206 HD
ENDROOT
BRANCH   4   9
ATOM      9  N   UNL d   1       2.415   1.498  -0.001  0.00  0.00    -0.219 N 
ATOM     10  H   UNL d   1       2.357   2.514   0.044  0.00  0.00     0.178 HD
BRANCH   9  11
ATOM     11  C   UNL d   1       3.776   0.996   0.061  0.00  0.00     0.195 C 
BRANCH  11  12
ATOM     12  C   UNL d   1       4.770   2.150   0.091  0.00  0.00     0.027 A 
ATOM     13  N   UNL d   1       4.282   3.425   0.091  0.00  0.00    -0.368 N 
ATOM     14  C   UNL d   1       5.185   4.432   0.117  0.00  0.00     0.088 A 
ATOM     15  HN  UNL d   1       3.280   3.611   0.071  1.00  0.00     0.165 HD
ATOM     16  C   UNL d   1       6.555   4.240   0.147  0.00  0.00     0.017 A 
ATOM     17  C   UNL d   1       7.037   2.936   0.149  0.00  0.00     0.003 A 
ATOM     18  C   UNL d   1       6.137   1.875   0.121  0.00  0.00     0.027 A 
ENDBRANCH  11  12
ENDBRANCH   9  11
ENDBRANCH   4   9
BRANCH   3  19
ATOM     19  N   UNL d   1      -0.319  -2.248   0.077  0.00  0.00    -0.233 N 
ATOM     20  H   UNL d   1       0.380  -2.926  -0.190  0.00  0.00     0.174 HD
ATOM     21  H   UNL d   1      -1.261  -2.461  -0.221  0.00  0.00     0.174 HD
ENDBRANCH   3  19
TORSDOF 4
