REMARK  9 active torsions:
REMARK  status: ('A' for Active; 'I' for Inactive)
REMARK    1  A    between atoms: O_4  and  C_1 
REMARK    2  A    between atoms: C_6  and  C_1 
REMARK    3  A    between atoms: C_2  and  N_16 
REMARK    4  A    between atoms: N_5  and  C_2 
REMARK    5  A    between atoms: C_3  and  N_5 
REMARK    6  A    between atoms: C_7  and  O_4 
REMARK    7  A    between atoms: O_32  and  C_11 
REMARK    8  A    between atoms: N_16  and  N_12 
REMARK    9  A    between atoms: C_25  and  C_26 
ROOT
ATOM      1  C   UNL d   1      -0.994  -0.927   0.594  0.00  0.00     0.112 A 
ATOM      2  C   UNL d   1      -1.645  -0.205  -0.423  0.00  0.00     0.102 A 
ATOM      3  C   UNL d   1      -3.035  -0.289  -0.516  0.00  0.00     0.052 A 
ATOM      4  C   UNL d   1      -1.717  -1.721   1.492  0.00  0.00     0.041 A 
ATOM      5  C   UNL d   1      -3.755  -1.082   0.385  0.00  0.00    -0.017 A 
ATOM      6  C   UNL d   1      -3.105  -1.817   1.374  0.00  0.00     0.016 A 
ENDROOT
BRANCH   5   7
ATOM      7  C   UNL d   1      -5.223  -1.113   0.278  0.00  0.00     0.118 C 
ATOM      8  N   UNL d   1      -5.864  -0.029  -0.022  0.00  0.00    -0.309 N 
ATOM      9  HN  UNL d   1      -5.397   0.875  -0.095  1.00  0.00     0.186 HD
BRANCH   8  10
ATOM     10  N   UNL d   1      -7.196  -0.171  -0.233  0.00  0.00    -0.276 N 
ATOM     11  H   UNL d   1      -7.545  -1.061  -0.571  0.00  0.00     0.189 HD
BRANCH  10  12
ATOM     12  C   UNL d   1      -8.069   0.892  -0.134  0.00  0.00     0.191 C 
ATOM     13  S   UNL d   1      -7.866   2.230   0.846  0.00  0.00    -0.039 SA
BRANCH  12  14
ATOM     14  N   UNL d   1      -9.238   0.754  -0.841  0.00  0.00    -0.331 N 
ATOM     15  H   UNL d   1     -10.027   1.289  -0.485  0.00  0.00     0.168 HD
BRANCH  14  16
ATOM     16  C   UNL d   1      -9.405   0.205  -2.136  0.00  0.00     0.057 A 
ATOM     17  C   UNL d   1      -8.317   0.034  -3.005  0.00  0.00     0.055 A 
ATOM     18  C   UNL d   1      -8.518  -0.460  -4.295  0.00  0.00     0.036 A 
ATOM     19 CL   UNL d   1      -7.177  -0.631  -5.359  0.00  0.00    -0.084 Cl
ATOM     20  C   UNL d   1      -9.796  -0.797  -4.734  0.00  0.00     0.026 A 
ATOM     21  C   UNL d   1     -10.888  -0.613  -3.885  0.00  0.00     0.028 A 
ATOM     22  C   UNL d   1     -10.697  -0.095  -2.601  0.00  0.00     0.060 A 
ATOM     23 CL   UNL d   1     -12.084   0.130  -1.594  0.00  0.00    -0.082 Cl
ENDBRANCH  14  16
ENDBRANCH  12  14
ENDBRANCH  10  12
ENDBRANCH   8  10
ENDBRANCH   5   7
BRANCH   2  24
ATOM     24  O   UNL d   1      -0.854   0.544  -1.256  0.00  0.00    -0.353 OA
ATOM     25  C   UNL d   1      -1.527   1.340  -2.228  0.00  0.00     0.210 C 
ENDBRANCH   2  24
BRANCH   1  26
ATOM     26  O   UNL d   1       0.407  -0.725   0.713  0.00  0.00    -0.272 OA
BRANCH  26  27
ATOM     27  C   UNL d   1       1.272  -1.658   1.258  0.00  0.00     0.298 C 
ATOM     28  O   UNL d   1       0.993  -2.774   1.666  0.00  0.00    -0.259 OA
BRANCH  27  29
ATOM     29  C   UNL d   1       2.661  -1.116   1.286  0.00  0.00     0.041 A 
ATOM     30  C   UNL d   1       3.668  -1.926   1.830  0.00  0.00     0.043 A 
ATOM     31  C   UNL d   1       4.995  -1.482   1.868  0.00  0.00     0.056 A 
ATOM     32 CL   UNL d   1       6.176  -2.545   2.548  0.00  0.00    -0.083 Cl
ATOM     33  C   UNL d   1       5.324  -0.221   1.364  0.00  0.00     0.055 A 
ATOM     34  C   UNL d   1       4.322   0.595   0.830  0.00  0.00     0.026 A 
ATOM     35 CL   UNL d   1       6.942   0.387   1.369  0.00  0.00    -0.083 Cl
ATOM     36  C   UNL d   1       2.996   0.154   0.791  0.00  0.00     0.019 A 
ENDBRANCH  27  29
ENDBRANCH  26  27
ENDBRANCH   1  26
TORSDOF 9
