REMARK  3 active torsions:
REMARK  status: ('A' for Active; 'I' for Inactive)
REMARK    1  A    between atoms: C_12  and  C_2 
REMARK    2  A    between atoms: C_13  and  C_10 
REMARK    3  A    between atoms: C_20  and  C_11 
ROOT
ATOM      1  N   UNL d   1       0.297   0.620   0.024  0.00  0.00    -0.235 N 
ATOM      2  C   UNL d   1      -0.823   1.444   0.022  0.00  0.00     0.144 A 
ATOM      3  C   UNL d   1       0.146  -0.769   0.041  0.00  0.00     0.130 A 
ATOM      4  N   UNL d   1       1.603   0.961   0.017  0.00  0.00    -0.291 N 
ATOM      5  HN  UNL d   1       1.987   1.906   0.017  1.00  0.00     0.187 HD
ATOM      6  N   UNL d   1      -1.073  -1.379   0.074  0.00  0.00    -0.340 N 
ATOM      7  HN  UNL d   1      -1.160  -2.395   0.105  1.00  0.00     0.167 HD
ATOM      8  C   UNL d   1      -2.053   0.891   0.034  0.00  0.00     0.067 A 
ATOM      9  C   UNL d   1       1.415  -1.293   0.017  0.00  0.00     0.082 A 
ATOM     10  C   UNL d   1      -2.120  -0.606   0.063  0.00  0.00     0.046 A 
ATOM     11  C   UNL d   1       2.295  -0.186   0.010  0.00  0.00     0.062 A 
ENDROOT
BRANCH  10  12
ATOM     12  C   UNL d   1      -3.475  -1.227   0.120  0.00  0.00    -0.006 A 
ATOM     13  C   UNL d   1      -3.624  -2.423   0.842  0.00  0.00     0.053 A 
ATOM     14  C   UNL d   1      -4.880  -2.988   0.902  0.00  0.00     0.105 A 
ATOM     15  O   UNL d   1      -5.209  -4.126   1.569  0.00  0.00    -0.323 OA
ATOM     16  C   UNL d   1      -5.960  -2.423   0.267  0.00  0.00     0.105 A 
ATOM     17  C   UNL d   1      -6.628  -4.190   1.316  0.00  0.00     0.352 A 
ATOM     18  O   UNL d   1      -7.102  -3.135   0.452  0.00  0.00    -0.323 OA
ATOM     19  C   UNL d   1      -5.844  -1.263  -0.469  0.00  0.00     0.040 A 
ATOM     20  C   UNL d   1      -4.584  -0.658  -0.543  0.00  0.00     0.016 A 
ENDBRANCH  10  12
BRANCH   2  21
ATOM     21  C   UNL d   1      -0.635   2.916   0.015  0.00  0.00     0.434 C 
ATOM     22  F   UNL d   1       0.636   3.376   0.007  0.00  0.00    -0.165 F 
ATOM     23  F   UNL d   1      -1.248   3.468  -1.069  0.00  0.00    -0.165 F 
ATOM     24  F   UNL d   1      -1.238   3.478   1.100  0.00  0.00    -0.165 F 
ENDBRANCH   2  21
BRANCH  11  25
ATOM     25  C   UNL d   1       3.763  -0.191   0.002  0.00  0.00    -0.008 A 
ATOM     26  C   UNL d   1       4.480   1.017   0.019  0.00  0.00     0.014 A 
ATOM     27  C   UNL d   1       5.876   1.023   0.022  0.00  0.00     0.001 A 
ATOM     28  C   UNL d   1       6.578  -0.180   0.008  0.00  0.00     0.000 A 
ATOM     29  C   UNL d   1       5.883  -1.387  -0.013  0.00  0.00     0.001 A 
ATOM     30  C   UNL d   1       4.486  -1.393  -0.017  0.00  0.00     0.014 A 
ENDBRANCH  11  25
TORSDOF 3
