REMARK  7 active torsions:
REMARK  status: ('A' for Active; 'I' for Inactive)
REMARK    1  A    between atoms: C_3  and  C_1 
REMARK    2  A    between atoms: C_5  and  CA_2 
REMARK       I    between atoms: N_4  and  C_3 
REMARK    3  A    between atoms: C_13  and  N_4 
REMARK    4  A    between atoms: C_18  and  N_4 
REMARK    5  A    between atoms: OXT_16  and  C_5 
REMARK    6  A    between atoms: C_17  and  C_13 
REMARK    7  A    between atoms: C_15  and  C_18 
ROOT
ATOM      1  N   UNL d   1       3.225  -4.734  -2.744  0.00  0.00    -0.197 NA
ATOM      2  C   UNL d   1       2.117  -4.451  -2.546  0.00  0.00     0.060 C 
ATOM      3  C   UNL d   1       0.718  -4.092  -2.273  0.00  0.00     0.143 C 
ENDROOT
BRANCH   3   4
ATOM      4  C   UNL d   1       0.450  -4.139  -0.771  0.00  0.00     0.140 C 
BRANCH   4   5
ATOM      5  N   UNL d   1      -0.887  -3.673  -0.362  0.00  0.00    -0.342 N 
ATOM      6  C   UNL d   1      -1.115  -2.420   0.251  0.00  0.00     0.273 C 
ATOM      7  O   UNL d   1      -1.939  -2.303   1.158  0.00  0.00    -0.266 OA
BRANCH   6   8
ATOM      8  C   UNL d   1      -0.341  -1.188  -0.113  0.00  0.00     0.134 A 
ATOM      9  CA  UNL d   1      -0.823   0.079   0.207  0.00  0.00     0.139 A 
ATOM     10  N   UNL d   1      -0.031   1.209   0.186  0.00  0.00    -0.357 N 
ATOM     11  C   UNL d   1       1.231   1.018  -0.254  0.00  0.00     0.105 A 
ATOM     12  HN  UNL d   1      -0.374   2.123   0.483  1.00  0.00     0.165 HD
ATOM     13  C   UNL d   1       1.692  -0.225  -0.650  0.00  0.00     0.105 A 
ATOM     14  N   UNL d   1       0.932  -1.346  -0.580  0.00  0.00    -0.358 N 
ATOM     15  HN  UNL d   1       1.292  -2.258  -0.862  1.00  0.00     0.165 HD
BRANCH   9  16
ATOM     16  C   UNL d   1      -2.254   0.383   0.480  0.00  0.00     0.196 C 
ATOM     17  O   UNL d   1      -3.205  -0.211   0.004  0.00  0.00    -0.645 OA
BRANCH  16  18
ATOM     18  OXT UNL d   1      -2.365   1.516   1.219  0.00  0.00    -0.772 OA
ATOM     19  HXT UNL d   1      -1.480   1.930   1.337  0.00  0.00     0.167 HD
ENDBRANCH  16  18
ENDBRANCH   9  16
ENDBRANCH   6   8
BRANCH   5  20
ATOM     20  C   UNL d   1      -1.880  -4.719  -0.074  0.00  0.00     0.164 C 
BRANCH  20  21
ATOM     21  C   UNL d   1      -2.611  -5.275  -1.277  0.00  0.00    -0.040 A 
ATOM     22  C   UNL d   1      -2.952  -6.638  -1.295  0.00  0.00     0.009 A 
ATOM     23  C   UNL d   1      -3.796  -7.154  -2.281  0.00  0.00     0.001 A 
ATOM     24  C   UNL d   1      -4.311  -6.315  -3.266  0.00  0.00     0.000 A 
ATOM     25  C   UNL d   1      -3.971  -4.963  -3.271  0.00  0.00     0.001 A 
ATOM     26  C   UNL d   1      -3.131  -4.443  -2.280  0.00  0.00     0.009 A 
ENDBRANCH  20  21
ENDBRANCH   5  20
ENDBRANCH   4   5
ENDBRANCH   3   4
TORSDOF 7
