REMARK  1 active torsions:
REMARK  status: ('A' for Active; 'I' for Inactive)
REMARK    1  A    between atoms: C_11  and  C_2 
ROOT
ATOM      1  N   UNL d   1      -2.667  -0.458   0.003  0.00  0.00    -0.234 N 
ATOM      2  C   UNL d   1      -1.801  -1.544   0.011  0.00  0.00     0.150 A 
ATOM      3  C   UNL d   1      -2.170   0.848  -0.006  0.00  0.00     0.130 A 
ATOM      4  C   UNL d   1      -0.457  -1.337   0.014  0.00  0.00     0.004 A 
ATOM      5  C   UNL d   1      -0.015   0.103   0.002  0.00  0.00     0.053 A 
ATOM      6  N   UNL d   1      -0.836   1.118  -0.007  0.00  0.00    -0.340 N 
ATOM      7  HN  UNL d   1      -0.490   2.078  -0.016  1.00  0.00     0.167 HD
ATOM      8  N   UNL d   1      -4.019  -0.455   0.004  0.00  0.00    -0.297 N 
ATOM      9  HN  UNL d   1      -4.635  -1.269   0.009  1.00  0.00     0.187 HD
ATOM     10  C   UNL d   1      -3.267   1.682  -0.008  0.00  0.00     0.076 A 
ATOM     11  C   UNL d   1       1.457   0.370  -0.000  0.00  0.00    -0.003 A 
ATOM     12  C   UNL d   1      -4.384   0.827  -0.002  0.00  0.00     0.026 A 
ATOM     13  C   UNL d   1       0.540  -2.453   0.035  0.00  0.00     0.048 A 
ATOM     14  C   UNL d   1       2.397  -0.664   0.012  0.00  0.00    -0.045 A 
ATOM     15  C   UNL d   1       2.026  -2.112   0.030  0.00  0.00     0.044 A 
ATOM     16  C   UNL d   1       1.907   1.703  -0.011  0.00  0.00     0.014 A 
ATOM     17  C   UNL d   1      -5.823   1.181  -0.001  0.00  0.00     0.070 C 
ATOM     18  C   UNL d   1       3.772  -0.347   0.006  0.00  0.00     0.008 A 
ATOM     19  C   UNL d   1       3.272   2.004  -0.015  0.00  0.00     0.001 A 
ATOM     20  C   UNL d   1       4.206   0.976  -0.007  0.00  0.00     0.001 A 
ENDROOT
BRANCH   2  21
ATOM     21  C   UNL d   1      -2.419  -2.901   0.025  0.00  0.00     0.435 C 
ATOM     22  F   UNL d   1      -3.771  -2.973  -0.006  0.00  0.00    -0.165 F 
ATOM     23  F   UNL d   1      -1.988  -3.639  -1.037  0.00  0.00    -0.165 F 
ATOM     24  F   UNL d   1      -2.036  -3.594   1.135  0.00  0.00    -0.165 F 
ENDBRANCH   2  21
TORSDOF 1
