REMARK  0 active torsions:
REMARK  status: ('A' for Active; 'I' for Inactive)
ROOT
ATOM      1  C   UNL d   1      -0.788  -0.994  -0.267  0.00  0.00     0.047 C 
ATOM      2  C   UNL d   1      -1.626  -1.972  -0.667  0.00  0.00    -0.013 A 
ATOM      3  S   UNL d   1       0.956  -1.176  -0.275  0.00  0.00    -0.121 SA
ATOM      4  S   UNL d   1      -1.347   0.595   0.208  0.00  0.00    -0.121 SA
ATOM      5  C   UNL d   1      -3.075  -1.882  -0.794  0.00  0.00     0.013 A 
ATOM      6  C   UNL d   1      -1.254  -3.315  -1.103  0.00  0.00     0.013 A 
ATOM      7  C   UNL d   1      -3.510  -3.053  -1.293  0.00  0.00     0.001 A 
ATOM      8  C   UNL d   1      -2.381  -3.944  -1.478  0.00  0.00     0.001 A 
ATOM      9  C   UNL d   1       1.347   0.543   0.172  0.00  0.00     0.090 C 
ATOM     10  C   UNL d   1       0.193   1.435  -0.249  0.00  0.00     0.090 C 
ENDROOT
TORSDOF 0
