REMARK  1 active torsions:
REMARK  status: ('A' for Active; 'I' for Inactive)
REMARK    1  A    between atoms: C_10  and  C_3 
ROOT
ATOM      1  C   UNL d   1       0.795   0.641   1.076  0.00  0.00    -0.005 C 
ATOM      2  C   UNL d   1      -1.475   0.170   0.093  0.00  0.00    -0.005 C 
ATOM      3  C   UNL d   1      -0.737   0.873   1.281  0.00  0.00     0.027 C 
ATOM      4  C   UNL d   1       0.360  -1.554  -0.095  0.00  0.00    -0.013 C 
ATOM      5  C   UNL d   1       0.500   0.576  -1.432  0.00  0.00    -0.013 C 
ATOM      6  C   UNL d   1      -1.152  -1.337   0.076  0.00  0.00     0.010 C 
ATOM      7  C   UNL d   1      -1.008   0.785  -1.244  0.00  0.00     0.010 C 
ATOM      8  C   UNL d   1       1.110  -0.869   1.058  0.00  0.00     0.010 C 
ATOM      9  C   UNL d   1       1.237   1.253  -0.270  0.00  0.00     0.010 C 
ATOM     10  C   UNL d   1       0.813  -0.929  -1.425  0.00  0.00     0.009 C 
ENDROOT
BRANCH   3  11
ATOM     11  C   UNL d   1      -1.269   0.525   2.681  0.00  0.00    -0.053 A 
ATOM     12  C   UNL d   1      -0.437   0.542   3.815  0.00  0.00     0.007 A 
ATOM     13  C   UNL d   1      -0.930   0.261   5.095  0.00  0.00     0.001 A 
ATOM     14  C   UNL d   1      -2.277  -0.024   5.275  0.00  0.00     0.000 A 
ATOM     15  C   UNL d   1      -3.129  -0.017   4.178  0.00  0.00     0.001 A 
ATOM     16  C   UNL d   1      -2.634   0.265   2.900  0.00  0.00     0.007 A 
ENDBRANCH   3  11
TORSDOF 1
