REMARK  8 active torsions:
REMARK  status: ('A' for Active; 'I' for Inactive)
REMARK    1  A    between atoms: C_2  and  C_1 
REMARK    2  A    between atoms: C_3  and  C_10 
REMARK    3  A    between atoms: N_14  and  N_6 
REMARK    4  A    between atoms: C_17  and  C_8 
REMARK    5  A    between atoms: C_13  and  C_15 
REMARK    6  A    between atoms: C_27  and  N_14 
REMARK    7  A    between atoms: O_26  and  C_17 
REMARK    8  A    between atoms: C_29  and  O_26 
ROOT
ATOM      1  C   UNL d   1      -2.173   3.098  12.024  0.00  0.00    -0.012 A 
ATOM      2  C   UNL d   1      -2.630   3.475  13.290  0.00  0.00     0.016 A 
ATOM      3  C   UNL d   1      -1.280   2.022  11.912  0.00  0.00     0.016 A 
ATOM      4  C   UNL d   1      -1.280   1.737  14.320  0.00  0.00     0.069 A 
ATOM      5  C   UNL d   1      -2.172   2.805  14.428  0.00  0.00     0.037 A 
ATOM      6  C   UNL d   1      -0.833   1.345  13.058  0.00  0.00     0.037 A 
ENDROOT
BRANCH   1   7
ATOM      7  C   UNL d   1      -2.636   3.862  10.824  0.00  0.00     0.032 C 
ATOM      8  N   UNL d   1      -3.820   4.413  10.855  0.00  0.00    -0.304 N 
ATOM      9  HN  UNL d   1      -4.403   4.350  11.689  1.00  0.00     0.186 HD
ATOM     10  C   UNL d   1      -1.664   3.976   9.666  0.00  0.00     0.070 C 
BRANCH   8  11
ATOM     11  N   UNL d   1      -4.255   5.072   9.748  0.00  0.00    -0.301 N 
ATOM     12  H   UNL d   1      -4.110   4.606   8.853  0.00  0.00     0.187 HD
BRANCH  11  13
ATOM     13  C   UNL d   1      -5.544   5.657   9.817  0.00  0.00     0.048 A 
ATOM     14  C   UNL d   1      -6.095   6.092  11.030  0.00  0.00     0.047 A 
ATOM     15  C   UNL d   1      -7.357   6.707  11.080  0.00  0.00     0.050 A 
ATOM     16  C   UNL d   1      -8.067   6.903   9.886  0.00  0.00     0.016 A 
ATOM     17  C   UNL d   1      -7.515   6.510   8.668  0.00  0.00     0.003 A 
ATOM     18  C   UNL d   1      -6.255   5.908   8.635  0.00  0.00     0.031 A 
BRANCH  15  19
ATOM     19  C   UNL d   1      -7.949   7.160  12.389  0.00  0.00     0.417 C 
ATOM     20  F   UNL d   1      -7.160   6.911  13.472  0.00  0.00    -0.166 F 
ATOM     21  F   UNL d   1      -8.195   8.501  12.411  0.00  0.00    -0.166 F 
ATOM     22  F   UNL d   1      -9.144   6.562  12.655  0.00  0.00    -0.166 F 
ENDBRANCH  15  19
ENDBRANCH  11  13
ENDBRANCH   8  11
ENDBRANCH   1   7
BRANCH   4  23
ATOM     23  O   UNL d   1      -0.894   1.185  15.510  0.00  0.00    -0.345 OA
BRANCH  23  24
ATOM     24  C   UNL d   1      -0.450  -0.172  15.479  0.00  0.00     0.234 C 
BRANCH  24  25
ATOM     25  C   UNL d   1      -0.648  -0.799  16.845  0.00  0.00     0.055 A 
ATOM     26  N   UNL d   1       0.476  -1.249  17.479  0.00  0.00    -0.365 N 
ATOM     27  C   UNL d   1       0.331  -1.829  18.696  0.00  0.00     0.104 A 
ATOM     28  HN  UNL d   1       1.396  -1.152  17.049  1.00  0.00     0.165 HD
ATOM     29  C   UNL d   1      -0.889  -1.998  19.332  0.00  0.00     0.064 A 
ATOM     30  C   UNL d   1      -2.030  -1.539  18.669  0.00  0.00     0.043 A 
ATOM     31  C   UNL d   1      -1.916  -0.940  17.413  0.00  0.00     0.059 A 
ATOM     32 CL   UNL d   1      -3.365  -0.439  16.625  0.00  0.00    -0.082 Cl
BRANCH  29  33
ATOM     33  C   UNL d   1      -0.946  -2.661  20.673  0.00  0.00     0.418 C 
ATOM     34  F   UNL d   1      -2.210  -2.767  21.172  0.00  0.00    -0.166 F 
ATOM     35  F   UNL d   1      -0.227  -1.995  21.617  0.00  0.00    -0.166 F 
ATOM     36  F   UNL d   1      -0.450  -3.928  20.647  0.00  0.00    -0.166 F 
ENDBRANCH  29  33
ENDBRANCH  24  25
ENDBRANCH  23  24
ENDBRANCH   4  23
TORSDOF 8
