REMARK  5 active torsions:
REMARK  status: ('A' for Active; 'I' for Inactive)
REMARK    1  A    between atoms: C_5  and  C_2 
REMARK    2  A    between atoms: C_13  and  C_7 
REMARK    3  A    between atoms: O_22  and  C_11 
REMARK    4  A    between atoms: O_23  and  C_12 
REMARK    5  A    between atoms: O_24  and  C_13 
ROOT
ATOM      1  C   UNL d   1       0.018   0.564  -0.002  0.00  0.00     0.024 A 
ATOM      2  C   UNL d   1      -1.263   1.392  -0.089  0.00  0.00     0.106 A 
ATOM      3  C   UNL d   1      -0.009  -0.782   0.010  0.00  0.00     0.021 A 
ATOM      4  C   UNL d   1      -2.535   0.536  -0.009  0.00  0.00     0.057 A 
ATOM      5  N   UNL d   1      -1.223  -1.449  -0.020  0.00  0.00    -0.362 N 
ATOM      6  C   UNL d   1      -2.457  -0.819   0.010  0.00  0.00     0.023 A 
ATOM      7  C   UNL d   1       1.328   1.277   0.082  0.00  0.00     0.159 C 
ATOM      8  C   UNL d   1      -3.794   1.202   0.071  0.00  0.00     0.098 C 
ATOM      9  N   UNL d   1      -4.834   1.719   0.157  0.00  0.00    -0.192 NA
ATOM     10  C   UNL d   1       1.246  -1.632   0.031  0.00  0.00     0.067 C 
ATOM     11  C   UNL d   1       2.511  -0.871  -0.425  0.00  0.00    -0.036 C 
ATOM     12  C   UNL d   1       2.571   0.463   0.323  0.00  0.00     0.092 C 
ATOM     13  O   UNL d   1       1.400   2.499   0.006  0.00  0.00    -0.293 OA
ATOM     14  C   UNL d   1      -3.680  -1.702   0.069  0.00  0.00     0.069 C 
ATOM     15  C   UNL d   1       2.491  -0.634  -1.952  0.00  0.00     0.015 C 
ATOM     16  C   UNL d   1       3.771  -1.681  -0.084  0.00  0.00     0.015 C 
ATOM     17  H   UNL d   1      -1.208  -2.464   0.049  0.00  0.00     0.165 HD
ENDROOT
BRANCH   2  18
ATOM     18  C   UNL d   1      -1.281   2.274  -1.340  0.00  0.00    -0.010 A 
ATOM     19  C   UNL d   1      -1.168   1.619  -2.598  0.00  0.00     0.031 A 
ATOM     20  C   UNL d   1      -1.276   2.291  -3.834  0.00  0.00     0.073 A 
ATOM     21  C   UNL d   1      -1.483   3.671  -3.820  0.00  0.00     0.087 A 
ATOM     22  C   UNL d   1      -1.589   4.325  -2.578  0.00  0.00     0.075 A 
ATOM     23  C   UNL d   1      -1.496   3.657  -1.344  0.00  0.00     0.078 A 
BRANCH  20  24
ATOM     24  C   UNL d   1      -1.315   1.454  -5.066  0.00  0.00     0.295 C 
ATOM     25  O   UNL d   1      -1.997   1.682  -6.051  0.00  0.00    -0.259 OA
BRANCH  24  26
ATOM     26  O   UNL d   1      -0.488   0.382  -4.922  0.00  0.00    -0.322 OA
ATOM     27  C   UNL d   1      -0.496  -0.520  -6.033  0.00  0.00     0.213 C 
ENDBRANCH  24  26
ENDBRANCH  20  24
BRANCH  21  28
ATOM     28  O   UNL d   1      -1.726   4.506  -4.875  0.00  0.00    -0.355 OA
ATOM     29  C   UNL d   1      -0.910   4.376  -6.031  0.00  0.00     0.210 C 
ENDBRANCH  21  28
BRANCH  23  30
ATOM     30  O   UNL d   1      -1.815   4.467  -0.289  0.00  0.00    -0.355 OA
ATOM     31  C   UNL d   1      -1.071   4.399   0.918  0.00  0.00     0.210 C 
ENDBRANCH  23  30
ENDBRANCH   2  18
TORSDOF 5
