REMARK  2 active torsions:
REMARK  status: ('A' for Active; 'I' for Inactive)
REMARK       I    between atoms: N_2  and  C_1 
REMARK       I    between atoms: N_5  and  C_1 
REMARK    1  A    between atoms: C_3  and  N_4 
REMARK    2  A    between atoms: C_17  and  N_5 
ROOT
ATOM      1  C   UNL d   1       0.968   0.069   0.052  0.00  0.00     0.323 C 
ATOM      2  N   UNL d   1       0.302   0.794   1.032  0.00  0.00    -0.331 N 
ATOM      3  N   UNL d   1      -0.478   2.206   3.402  0.00  0.00    -0.375 N 
ATOM      4  N   UNL d   1       0.531  -1.222  -0.135  0.00  0.00    -0.309 N 
ATOM      5  O   UNL d   1       1.893   0.576  -0.577  0.00  0.00    -0.247 OA
ATOM      6  C   UNL d   1       0.704   2.198   1.242  0.00  0.00     0.147 C 
ATOM      7  C   UNL d   1      -0.929   0.425   1.750  0.00  0.00     0.147 C 
ATOM      8  C   UNL d   1       0.805   2.536   2.744  0.00  0.00     0.143 C 
ATOM      9  C   UNL d   1      -0.860   0.794   3.248  0.00  0.00     0.143 C 
ATOM     10  H   UNL d   1      -0.197  -1.556   0.468  0.00  0.00     0.170 HD
ENDROOT
BRANCH   4  11
ATOM     11  C   UNL d   1       1.006  -2.180  -1.059  0.00  0.00     0.036 A 
ATOM     12  C   UNL d   1       2.035  -1.948  -1.972  0.00  0.00     0.029 A 
ATOM     13  C   UNL d   1       2.432  -2.952  -2.862  0.00  0.00     0.002 A 
ATOM     14  C   UNL d   1       1.806  -4.197  -2.847  0.00  0.00     0.000 A 
ATOM     15  C   UNL d   1       0.781  -4.439  -1.936  0.00  0.00     0.002 A 
ATOM     16  C   UNL d   1       0.384  -3.436  -1.044  0.00  0.00     0.029 A 
ENDBRANCH   4  11
BRANCH   3  17
ATOM     17  C   UNL d   1      -1.014   3.029   4.392  0.00  0.00     0.077 A 
ATOM     18  C   UNL d   1      -1.385   2.581   5.684  0.00  0.00     0.077 A 
ATOM     19 CL   UNL d   1      -1.052   0.997   6.304  0.00  0.00    -0.080 Cl
ATOM     20  C   UNL d   1      -2.008   3.457   6.578  0.00  0.00     0.113 A 
ATOM     21  N   UNL d   1      -2.266   4.756   6.326  0.00  0.00    -0.372 N 
ATOM     22  C   UNL d   1      -1.890   5.195   5.109  0.00  0.00     0.113 A 
ATOM     23  HN  UNL d   1      -2.715   5.365   7.010  1.00  0.00     0.164 HD
ATOM     24  C   UNL d   1      -1.294   4.397   4.131  0.00  0.00     0.077 A 
ATOM     25 CL   UNL d   1      -1.048   5.150   2.587  0.00  0.00    -0.080 Cl
ENDBRANCH   3  17
TORSDOF 2
