REMARK  3 active torsions:
REMARK  status: ('A' for Active; 'I' for Inactive)
REMARK    1  A    between atoms: C_3  and  C_1 
REMARK       I    between atoms: N_7  and  C_3 
REMARK    2  A    between atoms: C_12  and  N_7 
REMARK    3  A    between atoms: C_22  and  C_20 
ROOT
ATOM      1  C   UNL d   1      -3.834  -0.099  -0.215  0.00  0.00     0.272 C 
ATOM      2  N   UNL d   1      -4.492  -1.312  -0.285  0.00  0.00    -0.322 N 
ATOM      3  O   UNL d   1      -4.377   1.000  -0.164  0.00  0.00    -0.266 OA
ATOM      4  H   UNL d   1      -3.929  -2.139  -0.159  0.00  0.00     0.169 HD
ENDROOT
BRANCH   1   5
ATOM      5  C   UNL d   1      -2.388  -0.195  -0.185  0.00  0.00     0.102 A 
ATOM      6  N   UNL d   1      -1.613   0.934  -0.018  0.00  0.00    -0.351 N 
ATOM      7  C   UNL d   1      -0.276   0.625  -0.023  0.00  0.00     0.043 A 
ATOM      8  H   UNL d   1      -2.000   1.862   0.096  0.00  0.00     0.166 HD
ATOM      9  C   UNL d   1       0.844   1.447   0.120  0.00  0.00     0.031 A 
ATOM     10  C   UNL d   1      -0.179  -0.750  -0.210  0.00  0.00    -0.007 A 
ATOM     11  C   UNL d   1       2.105   0.838   0.093  0.00  0.00     0.009 A 
ATOM     12  C   UNL d   1       2.253  -0.544  -0.078  0.00  0.00    -0.058 A 
ATOM     13  C   UNL d   1       1.099  -1.338  -0.244  0.00  0.00     0.021 A 
ATOM     14  C   UNL d   1      -1.506  -1.253  -0.330  0.00  0.00     0.049 A 
BRANCH  12  15
ATOM     15  C   UNL d   1       3.591  -1.250  -0.079  0.00  0.00     0.034 C 
ATOM     16  C   UNL d   1       4.833  -0.384   0.086  0.00  0.00     0.010 C 
ENDBRANCH  12  15
ENDBRANCH   1   5
BRANCH   2  17
ATOM     17  C   UNL d   1      -5.867  -1.521  -0.519  0.00  0.00     0.037 A 
ATOM     18  C   UNL d   1      -6.756  -0.493  -0.851  0.00  0.00     0.069 A 
ATOM     19  C   UNL d   1      -8.063  -0.829  -1.138  0.00  0.00     0.107 A 
ATOM     20  O   UNL d   1      -9.038   0.044  -1.512  0.00  0.00    -0.323 OA
ATOM     21  C   UNL d   1      -8.510  -2.126  -1.091  0.00  0.00     0.105 A 
ATOM     22  C   UNL d   1     -10.135  -0.861  -1.744  0.00  0.00     0.352 A 
ATOM     23  O   UNL d   1      -9.822  -2.235  -1.429  0.00  0.00    -0.323 OA
ATOM     24  C   UNL d   1      -7.674  -3.164  -0.745  0.00  0.00     0.042 A 
ATOM     25  C   UNL d   1      -6.337  -2.854  -0.464  0.00  0.00     0.032 A 
ENDBRANCH   2  17
TORSDOF 3
