REMARK  4 active torsions:
REMARK  status: ('A' for Active; 'I' for Inactive)
REMARK    1  A    between atoms: S_11  and  C_3 
REMARK       I    between atoms: N_4  and  C_5 
REMARK    2  A    between atoms: C_5  and  C_12 
REMARK    3  A    between atoms: C_6  and  C_7 
REMARK    4  A    between atoms: C_12  and  S_11 
ROOT
ATOM      1  N   UNL d   1      -0.726   0.970  -0.941  0.00  0.00    -0.336 N 
ATOM      2  HN  UNL d   1      -1.212   1.693  -1.471  1.00  0.00     0.168 HD
ATOM      3  C   UNL d   1       0.081   1.273   0.085  0.00  0.00     0.145 A 
ATOM      4  C   UNL d   1      -0.863  -0.339  -1.240  0.00  0.00     0.052 A 
ATOM      5  N   UNL d   1       0.761   0.375   0.814  0.00  0.00    -0.347 N 
ATOM      6  HN  UNL d   1       1.367   0.658   1.584  1.00  0.00     0.167 HD
ATOM      7  C   UNL d   1      -0.200  -1.335  -0.551  0.00  0.00     0.048 A 
ATOM      8  C   UNL d   1       0.604  -0.915   0.478  0.00  0.00     0.092 A 
ENDROOT
BRANCH   3   9
ATOM      9  S   UNL d   1       0.363   2.980   0.464  0.00  0.00    -0.085 SA
BRANCH   9  10
ATOM     10  C   UNL d   1      -1.237   3.673  -0.049  0.00  0.00     0.185 C 
BRANCH  10  11
ATOM     11  C   UNL d   1      -1.246   5.166   0.240  0.00  0.00     0.229 C 
ATOM     12  N   UNL d   1      -0.768   6.039  -0.725  0.00  0.00    -0.347 N 
ATOM     13  C   UNL d   1      -0.735   7.478  -0.445  0.00  0.00     0.152 C 
ATOM     14  C   UNL d   1      -0.116   5.681  -1.992  0.00  0.00     0.152 C 
ATOM     15  C   UNL d   1       0.704   7.996  -0.534  0.00  0.00     0.187 C 
ATOM     16  O   UNL d   1       1.268   7.703  -1.825  0.00  0.00    -0.388 OA
ATOM     17  C   UNL d   1       1.293   6.286  -2.059  0.00  0.00     0.187 C 
ATOM     18  O   UNL d   1      -1.678   5.574   1.322  0.00  0.00    -0.273 OA
ENDBRANCH  10  11
ENDBRANCH   9  10
ENDBRANCH   3   9
BRANCH   4  19
ATOM     19  C   UNL d   1      -1.756  -0.598  -2.382  0.00  0.00     0.031 A 
ATOM     20  S   UNL d   1      -2.572  -2.102  -2.566  0.00  0.00    -0.100 SA
ATOM     21  C   UNL d   1      -3.344  -1.598  -4.003  0.00  0.00     0.050 A 
ATOM     22  C   UNL d   1      -3.002  -0.311  -4.348  0.00  0.00     0.008 A 
ATOM     23  C   UNL d   1      -2.096   0.265  -3.413  0.00  0.00     0.021 A 
ENDBRANCH   4  19
TORSDOF 4
