REMARK  6 active torsions:
REMARK  status: ('A' for Active; 'I' for Inactive)
REMARK    1  A    between atoms: C_5  and  N_1 
REMARK    2  A    between atoms: S_2  and  C_8 
REMARK    3  A    between atoms: N_6  and  S_2 
REMARK    4  A    between atoms: C_9  and  N_6 
REMARK    5  A    between atoms: O_25  and  C_13 
REMARK    6  A    between atoms: O_28  and  C_22 
ROOT
ATOM      1  C   UNL d   1       3.128  -1.425  -0.071  0.00  0.00     0.067 A 
ATOM      2  C   UNL d   1       5.271  -3.234   0.278  0.00  0.00     0.081 A 
ATOM      3  C   UNL d   1       3.490  -2.324  -1.098  0.00  0.00     0.062 A 
ATOM      4  C   UNL d   1       4.563  -3.214  -0.929  0.00  0.00     0.051 A 
ATOM      5  C   UNL d   1       3.916  -1.409   1.095  0.00  0.00     0.033 A 
ATOM      6  C   UNL d   1       4.983  -2.298   1.268  0.00  0.00     0.027 A 
ATOM      7 CL   UNL d   1       2.534  -2.556  -2.525  0.00  0.00    -0.082 Cl
ENDROOT
BRANCH   2   8
ATOM      8  S   UNL d   1       6.556  -4.433   0.538  0.00  0.00     0.263 S 
ATOM      9  O   UNL d   1       7.364  -4.428  -0.660  0.00  0.00    -0.200 OA
ATOM     10  O   UNL d   1       7.161  -4.204   1.829  0.00  0.00    -0.200 OA
BRANCH   8  11
ATOM     11  N   UNL d   1       5.790  -5.934   0.556  0.00  0.00    -0.278 N 
ATOM     12  H   UNL d   1       6.278  -6.608  -0.031  0.00  0.00     0.179 HD
BRANCH  11  13
ATOM     13  C   UNL d   1       5.150  -6.433   1.735  0.00  0.00     0.076 A 
ATOM     14  C   UNL d   1       3.833  -6.089   2.053  0.00  0.00     0.098 A 
ATOM     15  C   UNL d   1       3.203  -6.628   3.180  0.00  0.00     0.075 A 
ATOM     16  C   UNL d   1       3.859  -7.574   3.973  0.00  0.00     0.070 A 
ATOM     17  C   UNL d   1       5.162  -7.947   3.642  0.00  0.00     0.039 A 
ATOM     18  C   UNL d   1       5.812  -7.364   2.539  0.00  0.00     0.036 A 
BRANCH  14  19
ATOM     19  O   UNL d   1       3.087  -5.278   1.236  0.00  0.00    -0.354 OA
ATOM     20  C   UNL d   1       2.638  -6.031   0.105  0.00  0.00     0.210 C 
ENDBRANCH  14  19
BRANCH  16  21
ATOM     21  O   UNL d   1       3.101  -8.098   4.984  0.00  0.00    -0.356 OA
ATOM     22  C   UNL d   1       3.782  -8.807   6.012  0.00  0.00     0.210 C 
ENDBRANCH  16  21
ENDBRANCH  11  13
ENDBRANCH   8  11
ENDBRANCH   2   8
BRANCH   1  23
ATOM     23  N   UNL d   1       1.944  -0.634  -0.118  0.00  0.00    -0.250 N 
ATOM     24  C   UNL d   1       1.573   0.158  -1.177  0.00  0.00     0.232 C 
ATOM     25  C   UNL d   1       0.190   0.697  -0.925  0.00  0.00     0.123 C 
ATOM     26  O   UNL d   1       2.237   0.475  -2.153  0.00  0.00    -0.273 OA
ATOM     27  C   UNL d   1      -0.117   0.300   0.516  0.00  0.00     0.050 C 
ATOM     28  C   UNL d   1       1.083  -0.508   0.948  0.00  0.00     0.240 C 
ATOM     29  C   UNL d   1      -1.418  -0.502   0.656  0.00  0.00     0.020 C 
ATOM     30  C   UNL d   1      -0.381   1.487   1.444  0.00  0.00     0.020 C 
ATOM     31  O   UNL d   1       1.204  -0.983   2.070  0.00  0.00    -0.272 OA
ATOM     32  C   UNL d   1      -2.517   0.553   0.716  0.00  0.00     0.001 C 
ATOM     33  C   UNL d   1      -1.853   1.828   1.234  0.00  0.00     0.001 C 
ENDBRANCH   1  23
TORSDOF 6
