REMARK  0 active torsions:
REMARK  status: ('A' for Active; 'I' for Inactive)
ROOT
ATOM      1  N   UNL d   1      -0.716   1.128   0.048  0.00  0.00    -0.274 N 
ATOM      2  C   UNL d   1      -1.400  -0.059  -0.015  0.00  0.00     0.328 A 
ATOM      3  C   UNL d   1       1.438   0.042  -0.044  0.00  0.00     0.128 A 
ATOM      4  C   UNL d   1       0.642   1.286  -0.022  0.00  0.00     0.271 A 
ATOM      5  N   UNL d   1      -0.602  -1.197  -0.067  0.00  0.00    -0.312 N 
ATOM      6  C   UNL d   1       0.778  -1.123  -0.062  0.00  0.00     0.123 A 
ATOM      7  C   UNL d   1       2.854   0.100  -0.066  0.00  0.00     0.106 C 
ATOM      8  N   UNL d   1       4.013   0.079  -0.089  0.00  0.00    -0.191 NA
ATOM      9  O   UNL d   1      -2.627  -0.065  -0.031  0.00  0.00    -0.246 OA
ATOM     10  O   UNL d   1       1.156   2.398  -0.073  0.00  0.00    -0.266 OA
ATOM     11  C   UNL d   1      -1.233  -2.508  -0.146  0.00  0.00     0.160 C 
ATOM     12  H   UNL d   1      -1.277   1.967   0.055  0.00  0.00     0.173 HD
ENDROOT
TORSDOF 0
