REMARK  5 active torsions:
REMARK  status: ('A' for Active; 'I' for Inactive)
REMARK    1  A    between atoms: S_2  and  C_1 
REMARK    2  A    between atoms: C_16  and  S_2 
REMARK    3  A    between atoms: C_4  and  N_9 
REMARK    4  A    between atoms: C_10  and  C_5 
REMARK    5  A    between atoms: C_15  and  C_8 
REMARK       I    between atoms: N_9  and  C_10 
ROOT
ATOM      1  N   UNL d   1      -0.750  -3.220   0.162  0.00  0.00    -0.302 N 
ATOM      2  C   UNL d   1       0.416  -2.490   0.061  0.00  0.00     0.265 C 
ATOM      3  O   UNL d   1       1.533  -2.984  -0.046  0.00  0.00    -0.267 OA
ATOM      4  H   UNL d   1      -1.621  -2.753   0.364  0.00  0.00     0.171 HD
ENDROOT
BRANCH   2   5
ATOM      5  C   UNL d   1       0.244  -1.027   0.147  0.00  0.00     0.080 A 
ATOM      6  C   UNL d   1       1.178  -0.084   0.593  0.00  0.00    -0.017 A 
ATOM      7  C   UNL d   1       0.665   1.266   0.453  0.00  0.00     0.078 A 
ATOM      8  C   UNL d   1       2.509  -0.491   1.155  0.00  0.00     0.051 C 
ATOM      9  C   UNL d   1      -0.610   1.276  -0.077  0.00  0.00     0.075 A 
ATOM     10  S   UNL d   1      -1.208  -0.288  -0.383  0.00  0.00    -0.094 SA
BRANCH   7  11
ATOM     11  S   UNL d   1       1.466   2.764   0.879  0.00  0.00     0.207 S 
ATOM     12  O   UNL d   1       0.385   3.724   1.013  0.00  0.00    -0.217 OA
ATOM     13  O   UNL d   1       2.339   2.457   1.989  0.00  0.00    -0.217 OA
BRANCH  11  14
ATOM     14  C   UNL d   1       2.444   3.229  -0.528  0.00  0.00     0.064 A 
ATOM     15  C   UNL d   1       1.917   4.126  -1.468  0.00  0.00     0.025 A 
ATOM     16  C   UNL d   1       2.701   4.538  -2.550  0.00  0.00     0.025 A 
ATOM     17  C   UNL d   1       4.006   4.065  -2.681  0.00  0.00     0.034 A 
ATOM     18  C   UNL d   1       4.542   3.196  -1.730  0.00  0.00     0.025 A 
ATOM     19 CL   UNL d   1       4.964   4.565  -4.020  0.00  0.00    -0.084 Cl
ATOM     20  C   UNL d   1       3.764   2.781  -0.643  0.00  0.00     0.025 A 
ENDBRANCH  11  14
ENDBRANCH   7  11
ENDBRANCH   2   5
BRANCH   1  21
ATOM     21  C   UNL d   1      -0.780  -4.582   0.032  0.00  0.00     0.152 A 
ATOM     22  N   UNL d   1       0.164  -5.411  -0.326  0.00  0.00    -0.335 N 
ATOM     23  C   UNL d   1      -0.331  -6.711  -0.385  0.00  0.00     0.057 A 
ATOM     24  HN  UNL d   1       1.127  -5.144  -0.533  1.00  0.00     0.168 HD
ATOM     25  C   UNL d   1      -1.655  -6.840   0.022  0.00  0.00     0.010 A 
ATOM     26  S   UNL d   1      -2.296  -5.277   0.371  0.00  0.00    -0.057 SA
ATOM     27  C   UNL d   1      -2.528  -8.038   0.182  0.00  0.00     0.059 C 
BRANCH  23  28
ATOM     28  C   UNL d   1       0.539  -7.802  -0.833  0.00  0.00    -0.007 A 
ATOM     29  C   UNL d   1       1.917  -7.744  -0.572  0.00  0.00     0.038 A 
ATOM     30  C   UNL d   1       2.774  -8.766  -1.003  0.00  0.00     0.040 A 
ATOM     31 CL   UNL d   1       4.459  -8.614  -0.656  0.00  0.00    -0.084 Cl
ATOM     32  C   UNL d   1       2.275  -9.873  -1.708  0.00  0.00    -0.040 A 
ATOM     33  C   UNL d   1       0.905  -9.918  -1.988  0.00  0.00     0.009 A 
ATOM     34  C   UNL d   1       3.160 -10.993  -2.179  0.00  0.00     0.050 C 
ATOM     35  C   UNL d   1       0.054  -8.891  -1.567  0.00  0.00     0.014 A 
ENDBRANCH  23  28
ENDBRANCH   1  21
TORSDOF 5
