REMARK  1 active torsions:
REMARK  status: ('A' for Active; 'I' for Inactive)
REMARK    1  A    between atoms: C_4  and  C_1 
ROOT
ATOM      1  C   UNL d   1       2.275   0.126  -0.067  0.00  0.00     0.240 C 
ATOM      2  N   UNL d   1       1.466   1.358  -0.160  0.00  0.00    -0.260 NA
ATOM      3  O   UNL d   1       1.435  -1.064  -0.124  0.00  0.00    -0.324 OA
ATOM      4  C   UNL d   1       0.171   0.830  -0.027  0.00  0.00     0.044 A 
ATOM      5  C   UNL d   1       0.169  -0.553  -0.047  0.00  0.00     0.092 A 
ATOM      6  C   UNL d   1      -1.014   1.536   0.029  0.00  0.00     0.026 A 
ATOM      7  C   UNL d   1      -0.993  -1.293  -0.008  0.00  0.00     0.039 A 
ATOM      8  C   UNL d   1      -2.210   0.812   0.071  0.00  0.00     0.002 A 
ATOM      9  C   UNL d   1      -2.200  -0.594   0.051  0.00  0.00     0.003 A 
ATOM     10  H   UNL d   1       1.675   2.037   0.561  0.00  0.00     0.130 HD
ENDROOT
BRANCH   1  11
ATOM     11  C   UNL d   1       3.282   0.086  -1.207  0.00  0.00    -0.004 A 
ATOM     12  C   UNL d   1       4.697   0.051  -1.008  0.00  0.00    -0.016 A 
ATOM     13  C   UNL d   1       5.537   0.040  -2.155  0.00  0.00    -0.025 A 
ATOM     14  C   UNL d   1       5.339   0.025   0.255  0.00  0.00     0.013 A 
ATOM     15  C   UNL d   1       6.934   0.017  -2.013  0.00  0.00     0.012 A 
ATOM     16  C   UNL d   1       4.983   0.053  -3.442  0.00  0.00     0.012 A 
ATOM     17  C   UNL d   1       7.530  -0.001  -0.755  0.00  0.00     0.001 A 
ATOM     18  C   UNL d   1       6.732  -0.000   0.379  0.00  0.00     0.001 A 
ATOM     19  C   UNL d   1       3.607   0.076  -3.628  0.00  0.00     0.002 A 
ATOM     20  C   UNL d   1       2.768   0.091  -2.522  0.00  0.00     0.012 A 
ENDBRANCH   1  11
TORSDOF 1
