REMARK  3 active torsions:
REMARK  status: ('A' for Active; 'I' for Inactive)
REMARK    1  A    between atoms: N_6  and  C_3 
REMARK    2  A    between atoms: C_4  and  C_5 
REMARK    3  A    between atoms: C_5  and  C_11 
ROOT
ATOM      1  C   UNL d   1       4.324   4.192   0.031  0.00  0.00     0.005 A 
ATOM      2  C   UNL d   1       3.438   1.506   0.017  0.00  0.00    -0.054 A 
ATOM      3  C   UNL d   1       4.617   3.350  -1.042  0.00  0.00     0.024 A 
ATOM      4  C   UNL d   1       3.542   3.693   1.074  0.00  0.00     0.024 A 
ATOM      5  C   UNL d   1       4.202   2.013  -1.040  0.00  0.00     0.009 A 
ATOM      6  C   UNL d   1       3.124   2.357   1.084  0.00  0.00     0.009 A 
ENDROOT
BRANCH   2   7
ATOM      7  C   UNL d   1       2.907   0.093  -0.023  0.00  0.00     0.077 C 
BRANCH   7   8
ATOM      8  C   UNL d   1       3.825  -0.958   0.550  0.00  0.00    -0.051 A 
ATOM      9  C   UNL d   1       3.782  -1.285   1.907  0.00  0.00     0.024 A 
ATOM     10  C   UNL d   1       4.607  -2.296   2.376  0.00  0.00     0.088 A 
ATOM     11  N   UNL d   1       5.465  -2.990   1.598  0.00  0.00    -0.375 N 
ATOM     12  C   UNL d   1       5.506  -2.647   0.293  0.00  0.00     0.088 A 
ATOM     13  HN  UNL d   1       6.052  -3.733   1.976  1.00  0.00     0.164 HD
ATOM     14  C   UNL d   1       4.721  -1.651  -0.270  0.00  0.00     0.024 A 
ENDBRANCH   7   8
ENDBRANCH   2   7
BRANCH   1  15
ATOM     15  N   UNL d   1       4.593   5.564  -0.055  0.00  0.00    -0.303 NA
ATOM     16  H   UNL d   1       4.632   6.031   0.845  0.00  0.00     0.124 HD
ATOM     17  H   UNL d   1       5.389   5.790  -0.643  0.00  0.00     0.124 HD
ENDBRANCH   1  15
TORSDOF 3
