REMARK  4 active torsions:
REMARK  status: ('A' for Active; 'I' for Inactive)
REMARK    1  A    between atoms: C_7  and  C_1 
REMARK    2  A    between atoms: C_8  and  C_2 
REMARK    3  A    between atoms: O_14  and  C_7 
REMARK    4  A    between atoms: O_13  and  C_8 
ROOT
ATOM      1  C   UNL d   1      -0.778   1.193   0.010  0.00  0.00     0.058 A 
ATOM      2  C   UNL d   1       0.783  -1.192  -0.012  0.00  0.00     0.058 A 
ATOM      3  C   UNL d   1       1.409   0.059  -0.017  0.00  0.00     0.028 A 
ATOM      4  C   UNL d   1      -1.405  -0.058   0.015  0.00  0.00     0.028 A 
ATOM      5  C   UNL d   1       0.630   1.232  -0.010  0.00  0.00     0.039 A 
ATOM      6  C   UNL d   1      -0.626  -1.230   0.008  0.00  0.00     0.039 A 
ATOM      7 BR   UNL d   1      -3.286  -0.325  -0.026  0.00  0.00    -0.050 Br
ATOM      8 BR   UNL d   1       3.291   0.327   0.025  0.00  0.00    -0.050 Br
ENDROOT
BRANCH   1   9
ATOM      9  C   UNL d   1      -1.454   2.524  -0.016  0.00  0.00     0.294 C 
ATOM     10  O   UNL d   1      -0.937   3.504  -0.527  0.00  0.00    -0.259 OA
BRANCH   9  11
ATOM     11  O   UNL d   1      -2.625   2.521   0.659  0.00  0.00    -0.322 OA
ATOM     12  C   UNL d   1      -3.305   3.782   0.687  0.00  0.00     0.213 C 
ENDBRANCH   9  11
ENDBRANCH   1   9
BRANCH   2  13
ATOM     13  C   UNL d   1       1.460  -2.522   0.015  0.00  0.00     0.294 C 
ATOM     14  O   UNL d   1       0.942  -3.503   0.528  0.00  0.00    -0.259 OA
BRANCH  13  15
ATOM     15  O   UNL d   1       2.631  -2.520  -0.661  0.00  0.00    -0.322 OA
ATOM     16  C   UNL d   1       3.313  -3.779  -0.684  0.00  0.00     0.213 C 
ENDBRANCH  13  15
ENDBRANCH   2  13
TORSDOF 4
