REMARK  2 active torsions:
REMARK  status: ('A' for Active; 'I' for Inactive)
REMARK       I    between atoms: C_4  and  N_1 
REMARK    1  A    between atoms: C_6  and  C_2 
REMARK    2  A    between atoms: C_14  and  C_4 
ROOT
ATOM      1  N   UNL d   1       1.460   1.204   0.063  0.00  0.00    -0.279 N 
ATOM      2  C   UNL d   1       2.300   0.006  -0.119  0.00  0.00     0.272 A 
ATOM      3  O   UNL d   1       1.432  -1.162  -0.161  0.00  0.00    -0.319 OA
ATOM      4  C   UNL d   1       1.843   2.515   0.308  0.00  0.00     0.260 C 
ATOM      5  C   UNL d   1       0.141   0.743  -0.008  0.00  0.00     0.073 A 
ATOM      6  C   UNL d   1       0.168  -0.637  -0.103  0.00  0.00     0.099 A 
ATOM      7  O   UNL d   1       1.067   3.463   0.403  0.00  0.00    -0.267 OA
ATOM      8  C   UNL d   1      -1.064   1.419   0.016  0.00  0.00     0.033 A 
ATOM      9  C   UNL d   1      -0.979  -1.405  -0.127  0.00  0.00     0.039 A 
ATOM     10  C   UNL d   1      -2.244   0.665  -0.036  0.00  0.00     0.002 A 
ATOM     11  C   UNL d   1      -2.203  -0.739  -0.091  0.00  0.00     0.003 A 
ENDROOT
BRANCH   2  12
ATOM     12  C   UNL d   1       3.174  -0.015  -1.362  0.00  0.00    -0.006 A 
ATOM     13  C   UNL d   1       3.039   0.918  -2.406  0.00  0.00     0.051 A 
ATOM     14  C   UNL d   1       3.916   0.844  -3.467  0.00  0.00     0.105 A 
ATOM     15  O   UNL d   1       3.944   1.693  -4.529  0.00  0.00    -0.323 OA
ATOM     16  C   UNL d   1       4.882  -0.129  -3.546  0.00  0.00     0.105 A 
ATOM     17  C   UNL d   1       5.039   1.140  -5.287  0.00  0.00     0.352 A 
ATOM     18  O   UNL d   1       5.635  -0.021  -4.673  0.00  0.00    -0.323 OA
ATOM     19  C   UNL d   1       5.026  -1.085  -2.569  0.00  0.00     0.040 A 
ATOM     20  C   UNL d   1       4.167  -1.024  -1.469  0.00  0.00     0.014 A 
ENDBRANCH   2  12
BRANCH   4  21
ATOM     21  C   UNL d   1       3.297   2.838   0.404  0.00  0.00     0.032 A 
ATOM     22  C   UNL d   1       3.784   3.919  -0.343  0.00  0.00     0.017 A 
ATOM     23  C   UNL d   1       5.151   4.210  -0.348  0.00  0.00     0.001 A 
ATOM     24  C   UNL d   1       6.034   3.422   0.388  0.00  0.00     0.000 A 
ATOM     25  C   UNL d   1       5.547   2.383   1.178  0.00  0.00     0.001 A 
ATOM     26  C   UNL d   1       4.176   2.117   1.217  0.00  0.00     0.017 A 
ENDBRANCH   4  21
TORSDOF 2
