REMARK  4 active torsions:
REMARK  status: ('A' for Active; 'I' for Inactive)
REMARK    1  A    between atoms: C_5  and  C_1 
REMARK    2  A    between atoms: C_6  and  C_2 
REMARK       I    between atoms: N_10  and  C_5 
REMARK    3  A    between atoms: C_7  and  C_11 
REMARK    4  A    between atoms: C_14  and  N_10 
ROOT
ATOM      1  C   UNL d   1      -0.186  -1.065   0.389  0.00  0.00     0.093 A 
ATOM      2  C   UNL d   1      -1.448  -0.469   0.737  0.00  0.00     0.085 A 
ATOM      3  N   UNL d   1      -1.300   0.861   0.863  0.00  0.00    -0.259 N 
ATOM      4  HN  UNL d   1      -2.030   1.529   1.111  1.00  0.00     0.195 HD
ATOM      5  O   UNL d   1       0.009   1.152   0.598  0.00  0.00    -0.241 OA
ATOM      6  C   UNL d   1       0.678   0.012   0.311  0.00  0.00     0.090 A 
ATOM      7  C   UNL d   1       2.104   0.188  -0.037  0.00  0.00     0.080 C 
ENDROOT
BRANCH   1   8
ATOM      8  C   UNL d   1       0.169  -2.450   0.119  0.00  0.00     0.261 C 
ATOM      9  N   UNL d   1       1.399  -2.802   0.658  0.00  0.00    -0.323 N 
ATOM     10  H   UNL d   1       1.827  -2.119   1.266  0.00  0.00     0.169 HD
ATOM     11  O   UNL d   1      -0.588  -3.191  -0.492  0.00  0.00    -0.267 OA
BRANCH   9  12
ATOM     12  C   UNL d   1       2.023  -4.066   0.660  0.00  0.00     0.035 A 
ATOM     13  C   UNL d   1       1.576  -5.162  -0.079  0.00  0.00     0.045 A 
ATOM     14  C   UNL d   1       2.182  -6.423   0.073  0.00  0.00     0.050 A 
ATOM     15  C   UNL d   1       3.258  -6.566   0.963  0.00  0.00     0.016 A 
ATOM     16  C   UNL d   1       3.747  -5.463   1.658  0.00  0.00     0.003 A 
ATOM     17  C   UNL d   1       3.139  -4.218   1.497  0.00  0.00     0.029 A 
BRANCH  14  18
ATOM     18  C   UNL d   1       1.677  -7.627  -0.681  0.00  0.00     0.417 C 
ATOM     19  F   UNL d   1       0.655  -7.357  -1.539  0.00  0.00    -0.166 F 
ATOM     20  F   UNL d   1       2.651  -8.210  -1.436  0.00  0.00    -0.166 F 
ATOM     21  F   UNL d   1       1.220  -8.604   0.151  0.00  0.00    -0.166 F 
ENDBRANCH  14  18
ENDBRANCH   9  12
ENDBRANCH   1   8
BRANCH   2  22
ATOM     22  C   UNL d   1      -2.792  -1.037   0.942  0.00  0.00     0.015 A 
ATOM     23  C   UNL d   1      -3.070  -2.189   1.690  0.00  0.00     0.046 A 
ATOM     24 CL   UNL d   1      -1.863  -3.073   2.561  0.00  0.00    -0.083 Cl
ATOM     25  C   UNL d   1      -4.397  -2.628   1.854  0.00  0.00     0.025 A 
ATOM     26  C   UNL d   1      -5.461  -1.903   1.321  0.00  0.00     0.002 A 
ATOM     27  C   UNL d   1      -5.209  -0.732   0.618  0.00  0.00     0.001 A 
ATOM     28  C   UNL d   1      -3.890  -0.312   0.424  0.00  0.00     0.015 A 
ENDBRANCH   2  22
TORSDOF 4
