REMARK  0 active torsions:
REMARK  status: ('A' for Active; 'I' for Inactive)
ROOT
ATOM      1  C   UNL d   1      -1.859   0.147   0.148  0.00  0.00     0.118 A 
ATOM      2  C   UNL d   1      -1.513  -1.140   0.409  0.00  0.00     0.118 A 
ATOM      3  C   UNL d   1      -3.215  -0.027   0.656  0.00  0.00     0.253 A 
ATOM      4  C   UNL d   1      -2.812  -1.436   1.014  0.00  0.00     0.253 A 
ATOM      5  N   UNL d   1      -1.053   1.061  -0.336  0.00  0.00    -0.349 N 
ATOM      6  N   UNL d   1      -0.328  -1.657   0.211  0.00  0.00    -0.349 N 
ATOM      7  C   UNL d   1       0.347   0.700  -0.383  0.00  0.00     0.066 A 
ATOM      8  C   UNL d   1       0.709  -0.699  -0.111  0.00  0.00     0.060 A 
ATOM      9  C   UNL d   1       1.350   1.691  -0.420  0.00  0.00    -0.027 A 
ATOM     10  O   UNL d   1      -3.339  -2.308   1.664  0.00  0.00    -0.281 OA
ATOM     11  O   UNL d   1      -4.204   0.631   0.869  0.00  0.00    -0.281 OA
ATOM     12  C   UNL d   1       2.684   1.297  -0.144  0.00  0.00    -0.054 A 
ATOM     13  C   UNL d   1       2.042  -1.067   0.006  0.00  0.00     0.032 A 
ATOM     14  C   UNL d   1       3.014  -0.069   0.010  0.00  0.00     0.010 A 
ATOM     15  C   UNL d   1       1.000   3.147  -0.582  0.00  0.00     0.051 C 
ATOM     16  C   UNL d   1       3.784   2.285   0.163  0.00  0.00     0.049 C 
ATOM     17  H   UNL d   1      -1.327   1.977  -0.665  0.00  0.00     0.166 HD
ATOM     18  H   UNL d   1      -0.025  -2.595   0.445  0.00  0.00     0.166 HD
ENDROOT
TORSDOF 0
