REMARK  6 active torsions:
REMARK  status: ('A' for Active; 'I' for Inactive)
REMARK    1  A    between atoms: C_9  and  C_1 
REMARK    2  A    between atoms: C_7  and  C_2 
REMARK    3  A    between atoms: O_12  and  C_5 
REMARK    4  A    between atoms: O_17  and  C_9 
REMARK    5  A    between atoms: C_18  and  O_12 
REMARK    6  A    between atoms: C_19  and  O_17 
ROOT
ATOM      1  C   UNL d   1      -1.581   1.358   0.016  0.00  0.00     0.072 A 
ATOM      2  C   UNL d   1      -2.255   0.150  -0.119  0.00  0.00     0.135 A 
ATOM      3  N   UNL d   1      -1.555  -1.024  -0.178  0.00  0.00    -0.331 N 
ATOM      4  HN  UNL d   1      -2.050  -1.911  -0.272  1.00  0.00     0.168 HD
ATOM      5  C   UNL d   1      -0.199  -1.003  -0.111  0.00  0.00     0.169 A 
ATOM      6  C   UNL d   1       0.533   0.166  -0.107  0.00  0.00     0.097 A 
ATOM      7  C   UNL d   1      -0.175   1.370  -0.021  0.00  0.00     0.047 A 
ATOM      8  C   UNL d   1       1.960   0.168  -0.168  0.00  0.00     0.104 C 
ATOM      9  N   UNL d   1       3.117   0.209  -0.239  0.00  0.00    -0.191 NA
ENDROOT
BRANCH   5  10
ATOM     10  O   UNL d   1       0.461  -2.220  -0.004  0.00  0.00    -0.292 OA
BRANCH  10  11
ATOM     11  C   UNL d   1      -0.202  -3.212   0.693  0.00  0.00     0.077 A 
ATOM     12  C   UNL d   1      -0.148  -4.503   0.171  0.00  0.00     0.037 A 
ATOM     13  C   UNL d   1      -0.839  -5.538   0.806  0.00  0.00     0.003 A 
ATOM     14  C   UNL d   1      -1.573  -5.284   1.966  0.00  0.00     0.000 A 
ATOM     15  C   UNL d   1      -1.590  -4.003   2.514  0.00  0.00     0.003 A 
ATOM     16  C   UNL d   1      -0.886  -2.972   1.892  0.00  0.00     0.037 A 
ENDBRANCH  10  11
ENDBRANCH   5  10
BRANCH   1  17
ATOM     17  C   UNL d   1      -2.303   2.620   0.235  0.00  0.00     0.295 C 
ATOM     18  O   UNL d   1      -3.248   2.732   0.990  0.00  0.00    -0.259 OA
BRANCH  17  19
ATOM     19  O   UNL d   1      -1.765   3.550  -0.582  0.00  0.00    -0.318 OA
BRANCH  19  20
ATOM     20  C   UNL d   1      -2.544   4.736  -0.788  0.00  0.00     0.174 C 
ATOM     21  C   UNL d   1      -3.240   4.580  -2.127  0.00  0.00     0.034 C 
ENDBRANCH  19  20
ENDBRANCH  17  19
ENDBRANCH   1  17
BRANCH   2  22
ATOM     22  C   UNL d   1      -3.769   0.030  -0.223  0.00  0.00     0.433 C 
ATOM     23  F   UNL d   1      -4.424   1.171  -0.567  0.00  0.00    -0.165 F 
ATOM     24  F   UNL d   1      -4.138  -0.866  -1.190  0.00  0.00    -0.165 F 
ATOM     25  F   UNL d   1      -4.343  -0.419   0.928  0.00  0.00    -0.165 F 
ENDBRANCH   2  22
TORSDOF 6
