REMARK  5 active torsions:
REMARK  status: ('A' for Active; 'I' for Inactive)
REMARK    1  A    between atoms: C_9  and  C_1 
REMARK    2  A    between atoms: C_8  and  C_2 
REMARK    3  A    between atoms: C_7  and  C_3 
REMARK    4  A    between atoms: O_15  and  C_8 
REMARK    5  A    between atoms: O_14  and  C_9 
ROOT
ATOM      1  C   UNL d   1       1.324  -1.030   0.092  0.00  0.00     0.052 C 
ATOM      2  C   UNL d   1      -1.242  -1.067   0.112  0.00  0.00     0.052 C 
ATOM      3  C   UNL d   1       0.054  -1.871  -0.088  0.00  0.00     0.100 C 
ATOM      4  C   UNL d   1       1.252   0.322   0.026  0.00  0.00     0.018 C 
ATOM      5  C   UNL d   1      -1.205   0.284   0.042  0.00  0.00     0.018 C 
ATOM      6  N   UNL d   1       0.011   0.928  -0.129  0.00  0.00    -0.362 N 
ATOM      7  C   UNL d   1      -2.413   1.185   0.130  0.00  0.00     0.069 C 
ATOM      8  C   UNL d   1       2.399   1.299   0.118  0.00  0.00     0.069 C 
ATOM      9  H   UNL d   1      -0.000   1.945  -0.129  0.00  0.00     0.165 HD
ENDROOT
BRANCH   3  10
ATOM     10  C   UNL d   1       0.052  -2.530  -1.477  0.00  0.00    -0.043 A 
ATOM     11  C   UNL d   1       0.093  -3.927  -1.608  0.00  0.00     0.032 A 
ATOM     12  C   UNL d   1       0.063  -4.513  -2.875  0.00  0.00     0.034 A 
ATOM     13 CL   UNL d   1       0.099  -6.228  -3.022  0.00  0.00    -0.084 Cl
ATOM     14  C   UNL d   1      -0.004  -3.727  -4.024  0.00  0.00     0.024 A 
ATOM     15  C   UNL d   1      -0.039  -2.340  -3.909  0.00  0.00     0.002 A 
ATOM     16  C   UNL d   1      -0.010  -1.748  -2.647  0.00  0.00     0.008 A 
ENDBRANCH   3  10
BRANCH   2  17
ATOM     17  C   UNL d   1      -2.509  -1.813   0.377  0.00  0.00     0.291 C 
ATOM     18  O   UNL d   1      -3.610  -1.307   0.508  0.00  0.00    -0.260 OA
BRANCH  17  19
ATOM     19  O   UNL d   1      -2.260  -3.145   0.482  0.00  0.00    -0.323 OA
ATOM     20  C   UNL d   1      -3.412  -3.954   0.718  0.00  0.00     0.213 C 
ENDBRANCH  17  19
ENDBRANCH   2  17
BRANCH   1  21
ATOM     21  C   UNL d   1       2.608  -1.756   0.306  0.00  0.00     0.291 C 
ATOM     22  O   UNL d   1       3.709  -1.341  -0.013  0.00  0.00    -0.260 OA
BRANCH  21  23
ATOM     23  O   UNL d   1       2.387  -2.938   0.941  0.00  0.00    -0.323 OA
ATOM     24  C   UNL d   1       3.587  -3.657   1.248  0.00  0.00     0.213 C 
ENDBRANCH  21  23
ENDBRANCH   1  21
TORSDOF 5
