REMARK  2 active torsions:
REMARK  status: ('A' for Active; 'I' for Inactive)
REMARK       I    between atoms: N_2  and  C_1 
REMARK       I    between atoms: N_4  and  C_1 
REMARK    1  A    between atoms: C_3  and  N_2 
REMARK    2  A    between atoms: C_10  and  N_4 
ROOT
ATOM      1  C   UNL d   1       0.031   0.982  -1.096  0.00  0.00     0.321 C 
ATOM      2  N   UNL d   1       0.380   1.261   0.217  0.00  0.00    -0.338 N 
ATOM      3  N   UNL d   1      -0.621  -0.227  -1.214  0.00  0.00    -0.309 N 
ATOM      4  O   UNL d   1       0.262   1.769  -2.004  0.00  0.00    -0.247 OA
ATOM      5  H   UNL d   1       0.660   0.445   0.739  0.00  0.00     0.164 HD
ATOM      6  H   UNL d   1      -0.983  -0.628  -0.368  0.00  0.00     0.170 HD
ENDROOT
BRANCH   2   7
ATOM      7  C   UNL d   1       1.129   2.485   0.481  0.00  0.00     0.094 C 
ATOM      8  C   UNL d   1       1.511   2.652   1.969  0.00  0.00     0.064 C 
ATOM      9  C   UNL d   1       1.687   4.136   2.068  0.00  0.00    -0.050 A 
ATOM     10  C   UNL d   1       2.356   4.862   3.039  0.00  0.00     0.007 A 
ATOM     11  C   UNL d   1       1.034   4.782   1.013  0.00  0.00    -0.050 A 
ATOM     12  C   UNL d   1       2.376   6.255   2.929  0.00  0.00     0.001 A 
ATOM     13  C   UNL d   1       1.718   6.900   1.870  0.00  0.00     0.001 A 
ATOM     14  C   UNL d   1       1.032   6.162   0.905  0.00  0.00     0.007 A 
ATOM     15  C   UNL d   1       0.370   3.787   0.111  0.00  0.00     0.064 C 
ENDBRANCH   2   7
BRANCH   3  16
ATOM     16  C   UNL d   1      -1.008  -0.821  -2.443  0.00  0.00     0.036 A 
ATOM     17  C   UNL d   1      -0.476  -0.432  -3.678  0.00  0.00     0.031 A 
ATOM     18  C   UNL d   1      -0.824  -1.099  -4.854  0.00  0.00     0.026 A 
ATOM     19  C   UNL d   1      -1.720  -2.159  -4.807  0.00  0.00     0.034 A 
ATOM     20  C   UNL d   1      -2.290  -2.539  -3.594  0.00  0.00     0.026 A 
ATOM     21 CL   UNL d   1      -2.107  -3.012  -6.249  0.00  0.00    -0.084 Cl
ATOM     22  C   UNL d   1      -1.932  -1.876  -2.413  0.00  0.00     0.031 A 
ENDBRANCH   3  16
TORSDOF 2
