REMARK  5 active torsions:
REMARK  status: ('A' for Active; 'I' for Inactive)
REMARK    1  A    between atoms: N_2  and  S_1 
REMARK    2  A    between atoms: C_3  and  S_1 
REMARK    3  A    between atoms: C_4  and  N_5 
REMARK    4  A    between atoms: C_23  and  C_20 
REMARK    5  A    between atoms: C_24  and  C_23 
ROOT
ATOM      1  N   UNL d   1       0.448  -0.874  -0.955  0.00  0.00    -0.203 NA
ATOM      2  N   UNL d   1      -1.018  -3.123   0.098  0.00  0.00    -0.215 N 
ATOM      3  C   UNL d   1      -1.050  -0.863  -0.917  0.00  0.00     0.128 C 
ATOM      4  C   UNL d   1       0.946  -2.276  -1.113  0.00  0.00     0.128 C 
ATOM      5  C   UNL d   1      -1.619  -1.785   0.180  0.00  0.00     0.157 C 
ATOM      6  C   UNL d   1       0.445  -3.192   0.018  0.00  0.00     0.157 C 
ENDROOT
BRANCH   2   7
ATOM      7  C   UNL d   1      -1.640  -4.112   0.844  0.00  0.00     0.679 A 
ATOM      8  N   UNL d   1      -1.044  -5.310   0.954  0.00  0.00    -0.201 N 
ATOM      9  C   UNL d   1      -1.752  -6.316   1.503  0.00  0.00     0.114 A 
ATOM     10  HN  UNL d   1      -0.086  -5.453   0.632  1.00  0.00     0.183 HD
ATOM     11  C   UNL d   1      -3.041  -6.183   1.964  0.00  0.00    -0.026 A 
ATOM     12  C   UNL d   1      -3.538  -4.904   1.882  0.00  0.00     0.114 A 
ATOM     13  N   UNL d   1      -2.870  -3.876   1.329  0.00  0.00    -0.201 N 
ATOM     14  HN  UNL d   1      -3.286  -2.945   1.280  1.00  0.00     0.183 HD
BRANCH  11  15
ATOM     15  C   UNL d   1      -3.842  -7.337   2.479  0.00  0.00     0.041 C 
BRANCH  15  16
ATOM     16  C   UNL d   1      -5.132  -7.594   1.688  0.00  0.00     0.000 C 
ATOM     17  C   UNL d   1      -4.883  -7.974   0.233  0.00  0.00     0.005 C 
ENDBRANCH  15  16
ENDBRANCH  11  15
ENDBRANCH   2   7
BRANCH   1  18
ATOM     18  S   UNL d   1       1.233   0.063   0.233  0.00  0.00     0.250 S 
ATOM     19  O   UNL d   1       2.599  -0.405   0.339  0.00  0.00    -0.205 OA
ATOM     20  O   UNL d   1       0.384   0.163   1.399  0.00  0.00    -0.205 OA
BRANCH  18  21
ATOM     21  C   UNL d   1       1.415   1.740  -0.324  0.00  0.00     0.115 A 
ATOM     22  S   UNL d   1       0.856   2.132  -1.889  0.00  0.00    -0.089 SA
ATOM     23  C   UNL d   1       1.317   3.771  -1.714  0.00  0.00     0.051 A 
ATOM     24  C   UNL d   1       1.911   4.013  -0.496  0.00  0.00     0.009 A 
ATOM     25  C   UNL d   1       1.974   2.837   0.304  0.00  0.00     0.033 A 
ENDBRANCH  18  21
ENDBRANCH   1  18
TORSDOF 5
