REMARK  7 active torsions:
REMARK  status: ('A' for Active; 'I' for Inactive)
REMARK    1  A    between atoms: C_4  and  C_1 
REMARK    2  A    between atoms: C_2  and  C_6 
REMARK    3  A    between atoms: C_3  and  C_7 
REMARK    4  A    between atoms: C_5  and  C_4 
REMARK    5  A    between atoms: C_9  and  C_8 
REMARK       I    between atoms: N_13  and  C_9 
REMARK    6  A    between atoms: C_24  and  N_13 
REMARK    7  A    between atoms: C_25  and  C_24 
ROOT
ATOM      1  C   UNL d   1       3.888   0.504   0.254  0.00  0.00     0.030 A 
ATOM      2  C   UNL d   1       3.741   1.473   1.265  0.00  0.00     0.046 A 
ATOM      3  C   UNL d   1       5.023   0.559  -0.584  0.00  0.00     0.016 A 
ATOM      4  C   UNL d   1       4.696   2.505   1.363  0.00  0.00     0.018 A 
ATOM      5  C   UNL d   1       5.957   1.586  -0.472  0.00  0.00     0.001 A 
ATOM      6  C   UNL d   1       5.792   2.565   0.499  0.00  0.00     0.001 A 
ENDROOT
BRANCH   1   7
ATOM      7  C   UNL d   1       2.923  -0.606   0.020  0.00  0.00     0.193 C 
ATOM      8  O   UNL d   1       2.436  -1.223   0.961  0.00  0.00    -0.287 OA
BRANCH   7   9
ATOM      9  C   UNL d   1       2.645  -1.096  -1.358  0.00  0.00     0.016 A 
ATOM     10  C   UNL d   1       2.590  -0.234  -2.459  0.00  0.00     0.031 A 
ATOM     11  C   UNL d   1       2.479  -0.756  -3.759  0.00  0.00     0.049 A 
ATOM     12  C   UNL d   1       2.378  -2.149  -3.928  0.00  0.00     0.032 A 
ATOM     13  C   UNL d   1       2.386  -3.020  -2.825  0.00  0.00     0.049 A 
ATOM     14  C   UNL d   1       2.512  -2.479  -1.539  0.00  0.00     0.031 A 
BRANCH  11  15
ATOM     15  C   UNL d   1       2.514   0.150  -4.970  0.00  0.00     0.417 C 
ATOM     16  F   UNL d   1       2.667   1.465  -4.657  0.00  0.00    -0.166 F 
ATOM     17  F   UNL d   1       3.545  -0.157  -5.804  0.00  0.00    -0.166 F 
ATOM     18  F   UNL d   1       1.383   0.064  -5.717  0.00  0.00    -0.166 F 
ENDBRANCH  11  15
BRANCH  13  19
ATOM     19  C   UNL d   1       2.311  -4.515  -3.033  0.00  0.00     0.417 C 
ATOM     20  F   UNL d   1       2.300  -5.228  -1.874  0.00  0.00    -0.166 F 
ATOM     21  F   UNL d   1       1.197  -4.889  -3.719  0.00  0.00    -0.166 F 
ATOM     22  F   UNL d   1       3.370  -4.982  -3.750  0.00  0.00    -0.166 F 
ENDBRANCH  13  19
ENDBRANCH   7   9
ENDBRANCH   1   7
BRANCH   2  23
ATOM     23  C   UNL d   1       2.639   1.554   2.262  0.00  0.00     0.252 C 
ATOM     24  N   UNL d   1       2.293   0.398   2.905  0.00  0.00    -0.351 N 
ATOM     25  H   UNL d   1       2.575  -0.491   2.494  0.00  0.00     0.163 HD
ATOM     26  O   UNL d   1       2.140   2.645   2.521  0.00  0.00    -0.268 OA
BRANCH  24  27
ATOM     27  C   UNL d   1       1.235   0.347   3.892  0.00  0.00     0.179 C 
BRANCH  27  28
ATOM     28  C   UNL d   1       1.213  -0.988   4.603  0.00  0.00     0.026 A 
ATOM     29  N   UNL d   1       1.911  -1.094   5.762  0.00  0.00    -0.368 N 
ATOM     30  C   UNL d   1       1.955  -2.307   6.354  0.00  0.00     0.088 A 
ATOM     31  HN  UNL d   1       2.384  -0.288   6.171  1.00  0.00     0.165 HD
ATOM     32  C   UNL d   1       1.335  -3.436   5.846  0.00  0.00     0.017 A 
ATOM     33  C   UNL d   1       0.626  -3.316   4.659  0.00  0.00     0.003 A 
ATOM     34  C   UNL d   1       0.566  -2.079   4.021  0.00  0.00     0.027 A 
ENDBRANCH  27  28
ENDBRANCH  24  27
ENDBRANCH   2  23
TORSDOF 7
