REMARK  3 active torsions:
REMARK  status: ('A' for Active; 'I' for Inactive)
REMARK    1  A    between atoms: C_9  and  N_1 
REMARK    2  A    between atoms: C_13  and  C_5 
REMARK    3  A    between atoms: C_8  and  C_10 
ROOT
ATOM      1  N   UNL d   1       2.313  -0.640  -0.043  0.00  0.00    -0.220 N 
ATOM      2  N   UNL d   1       2.292   0.734   0.035  0.00  0.00    -0.289 N 
ATOM      3  HN  UNL d   1       3.170   1.251   0.075  1.00  0.00     0.188 HD
ATOM      4  C   UNL d   1       1.163  -1.424   0.089  0.00  0.00     0.278 C 
ATOM      5  C   UNL d   1       1.162   1.378   0.057  0.00  0.00     0.070 C 
ATOM      6  C   UNL d   1      -0.124  -0.707   0.058  0.00  0.00     0.046 A 
ATOM      7  C   UNL d   1      -0.144   0.679  -0.043  0.00  0.00     0.009 A 
ATOM      8  O   UNL d   1       1.125  -2.648   0.217  0.00  0.00    -0.265 OA
ATOM      9  C   UNL d   1      -1.323  -1.439   0.043  0.00  0.00     0.018 A 
ATOM     10  C   UNL d   1      -1.371   1.323  -0.261  0.00  0.00     0.015 A 
ATOM     11  C   UNL d   1      -2.543  -0.785  -0.105  0.00  0.00     0.001 A 
ATOM     12  C   UNL d   1      -2.565   0.595  -0.275  0.00  0.00     0.001 A 
ENDROOT
BRANCH   1  13
ATOM     13  C   UNL d   1       3.620  -1.195  -0.260  0.00  0.00     0.060 A 
ATOM     14  C   UNL d   1       3.799  -2.479  -0.802  0.00  0.00     0.047 A 
ATOM     15  C   UNL d   1       5.079  -3.002  -1.063  0.00  0.00     0.050 A 
ATOM     16  C   UNL d   1       6.204  -2.229  -0.752  0.00  0.00     0.016 A 
ATOM     17  C   UNL d   1       6.051  -0.954  -0.215  0.00  0.00     0.003 A 
ATOM     18  C   UNL d   1       4.771  -0.439   0.014  0.00  0.00     0.031 A 
BRANCH  15  19
ATOM     19  C   UNL d   1       5.247  -4.362  -1.694  0.00  0.00     0.417 C 
ATOM     20  F   UNL d   1       4.074  -5.001  -1.960  0.00  0.00    -0.166 F 
ATOM     21  F   UNL d   1       5.910  -4.299  -2.884  0.00  0.00    -0.166 F 
ATOM     22  F   UNL d   1       5.970  -5.215  -0.915  0.00  0.00    -0.166 F 
ENDBRANCH  15  19
ENDBRANCH   1  13
BRANCH   5  23
ATOM     23  C   UNL d   1       1.249   2.870   0.169  0.00  0.00    -0.007 A 
ATOM     24  C   UNL d   1       2.275   3.531  -0.521  0.00  0.00     0.014 A 
ATOM     25  C   UNL d   1       2.381   4.922  -0.467  0.00  0.00     0.001 A 
ATOM     26  C   UNL d   1       1.463   5.663   0.275  0.00  0.00     0.000 A 
ATOM     27  C   UNL d   1       0.464   5.011   0.997  0.00  0.00     0.001 A 
ATOM     28  C   UNL d   1       0.373   3.617   0.967  0.00  0.00     0.014 A 
ENDBRANCH   5  23
TORSDOF 3
