REMARK  2 active torsions:
REMARK  status: ('A' for Active; 'I' for Inactive)
REMARK    1  A    between atoms: C_2  and  C_1 
REMARK       I    between atoms: N_3  and  C_2 
REMARK    2  A    between atoms: C_4  and  N_3 
ROOT
ATOM      1  C   UNL d   1      -0.705  -2.232   0.917  0.00  0.00     0.058 A 
ATOM      2  C   UNL d   1      -0.566  -3.419   1.647  0.00  0.00     0.057 A 
ATOM      3  C   UNL d   1      -1.742  -1.198   2.873  0.00  0.00     0.051 A 
ATOM      4  C   UNL d   1      -1.293  -1.122   1.552  0.00  0.00     0.062 A 
ATOM      5  C   UNL d   1      -1.005  -3.498   2.975  0.00  0.00     0.058 A 
ATOM      6  C   UNL d   1      -1.596  -2.388   3.587  0.00  0.00     0.057 A 
ATOM      7 CL   UNL d   1      -1.488   0.379   0.712  0.00  0.00    -0.082 Cl
ATOM      8 CL   UNL d   1      -0.768  -4.993   3.810  0.00  0.00    -0.082 Cl
ATOM      9 CL   UNL d   1      -2.152  -2.417   5.222  0.00  0.00    -0.082 Cl
ENDROOT
BRANCH   1  10
ATOM     10  N   UNL d   1      -0.236  -2.083  -0.411  0.00  0.00    -0.322 N 
ATOM     11  C   UNL d   1       0.212  -3.081  -1.274  0.00  0.00     0.277 C 
ATOM     12  O   UNL d   1       0.087  -4.282  -1.024  0.00  0.00    -0.268 OA
ATOM     13  H   UNL d   1      -0.279  -1.134  -0.783  0.00  0.00     0.169 HD
BRANCH  11  14
ATOM     14  C   UNL d   1       0.875  -2.594  -2.594  0.00  0.00     0.269 C 
ATOM     15 CL   UNL d   1       0.977  -0.809  -2.667  0.00  0.00    -0.073 Cl
ATOM     16 CL   UNL d   1      -0.102  -3.178  -3.963  0.00  0.00    -0.073 Cl
ATOM     17 CL   UNL d   1       2.523  -3.271  -2.664  0.00  0.00    -0.073 Cl
ENDBRANCH  11  14
ENDBRANCH   1  10
TORSDOF 2
