REMARK  3 active torsions:
REMARK  status: ('A' for Active; 'I' for Inactive)
REMARK    1  A    between atoms: C_2  and  N_1 
REMARK       I    between atoms: C_3  and  N_1 
REMARK    2  A    between atoms: N_5  and  C_2 
REMARK    3  A    between atoms: C_4  and  C_3 
ROOT
ATOM      1  N   UNL d   1       1.159   0.138  -0.113  0.00  0.00    -0.299 N 
ATOM      2  C   UNL d   1       0.965  -0.960   0.728  0.00  0.00     0.260 C 
ATOM      3  O   UNL d   1       0.057  -1.064   1.544  0.00  0.00    -0.267 OA
ATOM      4  H   UNL d   1       1.961   0.085  -0.717  0.00  0.00     0.171 HD
ENDROOT
BRANCH   1   5
ATOM      5  C   UNL d   1       0.271   1.175  -0.418  0.00  0.00     0.176 C 
ATOM      6  S   UNL d   1      -1.399   0.994  -0.287  0.00  0.00    -0.041 SA
BRANCH   5   7
ATOM      7  N   UNL d   1       0.905   2.367  -0.841  0.00  0.00    -0.358 N 
ATOM      8  C   UNL d   1       2.361   2.564  -0.953  0.00  0.00     0.125 C 
ATOM      9  C   UNL d   1       2.853   3.647   0.006  0.00  0.00     0.020 C 
ATOM     10  C   UNL d   1       2.093   4.953  -0.196  0.00  0.00     0.003 C 
ATOM     11  C   UNL d   1       0.588   4.717  -0.113  0.00  0.00     0.020 C 
ATOM     12  C   UNL d   1       0.150   3.616  -1.082  0.00  0.00     0.125 C 
ENDBRANCH   5   7
ENDBRANCH   1   5
BRANCH   2  13
ATOM     13  C   UNL d   1       2.009  -2.026   0.728  0.00  0.00     0.071 A 
ATOM     14  C   UNL d   1       3.151  -1.999  -0.083  0.00  0.00     0.135 A 
ATOM     15  C   UNL d   1       4.126  -2.991   0.008  0.00  0.00     0.085 A 
ATOM     16  F   UNL d   1       3.339  -1.003  -0.963  0.00  0.00    -0.205 F 
ATOM     17  C   UNL d   1       3.962  -4.022   0.922  0.00  0.00     0.119 A 
ATOM     18  C   UNL d   1       2.835  -4.087   1.734  0.00  0.00     0.043 A 
ATOM     19  F   UNL d   1       4.904  -4.966   1.029  0.00  0.00    -0.206 F 
ATOM     20  C   UNL d   1       1.861  -3.091   1.636  0.00  0.00     0.023 A 
ENDBRANCH   2  13
TORSDOF 3
