REMARK  4 active torsions:
REMARK  status: ('A' for Active; 'I' for Inactive)
REMARK    1  A    between atoms: C_2  and  C_1 
REMARK    2  A    between atoms: C_13  and  C_2 
REMARK    3  A    between atoms: S_7  and  C_13 
REMARK    4  A    between atoms: C_12  and  S_7 
ROOT
ATOM      1  C   UNL d   1      -2.961   0.425   0.173  0.00  0.00     0.145 C 
ATOM      2  O   UNL d   1      -3.682  -0.533  -0.138  0.00  0.00    -0.296 OA
ENDROOT
BRANCH   1   3
ATOM      3  C   UNL d   1      -1.424   0.294   0.116  0.00  0.00     0.022 C 
ATOM      4  C   UNL d   1      -0.694   1.070   1.234  0.00  0.00     0.022 C 
ATOM      5  C   UNL d   1       0.831   0.888   1.122  0.00  0.00    -0.013 C 
ATOM      6  C   UNL d   1       1.175  -0.603   1.254  0.00  0.00     0.009 C 
ATOM      7  C   UNL d   1       1.303   1.401  -0.249  0.00  0.00     0.009 C 
ATOM      8  C   UNL d   1       0.484  -1.399   0.137  0.00  0.00    -0.013 C 
ATOM      9  C   UNL d   1      -1.037  -1.207   0.246  0.00  0.00     0.022 C 
ATOM     10  C   UNL d   1       0.958  -0.877  -1.229  0.00  0.00     0.009 C 
ATOM     11  C   UNL d   1       0.608   0.613  -1.373  0.00  0.00    -0.013 C 
ATOM     12  C   UNL d   1      -0.918   0.799  -1.255  0.00  0.00     0.022 C 
ENDBRANCH   1   3
BRANCH   1  13
ATOM     13  C   UNL d   1      -3.611   1.755   0.540  0.00  0.00     0.158 C 
BRANCH  13  14
ATOM     14  S   UNL d   1      -3.913   1.790   2.336  0.00  0.00    -0.121 SA
BRANCH  14  15
ATOM     15  C   UNL d   1      -4.857   3.269   2.737  0.00  0.00     0.022 A 
ATOM     16  C   UNL d   1      -5.646   4.114   1.935  0.00  0.00     0.053 A 
ATOM     17  C   UNL d   1      -6.405   5.148   2.513  0.00  0.00     0.067 A 
ATOM     18 CL   UNL d   1      -5.793   3.997   0.221  0.00  0.00    -0.083 Cl
ATOM     19  C   UNL d   1      -6.374   5.359   3.884  0.00  0.00     0.118 A 
ATOM     20  C   UNL d   1      -5.585   4.569   4.699  0.00  0.00     0.044 A 
ATOM     21  F   UNL d   1      -7.118   6.332   4.422  0.00  0.00    -0.206 F 
ATOM     22  C   UNL d   1      -4.838   3.535   4.128  0.00  0.00     0.023 A 
ENDBRANCH  14  15
ENDBRANCH  13  14
ENDBRANCH   1  13
TORSDOF 4
