REMARK  9 active torsions:
REMARK  status: ('A' for Active; 'I' for Inactive)
REMARK    1  A    between atoms: C_2  and  S_1 
REMARK    2  A    between atoms: N_5  and  S_1 
REMARK    3  A    between atoms: C_15  and  N_5 
REMARK    4  A    between atoms: C_6  and  C_14 
REMARK    5  A    between atoms: O_10  and  C_6 
REMARK    6  A    between atoms: C_14  and  C_17 
REMARK    7  A    between atoms: C_18  and  C_15 
REMARK    8  A    between atoms: C_17  and  C_19 
REMARK    9  A    between atoms: C_19  and  C_18 
ROOT
ATOM      1  N   UNL d   1       2.566   0.083  -0.083  0.00  0.00    -0.315 N 
ATOM      2  H   UNL d   1       3.003  -0.657   0.465  0.00  0.00     0.172 HD
ENDROOT
BRANCH   1   3
ATOM      3  S   UNL d   1       0.885   0.075   0.079  0.00  0.00     0.258 S 
ATOM      4  O   UNL d   1       0.607  -0.137   1.481  0.00  0.00    -0.201 OA
ATOM      5  O   UNL d   1       0.350   1.206  -0.649  0.00  0.00    -0.201 OA
BRANCH   3   6
ATOM      6  C   UNL d   1       0.426  -1.409  -0.790  0.00  0.00     0.079 A 
ATOM      7  C   UNL d   1       0.343  -2.614  -0.089  0.00  0.00     0.026 A 
ATOM      8  C   UNL d   1      -0.061  -3.772  -0.755  0.00  0.00     0.008 A 
ATOM      9  C   UNL d   1      -0.387  -3.731  -2.118  0.00  0.00    -0.062 A 
ATOM     10  C   UNL d   1      -0.305  -2.514  -2.808  0.00  0.00     0.008 A 
ATOM     11  C   UNL d   1      -0.851  -4.980  -2.811  0.00  0.00     0.048 C 
ATOM     12  C   UNL d   1       0.091  -1.350  -2.145  0.00  0.00     0.026 A 
ENDBRANCH   3   6
ENDBRANCH   1   3
BRANCH   1  13
ATOM     13  C   UNL d   1       3.121   0.352  -1.413  0.00  0.00     0.132 C 
BRANCH  13  14
ATOM     14  C   UNL d   1       4.646   0.391  -1.339  0.00  0.00     0.020 C 
BRANCH  14  15
ATOM     15  C   UNL d   1       5.240   0.669  -2.721  0.00  0.00     0.002 C 
BRANCH  15  16
ATOM     16  C   UNL d   1       6.768   0.687  -2.692  0.00  0.00     0.010 C 
BRANCH  16  17
ATOM     17  C   UNL d   1       7.343   0.959  -4.081  0.00  0.00     0.110 C 
BRANCH  17  18
ATOM     18  C   UNL d   1       8.854   0.975  -4.072  0.00  0.00     0.139 C 
ATOM     19  O   UNL d   1       9.557   0.788  -3.092  0.00  0.00    -0.650 OA
BRANCH  18  20
ATOM     20  O   UNL d   1       9.373   1.221  -5.298  0.00  0.00    -0.776 OA
ATOM     21  H   UNL d   1       8.701   1.352  -5.992  0.00  0.00     0.167 HD
ENDBRANCH  18  20
ENDBRANCH  17  18
ENDBRANCH  16  17
ENDBRANCH  15  16
ENDBRANCH  14  15
ENDBRANCH  13  14
ENDBRANCH   1  13
TORSDOF 9
