REMARK  3 active torsions:
REMARK  status: ('A' for Active; 'I' for Inactive)
REMARK       I    between atoms: N_2  and  C_1 
REMARK    1  A    between atoms: C_3  and  C_1 
REMARK    2  A    between atoms: C_5  and  C_9 
REMARK    3  A    between atoms: O_15  and  C_10 
ROOT
ATOM      1  C   UNL d   1       1.113   0.176   0.055  0.00  0.00     0.254 C 
ATOM      2  N   UNL d   1       0.136  -0.233   0.989  0.00  0.00    -0.348 N 
ATOM      3  O   UNL d   1       0.905   0.152  -1.161  0.00  0.00    -0.267 OA
ATOM      4  C   UNL d   1      -1.006  -0.949   0.424  0.00  0.00     0.127 C 
ATOM      5  C   UNL d   1       0.414  -0.417   2.411  0.00  0.00     0.127 C 
ATOM      6  C   UNL d   1      -1.918  -1.341   2.829  0.00  0.00     0.024 C 
ATOM      7  C   UNL d   1      -2.219  -1.107   1.341  0.00  0.00     0.029 C 
ATOM      8  C   UNL d   1      -0.828  -0.365   3.284  0.00  0.00     0.029 C 
ENDROOT
BRANCH   1   9
ATOM      9  C   UNL d   1       2.462   0.619   0.505  0.00  0.00     0.043 A 
ATOM     10  C   UNL d   1       3.003   1.874   0.102  0.00  0.00    -0.010 A 
ATOM     11  C   UNL d   1       4.320   2.198   0.522  0.00  0.00    -0.025 A 
ATOM     12  C   UNL d   1       2.330   2.821  -0.709  0.00  0.00     0.013 A 
ATOM     13  C   UNL d   1       4.912   3.409   0.127  0.00  0.00     0.012 A 
ATOM     14  C   UNL d   1       5.046   1.298   1.319  0.00  0.00     0.012 A 
ATOM     15  C   UNL d   1       4.230   4.309  -0.691  0.00  0.00     0.001 A 
ATOM     16  C   UNL d   1       2.939   4.015  -1.107  0.00  0.00     0.001 A 
ATOM     17  C   UNL d   1       4.517   0.059   1.665  0.00  0.00     0.002 A 
ATOM     18  C   UNL d   1       3.244  -0.290   1.235  0.00  0.00     0.018 A 
ENDBRANCH   1   9
BRANCH   6  19
ATOM     19  C   UNL d   1      -1.650  -2.780   3.266  0.00  0.00    -0.021 A 
ATOM     20  C   UNL d   1      -2.167  -3.274   4.481  0.00  0.00     0.074 A 
ATOM     21  C   UNL d   1      -1.949  -4.597   4.886  0.00  0.00     0.037 A 
ATOM     22  C   UNL d   1      -1.189  -5.454   4.097  0.00  0.00     0.003 A 
ATOM     23  C   UNL d   1      -0.659  -4.989   2.900  0.00  0.00     0.001 A 
ATOM     24  C   UNL d   1      -0.884  -3.668   2.493  0.00  0.00     0.010 A 
BRANCH  20  25
ATOM     25  O   UNL d   1      -3.008  -2.528   5.267  0.00  0.00    -0.355 OA
ATOM     26  C   UNL d   1      -2.292  -1.670   6.152  0.00  0.00     0.210 C 
ENDBRANCH  20  25
ENDBRANCH   6  19
TORSDOF 3
