REMARK  2 active torsions:
REMARK  status: ('A' for Active; 'I' for Inactive)
REMARK    1  A    between atoms: C_4  and  C_1 
REMARK    2  A    between atoms: C_7  and  C_4 
ROOT
ATOM      1  C   UNL d   1       2.013   0.860   0.053  0.00  0.00     0.133 A 
ATOM      2  O   UNL d   1       0.886   1.637   0.077  0.00  0.00    -0.305 OA
ATOM      3  C   UNL d   1       1.658  -0.486   0.041  0.00  0.00    -0.011 A 
ATOM      4  C   UNL d   1       0.230  -0.519   0.042  0.00  0.00     0.006 A 
ATOM      5  C   UNL d   1      -0.189   0.804   0.059  0.00  0.00     0.087 A 
ATOM      6  C   UNL d   1       2.556  -1.668   0.032  0.00  0.00     0.052 C 
ATOM      7  C   UNL d   1      -0.748  -1.532   0.024  0.00  0.00     0.015 A 
ATOM      8  C   UNL d   1      -1.524   1.201   0.053  0.00  0.00     0.038 A 
ATOM      9  C   UNL d   1      -2.101  -1.165   0.017  0.00  0.00     0.001 A 
ATOM     10  C   UNL d   1      -2.480   0.179   0.030  0.00  0.00     0.003 A 
ENDROOT
BRANCH   1  11
ATOM     11  C   UNL d   1       3.314   1.498  -0.019  0.00  0.00     0.216 C 
ATOM     12  O   UNL d   1       4.300   0.950  -0.512  0.00  0.00    -0.284 OA
BRANCH  11  13
ATOM     13  C   UNL d   1       3.513   2.866   0.536  0.00  0.00     0.017 A 
ATOM     14  C   UNL d   1       4.467   3.697  -0.070  0.00  0.00     0.017 A 
ATOM     15  C   UNL d   1       4.739   4.962   0.459  0.00  0.00     0.025 A 
ATOM     16  C   UNL d   1       4.066   5.390   1.602  0.00  0.00     0.034 A 
ATOM     17  C   UNL d   1       3.124   4.567   2.219  0.00  0.00     0.025 A 
ATOM     18 CL   UNL d   1       4.412   6.939   2.266  0.00  0.00    -0.084 Cl
ATOM     19  C   UNL d   1       2.846   3.303   1.688  0.00  0.00     0.017 A 
ENDBRANCH  11  13
ENDBRANCH   1  11
TORSDOF 2
