REMARK  3 active torsions:
REMARK  status: ('A' for Active; 'I' for Inactive)
REMARK    1  A    between atoms: C_2  and  C_1 
REMARK       I    between atoms: N_6  and  C_1 
REMARK    2  A    between atoms: N_4  and  C_3 
REMARK    3  A    between atoms: C_9  and  N_6 
ROOT
ATOM      1  C   UNL d   1      -4.025   1.324   0.336  0.00  0.00     0.052 A 
ATOM      2  C   UNL d   1      -3.290   0.377   1.088  0.00  0.00     0.062 A 
ATOM      3  C   UNL d   1      -1.889   0.297   1.017  0.00  0.00     0.055 A 
ATOM      4  C   UNL d   1      -3.255   2.232  -0.416  0.00  0.00     0.033 A 
ATOM      5  C   UNL d   1      -1.163   1.186   0.231  0.00  0.00     0.036 A 
ATOM      6 CL   UNL d   1      -4.035  -0.677   2.254  0.00  0.00    -0.082 Cl
ATOM      7  C   UNL d   1      -1.854   2.179  -0.458  0.00  0.00     0.032 A 
ENDROOT
BRANCH   5   8
ATOM      8  N   UNL d   1       0.243   1.162   0.113  0.00  0.00    -0.323 N 
ATOM      9  C   UNL d   1       1.085   0.130   0.483  0.00  0.00     0.257 C 
ATOM     10  O   UNL d   1       0.716  -0.960   0.911  0.00  0.00    -0.267 OA
ATOM     11  H   UNL d   1       0.661   1.947  -0.372  0.00  0.00     0.169 HD
BRANCH   9  12
ATOM     12  C   UNL d   1       2.559   0.369   0.371  0.00  0.00     0.054 A 
ATOM     13  C   UNL d   1       3.187   1.290  -0.482  0.00  0.00     0.049 A 
ATOM     14 CL   UNL d   1       2.348   2.279  -1.625  0.00  0.00    -0.083 Cl
ATOM     15  C   UNL d   1       4.584   1.426  -0.460  0.00  0.00     0.025 A 
ATOM     16  C   UNL d   1       5.364   0.647   0.393  0.00  0.00     0.002 A 
ATOM     17  C   UNL d   1       4.756  -0.283   1.228  0.00  0.00     0.001 A 
ATOM     18  C   UNL d   1       3.366  -0.421   1.214  0.00  0.00     0.019 A 
ENDBRANCH   9  12
ENDBRANCH   5   8
BRANCH   1  19
ATOM     19  N   UNL d   1      -5.407   1.395   0.297  0.00  0.00    -0.375 N 
ATOM     20  C   UNL d   1      -6.151   2.657   0.173  0.00  0.00     0.149 C 
ATOM     21  C   UNL d   1      -7.046   2.618  -1.073  0.00  0.00     0.187 C 
ATOM     22  O   UNL d   1      -7.944   1.496  -1.028  0.00  0.00    -0.388 OA
ATOM     23  C   UNL d   1      -7.199   0.269  -0.991  0.00  0.00     0.187 C 
ATOM     24  C   UNL d   1      -6.253   0.190   0.221  0.00  0.00     0.149 C 
ENDBRANCH   1  19
TORSDOF 3
