REMARK  6 active torsions:
REMARK  status: ('A' for Active; 'I' for Inactive)
REMARK    1  A    between atoms: N_2  and  C_1 
REMARK    2  A    between atoms: N_5  and  C_3 
REMARK    3  A    between atoms: C_4  and  C_7 
REMARK    4  A    between atoms: C_20  and  N_8 
REMARK    5  A    between atoms: C_22  and  C_20 
REMARK    6  A    between atoms: O_21  and  C_22 
ROOT
ATOM      1  C   UNL d   1       0.230  -0.352  -0.997  0.00  0.00     0.130 A 
ATOM      2  C   UNL d   1       0.507  -1.325  -0.012  0.00  0.00     0.063 A 
ATOM      3  C   UNL d   1      -0.272   0.928  -0.696  0.00  0.00     0.054 A 
ATOM      4  C   UNL d   1      -0.500   1.295   0.633  0.00  0.00     0.050 A 
ATOM      5  C   UNL d   1       0.263  -0.922   1.315  0.00  0.00     0.032 A 
ATOM      6  C   UNL d   1      -0.227   0.355   1.635  0.00  0.00     0.018 A 
ENDROOT
BRANCH   2   7
ATOM      7  N   UNL d   1       1.027  -2.582  -0.296  0.00  0.00    -0.376 N 
ATOM      8  C   UNL d   1       1.861  -3.285   0.697  0.00  0.00     0.153 C 
ATOM      9  C   UNL d   1       2.780  -4.300  -0.024  0.00  0.00     0.292 C 
ATOM     10  N   UNL d   1       2.085  -5.281  -0.890  0.00  0.00     0.093 N 
ATOM     11  C   UNL d   1       1.208  -4.526  -1.826  0.00  0.00     0.292 C 
ATOM     12  C   UNL d   1       0.251  -3.505  -1.154  0.00  0.00     0.153 C 
BRANCH  10  13
ATOM     13  C   UNL d   1       1.302  -6.280  -0.144  0.00  0.00     0.298 C 
BRANCH  13  14
ATOM     14  C   UNL d   1       2.128  -7.184   0.784  0.00  0.00     0.194 C 
BRANCH  14  15
ATOM     15  O   UNL d   1       1.260  -8.125   1.412  0.00  0.00    -0.399 OA
ATOM     16  H   UNL d   1       1.818  -8.681   1.984  0.00  0.00     0.209 HD
ENDBRANCH  14  15
ENDBRANCH  13  14
ENDBRANCH  10  13
ENDBRANCH   2   7
BRANCH   1  17
ATOM     17  N   UNL d   1       0.528  -0.600  -2.397  0.00  0.00    -0.113 N 
ATOM     18  O   UNL d   1       1.708  -0.793  -2.716  0.00  0.00    -0.532 OA
ATOM     19  O   UNL d   1      -0.430  -0.548  -3.183  0.00  0.00    -0.532 OA
ENDBRANCH   1  17
BRANCH   4  20
ATOM     20  C   UNL d   1      -1.013   2.668   0.993  0.00  0.00     0.417 C 
ATOM     21  F   UNL d   1      -1.190   3.478  -0.086  0.00  0.00    -0.166 F 
ATOM     22  F   UNL d   1      -2.214   2.622   1.631  0.00  0.00    -0.166 F 
ATOM     23  F   UNL d   1      -0.168   3.334   1.827  0.00  0.00    -0.166 F 
ENDBRANCH   4  20
TORSDOF 6
