REMARK  3 active torsions:
REMARK  status: ('A' for Active; 'I' for Inactive)
REMARK       I    between atoms: N_2  and  C_1 
REMARK    1  A    between atoms: C_3  and  C_1 
REMARK    2  A    between atoms: C_4  and  C_8 
REMARK    3  A    between atoms: O_18  and  C_9 
ROOT
ATOM      1  C   UNL d   1       1.244   0.094  -0.004  0.00  0.00     0.253 C 
ATOM      2  N   UNL d   1       0.281   0.793  -0.754  0.00  0.00    -0.348 N 
ATOM      3  C   UNL d   1       0.599   1.448  -2.023  0.00  0.00     0.127 C 
ATOM      4  C   UNL d   1      -0.897   1.218  -0.001  0.00  0.00     0.127 C 
ATOM      5  O   UNL d   1       0.997  -0.488   1.046  0.00  0.00    -0.267 OA
ATOM      6  C   UNL d   1      -1.635   2.636  -2.047  0.00  0.00     0.024 C 
ATOM      7  C   UNL d   1      -2.039   1.839  -0.801  0.00  0.00     0.029 C 
ATOM      8  C   UNL d   1      -0.617   1.821  -2.850  0.00  0.00     0.029 C 
ENDROOT
BRANCH   1   9
ATOM      9  C   UNL d   1       2.652   0.094  -0.465  0.00  0.00     0.032 A 
ATOM     10  C   UNL d   1       3.353   1.302  -0.576  0.00  0.00     0.018 A 
ATOM     11  C   UNL d   1       4.673   1.301  -1.029  0.00  0.00     0.025 A 
ATOM     12  C   UNL d   1       5.298   0.091  -1.326  0.00  0.00     0.034 A 
ATOM     13  C   UNL d   1       4.622  -1.119  -1.158  0.00  0.00     0.025 A 
ATOM     14 CL   UNL d   1       6.920   0.093  -1.898  0.00  0.00    -0.084 Cl
ATOM     15  C   UNL d   1       3.294  -1.121  -0.721  0.00  0.00     0.018 A 
ENDBRANCH   1   9
BRANCH   6  16
ATOM     16  C   UNL d   1      -1.196   4.082  -1.828  0.00  0.00    -0.021 A 
ATOM     17  C   UNL d   1      -1.687   5.127  -2.636  0.00  0.00     0.074 A 
ATOM     18  C   UNL d   1      -1.282   6.453  -2.437  0.00  0.00     0.037 A 
ATOM     19  C   UNL d   1      -0.359   6.766  -1.444  0.00  0.00     0.003 A 
ATOM     20  C   UNL d   1       0.145   5.755  -0.637  0.00  0.00     0.001 A 
ATOM     21  C   UNL d   1      -0.271   4.433  -0.827  0.00  0.00     0.010 A 
BRANCH  17  22
ATOM     22  O   UNL d   1      -2.676   4.940  -3.568  0.00  0.00    -0.355 OA
ATOM     23  C   UNL d   1      -2.201   4.336  -4.770  0.00  0.00     0.210 C 
ENDBRANCH  17  22
ENDBRANCH   6  16
TORSDOF 3
