REMARK  2 active torsions:
REMARK  status: ('A' for Active; 'I' for Inactive)
REMARK    1  A    between atoms: C_2  and  C_1 
REMARK       I    between atoms: N_5  and  C_2 
REMARK    2  A    between atoms: C_10  and  N_9 
ROOT
ATOM      1  C   UNL d   1      -0.456  -2.797  -0.062  0.00  0.00     0.263 C 
ATOM      2  N   UNL d   1       0.757  -3.457  -0.341  0.00  0.00    -0.344 N 
ATOM      3  N   UNL d   1       3.136  -5.019  -0.597  0.00  0.00    -0.364 N 
ATOM      4  O   UNL d   1      -0.562  -2.134   0.972  0.00  0.00    -0.267 OA
ATOM      5  C   UNL d   1       1.711  -3.584   0.779  0.00  0.00     0.146 C 
ATOM      6  C   UNL d   1       0.944  -4.399  -1.460  0.00  0.00     0.146 C 
ATOM      7  C   UNL d   1       3.159  -3.900   0.353  0.00  0.00     0.144 C 
ATOM      8  C   UNL d   1       2.412  -4.679  -1.826  0.00  0.00     0.144 C 
ENDROOT
BRANCH   1   9
ATOM      9  C   UNL d   1      -1.546  -2.838  -1.007  0.00  0.00     0.110 C 
ATOM     10  C   UNL d   1      -2.330  -1.801  -1.500  0.00  0.00     0.043 C 
ATOM     11  N   UNL d   1      -3.323  -2.198  -2.390  0.00  0.00    -0.296 N 
ATOM     12  C   UNL d   1      -2.234  -0.356  -1.177  0.00  0.00     0.071 C 
ATOM     13  N   UNL d   1      -3.376  -3.511  -2.518  0.00  0.00    -0.061 NA
ATOM     14  HN  UNL d   1      -3.937  -1.551  -2.884  1.00  0.00     0.183 HD
ATOM     15  S   UNL d   1      -2.280  -4.297  -1.537  0.00  0.00     0.007 SA
ENDBRANCH   1   9
BRANCH   3  16
ATOM     16  C   UNL d   1       4.300  -5.763  -0.762  0.00  0.00     0.102 A 
ATOM     17  N   UNL d   1       4.793  -5.960  -2.005  0.00  0.00    -0.352 N 
ATOM     18  C   UNL d   1       5.835  -6.808  -2.158  0.00  0.00     0.089 A 
ATOM     19  HN  UNL d   1       4.388  -5.480  -2.809  1.00  0.00     0.166 HD
ATOM     20  C   UNL d   1       6.427  -7.499  -1.118  0.00  0.00     0.017 A 
ATOM     21  C   UNL d   1       5.931  -7.292   0.158  0.00  0.00     0.005 A 
ATOM     22  C   UNL d   1       4.864  -6.412   0.337  0.00  0.00     0.048 A 
ENDBRANCH   3  16
TORSDOF 2
