REMARK  4 active torsions:
REMARK  status: ('A' for Active; 'I' for Inactive)
REMARK    1  A    between atoms: C_2  and  C_1 
REMARK    2  A    between atoms: O_3  and  C_1 
REMARK    3  A    between atoms: O_10  and  C_2 
REMARK    4  A    between atoms: C_4  and  O_3 
ROOT
ATOM      1  C   UNL d   1       1.002  -1.331  -2.184  0.00  0.00     0.071 A 
ATOM      2  C   UNL d   1       0.255  -1.930  -4.437  0.00  0.00    -0.023 A 
ATOM      3  C   UNL d   1      -0.013  -1.710  -3.072  0.00  0.00     0.049 A 
ATOM      4  C   UNL d   1       1.575  -1.773  -4.909  0.00  0.00    -0.026 A 
ATOM      5  C   UNL d   1       2.591  -1.436  -4.005  0.00  0.00     0.015 A 
ATOM      6  C   UNL d   1       2.308  -1.236  -2.651  0.00  0.00     0.037 A 
ATOM      7  C   UNL d   1      -0.751  -2.298  -5.349  0.00  0.00     0.012 A 
ATOM      8  C   UNL d   1       1.859  -1.965  -6.271  0.00  0.00     0.012 A 
ATOM      9  C   UNL d   1      -0.450  -2.502  -6.700  0.00  0.00     0.001 A 
ATOM     10  C   UNL d   1       0.850  -2.330  -7.161  0.00  0.00     0.001 A 
ENDROOT
BRANCH   1  11
ATOM     11  O   UNL d   1       0.596  -1.090  -0.901  0.00  0.00    -0.330 OA
BRANCH  11  12
ATOM     12  C   UNL d   1       1.335  -0.199  -0.051  0.00  0.00     0.145 C 
ATOM     13  C   UNL d   1       0.310   0.274   1.002  0.00  0.00     0.058 C 
ATOM     14  C   UNL d   1       2.438  -0.947   0.716  0.00  0.00     0.058 C 
BRANCH  12  15
ATOM     15  C   UNL d   1       1.884   1.080  -0.733  0.00  0.00     0.175 C 
ATOM     16  O   UNL d   1       3.043   1.466  -0.662  0.00  0.00    -0.648 OA
BRANCH  15  17
ATOM     17  O   UNL d   1       0.950   1.752  -1.454  0.00  0.00    -0.774 OA
ATOM     18  H   UNL d   1       0.102   1.267  -1.512  0.00  0.00     0.167 HD
ENDBRANCH  15  17
ENDBRANCH  12  15
ENDBRANCH  11  12
ENDBRANCH   1  11
TORSDOF 4
