REMARK  2 active torsions:
REMARK  status: ('A' for Active; 'I' for Inactive)
REMARK    1  A    between atoms: C_4  and  C_1 
REMARK    2  A    between atoms: O_9  and  C_4 
ROOT
ATOM      1  C   UNL d   1      -2.646   0.678  -0.005  0.00  0.00     0.149 A 
ATOM      2  O   UNL d   1      -1.335   1.081   0.004  0.00  0.00    -0.296 OA
ATOM      3  C   UNL d   1      -0.572  -0.046   0.005  0.00  0.00     0.122 A 
ATOM      4  C   UNL d   1      -2.706  -0.703  -0.011  0.00  0.00     0.047 A 
ATOM      5  C   UNL d   1      -1.368  -1.168  -0.004  0.00  0.00     0.048 A 
ATOM      6 BR   UNL d   1       1.293  -0.049   0.015  0.00  0.00    -0.023 Br
ENDROOT
BRANCH   1   7
ATOM      7  C   UNL d   1      -3.683   1.680  -0.006  0.00  0.00     0.201 C 
ATOM      8  O   UNL d   1      -4.886   1.469  -0.013  0.00  0.00    -0.645 OA
BRANCH   7   9
ATOM      9  O   UNL d   1      -3.157   2.933   0.002  0.00  0.00    -0.771 OA
ATOM     10  H   UNL d   1      -2.178   2.889   0.007  0.00  0.00     0.167 HD
ENDBRANCH   7   9
ENDBRANCH   1   7
TORSDOF 2
