REMARK  6 active torsions:
REMARK  status: ('A' for Active; 'I' for Inactive)
REMARK    1  A    between atoms: C_4  and  C_1 
REMARK    2  A    between atoms: C_2  and  C_3 
REMARK    3  A    between atoms: C_12  and  C_6 
REMARK    4  A    between atoms: C_7  and  C_12 
REMARK    5  A    between atoms: N_19  and  C_7 
REMARK    6  A    between atoms: O_20  and  N_10 
ROOT
ATOM      1  C   UNL d   1       4.915  -5.747   4.688  0.00  0.00     0.049 A 
ATOM      2  C   UNL d   1       4.399  -3.423   4.133  0.00  0.00     0.049 A 
ATOM      3  C   UNL d   1       5.122  -4.370   4.875  0.00  0.00     0.032 A 
ATOM      4  C   UNL d   1       3.230  -5.239   2.993  0.00  0.00    -0.050 A 
ATOM      5  C   UNL d   1       3.964  -6.166   3.744  0.00  0.00     0.023 A 
ATOM      6  C   UNL d   1       3.450  -3.869   3.199  0.00  0.00     0.023 A 
ENDROOT
BRANCH   4   7
ATOM      7  C   UNL d   1       2.242  -5.706   1.948  0.00  0.00     0.110 C 
BRANCH   7   8
ATOM      8  C   UNL d   1       2.844  -5.794   0.550  0.00  0.00     0.079 C 
ATOM      9  N   UNL d   1       2.268  -5.125  -0.406  0.00  0.00    -0.262 N 
ATOM     10  HN  UNL d   1       1.438  -4.543  -0.290  1.00  0.00     0.195 HD
BRANCH   9  11
ATOM     11  O   UNL d   1       2.948  -5.316  -1.622  0.00  0.00    -0.289 OA
ATOM     12  H   UNL d   1       2.362  -4.862  -2.257  0.00  0.00     0.244 HD
ENDBRANCH   9  11
BRANCH   8  13
ATOM     13  N   UNL d   1       3.950  -6.587   0.345  0.00  0.00    -0.290 NA
ATOM     14  H   UNL d   1       4.648  -6.564   1.079  0.00  0.00     0.125 HD
ATOM     15  H   UNL d   1       4.346  -6.396  -0.572  0.00  0.00     0.125 HD
ENDBRANCH   8  13
ENDBRANCH   7   8
ENDBRANCH   4   7
BRANCH   2  16
ATOM     16  C   UNL d   1       4.627  -1.940   4.324  0.00  0.00     0.417 C 
ATOM     17  F   UNL d   1       5.692  -1.656   5.124  0.00  0.00    -0.166 F 
ATOM     18  F   UNL d   1       3.558  -1.316   4.888  0.00  0.00    -0.166 F 
ATOM     19  F   UNL d   1       4.864  -1.294   3.148  0.00  0.00    -0.166 F 
ENDBRANCH   2  16
BRANCH   1  20
ATOM     20  C   UNL d   1       5.700  -6.773   5.470  0.00  0.00     0.417 C 
ATOM     21  F   UNL d   1       6.612  -6.229   6.322  0.00  0.00    -0.166 F 
ATOM     22  F   UNL d   1       4.902  -7.570   6.232  0.00  0.00    -0.166 F 
ATOM     23  F   UNL d   1       6.402  -7.612   4.658  0.00  0.00    -0.166 F 
ENDBRANCH   1  20
TORSDOF 6
