REMARK  3 active torsions:
REMARK  status: ('A' for Active; 'I' for Inactive)
REMARK       I    between atoms: N_2  and  C_1 
REMARK       I    between atoms: N_6  and  C_1 
REMARK    1  A    between atoms: C_4  and  N_2 
REMARK    2  A    between atoms: N_3  and  C_5 
REMARK    3  A    between atoms: C_7  and  N_6 
ROOT
ATOM      1  C   UNL d   1      -0.096  -1.005   1.377  0.00  0.00     0.325 C 
ATOM      2  N   UNL d   1       0.188   0.352   1.244  0.00  0.00    -0.307 N 
ATOM      3  N   UNL d   1      -0.800  -1.473   0.282  0.00  0.00    -0.309 N 
ATOM      4  O   UNL d   1       0.265  -1.685   2.331  0.00  0.00    -0.247 OA
ATOM      5  H   UNL d   1       0.286   0.699   0.307  0.00  0.00     0.170 HD
ATOM      6  H   UNL d   1      -1.149  -0.772  -0.353  0.00  0.00     0.170 HD
ENDROOT
BRANCH   2   7
ATOM      7  C   UNL d   1       0.947   1.042   2.222  0.00  0.00     0.063 A 
ATOM      8  C   UNL d   1       2.040   1.874   1.865  0.00  0.00     0.057 A 
ATOM      9  C   UNL d   1       2.656   2.563   2.935  0.00  0.00     0.031 A 
ATOM     10  C   UNL d   1       2.217   2.464   4.262  0.00  0.00     0.002 A 
ATOM     11  C   UNL d   1       1.144   1.649   4.576  0.00  0.00     0.002 A 
ATOM     12  C   UNL d   1       0.517   0.938   3.561  0.00  0.00     0.032 A 
BRANCH   8  13
ATOM     13  N   UNL d   1       2.588   1.985   0.589  0.00  0.00    -0.375 N 
ATOM     14  C   UNL d   1       2.538   0.927  -0.433  0.00  0.00     0.149 C 
ATOM     15  C   UNL d   1       3.854   0.843  -1.222  0.00  0.00     0.187 C 
ATOM     16  O   UNL d   1       4.259   2.119  -1.740  0.00  0.00    -0.388 OA
ATOM     17  C   UNL d   1       4.439   3.044  -0.658  0.00  0.00     0.187 C 
ATOM     18  C   UNL d   1       3.116   3.272   0.093  0.00  0.00     0.149 C 
ENDBRANCH   8  13
ENDBRANCH   2   7
BRANCH   3  19
ATOM     19  C   UNL d   1      -1.195  -2.806   0.026  0.00  0.00     0.037 A 
ATOM     20  C   UNL d   1      -0.861  -3.892   0.842  0.00  0.00     0.036 A 
ATOM     21  C   UNL d   1      -1.287  -5.194   0.528  0.00  0.00    -0.059 A 
ATOM     22  C   UNL d   1      -0.912  -6.355   1.402  0.00  0.00     0.048 C 
ATOM     23  C   UNL d   1      -2.039  -5.404  -0.631  0.00  0.00     0.013 A 
ATOM     24  C   UNL d   1      -2.383  -4.333  -1.464  0.00  0.00    -0.059 A 
ATOM     25  C   UNL d   1      -1.955  -3.040  -1.126  0.00  0.00     0.036 A 
ATOM     26  C   UNL d   1      -3.181  -4.588  -2.706  0.00  0.00     0.048 C 
ENDBRANCH   3  19
TORSDOF 3
