REMARK  4 active torsions:
REMARK  status: ('A' for Active; 'I' for Inactive)
REMARK    1  A    between atoms: N_2  and  S_1 
REMARK    2  A    between atoms: C_6  and  S_1 
REMARK    3  A    between atoms: C_5  and  N_2 
REMARK       I    between atoms: C_10  and  N_11 
REMARK    4  A    between atoms: N_11  and  C_18 
ROOT
ATOM      1  S   UNL d   1       1.050   0.035  -0.093  0.00  0.00     0.264 S 
ATOM      2  O   UNL d   1       0.320  -0.381   1.088  0.00  0.00    -0.200 OA
ATOM      3  O   UNL d   1       2.498   0.032  -0.094  0.00  0.00    -0.200 OA
ENDROOT
BRANCH   1   4
ATOM      4  N   UNL d   1       0.482   1.568  -0.446  0.00  0.00    -0.266 N 
ATOM      5  H   UNL d   1       0.025   1.997   0.353  0.00  0.00     0.180 HD
BRANCH   4   6
ATOM      6  C   UNL d   1       1.294   2.387  -1.248  0.00  0.00     0.115 A 
ATOM      7  N   UNL d   1       1.120   2.234  -2.571  0.00  0.00    -0.341 N 
ATOM      8  C   UNL d   1       1.812   3.051  -3.387  0.00  0.00     0.043 A 
ATOM      9  HN  UNL d   1       0.489   1.525  -2.943  1.00  0.00     0.167 HD
ATOM     10  C   UNL d   1       1.630   2.960  -4.761  0.00  0.00     0.030 A 
ATOM     11  C   UNL d   1       2.715   4.024  -2.901  0.00  0.00    -0.009 A 
ATOM     12  C   UNL d   1       2.297   3.808  -5.651  0.00  0.00     0.002 A 
ATOM     13  C   UNL d   1       3.176   4.770  -5.165  0.00  0.00     0.001 A 
ATOM     14  C   UNL d   1       3.391   4.875  -3.793  0.00  0.00     0.013 A 
ATOM     15  C   UNL d   1       2.900   4.115  -1.517  0.00  0.00     0.017 A 
ATOM     16  C   UNL d   1       2.176   3.283  -0.672  0.00  0.00     0.050 A 
ENDBRANCH   4   6
ENDBRANCH   1   4
BRANCH   1  17
ATOM     17  C   UNL d   1       0.467  -0.947  -1.450  0.00  0.00     0.080 A 
ATOM     18  C   UNL d   1       1.289  -1.158  -2.557  0.00  0.00     0.027 A 
ATOM     19  C   UNL d   1       0.835  -1.961  -3.609  0.00  0.00     0.031 A 
ATOM     20  C   UNL d   1      -0.431  -2.563  -3.560  0.00  0.00     0.034 A 
ATOM     21  C   UNL d   1      -1.228  -2.369  -2.429  0.00  0.00     0.031 A 
ATOM     22  C   UNL d   1      -0.781  -1.567  -1.372  0.00  0.00     0.027 A 
BRANCH  20  23
ATOM     23  N   UNL d   1      -0.825  -3.329  -4.679  0.00  0.00    -0.328 N 
ATOM     24  C   UNL d   1      -2.036  -3.970  -4.873  0.00  0.00     0.218 C 
ATOM     25  O   UNL d   1      -2.978  -4.016  -4.089  0.00  0.00    -0.274 OA
ATOM     26  C   UNL d   1      -2.138  -4.653  -6.215  0.00  0.00     0.117 C 
ATOM     27  H   UNL d   1      -0.150  -3.386  -5.429  0.00  0.00     0.169 HD
ENDBRANCH  20  23
ENDBRANCH   1  17
TORSDOF 4
