REMARK  8 active torsions:
REMARK  status: ('A' for Active; 'I' for Inactive)
REMARK    1  A    between atoms: N_2  and  C_1 
REMARK    2  A    between atoms: N_4  and  C_1 
REMARK    3  A    between atoms: C_6  and  N_2 
REMARK    4  A    between atoms: C_19  and  N_4 
REMARK    5  A    between atoms: O_5  and  C_8 
REMARK    6  A    between atoms: C_7  and  O_5 
REMARK    7  A    between atoms: C_21  and  C_19 
REMARK    8  A    between atoms: C_20  and  C_21 
ROOT
ATOM      1  C   UNL d   1       0.930   0.262   2.499  0.00  0.00     0.034 C 
ATOM      2  C   UNL d   1       2.131   0.480   5.014  0.00  0.00     0.076 C 
ATOM      3  C   UNL d   1       1.899   1.239   2.736  0.00  0.00     0.032 C 
ATOM      4  C   UNL d   1       0.461  -0.513   3.562  0.00  0.00     0.032 C 
ATOM      5  C   UNL d   1       2.477   1.370   3.998  0.00  0.00     0.039 C 
ATOM      6  C   UNL d   1       1.080  -0.418   4.817  0.00  0.00     0.039 C 
ENDROOT
BRANCH   1   7
ATOM      7  N   UNL d   1       0.396   0.082   1.205  0.00  0.00    -0.333 N 
ATOM      8  H   UNL d   1      -0.477  -0.433   1.148  0.00  0.00     0.168 HD
BRANCH   7   9
ATOM      9  C   UNL d   1       1.127   0.029   0.039  0.00  0.00     0.172 C 
ATOM     10  S   UNL d   1       2.751  -0.331  -0.136  0.00  0.00    -0.041 SA
BRANCH   9  11
ATOM     11  N   UNL d   1       0.419   0.263  -1.110  0.00  0.00    -0.367 N 
ATOM     12  H   UNL d   1       1.027   0.260  -1.923  0.00  0.00     0.161 HD
BRANCH  11  13
ATOM     13  C   UNL d   1      -0.753   1.122  -1.183  0.00  0.00     0.126 C 
BRANCH  13  14
ATOM     14  C   UNL d   1      -1.186   1.374  -2.629  0.00  0.00     0.058 C 
BRANCH  14  15
ATOM     15  C   UNL d   1      -2.362   2.314  -2.684  0.00  0.00    -0.057 A 
ATOM     16  C   UNL d   1      -2.162   3.702  -2.718  0.00  0.00     0.007 A 
ATOM     17  C   UNL d   1      -3.253   4.572  -2.702  0.00  0.00     0.001 A 
ATOM     18  C   UNL d   1      -4.550   4.064  -2.652  0.00  0.00     0.000 A 
ATOM     19  C   UNL d   1      -4.758   2.687  -2.626  0.00  0.00     0.001 A 
ATOM     20  C   UNL d   1      -3.669   1.814  -2.642  0.00  0.00     0.007 A 
ENDBRANCH  14  15
ENDBRANCH  13  14
ENDBRANCH  11  13
ENDBRANCH   9  11
ENDBRANCH   7   9
ENDBRANCH   1   7
BRANCH   2  21
ATOM     21  O   UNL d   1       2.763   0.451   6.240  0.00  0.00    -0.311 OA
BRANCH  21  22
ATOM     22  C   UNL d   1       4.131   0.641   6.285  0.00  0.00     0.076 A 
ATOM     23  C   UNL d   1       4.634   1.247   7.439  0.00  0.00     0.039 A 
ATOM     24  C   UNL d   1       5.999   1.527   7.547  0.00  0.00     0.026 A 
ATOM     25  C   UNL d   1       6.859   1.198   6.500  0.00  0.00     0.034 A 
ATOM     26  C   UNL d   1       6.374   0.549   5.367  0.00  0.00     0.026 A 
ATOM     27 CL   UNL d   1       8.529   1.598   6.604  0.00  0.00    -0.084 Cl
ATOM     28  C   UNL d   1       5.014   0.244   5.272  0.00  0.00     0.039 A 
ENDBRANCH  21  22
ENDBRANCH   2  21
TORSDOF 8
