REMARK  3 active torsions:
REMARK  status: ('A' for Active; 'I' for Inactive)
REMARK    1  A    between atoms: C_8  and  N_1 
REMARK       I    between atoms: N_2  and  C_4 
REMARK    2  A    between atoms: C_3  and  N_2 
REMARK    3  A    between atoms: C_4  and  C_10 
ROOT
ATOM      1  N   UNL d   1      -3.280  -4.354   1.901  0.00  0.00    -0.303 N 
ATOM      2  C   UNL d   1      -1.998  -4.149   2.358  0.00  0.00     0.257 C 
ATOM      3  O   UNL d   1      -1.437  -4.795   3.238  0.00  0.00    -0.267 OA
ATOM      4  H   UNL d   1      -3.727  -3.744   1.242  0.00  0.00     0.171 HD
ENDROOT
BRANCH   2   5
ATOM      5  C   UNL d   1      -1.229  -3.021   1.724  0.00  0.00     0.032 A 
ATOM      6  C   UNL d   1      -1.707  -2.251   0.652  0.00  0.00     0.019 A 
ATOM      7  C   UNL d   1      -0.916  -1.236   0.093  0.00  0.00     0.037 A 
ATOM      8  C   UNL d   1       0.364  -0.986   0.604  0.00  0.00     0.102 A 
ATOM      9  C   UNL d   1       0.855  -1.738   1.674  0.00  0.00     0.037 A 
ATOM     10  C   UNL d   1       0.058  -2.749   2.226  0.00  0.00     0.019 A 
BRANCH   8  11
ATOM     11  N   UNL d   1       1.196   0.066   0.004  0.00  0.00    -0.116 N 
ATOM     12  O   UNL d   1       2.306   0.282   0.510  0.00  0.00    -0.532 OA
ATOM     13  O   UNL d   1       0.737   0.673  -0.974  0.00  0.00    -0.532 OA
ENDBRANCH   8  11
ENDBRANCH   2   5
BRANCH   1  14
ATOM     14  C   UNL d   1      -4.052  -5.404   2.322  0.00  0.00     0.151 A 
ATOM     15  N   UNL d   1      -3.762  -6.400   3.117  0.00  0.00    -0.346 N 
ATOM     16  C   UNL d   1      -4.854  -7.237   3.221  0.00  0.00     0.097 A 
ATOM     17  HN  UNL d   1      -2.867  -6.537   3.588  1.00  0.00     0.167 HD
ATOM     18  C   UNL d   1      -5.969  -6.853   2.505  0.00  0.00     0.070 A 
ATOM     19  S   UNL d   1      -5.630  -5.398   1.661  0.00  0.00    -0.064 SA
ENDBRANCH   1  14
TORSDOF 3
