REMARK  1 active torsions:
REMARK  status: ('A' for Active; 'I' for Inactive)
REMARK    1  A    between atoms: C_2  and  C_1 
ROOT
ATOM      1  C   UNL d   1       3.734  -1.360  -0.282  0.00  0.00     0.088 C 
ATOM      2  C   UNL d   1       3.806  -2.740   0.379  0.00  0.00     0.139 C 
ATOM      3  C   UNL d   1       6.257  -1.249   0.002  0.00  0.00    -0.048 A 
ATOM      4  C   UNL d   1       4.943  -0.527   0.162  0.00  0.00     0.056 C 
ATOM      5  C   UNL d   1       6.328  -2.652   0.033  0.00  0.00    -0.045 A 
ATOM      6  C   UNL d   1       5.096  -3.510   0.179  0.00  0.00     0.118 C 
ATOM      7  C   UNL d   1       7.439  -0.502  -0.110  0.00  0.00     0.049 A 
ATOM      8  O   UNL d   1       2.846  -3.282   0.930  0.00  0.00    -0.297 OA
ATOM      9  C   UNL d   1       7.580  -3.284  -0.081  0.00  0.00     0.011 A 
ATOM     10  C   UNL d   1       8.666  -1.146  -0.218  0.00  0.00     0.117 A 
ATOM     11  C   UNL d   1       8.747  -2.530  -0.209  0.00  0.00     0.043 A 
ATOM     12  F   UNL d   1       9.785  -0.419  -0.330  0.00  0.00    -0.206 F 
ENDROOT
BRANCH   1  13
ATOM     13  C   UNL d   1       2.423  -0.606  -0.060  0.00  0.00    -0.067 C 
ATOM     14  C   UNL d   1       1.698  -0.183  -1.110  0.00  0.00     0.015 C 
ATOM     15  C   UNL d   1       0.464   0.592  -0.955  0.00  0.00    -0.029 A 
ATOM     16  C   UNL d   1      -0.266   0.977  -2.090  0.00  0.00     0.015 A 
ATOM     17  C   UNL d   1       0.025   0.990   0.318  0.00  0.00    -0.045 A 
ATOM     18  C   UNL d   1      -1.414   1.759  -1.964  0.00  0.00     0.043 A 
ATOM     19  C   UNL d   1      -1.834   2.157  -0.701  0.00  0.00     0.117 A 
ATOM     20  C   UNL d   1      -1.130   1.779   0.435  0.00  0.00     0.050 A 
ATOM     21  F   UNL d   1      -2.926   2.922  -0.579  0.00  0.00    -0.206 F 
ATOM     22  C   UNL d   1       0.801   0.633   1.555  0.00  0.00     0.043 C 
ATOM     23  C   UNL d   1       1.977  -0.339   1.363  0.00  0.00     0.039 C 
ENDBRANCH   1  13
TORSDOF 1
