REMARK  6 active torsions:
REMARK  status: ('A' for Active; 'I' for Inactive)
REMARK    1  A    between atoms: C_2  and  C_1 
REMARK    2  A    between atoms: C_3  and  N_4 
REMARK       I    between atoms: N_4  and  C_7 
REMARK    3  A    between atoms: C_7  and  C_20 
REMARK    4  A    between atoms: S_12  and  C_9 
REMARK    5  A    between atoms: O_24  and  C_11 
REMARK    6  A    between atoms: C_20  and  S_12 
ROOT
ATOM      1  N   UNL d   1      -1.272   5.579   6.411  0.00  0.00    -0.324 N 
ATOM      2  C   UNL d   1      -0.921   4.311   6.826  0.00  0.00     0.231 C 
ATOM      3  O   UNL d   1      -0.825   3.963   8.007  0.00  0.00    -0.272 OA
ATOM      4  H   UNL d   1      -1.461   5.710   5.423  0.00  0.00     0.169 HD
ENDROOT
BRANCH   2   5
ATOM      5  C   UNL d   1      -0.828   3.254   5.745  0.00  0.00     0.184 C 
BRANCH   5   6
ATOM      6  S   UNL d   1      -0.255   3.871   4.135  0.00  0.00    -0.103 SA
BRANCH   6   7
ATOM      7  C   UNL d   1      -0.347   2.346   3.208  0.00  0.00     0.070 A 
ATOM      8  C   UNL d   1       0.023   2.326   1.871  0.00  0.00     0.038 A 
ATOM      9  C   UNL d   1      -0.118   1.137   1.154  0.00  0.00     0.020 A 
ATOM     10  C   UNL d   1      -0.623  -0.003   1.788  0.00  0.00     0.063 A 
ATOM     11  C   UNL d   1      -0.940   0.106   3.130  0.00  0.00     0.105 A 
ATOM     12  N   UNL d   1      -0.818   1.250   3.843  0.00  0.00    -0.360 N 
ATOM     13  HN  UNL d   1      -1.072   1.283   4.830  1.00  0.00     0.166 HD
BRANCH  10  14
ATOM     14  C   UNL d   1      -0.836  -1.290   1.053  0.00  0.00     0.418 C 
ATOM     15  F   UNL d   1      -1.358  -2.280   1.828  0.00  0.00    -0.166 F 
ATOM     16  F   UNL d   1       0.316  -1.792   0.531  0.00  0.00    -0.166 F 
ATOM     17  F   UNL d   1      -1.692  -1.149   0.004  0.00  0.00    -0.166 F 
ENDBRANCH  10  14
ENDBRANCH   6   7
ENDBRANCH   5   6
ENDBRANCH   2   5
BRANCH   1  18
ATOM     18  C   UNL d   1      -1.569   6.668   7.266  0.00  0.00     0.070 A 
ATOM     19  C   UNL d   1      -1.021   6.752   8.552  0.00  0.00     0.056 A 
ATOM     20  C   UNL d   1      -1.318   7.831   9.385  0.00  0.00     0.036 A 
ATOM     21 CL   UNL d   1      -0.599   7.926  10.947  0.00  0.00    -0.084 Cl
ATOM     22  C   UNL d   1      -2.172   8.839   8.955  0.00  0.00     0.026 A 
ATOM     23  C   UNL d   1      -2.706   8.783   7.666  0.00  0.00     0.041 A 
ATOM     24  C   UNL d   1      -2.407   7.707   6.820  0.00  0.00     0.095 A 
BRANCH  24  25
ATOM     25  O   UNL d   1      -2.928   7.786   5.554  0.00  0.00    -0.354 OA
ATOM     26  C   UNL d   1      -3.804   6.713   5.209  0.00  0.00     0.210 C 
ENDBRANCH  24  25
ENDBRANCH   1  18
TORSDOF 6
