REMARK  8 active torsions:
REMARK  status: ('A' for Active; 'I' for Inactive)
REMARK    1  A    between atoms: N_7  and  S_1 
REMARK    2  A    between atoms: C_2  and  C_8 
REMARK    3  A    between atoms: O_12  and  N_3 
REMARK    4  A    between atoms: C_5  and  O_12 
REMARK       I    between atoms: N_11  and  C_5 
REMARK    5  A    between atoms: C_6  and  C_13 
REMARK    6  A    between atoms: N_22  and  C_6 
REMARK    7  A    between atoms: C_23  and  N_7 
REMARK    8  A    between atoms: C_24  and  N_11 
ROOT
ATOM      1  N   UNL d   1       1.001   5.665  -5.352  0.00  0.00    -0.244 N 
ATOM      2  HN  UNL d   1       1.166   6.616  -5.680  1.00  0.00     0.196 HD
ATOM      3  C   UNL d   1       1.843   4.922  -4.680  0.00  0.00     0.109 C 
ENDROOT
BRANCH   1   4
ATOM      4  O   UNL d   1      -0.184   4.905  -5.540  0.00  0.00    -0.179 OA
BRANCH   4   5
ATOM      5  C   UNL d   1      -1.238   5.585  -6.111  0.00  0.00     0.387 C 
ATOM      6  N   UNL d   1      -0.955   6.873  -6.493  0.00  0.00    -0.301 N 
ATOM      7  H   UNL d   1       0.021   7.113  -6.353  0.00  0.00     0.171 HD
ATOM      8  O   UNL d   1      -2.314   5.006  -6.232  0.00  0.00    -0.236 OA
BRANCH   6   9
ATOM      9  C   UNL d   1      -1.850   7.820  -7.028  0.00  0.00     0.036 A 
ATOM     10  C   UNL d   1      -3.223   7.589  -7.162  0.00  0.00     0.030 A 
ATOM     11  C   UNL d   1      -4.076   8.575  -7.670  0.00  0.00     0.018 A 
ATOM     12  C   UNL d   1      -3.574   9.821  -8.059  0.00  0.00     0.048 A 
ATOM     13  C   UNL d   1      -2.195  10.050  -7.940  0.00  0.00     0.018 A 
ATOM     14  C   UNL d   1      -1.343   9.061  -7.425  0.00  0.00     0.030 A 
BRANCH  12  15
ATOM     15  C   UNL d   1      -4.492  10.893  -8.595  0.00  0.00     0.417 C 
ATOM     16  F   UNL d   1      -5.811  10.558  -8.547  0.00  0.00    -0.166 F 
ATOM     17  F   UNL d   1      -4.382  12.064  -7.907  0.00  0.00    -0.166 F 
ATOM     18  F   UNL d   1      -4.233  11.199  -9.897  0.00  0.00    -0.166 F 
ENDBRANCH  12  15
ENDBRANCH   6   9
ENDBRANCH   4   5
ENDBRANCH   1   4
BRANCH   3  19
ATOM     19  C   UNL d   1       3.211   5.434  -4.348  0.00  0.00     0.004 A 
ATOM     20  C   UNL d   1       3.467   6.802  -4.227  0.00  0.00     0.016 A 
ATOM     21  C   UNL d   1       4.744   7.243  -3.853  0.00  0.00     0.025 A 
ATOM     22  C   UNL d   1       5.759   6.316  -3.600  0.00  0.00     0.022 A 
ATOM     23  C   UNL d   1       5.520   4.954  -3.755  0.00  0.00     0.025 A 
ATOM     24  C   UNL d   1       4.248   4.513  -4.123  0.00  0.00     0.016 A 
BRANCH  22  25
ATOM     25  N   UNL d   1       7.063   6.750  -3.228  0.00  0.00    -0.186 NA
ATOM     26  H   UNL d   1       7.091   7.507  -2.542  0.00  0.00     0.145 HD
BRANCH  25  27
ATOM     27  S   UNL d   1       8.151   7.108  -4.474  0.00  0.00     0.210 S 
ATOM     28  O   UNL d   1       9.073   8.068  -3.905  0.00  0.00    -0.211 OA
ATOM     29  O   UNL d   1       7.431   7.393  -5.695  0.00  0.00    -0.211 OA
ATOM     30  C   UNL d   1       9.021   5.565  -4.650  0.00  0.00     0.180 C 
ENDBRANCH  25  27
ENDBRANCH  22  25
ENDBRANCH   3  19
BRANCH   3  31
ATOM     31  N   UNL d   1       1.518   3.656  -4.234  0.00  0.00    -0.286 NA
ATOM     32  H   UNL d   1       0.524   3.462  -4.321  0.00  0.00     0.125 HD
ATOM     33  H   UNL d   1       1.867   3.412  -3.313  0.00  0.00     0.125 HD
ENDBRANCH   3  31
TORSDOF 8
