REMARK  6 active torsions:
REMARK  status: ('A' for Active; 'I' for Inactive)
REMARK    1  A    between atoms: C_3  and  S_1 
REMARK    2  A    between atoms: N_8  and  S_1 
REMARK       I    between atoms: C_2  and  N_4 
REMARK    3  A    between atoms: C_7  and  C_2 
REMARK    4  A    between atoms: N_4  and  N_9 
REMARK    5  A    between atoms: N_9  and  C_15 
REMARK    6  A    between atoms: C_21  and  C_20 
ROOT
ATOM      1  N   UNL d   1      -1.347   1.052  -5.391  0.00  0.00    -0.203 NA
ATOM      2  H   UNL d   1      -1.496   1.971  -5.825  0.00  0.00     0.153 HD
ENDROOT
BRANCH   1   3
ATOM      3  N   UNL d   1      -1.266   0.057  -6.386  0.00  0.00    -0.283 N 
ATOM      4  C   UNL d   1      -1.802   0.376  -7.625  0.00  0.00     0.266 C 
ATOM      5  O   UNL d   1      -2.221   1.490  -7.922  0.00  0.00    -0.266 OA
ATOM      6  H   UNL d   1      -1.341  -0.901  -6.059  0.00  0.00     0.184 HD
BRANCH   4   7
ATOM      7  C   UNL d   1      -1.861  -0.750  -8.594  0.00  0.00     0.033 A 
ATOM      8  C   UNL d   1      -2.929  -0.829  -9.493  0.00  0.00     0.017 A 
ATOM      9  C   UNL d   1      -2.985  -1.873 -10.423  0.00  0.00     0.008 A 
ATOM     10  C   UNL d   1      -1.964  -2.833 -10.476  0.00  0.00    -0.059 A 
ATOM     11  C   UNL d   1      -0.895  -2.743  -9.575  0.00  0.00     0.008 A 
ATOM     12  C   UNL d   1      -0.840  -1.708  -8.640  0.00  0.00     0.017 A 
BRANCH  10  13
ATOM     13  C   UNL d   1      -2.015  -3.957 -11.482  0.00  0.00     0.034 C 
ATOM     14  C   UNL d   1      -2.692  -5.197 -10.919  0.00  0.00     0.010 C 
ENDBRANCH  10  13
ENDBRANCH   4   7
ENDBRANCH   1   3
BRANCH   1  15
ATOM     15  C   UNL d   1      -0.258   1.055  -4.483  0.00  0.00     0.027 A 
ATOM     16  C   UNL d   1       0.139   2.266  -3.892  0.00  0.00     0.026 A 
ATOM     17  C   UNL d   1       1.123   2.301  -2.894  0.00  0.00     0.026 A 
ATOM     18  C   UNL d   1       1.706   1.110  -2.461  0.00  0.00     0.074 A 
ATOM     19  C   UNL d   1       1.311  -0.108  -3.016  0.00  0.00     0.026 A 
ATOM     20  C   UNL d   1       0.330  -0.130  -4.011  0.00  0.00     0.026 A 
BRANCH  18  21
ATOM     21  S   UNL d   1       2.886   1.131  -1.145  0.00  0.00     0.239 S 
ATOM     22  O   UNL d   1       3.350  -0.216  -0.896  0.00  0.00    -0.206 OA
ATOM     23  O   UNL d   1       2.396   1.989  -0.094  0.00  0.00    -0.206 OA
BRANCH  21  24
ATOM     24  N   UNL d   1       4.193   1.927  -1.833  0.00  0.00    -0.225 NA
ATOM     25  H   UNL d   1       4.976   1.279  -1.932  0.00  0.00     0.136 HD
ATOM     26  H   UNL d   1       4.419   2.751  -1.274  0.00  0.00     0.136 HD
ENDBRANCH  21  24
ENDBRANCH  18  21
ENDBRANCH   1  15
TORSDOF 6
