REMARK  7 active torsions:
REMARK  status: ('A' for Active; 'I' for Inactive)
REMARK    1  A    between atoms: N_6  and  C_1 
REMARK    2  A    between atoms: C_9  and  N_4 
REMARK       I    between atoms: C_7  and  N_6 
REMARK    3  A    between atoms: C_13  and  C_7 
REMARK    4  A    between atoms: C_10  and  C_15 
REMARK    5  A    between atoms: O_18  and  C_10 
REMARK    6  A    between atoms: C_11  and  C_13 
REMARK    7  A    between atoms: C_15  and  C_11 
ROOT
ATOM      1  C   UNL d   1      -0.270  -1.223   0.053  0.00  0.00     0.129 C 
ATOM      2  C   UNL d   1       1.119  -0.676  -0.114  0.00  0.00     0.295 C 
ATOM      3  N   UNL d   1      -0.318   1.033   0.360  0.00  0.00    -0.289 N 
ATOM      4  N   UNL d   1       1.040   0.680   0.163  0.00  0.00    -0.217 N 
ATOM      5  C   UNL d   1      -1.063  -0.144   0.199  0.00  0.00     0.057 C 
ATOM      6  O   UNL d   1       2.074  -1.380  -0.411  0.00  0.00    -0.264 OA
ATOM      7  C   UNL d   1      -0.750   2.388   0.039  0.00  0.00     0.178 C 
ATOM      8  C   UNL d   1      -2.558  -0.154   0.106  0.00  0.00     0.072 C 
ENDROOT
BRANCH   1   9
ATOM      9  N   UNL d   1      -0.494  -2.576   0.003  0.00  0.00    -0.321 N 
ATOM     10  C   UNL d   1      -1.509  -3.237   0.651  0.00  0.00     0.223 C 
ATOM     11  O   UNL d   1      -2.366  -2.709   1.364  0.00  0.00    -0.273 OA
ATOM     12  H   UNL d   1       0.327  -3.121  -0.259  0.00  0.00     0.169 HD
BRANCH  10  13
ATOM     13  C   UNL d   1      -1.472  -4.752   0.547  0.00  0.00     0.112 C 
BRANCH  13  14
ATOM     14  C   UNL d   1      -0.853  -5.455   1.785  0.00  0.00    -0.030 C 
ATOM     15  C   UNL d   1      -1.068  -6.976   1.633  0.00  0.00     0.016 C 
ATOM     16  C   UNL d   1       0.669  -5.202   1.815  0.00  0.00     0.016 C 
BRANCH  14  17
ATOM     17  C   UNL d   1      -1.443  -4.975   3.137  0.00  0.00     0.119 C 
BRANCH  17  18
ATOM     18  C   UNL d   1      -2.924  -5.227   3.327  0.00  0.00     0.140 C 
ATOM     19  O   UNL d   1      -3.374  -6.265   3.790  0.00  0.00    -0.650 OA
BRANCH  18  20
ATOM     20  O   UNL d   1      -3.719  -4.213   2.932  0.00  0.00    -0.776 OA
ATOM     21  H   UNL d   1      -3.245  -3.451   2.515  0.00  0.00     0.167 HD
ENDBRANCH  18  20
ENDBRANCH  17  18
ENDBRANCH  14  17
ENDBRANCH  13  14
ENDBRANCH  10  13
ENDBRANCH   1   9
BRANCH   4  22
ATOM     22  C   UNL d   1       2.064   1.620  -0.016  0.00  0.00     0.060 A 
ATOM     23  C   UNL d   1       2.740   1.705  -1.237  0.00  0.00     0.031 A 
ATOM     24  C   UNL d   1       3.797   2.602  -1.393  0.00  0.00     0.002 A 
ATOM     25  C   UNL d   1       4.213   3.382  -0.314  0.00  0.00     0.000 A 
ATOM     26  C   UNL d   1       3.549   3.293   0.909  0.00  0.00     0.002 A 
ATOM     27  C   UNL d   1       2.459   2.429   1.053  0.00  0.00     0.031 A 
ENDBRANCH   4  22
TORSDOF 7
