REMARK  6 active torsions:
REMARK  status: ('A' for Active; 'I' for Inactive)
REMARK    1  A    between atoms: C_12  and  C_1 
REMARK    2  A    between atoms: S_16  and  C_5 
REMARK    3  A    between atoms: C_8  and  C_9 
REMARK    4  A    between atoms: C_13  and  C_25 
REMARK       I    between atoms: N_15  and  C_13 
REMARK    5  A    between atoms: C_18  and  N_15 
REMARK    6  A    between atoms: C_25  and  S_16 
ROOT
ATOM      1  C   UNL d   1      -0.327  -0.632  -0.947  0.00  0.00     0.192 A 
ATOM      2  O   UNL d   1      -0.895   0.608  -0.830  0.00  0.00    -0.266 OA
ATOM      3  N   UNL d   1       0.148  -1.081   0.197  0.00  0.00    -0.275 N 
ATOM      4  HN  UNL d   1       0.618  -1.972   0.359  1.00  0.00     0.189 HD
ATOM      5  C   UNL d   1      -0.751   0.871   0.501  0.00  0.00     0.204 A 
ATOM      6  N   UNL d   1      -0.121  -0.095   1.138  0.00  0.00    -0.272 N 
ATOM      7  HN  UNL d   1       0.121  -0.114   2.128  1.00  0.00     0.189 HD
ENDROOT
BRANCH   5   8
ATOM      8  S   UNL d   1      -1.363   2.320   1.229  0.00  0.00    -0.075 SA
BRANCH   8   9
ATOM      9  C   UNL d   1      -2.640   2.759   0.007  0.00  0.00     0.186 C 
BRANCH   9  10
ATOM     10  C   UNL d   1      -3.758   1.723   0.007  0.00  0.00     0.231 C 
ATOM     11  N   UNL d   1      -3.827   0.971  -1.159  0.00  0.00    -0.326 N 
ATOM     12  H   UNL d   1      -3.079   1.091  -1.836  0.00  0.00     0.169 HD
ATOM     13  O   UNL d   1      -4.491   1.597   0.986  0.00  0.00    -0.272 OA
BRANCH  11  14
ATOM     14  C   UNL d   1      -4.735  -0.077  -1.437  0.00  0.00     0.036 A 
ATOM     15  C   UNL d   1      -5.827  -0.398  -0.626  0.00  0.00     0.053 A 
ATOM     16  C   UNL d   1      -6.650  -1.479  -0.952  0.00  0.00     0.036 A 
ATOM     17 CL   UNL d   1      -7.986  -1.873   0.061  0.00  0.00    -0.084 Cl
ATOM     18  C   UNL d   1      -6.402  -2.247  -2.087  0.00  0.00     0.024 A 
ATOM     19  C   UNL d   1      -5.332  -1.919  -2.915  0.00  0.00     0.004 A 
ATOM     20  C   UNL d   1      -4.510  -0.835  -2.594  0.00  0.00     0.029 A 
ENDBRANCH  11  14
ENDBRANCH   9  10
ENDBRANCH   8   9
ENDBRANCH   5   8
BRANCH   1  21
ATOM     21  C   UNL d   1      -0.372  -1.228  -2.272  0.00  0.00     0.085 A 
ATOM     22  N   UNL d   1      -0.865  -0.432  -3.265  0.00  0.00    -0.362 N 
ATOM     23  C   UNL d   1      -0.910  -0.947  -4.515  0.00  0.00     0.104 A 
ATOM     24  HN  UNL d   1      -1.187   0.516  -3.071  1.00  0.00     0.165 HD
ATOM     25  C   UNL d   1      -0.514  -2.235  -4.835  0.00  0.00     0.063 A 
ATOM     26  C   UNL d   1      -0.026  -3.038  -3.798  0.00  0.00     0.020 A 
ATOM     27  C   UNL d   1       0.053  -2.531  -2.502  0.00  0.00     0.035 A 
BRANCH  25  28
ATOM     28  C   UNL d   1      -0.617  -2.736  -6.244  0.00  0.00     0.418 C 
ATOM     29  F   UNL d   1      -1.087  -1.804  -7.118  0.00  0.00    -0.166 F 
ATOM     30  F   UNL d   1       0.580  -3.146  -6.741  0.00  0.00    -0.166 F 
ATOM     31  F   UNL d   1      -1.455  -3.803  -6.352  0.00  0.00    -0.166 F 
ENDBRANCH  25  28
ENDBRANCH   1  21
TORSDOF 6
