REMARK  3 active torsions:
REMARK  status: ('A' for Active; 'I' for Inactive)
REMARK    1  A    between atoms: N_9  and  C_3 
REMARK    2  A    between atoms: C_7  and  C_4 
REMARK    3  A    between atoms: C_16  and  N_10 
ROOT
ATOM      1  N   UNL d   1       0.707   1.669  -0.277  0.00  0.00    -0.350 N 
ATOM      2  HN  UNL d   1       0.100   2.474  -0.430  1.00  0.00     0.166 HD
ATOM      3  C   UNL d   1       2.439  -0.499   0.130  0.00  0.00     0.025 A 
ATOM      4  C   UNL d   1       1.362   1.105  -1.321  0.00  0.00     0.118 A 
ATOM      5  C   UNL d   1       0.858   1.165   0.969  0.00  0.00     0.066 A 
ATOM      6  C   UNL d   1       1.698   0.056   1.216  0.00  0.00     0.014 A 
ATOM      7  C   UNL d   1       2.241   0.043  -1.145  0.00  0.00     0.059 A 
ATOM      8  C   UNL d   1       0.171   1.727   2.058  0.00  0.00     0.061 A 
ATOM      9 CL   UNL d   1      -0.859   3.108   1.838  0.00  0.00    -0.082 Cl
ATOM     10  C   UNL d   1       1.746  -0.479   2.530  0.00  0.00     0.015 A 
ATOM     11  C   UNL d   1       1.053   0.097   3.591  0.00  0.00     0.003 A 
ATOM     12  C   UNL d   1       0.270   1.213   3.356  0.00  0.00     0.026 A 
ENDROOT
BRANCH   3  13
ATOM     13  N   UNL d   1       3.336  -1.568   0.345  0.00  0.00    -0.280 NA
ATOM     14  C   UNL d   1       3.669  -2.462  -0.794  0.00  0.00     0.115 C 
ATOM     15  C   UNL d   1       4.430  -3.722  -0.306  0.00  0.00     0.138 C 
ATOM     16  N   UNL d   1       5.620  -3.345   0.494  0.00  0.00    -0.379 N 
ATOM     17  C   UNL d   1       5.280  -2.439   1.619  0.00  0.00     0.138 C 
ATOM     18  C   UNL d   1       4.570  -1.174   1.081  0.00  0.00     0.115 C 
BRANCH  16  19
ATOM     19  C   UNL d   1       6.633  -4.280   0.718  0.00  0.00     0.030 A 
ATOM     20  C   UNL d   1       6.535  -5.628   0.342  0.00  0.00     0.029 A 
ATOM     21  C   UNL d   1       7.599  -6.524   0.516  0.00  0.00     0.002 A 
ATOM     22  C   UNL d   1       8.796  -6.091   1.075  0.00  0.00     0.000 A 
ATOM     23  C   UNL d   1       8.926  -4.764   1.458  0.00  0.00     0.002 A 
ATOM     24  C   UNL d   1       7.861  -3.875   1.274  0.00  0.00     0.029 A 
ENDBRANCH  16  19
ENDBRANCH   3  13
BRANCH   4  25
ATOM     25  C   UNL d   1       1.139   1.646  -2.727  0.00  0.00     0.432 C 
ATOM     26  F   UNL d   1       0.179   2.608  -2.820  0.00  0.00    -0.165 F 
ATOM     27  F   UNL d   1       2.271   2.194  -3.261  0.00  0.00    -0.165 F 
ATOM     28  F   UNL d   1       0.766   0.666  -3.603  0.00  0.00    -0.165 F 
ENDBRANCH   4  25
TORSDOF 3
