REMARK  4 active torsions:
REMARK  status: ('A' for Active; 'I' for Inactive)
REMARK    1  A    between atoms: C_8  and  C_3 
REMARK    2  A    between atoms: C_17  and  C_5 
REMARK    3  A    between atoms: C_7  and  C_9 
REMARK    4  A    between atoms: O_19  and  C_17 
ROOT
ATOM      1  N   UNL d   1       0.140   0.667   1.088  0.00  0.00    -0.353 N 
ATOM      2  HN  UNL d   1       0.274   1.049   2.024  1.00  0.00     0.166 HD
ATOM      3  C   UNL d   1       0.621   1.206  -0.015  0.00  0.00     0.085 A 
ATOM      4  S   UNL d   1       0.227   0.347  -1.454  0.00  0.00    -0.072 SA
ATOM      5  C   UNL d   1      -0.644  -0.812  -0.539  0.00  0.00     0.030 A 
ATOM      6  C   UNL d   1      -0.572  -0.490   0.805  0.00  0.00     0.021 A 
ATOM      7  C   UNL d   1      -1.165  -1.230   1.951  0.00  0.00     0.069 C 
ENDROOT
BRANCH   3   8
ATOM      8  C   UNL d   1       1.375   2.471  -0.056  0.00  0.00    -0.002 A 
ATOM      9  C   UNL d   1       2.295   2.779  -1.070  0.00  0.00     0.015 A 
ATOM     10  C   UNL d   1       2.970   4.004  -1.081  0.00  0.00     0.017 A 
ATOM     11  C   UNL d   1       2.744   4.955  -0.075  0.00  0.00     0.048 A 
ATOM     12  C   UNL d   1       1.843   4.646   0.952  0.00  0.00     0.017 A 
ATOM     13  C   UNL d   1       1.173   3.418   0.962  0.00  0.00     0.015 A 
BRANCH  11  14
ATOM     14  C   UNL d   1       3.466   6.279  -0.116  0.00  0.00     0.417 C 
ATOM     15  F   UNL d   1       3.137   7.115   0.908  0.00  0.00    -0.166 F 
ATOM     16  F   UNL d   1       4.819   6.136  -0.062  0.00  0.00    -0.166 F 
ATOM     17  F   UNL d   1       3.211   6.973  -1.260  0.00  0.00    -0.166 F 
ENDBRANCH  11  14
ENDBRANCH   3   8
BRANCH   5  18
ATOM     18  C   UNL d   1      -1.347  -1.932  -1.220  0.00  0.00     0.212 C 
BRANCH  18  19
ATOM     19  O   UNL d   1      -0.752  -3.147  -0.786  0.00  0.00    -0.396 OA
ATOM     20  H   UNL d   1       0.177  -3.124  -1.074  0.00  0.00     0.209 HD
ENDBRANCH  18  19
ENDBRANCH   5  18
TORSDOF 4
