REMARK  6 active torsions:
REMARK  status: ('A' for Active; 'I' for Inactive)
REMARK    1  A    between atoms: N_7  and  C_1 
REMARK    2  A    between atoms: S_9  and  C_2 
REMARK    3  A    between atoms: S_5  and  C_3 
REMARK    4  A    between atoms: N_19  and  S_5 
REMARK    5  A    between atoms: C_8  and  C_10 
REMARK    6  A    between atoms: C_13  and  S_9 
ROOT
ATOM      1  C   UNL d   1       1.582   0.714   0.099  0.00  0.00     0.129 A 
ATOM      2  C   UNL d   1       0.320   1.276  -0.048  0.00  0.00     0.082 A 
ATOM      3  C   UNL d   1       0.237  -1.206  -0.064  0.00  0.00     0.118 A 
ATOM      4  C   UNL d   1       1.519  -0.724   0.086  0.00  0.00     0.070 A 
ATOM      5  S   UNL d   1      -0.889   0.059  -0.225  0.00  0.00    -0.067 SA
ENDROOT
BRANCH   2   6
ATOM      6  S   UNL d   1      -0.185   2.965   0.033  0.00  0.00    -0.063 SA
BRANCH   6   7
ATOM      7  C   UNL d   1      -0.207   3.349  -1.706  0.00  0.00     0.075 A 
ATOM      8  N   UNL d   1      -1.339   3.059  -2.388  0.00  0.00    -0.359 N 
ATOM      9  C   UNL d   1      -1.432   3.501  -3.666  0.00  0.00     0.105 A 
ATOM     10  HN  UNL d   1      -2.094   2.526  -1.956  1.00  0.00     0.166 HD
ATOM     11  C   UNL d   1      -0.435   4.212  -4.317  0.00  0.00     0.063 A 
ATOM     12  C   UNL d   1       0.743   4.458  -3.607  0.00  0.00     0.020 A 
ATOM     13  C   UNL d   1       0.857   4.032  -2.284  0.00  0.00     0.038 A 
BRANCH  11  14
ATOM     14  C   UNL d   1      -0.634   4.718  -5.714  0.00  0.00     0.418 C 
ATOM     15  F   UNL d   1      -1.857   4.422  -6.233  0.00  0.00    -0.166 F 
ATOM     16  F   UNL d   1      -0.510   6.072  -5.798  0.00  0.00    -0.166 F 
ATOM     17  F   UNL d   1       0.276   4.206  -6.586  0.00  0.00    -0.166 F 
ENDBRANCH  11  14
ENDBRANCH   6   7
ENDBRANCH   2   6
BRANCH   1  18
ATOM     18  N   UNL d   1       2.829   1.435   0.268  0.00  0.00    -0.114 N 
ATOM     19  O   UNL d   1       2.811   2.669   0.228  0.00  0.00    -0.532 OA
ATOM     20  O   UNL d   1       3.844   0.743   0.411  0.00  0.00    -0.532 OA
ENDBRANCH   1  18
BRANCH   3  21
ATOM     21  S   UNL d   1      -0.410  -2.859  -0.114  0.00  0.00     0.246 S 
ATOM     22  O   UNL d   1       0.761  -3.699  -0.194  0.00  0.00    -0.206 OA
ATOM     23  O   UNL d   1      -1.370  -2.935   0.962  0.00  0.00    -0.206 OA
BRANCH  21  24
ATOM     24  N   UNL d   1      -1.236  -3.024  -1.561  0.00  0.00    -0.225 NA
ATOM     25  H   UNL d   1      -0.625  -3.016  -2.375  0.00  0.00     0.136 HD
ATOM     26  H   UNL d   1      -2.067  -2.439  -1.617  0.00  0.00     0.136 HD
ENDBRANCH  21  24
ENDBRANCH   3  21
TORSDOF 6
