REMARK  6 active torsions:
REMARK  status: ('A' for Active; 'I' for Inactive)
REMARK       I    between atoms: C_3  and  N_1 
REMARK    1  A    between atoms: C_4  and  N_2 
REMARK    2  A    between atoms: C_15  and  C_3 
REMARK    3  A    between atoms: C_7  and  C_17 
REMARK    4  A    between atoms: O_14  and  C_7 
REMARK    5  A    between atoms: C_16  and  C_15 
REMARK    6  A    between atoms: C_17  and  C_16 
ROOT
ATOM      1  N   UNL d   1      -1.400   0.053   0.271  0.00  0.00    -0.349 N 
ATOM      2  N   UNL d   1       1.336  -0.120  -0.353  0.00  0.00    -0.364 N 
ATOM      3  C   UNL d   1      -2.542   0.201   1.032  0.00  0.00     0.219 C 
ATOM      4  C   UNL d   1      -0.829  -1.226  -0.187  0.00  0.00     0.145 C 
ATOM      5  C   UNL d   1      -0.655   1.254  -0.154  0.00  0.00     0.145 C 
ATOM      6  C   UNL d   1       0.668  -1.316   0.160  0.00  0.00     0.144 C 
ATOM      7  C   UNL d   1       0.847   1.151   0.187  0.00  0.00     0.144 C 
ATOM      8  O   UNL d   1      -2.916   1.305   1.426  0.00  0.00    -0.273 OA
ENDROOT
BRANCH   3   9
ATOM      9  C   UNL d   1      -3.321  -1.058   1.371  0.00  0.00     0.103 C 
BRANCH   9  10
ATOM     10  C   UNL d   1      -4.615  -0.783   2.149  0.00  0.00     0.019 C 
BRANCH  10  11
ATOM     11  C   UNL d   1      -5.656   0.049   1.391  0.00  0.00     0.110 C 
BRANCH  11  12
ATOM     12  C   UNL d   1      -6.097  -0.603   0.104  0.00  0.00     0.139 C 
ATOM     13  O   UNL d   1      -6.198  -1.808  -0.061  0.00  0.00    -0.650 OA
BRANCH  12  14
ATOM     14  O   UNL d   1      -6.402   0.287  -0.868  0.00  0.00    -0.776 OA
ATOM     15  H   UNL d   1      -6.267   1.219  -0.606  0.00  0.00     0.167 HD
ENDBRANCH  12  14
ENDBRANCH  11  12
ENDBRANCH  10  11
ENDBRANCH   9  10
ENDBRANCH   3   9
BRANCH   2  16
ATOM     16  C   UNL d   1       2.535  -0.180  -1.016  0.00  0.00     0.102 A 
ATOM     17  N   UNL d   1       3.488   0.729  -0.739  0.00  0.00    -0.352 N 
ATOM     18  C   UNL d   1       4.654   0.666  -1.425  0.00  0.00     0.089 A 
ATOM     19  HN  UNL d   1       3.336   1.447  -0.031  1.00  0.00     0.166 HD
ATOM     20  C   UNL d   1       4.915  -0.255  -2.423  0.00  0.00     0.017 A 
ATOM     21  C   UNL d   1       3.922  -1.169  -2.732  0.00  0.00     0.005 A 
ATOM     22  C   UNL d   1       2.731  -1.136  -2.017  0.00  0.00     0.048 A 
ENDBRANCH   2  16
TORSDOF 6
