REMARK  5 active torsions:
REMARK  status: ('A' for Active; 'I' for Inactive)
REMARK    1  A    between atoms: C_4  and  C_9 
REMARK    2  A    between atoms: C_5  and  O_10 
REMARK    3  A    between atoms: O_11  and  C_9 
REMARK    4  A    between atoms: C_15  and  C_9 
REMARK    5  A    between atoms: O_14  and  C_15 
ROOT
ATOM      1  C   UNL d   1      -0.379   0.775  -0.401  0.00  0.00     0.211 C 
ATOM      2  C   UNL d   1      -0.191  -0.662  -0.857  0.00  0.00     0.295 C 
ATOM      3  O   UNL d   1      -1.097  -1.504  -0.123  0.00  0.00    -0.348 OA
ATOM      4  C   UNL d   1      -1.622  -0.700   0.957  0.00  0.00     0.187 C 
ATOM      5  C   UNL d   1      -1.679   0.722   0.372  0.00  0.00     0.183 C 
ATOM      6  O   UNL d   1       1.157  -1.010  -0.564  0.00  0.00    -0.323 OA
ATOM      7  O   UNL d   1       0.735   1.054   0.447  0.00  0.00    -0.343 OA
ATOM      8  C   UNL d   1       1.753   0.142   0.028  0.00  0.00     0.160 C 
ATOM      9  C   UNL d   1       2.646   0.810  -1.017  0.00  0.00     0.078 C 
ATOM     10  C   UNL d   1       2.564  -0.269   1.248  0.00  0.00     0.078 C 
ENDROOT
BRANCH   4  11
ATOM     11  C   UNL d   1      -2.966  -1.270   1.421  0.00  0.00     0.173 C 
BRANCH  11  12
ATOM     12  O   UNL d   1      -3.884  -1.309   0.316  0.00  0.00    -0.391 OA
ATOM     13  H   UNL d   1      -3.466  -1.891  -0.352  0.00  0.00     0.210 HD
ENDBRANCH  11  12
BRANCH  11  14
ATOM     14  C   UNL d   1      -2.831  -2.681   2.007  0.00  0.00     0.198 C 
BRANCH  14  15
ATOM     15  O   UNL d   1      -2.006  -2.673   3.164  0.00  0.00    -0.398 OA
ATOM     16  H   UNL d   1      -1.887  -3.601   3.432  0.00  0.00     0.209 HD
ENDBRANCH  14  15
ENDBRANCH  11  14
ENDBRANCH   4  11
BRANCH   5  17
ATOM     17  O   UNL d   1      -2.746   0.922  -0.562  0.00  0.00    -0.390 OA
ATOM     18  H   UNL d   1      -3.498   0.356  -0.288  0.00  0.00     0.210 HD
ENDBRANCH   5  17
TORSDOF 5
