REMARK  3 active torsions:
REMARK  status: ('A' for Active; 'I' for Inactive)
REMARK    1  A    between atoms: C_2  and  C_1 
REMARK       I    between atoms: N_3  and  C_2 
REMARK    2  A    between atoms: C_6  and  N_3 
REMARK    3  A    between atoms: C_9  and  C_6 
ROOT
ATOM      1  C   UNL d   1      -0.362   2.497  -0.028  0.00  0.00     0.253 C 
ATOM      2  N   UNL d   1       0.243   3.727  -0.095  0.00  0.00    -0.353 N 
ATOM      3  O   UNL d   1       0.290   1.457   0.019  0.00  0.00    -0.268 OA
ATOM      4  H   UNL d   1      -0.319   4.566  -0.151  0.00  0.00     0.163 HD
ENDROOT
BRANCH   1   5
ATOM      5  C   UNL d   1      -1.862   2.429  -0.005  0.00  0.00     0.053 A 
ATOM      6  C   UNL d   1      -2.755   3.513  -0.037  0.00  0.00     0.049 A 
ATOM      7 CL   UNL d   1      -2.283   5.176  -0.128  0.00  0.00    -0.083 Cl
ATOM      8  C   UNL d   1      -4.141   3.289   0.009  0.00  0.00     0.025 A 
ATOM      9  C   UNL d   1      -4.656   1.996   0.086  0.00  0.00     0.002 A 
ATOM     10  C   UNL d   1      -3.788   0.913   0.116  0.00  0.00     0.001 A 
ATOM     11  C   UNL d   1      -2.408   1.129   0.070  0.00  0.00     0.019 A 
ENDBRANCH   1   5
BRANCH   2  12
ATOM     12  C   UNL d   1       1.679   3.901  -0.062  0.00  0.00     0.161 C 
BRANCH  12  13
ATOM     13  C   UNL d   1       2.175   4.641  -1.278  0.00  0.00    -0.041 A 
ATOM     14  C   UNL d   1       2.831   5.874  -1.153  0.00  0.00     0.009 A 
ATOM     15  C   UNL d   1       3.330   6.529  -2.281  0.00  0.00     0.001 A 
ATOM     16  C   UNL d   1       3.176   5.961  -3.545  0.00  0.00     0.000 A 
ATOM     17  C   UNL d   1       2.520   4.740  -3.683  0.00  0.00     0.001 A 
ATOM     18  C   UNL d   1       2.023   4.082  -2.556  0.00  0.00     0.009 A 
ENDBRANCH  12  13
ENDBRANCH   2  12
TORSDOF 3
