REMARK  2 active torsions:
REMARK  status: ('A' for Active; 'I' for Inactive)
REMARK    1  A    between atoms: C_9  and  C_2 
REMARK    2  A    between atoms: C_11  and  C_6 
ROOT
ATOM      1  C   UNL d   1      -0.473  -0.390   0.031  0.00  0.00     0.123 A 
ATOM      2  C   UNL d   1       0.281  -1.515  -0.003  0.00  0.00     0.003 A 
ATOM      3  C   UNL d   1       0.212   0.939   0.064  0.00  0.00     0.267 A 
ATOM      4  N   UNL d   1       1.583   0.923   0.084  0.00  0.00    -0.322 N 
ATOM      5  C   UNL d   1       1.739  -1.412   0.018  0.00  0.00     0.044 A 
ATOM      6  C   UNL d   1       2.341  -0.216   0.063  0.00  0.00     0.046 A 
ATOM      7  C   UNL d   1      -1.897  -0.391   0.037  0.00  0.00     0.106 C 
ATOM      8  N   UNL d   1      -3.058  -0.418   0.049  0.00  0.00    -0.191 NA
ATOM      9  O   UNL d   1      -0.404   2.001   0.069  0.00  0.00    -0.266 OA
ATOM     10  H   UNL d   1       2.041   1.827   0.107  0.00  0.00     0.169 HD
ENDROOT
BRANCH   2  11
ATOM     11  C   UNL d   1      -0.353  -2.849  -0.065  0.00  0.00    -0.024 A 
ATOM     12  C   UNL d   1      -0.651  -3.427  -1.307  0.00  0.00     0.012 A 
ATOM     13  C   UNL d   1      -1.203  -4.708  -1.371  0.00  0.00     0.001 A 
ATOM     14  C   UNL d   1      -1.453  -5.420  -0.199  0.00  0.00     0.000 A 
ATOM     15  C   UNL d   1      -1.160  -4.850   1.040  0.00  0.00     0.001 A 
ATOM     16  C   UNL d   1      -0.611  -3.568   1.109  0.00  0.00     0.012 A 
ENDBRANCH   2  11
BRANCH   6  17
ATOM     17  C   UNL d   1       3.797  -0.064   0.087  0.00  0.00    -0.009 A 
ATOM     18  C   UNL d   1       4.512   0.057  -1.111  0.00  0.00     0.013 A 
ATOM     19  C   UNL d   1       5.892   0.265  -1.087  0.00  0.00     0.001 A 
ATOM     20  C   UNL d   1       6.564   0.352   0.132  0.00  0.00     0.000 A 
ATOM     21  C   UNL d   1       5.860   0.219   1.328  0.00  0.00     0.001 A 
ATOM     22  C   UNL d   1       4.480   0.009   1.308  0.00  0.00     0.013 A 
ENDBRANCH   6  17
TORSDOF 2
