REMARK  0 active torsions:
REMARK  status: ('A' for Active; 'I' for Inactive)
ROOT
ATOM      1  C   UNL d   1      -0.325  -0.589   0.001  0.00  0.00     0.153 A 
ATOM      2  C   UNL d   1      -0.292   0.795  -0.000  0.00  0.00     0.097 A 
ATOM      3  N   UNL d   1      -1.558  -1.090   0.001  0.00  0.00    -0.282 N 
ATOM      4  HN  UNL d   1      -1.850  -2.068   0.002  1.00  0.00     0.189 HD
ATOM      5  N   UNL d   1       1.957  -0.749   0.003  0.00  0.00    -0.238 N 
ATOM      6  HN  UNL d   1       2.821  -1.291   0.004  1.00  0.00     0.208 HD
ATOM      7  N   UNL d   1       0.847  -1.347   0.002  0.00  0.00    -0.269 N 
ATOM      8  HN  UNL d   1       0.806  -2.366   0.003  1.00  0.00     0.190 HD
ATOM      9  C   UNL d   1       0.949   1.487   0.000  0.00  0.00     0.276 A 
ATOM     10  N   UNL d   1      -2.328   0.022   0.000  0.00  0.00    -0.305 N 
ATOM     11  C   UNL d   1      -1.609   1.189  -0.001  0.00  0.00     0.130 A 
ATOM     12  N   UNL d   1       2.019   0.623   0.002  0.00  0.00    -0.251 N 
ATOM     13  O   UNL d   1       1.065   2.706  -0.001  0.00  0.00    -0.266 OA
ATOM     14  C   UNL d   1      -3.767  -0.090   0.001  0.00  0.00     0.177 C 
ATOM     15  H   UNL d   1       2.948   1.022   0.003  0.00  0.00     0.192 HD
ENDROOT
TORSDOF 0
