REMARK  3 active torsions:
REMARK  status: ('A' for Active; 'I' for Inactive)
REMARK       I    between atoms: N_3  and  C_1 
REMARK    1  A    between atoms: C_6  and  C_1 
REMARK    2  A    between atoms: C_2  and  N_4 
REMARK    3  A    between atoms: O_20  and  C_17 
ROOT
ATOM      1  C   UNL d   1      -1.207  -4.842   2.045  0.00  0.00     0.124 A 
ATOM      2  C   UNL d   1      -1.474  -4.958   3.422  0.00  0.00     0.088 A 
ATOM      3  C   UNL d   1      -1.229  -3.885   4.335  0.00  0.00     0.103 C 
ATOM      4  N   UNL d   1      -1.022  -3.032   5.097  0.00  0.00    -0.191 NA
ATOM      5  N   UNL d   1      -1.550  -5.841   1.196  0.00  0.00    -0.351 N 
ATOM      6  HN  UNL d   1      -1.370  -5.756   0.196  1.00  0.00     0.166 HD
ATOM      7  C   UNL d   1      -2.075  -6.124   3.910  0.00  0.00     0.028 A 
ATOM      8  C   UNL d   1      -2.134  -6.954   1.696  0.00  0.00     0.090 A 
ATOM      9  C   UNL d   1      -2.416  -7.142   3.035  0.00  0.00     0.019 A 
ENDROOT
BRANCH   1  10
ATOM     10  N   UNL d   1      -0.706  -3.669   1.506  0.00  0.00    -0.363 N 
ATOM     11  C   UNL d   1      -0.963  -3.410   0.083  0.00  0.00     0.144 C 
ATOM     12  C   UNL d   1      -0.925  -1.883  -0.136  0.00  0.00     0.146 C 
ATOM     13  N   UNL d   1       0.265  -1.218   0.434  0.00  0.00    -0.345 N 
ATOM     14  C   UNL d   1       0.804  -0.008  -0.008  0.00  0.00     0.254 C 
ATOM     15  C   UNL d   1       0.694  -1.695   1.761  0.00  0.00     0.146 C 
ATOM     16  O   UNL d   1       1.771   0.525   0.533  0.00  0.00    -0.267 OA
ATOM     17  C   UNL d   1       0.648  -3.227   1.891  0.00  0.00     0.144 C 
BRANCH  14  18
ATOM     18  C   UNL d   1       0.237   0.677  -1.197  0.00  0.00     0.034 A 
ATOM     19  C   UNL d   1       1.135   1.138  -2.173  0.00  0.00     0.053 A 
ATOM     20  C   UNL d   1       0.655   1.774  -3.318  0.00  0.00     0.069 A 
ATOM     21  C   UNL d   1      -0.723   1.935  -3.485  0.00  0.00     0.037 A 
ATOM     22  C   UNL d   1      -1.616   1.523  -2.495  0.00  0.00     0.004 A 
ATOM     23  C   UNL d   1      -1.132   0.924  -1.332  0.00  0.00     0.017 A 
BRANCH  20  24
ATOM     24  O   UNL d   1       1.415   2.267  -4.342  0.00  0.00    -0.356 OA
ATOM     25  C   UNL d   1       2.821   2.318  -4.128  0.00  0.00     0.210 C 
ENDBRANCH  20  24
ENDBRANCH  14  18
ENDBRANCH   1  10
TORSDOF 3
