REMARK  2 active torsions:
REMARK  status: ('A' for Active; 'I' for Inactive)
REMARK    1  A    between atoms: C_9  and  C_4 
REMARK    2  A    between atoms: C_8  and  N_6 
ROOT
ATOM      1  N   UNL d   1       1.310  -0.559   0.549  0.00  0.00    -0.335 N 
ATOM      2  HN  UNL d   1       2.101  -1.010   1.011  1.00  0.00     0.168 HD
ATOM      3  C   UNL d   1       0.279  -1.202   0.051  0.00  0.00     0.149 A 
ATOM      4  C   UNL d   1       1.188   0.804   0.366  0.00  0.00     0.051 A 
ATOM      5  S   UNL d   1      -0.926  -0.180  -0.643  0.00  0.00    -0.064 SA
ATOM      6  N   UNL d   1       0.105  -2.547   0.068  0.00  0.00    -0.336 N 
ATOM      7  C   UNL d   1       0.038   1.194  -0.289  0.00  0.00     0.083 A 
ATOM      8  H   UNL d   1      -0.750  -2.908  -0.335  0.00  0.00     0.168 HD
ENDROOT
BRANCH   6   9
ATOM      9  C   UNL d   1       1.164  -3.492  -0.023  0.00  0.00     0.045 A 
ATOM     10  C   UNL d   1       1.016  -4.790   0.544  0.00  0.00     0.001 A 
ATOM     11  C   UNL d   1       2.077  -5.723   0.412  0.00  0.00    -0.024 A 
ATOM     12  C   UNL d   1      -0.130  -5.199   1.266  0.00  0.00     0.014 A 
ATOM     13  C   UNL d   1       1.963  -7.003   0.979  0.00  0.00     0.012 A 
ATOM     14  C   UNL d   1       3.245  -5.364  -0.275  0.00  0.00     0.012 A 
ATOM     15  C   UNL d   1       0.820  -7.377   1.681  0.00  0.00     0.001 A 
ATOM     16  C   UNL d   1      -0.227  -6.476   1.825  0.00  0.00     0.001 A 
ATOM     17  C   UNL d   1       3.385  -4.095  -0.826  0.00  0.00     0.003 A 
ATOM     18  C   UNL d   1       2.355  -3.169  -0.697  0.00  0.00     0.030 A 
ENDBRANCH   6   9
BRANCH   4  19
ATOM     19  C   UNL d   1       2.205   1.715   0.876  0.00  0.00    -0.009 A 
ATOM     20  C   UNL d   1       2.486   2.939   0.253  0.00  0.00     0.015 A 
ATOM     21  C   UNL d   1       3.466   3.791   0.774  0.00  0.00     0.024 A 
ATOM     22  C   UNL d   1       4.170   3.425   1.921  0.00  0.00     0.034 A 
ATOM     23  C   UNL d   1       3.910   2.209   2.546  0.00  0.00     0.024 A 
ATOM     24 CL   UNL d   1       5.367   4.480   2.562  0.00  0.00    -0.084 Cl
ATOM     25  C   UNL d   1       2.934   1.356   2.021  0.00  0.00     0.015 A 
ENDBRANCH   4  19
TORSDOF 2
