REMARK  3 active torsions:
REMARK  status: ('A' for Active; 'I' for Inactive)
REMARK    1  A    between atoms: C_2  and  C_1 
REMARK       I    between atoms: N_8  and  C_2 
REMARK    2  A    between atoms: C_3  and  C_6 
REMARK    3  A    between atoms: C_15  and  N_8 
ROOT
ATOM      1  C   UNL d   1      -0.168   1.096  -0.080  0.00  0.00     0.122 A 
ATOM      2  N   UNL d   1      -1.536   1.150   0.036  0.00  0.00    -0.359 N 
ATOM      3  HN  UNL d   1      -2.029   2.041   0.097  1.00  0.00     0.165 HD
ATOM      4  C   UNL d   1      -1.588  -1.274  -0.000  0.00  0.00     0.065 A 
ATOM      5  C   UNL d   1       0.538  -0.109  -0.143  0.00  0.00     0.067 A 
ATOM      6  C   UNL d   1      -0.194  -1.299  -0.102  0.00  0.00     0.044 A 
ATOM      7  C   UNL d   1      -2.203  -0.032   0.066  0.00  0.00     0.105 A 
ATOM      8 CL   UNL d   1       2.249  -0.275  -0.263  0.00  0.00    -0.082 Cl
ENDROOT
BRANCH   1   9
ATOM      9  C   UNL d   1       0.502   2.443  -0.173  0.00  0.00     0.274 C 
ATOM     10  N   UNL d   1      -0.354   3.527  -0.035  0.00  0.00    -0.322 N 
ATOM     11  H   UNL d   1      -1.311   3.292   0.212  0.00  0.00     0.169 HD
ATOM     12  O   UNL d   1       1.712   2.527  -0.352  0.00  0.00    -0.266 OA
BRANCH  10  13
ATOM     13  C   UNL d   1      -0.020   4.889  -0.202  0.00  0.00     0.035 A 
ATOM     14  C   UNL d   1       1.204   5.320  -0.727  0.00  0.00     0.031 A 
ATOM     15  C   UNL d   1       1.474   6.681  -0.903  0.00  0.00     0.026 A 
ATOM     16  C   UNL d   1       0.519   7.626  -0.549  0.00  0.00     0.034 A 
ATOM     17  C   UNL d   1      -0.703   7.218  -0.020  0.00  0.00     0.026 A 
ATOM     18 CL   UNL d   1       0.849   9.299  -0.772  0.00  0.00    -0.084 Cl
ATOM     19  C   UNL d   1      -0.975   5.853   0.146  0.00  0.00     0.031 A 
ENDBRANCH  10  13
ENDBRANCH   1   9
BRANCH   4  20
ATOM     20  C   UNL d   1      -2.406  -2.530   0.034  0.00  0.00     0.418 C 
ATOM     21  F   UNL d   1      -1.655  -3.664  -0.010  0.00  0.00    -0.166 F 
ATOM     22  F   UNL d   1      -3.162  -2.624   1.160  0.00  0.00    -0.166 F 
ATOM     23  F   UNL d   1      -3.272  -2.613  -1.011  0.00  0.00    -0.166 F 
ENDBRANCH   4  20
TORSDOF 3
