REMARK  4 active torsions:
REMARK  status: ('A' for Active; 'I' for Inactive)
REMARK    1  A    between atoms: C_7  and  C_3 
REMARK    2  A    between atoms: C_8  and  C_4 
REMARK    3  A    between atoms: O_12  and  C_7 
REMARK    4  A    between atoms: O_13  and  C_8 
ROOT
ATOM      1  C   UNL d   1       1.115  -1.144   0.215  0.00  0.00     0.023 C 
ATOM      2  C   UNL d   1      -0.555   0.250   0.730  0.00  0.00     0.023 C 
ATOM      3  C   UNL d   1       0.548   1.218   0.222  0.00  0.00     0.106 C 
ATOM      4  C   UNL d   1       1.737   0.240  -0.089  0.00  0.00     0.106 C 
ATOM      5  C   UNL d   1      -1.031  -0.594  -0.428  0.00  0.00    -0.025 C 
ATOM      6  C   UNL d   1      -0.017  -1.405  -0.759  0.00  0.00    -0.025 C 
ATOM      7  C   UNL d   1       0.269  -0.823   1.452  0.00  0.00     0.019 C 
ENDROOT
BRANCH   3   8
ATOM      8  C   UNL d   1       0.153   2.025  -1.005  0.00  0.00     0.145 C 
ATOM      9  O   UNL d   1       0.756   2.019  -2.066  0.00  0.00    -0.650 OA
BRANCH   8  10
ATOM     10  O   UNL d   1      -0.919   2.816  -0.801  0.00  0.00    -0.776 OA
ATOM     11  H   UNL d   1      -1.278   2.784   0.106  0.00  0.00     0.167 HD
ENDBRANCH   8  10
ENDBRANCH   3   8
BRANCH   4  12
ATOM     12  C   UNL d   1       2.921   0.509   0.827  0.00  0.00     0.145 C 
ATOM     13  O   UNL d   1       2.926   1.307   1.752  0.00  0.00    -0.650 OA
BRANCH  12  14
ATOM     14  O   UNL d   1       3.999  -0.249   0.537  0.00  0.00    -0.776 OA
ATOM     15  H   UNL d   1       3.898  -0.820  -0.247  0.00  0.00     0.167 HD
ENDBRANCH  12  14
ENDBRANCH   4  12
TORSDOF 4
