REMARK  2 active torsions:
REMARK  status: ('A' for Active; 'I' for Inactive)
REMARK    1  A    between atoms: N_3  and  C_1 
REMARK       I    between atoms: C_5  and  N_3 
REMARK    2  A    between atoms: C_6  and  C_5 
ROOT
ATOM      1  C   UNL d   1      -1.183  -0.667  -0.590  0.00  0.00     0.101 C 
ATOM      2  C   UNL d   1       0.053  -1.163   0.227  0.00  0.00    -0.022 C 
ATOM      3  C   UNL d   1      -1.038   0.900  -0.506  0.00  0.00    -0.023 C 
ATOM      4  C   UNL d   1       0.223   1.062   0.406  0.00  0.00    -0.004 C 
ATOM      5  C   UNL d   1       0.097  -0.128   1.364  0.00  0.00     0.016 C 
ATOM      6  C   UNL d   1       1.368  -0.843  -0.520  0.00  0.00     0.011 C 
ATOM      7  C   UNL d   1       1.524   0.670  -0.318  0.00  0.00     0.006 C 
ATOM      8  C   UNL d   1      -0.042  -2.592   0.726  0.00  0.00     0.017 C 
ATOM      9  C   UNL d   1      -0.896   1.613  -1.861  0.00  0.00     0.017 C 
ATOM     10  C   UNL d   1      -2.272   1.507   0.202  0.00  0.00     0.017 C 
ENDROOT
BRANCH   1  11
ATOM     11  N   UNL d   1      -1.263  -1.194  -1.945  0.00  0.00    -0.350 N 
ATOM     12  C   UNL d   1      -2.048  -2.272  -2.320  0.00  0.00     0.258 C 
ATOM     13  O   UNL d   1      -2.701  -2.910  -1.505  0.00  0.00    -0.267 OA
ATOM     14  H   UNL d   1      -0.698  -0.781  -2.673  0.00  0.00     0.163 HD
BRANCH  12  15
ATOM     15  C   UNL d   1      -2.047  -2.578  -3.757  0.00  0.00     0.072 A 
ATOM     16  S   UNL d   1      -1.198  -1.628  -4.903  0.00  0.00    -0.097 SA
ATOM     17  C   UNL d   1      -1.704  -2.606  -6.210  0.00  0.00     0.050 A 
ATOM     18  C   UNL d   1      -2.511  -3.640  -5.796  0.00  0.00     0.009 A 
ATOM     19  C   UNL d   1      -2.715  -3.620  -4.382  0.00  0.00     0.025 A 
ENDBRANCH  12  15
ENDBRANCH   1  11
TORSDOF 2
