REMARK  8 active torsions:
REMARK  status: ('A' for Active; 'I' for Inactive)
REMARK    1  A    between atoms: S_4  and  C_1 
REMARK    2  A    between atoms: S_5  and  C_1 
REMARK    3  A    between atoms: C_2  and  C_8 
REMARK    4  A    between atoms: O_11  and  C_2 
REMARK    5  A    between atoms: C_3  and  C_9 
REMARK    6  A    between atoms: O_10  and  C_3 
REMARK    7  A    between atoms: C_8  and  S_4 
REMARK    8  A    between atoms: C_9  and  S_5 
ROOT
ATOM      1  C   UNL d   1      -1.486   0.305  -0.303  0.00  0.00     0.057 C 
ATOM      2  C   UNL d   1      -0.468   1.388   0.127  0.00  0.00     0.032 C 
ATOM      3  C   UNL d   1      -1.012  -1.062   0.249  0.00  0.00     0.032 C 
ATOM      4  C   UNL d   1       0.978   1.063  -0.259  0.00  0.00     0.002 C 
ATOM      5  C   UNL d   1       0.434  -1.405  -0.134  0.00  0.00     0.002 C 
ATOM      6  C   UNL d   1       1.408  -0.303   0.265  0.00  0.00     0.000 C 
ENDROOT
BRANCH   1   7
ATOM      7  S   UNL d   1      -3.120   0.777   0.440  0.00  0.00    -0.138 SA
BRANCH   7   8
ATOM      8  C   UNL d   1      -4.192  -0.622  -0.069  0.00  0.00     0.185 C 
BRANCH   8   9
ATOM      9  C   UNL d   1      -5.634  -0.428   0.365  0.00  0.00     0.149 C 
ATOM     10  O   UNL d   1      -6.511  -1.247   0.124  0.00  0.00    -0.649 OA
BRANCH   9  11
ATOM     11  O   UNL d   1      -5.894   0.716   1.036  0.00  0.00    -0.776 OA
ATOM     12  H   UNL d   1      -5.077   1.251   1.141  0.00  0.00     0.167 HD
ENDBRANCH   9  11
ENDBRANCH   8   9
ENDBRANCH   7   8
ENDBRANCH   1   7
BRANCH   1  13
ATOM     13  S   UNL d   1      -1.634   0.153  -2.148  0.00  0.00    -0.138 SA
BRANCH  13  14
ATOM     14  C   UNL d   1      -2.168   1.834  -2.646  0.00  0.00     0.185 C 
BRANCH  14  15
ATOM     15  C   UNL d   1      -2.368   1.935  -4.149  0.00  0.00     0.149 C 
ATOM     16  O   UNL d   1      -2.744   2.962  -4.698  0.00  0.00    -0.649 OA
BRANCH  15  17
ATOM     17  O   UNL d   1      -2.096   0.808  -4.848  0.00  0.00    -0.776 OA
ATOM     18  H   UNL d   1      -1.808   0.089  -4.245  0.00  0.00     0.167 HD
ENDBRANCH  15  17
ENDBRANCH  14  15
ENDBRANCH  13  14
ENDBRANCH   1  13
TORSDOF 8
