REMARK  7 active torsions:
REMARK  status: ('A' for Active; 'I' for Inactive)
REMARK    1  A    between atoms: O_4  and  N_1 
REMARK    2  A    between atoms: C_6  and  O_4 
REMARK       I    between atoms: C_5  and  N_7 
REMARK    3  A    between atoms: O_14  and  C_5 
REMARK    4  A    between atoms: C_15  and  C_6 
REMARK    5  A    between atoms: N_7  and  C_15 
REMARK    6  A    between atoms: C_16  and  O_14 
REMARK    7  A    between atoms: C_17  and  C_16 
ROOT
ATOM      1  C   UNL d   1      -2.717   6.471  -0.502  0.00  0.00     0.361 C 
ATOM      2  N   UNL d   1      -2.577   5.123  -0.389  0.00  0.00    -0.328 N 
ATOM      3  O   UNL d   1      -1.807   7.274  -0.374  0.00  0.00    -0.239 OA
ATOM      4  H   UNL d   1      -3.372   4.566  -0.678  0.00  0.00     0.165 HD
ENDROOT
BRANCH   2   5
ATOM      5  C   UNL d   1      -1.276   4.513  -0.273  0.00  0.00     0.238 C 
BRANCH   5   6
ATOM      6  C   UNL d   1      -0.748   4.013  -1.613  0.00  0.00     0.299 C 
ATOM      7  O   UNL d   1      -1.429   3.588  -2.535  0.00  0.00    -0.261 OA
BRANCH   6   8
ATOM      8  O   UNL d   1       0.617   3.955  -1.530  0.00  0.00    -0.185 OA
BRANCH   8   9
ATOM      9  N   UNL d   1       1.158   2.938  -2.320  0.00  0.00    -0.145 N 
ATOM     10  C   UNL d   1       2.265   3.167  -3.067  0.00  0.00     0.251 C 
ATOM     11  C   UNL d   1       2.839   1.827  -3.442  0.00  0.00     0.115 C 
ATOM     12  O   UNL d   1       2.796   4.237  -3.325  0.00  0.00    -0.271 OA
ATOM     13  C   UNL d   1       1.975   0.814  -2.698  0.00  0.00     0.115 C 
ATOM     14  C   UNL d   1       1.056   1.659  -1.871  0.00  0.00     0.251 C 
ATOM     15  O   UNL d   1       0.393   1.256  -0.926  0.00  0.00    -0.271 OA
ENDBRANCH   8   9
ENDBRANCH   6   8
ENDBRANCH   5   6
ENDBRANCH   2   5
BRANCH   1  16
ATOM     16  O   UNL d   1      -4.004   6.756  -0.787  0.00  0.00    -0.299 OA
BRANCH  16  17
ATOM     17  C   UNL d   1      -4.312   8.142  -0.978  0.00  0.00     0.219 C 
BRANCH  17  18
ATOM     18  C   UNL d   1      -4.725   8.440  -2.401  0.00  0.00    -0.034 A 
ATOM     19  C   UNL d   1      -4.772   7.459  -3.401  0.00  0.00     0.009 A 
ATOM     20  C   UNL d   1      -5.165   7.785  -4.702  0.00  0.00     0.001 A 
ATOM     21  C   UNL d   1      -5.517   9.097  -5.016  0.00  0.00     0.000 A 
ATOM     22  C   UNL d   1      -5.474  10.083  -4.035  0.00  0.00     0.001 A 
ATOM     23  C   UNL d   1      -5.081   9.758  -2.736  0.00  0.00     0.009 A 
ENDBRANCH  17  18
ENDBRANCH  16  17
ENDBRANCH   1  16
TORSDOF 7
