REMARK  0 active torsions:
REMARK  status: ('A' for Active; 'I' for Inactive)
ROOT
ATOM      1  C   UNL d   1      -0.371   1.412  -0.110  0.00  0.00     0.011 C 
ATOM      2  C   UNL d   1       0.417  -1.383  -0.099  0.00  0.00     0.011 C 
ATOM      3  C   UNL d   1      -0.893  -1.096  -0.116  0.00  0.00     0.071 C 
ATOM      4  C   UNL d   1       0.940   1.124  -0.079  0.00  0.00     0.071 C 
ATOM      5  C   UNL d   1       1.415  -0.286   0.043  0.00  0.00     0.197 C 
ATOM      6  C   UNL d   1      -1.372   0.314  -0.005  0.00  0.00     0.197 C 
ATOM      7  O   UNL d   1      -2.559   0.585   0.145  0.00  0.00    -0.286 OA
ATOM      8  O   UNL d   1       2.596  -0.558   0.236  0.00  0.00    -0.286 OA
ATOM      9 BR   UNL d   1      -2.238  -2.401  -0.266  0.00  0.00    -0.046 Br
ATOM     10 BR   UNL d   1       2.289   2.430  -0.178  0.00  0.00    -0.046 Br
ATOM     11  C   UNL d   1      -0.981   2.780  -0.237  0.00  0.00     0.054 C 
ATOM     12  C   UNL d   1       1.032  -2.752  -0.207  0.00  0.00     0.054 C 
ENDROOT
TORSDOF 0
