REMARK  5 active torsions:
REMARK  status: ('A' for Active; 'I' for Inactive)
REMARK    1  A    between atoms: C_2  and  C_1 
REMARK       I    between atoms: N_3  and  C_1 
REMARK    2  A    between atoms: N_5  and  C_2 
REMARK    3  A    between atoms: C_9  and  N_3 
REMARK    4  A    between atoms: C_19  and  N_5 
REMARK    5  A    between atoms: C_7  and  C_19 
ROOT
ATOM      1  C   UNL d   1       0.922   0.031  -0.335  0.00  0.00     0.283 C 
ATOM      2  N   UNL d   1       0.320  -1.037   0.306  0.00  0.00    -0.321 N 
ATOM      3  O   UNL d   1       0.439   0.779  -1.174  0.00  0.00    -0.265 OA
ATOM      4  H   UNL d   1       0.902  -1.550   0.957  0.00  0.00     0.169 HD
ENDROOT
BRANCH   1   5
ATOM      5  C   UNL d   1       2.338   0.329   0.137  0.00  0.00     0.165 C 
ATOM      6  S   UNL d   1       3.499  -0.833  -0.114  0.00  0.00    -0.055 SA
BRANCH   5   7
ATOM      7  N   UNL d   1       2.612   1.531   0.750  0.00  0.00    -0.370 N 
ATOM      8  H   UNL d   1       3.589   1.743   0.924  0.00  0.00     0.161 HD
BRANCH   7   9
ATOM      9  C   UNL d   1       1.650   2.600   0.956  0.00  0.00     0.185 C 
BRANCH   9  10
ATOM     10  C   UNL d   1       2.341   3.842   1.384  0.00  0.00     0.070 A 
ATOM     11  O   UNL d   1       3.361   4.284   0.589  0.00  0.00    -0.325 OA
ATOM     12  C   UNL d   1       3.793   5.461   1.109  0.00  0.00     0.142 A 
ATOM     13  C   UNL d   1       3.075   5.780   2.238  0.00  0.00     0.027 A 
ATOM     14  C   UNL d   1       2.143   4.730   2.422  0.00  0.00     0.036 A 
ENDBRANCH   9  10
ENDBRANCH   7   9
ENDBRANCH   5   7
ENDBRANCH   1   5
BRANCH   2  15
ATOM     15  C   UNL d   1      -1.021  -1.456   0.169  0.00  0.00     0.037 A 
ATOM     16  C   UNL d   1      -1.931  -0.862  -0.709  0.00  0.00     0.069 A 
ATOM     17  C   UNL d   1      -3.274  -1.240  -0.696  0.00  0.00     0.104 A 
ATOM     18  O   UNL d   1      -4.114  -0.553  -1.535  0.00  0.00    -0.346 OA
ATOM     19  C   UNL d   1      -3.718  -2.250   0.159  0.00  0.00     0.102 A 
ATOM     20  C   UNL d   1      -5.459  -0.617  -1.053  0.00  0.00     0.202 C 
ATOM     21  C   UNL d   1      -5.851  -2.056  -0.763  0.00  0.00     0.202 C 
ATOM     22  O   UNL d   1      -5.027  -2.640   0.255  0.00  0.00    -0.346 OA
ATOM     23  C   UNL d   1      -2.807  -2.888   0.997  0.00  0.00     0.042 A 
ATOM     24  C   UNL d   1      -1.463  -2.492   1.001  0.00  0.00     0.032 A 
ENDBRANCH   2  15
TORSDOF 5
