REMARK  5 active torsions:
REMARK  status: ('A' for Active; 'I' for Inactive)
REMARK    1  A    between atoms: C_8  and  N_1 
REMARK    2  A    between atoms: C_12  and  C_2 
REMARK    3  A    between atoms: S_13  and  C_5 
REMARK    4  A    between atoms: C_9  and  C_10 
REMARK    5  A    between atoms: O_23  and  C_19 
ROOT
ATOM      1  N   UNL d   1      -0.267  -1.275  -0.011  0.00  0.00    -0.275 N 
ATOM      2  C   UNL d   1       0.998  -0.670   0.008  0.00  0.00     0.139 A 
ATOM      3  N   UNL d   1       0.842   0.643   0.052  0.00  0.00    -0.282 N 
ATOM      4  HN  UNL d   1       1.594   1.327   0.137  1.00  0.00     0.188 HD
ATOM      5  C   UNL d   1      -1.146  -0.201  -0.082  0.00  0.00     0.165 A 
ATOM      6  N   UNL d   1      -0.488   0.932  -0.033  0.00  0.00    -0.278 N 
ATOM      7  HN  UNL d   1      -0.899   1.865  -0.055  1.00  0.00     0.189 HD
ENDROOT
BRANCH   1   8
ATOM      8  C   UNL d   1      -0.560  -2.670   0.040  0.00  0.00     0.044 A 
ATOM      9  C   UNL d   1       0.202  -3.516   0.865  0.00  0.00     0.046 A 
ATOM     10  C   UNL d   1      -0.009  -4.906   0.859  0.00  0.00     0.050 A 
ATOM     11  C   UNL d   1      -1.029  -5.433   0.056  0.00  0.00     0.016 A 
ATOM     12  C   UNL d   1      -1.803  -4.596  -0.747  0.00  0.00     0.003 A 
ATOM     13  C   UNL d   1      -1.560  -3.220  -0.768  0.00  0.00     0.030 A 
BRANCH  10  14
ATOM     14  C   UNL d   1       0.859  -5.833   1.679  0.00  0.00     0.417 C 
ATOM     15  F   UNL d   1       1.853  -5.194   2.353  0.00  0.00    -0.166 F 
ATOM     16  F   UNL d   1       0.148  -6.518   2.615  0.00  0.00    -0.166 F 
ATOM     17  F   UNL d   1       1.475  -6.773   0.910  0.00  0.00    -0.166 F 
ENDBRANCH  10  14
ENDBRANCH   1   8
BRANCH   2  18
ATOM     18  C   UNL d   1       2.313  -1.317  -0.087  0.00  0.00     0.010 A 
ATOM     19  C   UNL d   1       2.551  -2.413  -0.929  0.00  0.00     0.018 A 
ATOM     20  C   UNL d   1       3.807  -3.029  -0.975  0.00  0.00     0.037 A 
ATOM     21  C   UNL d   1       4.862  -2.529  -0.214  0.00  0.00     0.068 A 
ATOM     22  C   UNL d   1       4.649  -1.405   0.585  0.00  0.00     0.037 A 
ATOM     23  C   UNL d   1       3.388  -0.804   0.650  0.00  0.00     0.018 A 
BRANCH  21  24
ATOM     24  O   UNL d   1       6.131  -3.034  -0.174  0.00  0.00    -0.356 OA
ATOM     25  C   UNL d   1       6.385  -4.194  -0.957  0.00  0.00     0.210 C 
ENDBRANCH  21  24
ENDBRANCH   2  18
BRANCH   5  26
ATOM     26  S   UNL d   1      -2.880  -0.260  -0.045  0.00  0.00    -0.105 SA
ATOM     27  H   UNL d   1      -3.059  -1.484   0.468  0.00  0.00     0.110 HD
ENDBRANCH   5  26
TORSDOF 5
