REMARK  4 active torsions:
REMARK  status: ('A' for Active; 'I' for Inactive)
REMARK    1  A    between atoms: S_8  and  C_3 
REMARK    2  A    between atoms: C_7  and  C_4 
REMARK    3  A    between atoms: C_14  and  S_8 
REMARK    4  A    between atoms: C_15  and  N_10 
ROOT
ATOM      1  N   UNL d   1       1.395  -1.250  -0.014  0.00  0.00    -0.329 N 
ATOM      2  HN  UNL d   1       1.477  -2.267  -0.004  1.00  0.00     0.168 HD
ATOM      3  C   UNL d   1       2.403  -0.306  -0.022  0.00  0.00     0.105 A 
ATOM      4  C   UNL d   1       1.909   0.998  -0.034  0.00  0.00     0.090 A 
ATOM      5  C   UNL d   1       0.314  -0.521  -0.023  0.00  0.00     0.156 A 
ATOM      6  N   UNL d   1       0.549   0.820  -0.025  0.00  0.00    -0.298 N 
ATOM      7  S   UNL d   1      -1.387  -0.870  -0.014  0.00  0.00    -0.064 SA
ATOM      8  C   UNL d   1      -0.584   1.610  -0.016  0.00  0.00     0.107 A 
ATOM      9  C   UNL d   1      -1.707   0.872  -0.008  0.00  0.00     0.071 A 
ENDROOT
BRANCH   4  10
ATOM     10  C   UNL d   1       2.616   2.243  -0.058  0.00  0.00     0.121 C 
ATOM     11  N   UNL d   1       1.976   3.364  -0.013  0.00  0.00    -0.364 N 
ATOM     12  HN  UNL d   1       0.958   3.367   0.062  1.00  0.00     0.165 HD
BRANCH  11  13
ATOM     13  C   UNL d   1       2.678   4.579  -0.066  0.00  0.00     0.032 A 
ATOM     14  C   UNL d   1       2.032   5.669  -0.662  0.00  0.00     0.031 A 
ATOM     15  C   UNL d   1       2.647   6.922  -0.733  0.00  0.00     0.026 A 
ATOM     16  C   UNL d   1       3.923   7.093  -0.204  0.00  0.00     0.034 A 
ATOM     17  C   UNL d   1       4.579   6.025   0.402  0.00  0.00     0.026 A 
ATOM     18 CL   UNL d   1       4.687   8.631  -0.285  0.00  0.00    -0.084 Cl
ATOM     19  C   UNL d   1       3.952   4.777   0.482  0.00  0.00     0.031 A 
ENDBRANCH  11  13
ENDBRANCH   4  10
BRANCH   3  20
ATOM     20  S   UNL d   1       4.094  -0.769   0.066  0.00  0.00    -0.070 SA
BRANCH  20  21
ATOM     21  C   UNL d   1       4.345  -1.663  -1.455  0.00  0.00     0.007 A 
ATOM     22  C   UNL d   1       5.328  -1.221  -2.350  0.00  0.00     0.020 A 
ATOM     23  C   UNL d   1       5.573  -1.919  -3.537  0.00  0.00     0.025 A 
ATOM     24  C   UNL d   1       4.840  -3.067  -3.828  0.00  0.00     0.034 A 
ATOM     25  C   UNL d   1       3.871  -3.527  -2.939  0.00  0.00     0.025 A 
ATOM     26 CL   UNL d   1       5.138  -3.924  -5.289  0.00  0.00    -0.084 Cl
ATOM     27  C   UNL d   1       3.629  -2.828  -1.752  0.00  0.00     0.020 A 
ENDBRANCH  20  21
ENDBRANCH   3  20
TORSDOF 4
