REMARK  4 active torsions:
REMARK  status: ('A' for Active; 'I' for Inactive)
REMARK    1  A    between atoms: O_10  and  C_3 
REMARK    2  A    between atoms: S_9  and  C_4 
REMARK    3  A    between atoms: C_11  and  C_5 
REMARK    4  A    between atoms: C_13  and  C_11 
ROOT
ATOM      1  N   UNL d   1      -0.627   1.259  -0.002  0.00  0.00    -0.317 N 
ATOM      2  HN  UNL d   1      -1.109   2.158  -0.008  1.00  0.00     0.170 HD
ATOM      3  C   UNL d   1      -1.275   0.091  -0.014  0.00  0.00     0.150 A 
ATOM      4  C   UNL d   1       0.707   1.154   0.020  0.00  0.00     0.143 A 
ATOM      5  C   UNL d   1      -0.702  -1.165  -0.005  0.00  0.00     0.015 A 
ATOM      6  N   UNL d   1       1.394   0.004   0.032  0.00  0.00    -0.340 N 
ATOM      7  HN  UNL d   1       2.414  -0.003   0.050  1.00  0.00     0.167 HD
ATOM      8  C   UNL d   1       0.685  -1.149   0.020  0.00  0.00     0.018 A 
ATOM      9  C   UNL d   1       1.504  -2.407   0.015  0.00  0.00     0.069 C 
ENDROOT
BRANCH   5  10
ATOM     10  C   UNL d   1      -1.531  -2.419  -0.019  0.00  0.00     0.044 C 
BRANCH  10  11
ATOM     11  C   UNL d   1      -1.811  -3.015   1.365  0.00  0.00     0.000 C 
ATOM     12  C   UNL d   1      -2.716  -2.155   2.236  0.00  0.00     0.005 C 
ENDBRANCH  10  11
ENDBRANCH   5  10
BRANCH   3  13
ATOM     13  O   UNL d   1      -2.626   0.240  -0.039  0.00  0.00    -0.346 OA
ATOM     14  H   UNL d   1      -2.702   1.211  -0.032  0.00  0.00     0.219 HD
ENDBRANCH   3  13
BRANCH   4  15
ATOM     15  S   UNL d   1       1.627   2.663   0.025  0.00  0.00    -0.107 SA
ATOM     16  H   UNL d   1       0.534   3.434   0.004  0.00  0.00     0.110 HD
ENDBRANCH   4  15
TORSDOF 4
