REMARK  6 active torsions:
REMARK  status: ('A' for Active; 'I' for Inactive)
REMARK    1  A    between atoms: C_2  and  S_1 
REMARK    2  A    between atoms: C_4  and  S_1 
REMARK    3  A    between atoms: C_5  and  C_3 
REMARK    4  A    between atoms: O_11  and  C_5 
REMARK    5  A    between atoms: C_18  and  C_9 
REMARK    6  A    between atoms: O_15  and  C_18 
ROOT
ATOM      1  C   UNL d   1       0.570  -0.726  -1.616  0.00  0.00     0.048 A 
ATOM      2  C   UNL d   1       0.906  -2.123  -1.823  0.00  0.00     0.002 A 
ATOM      3  C   UNL d   1       1.593  -3.053  -0.947  0.00  0.00    -0.022 A 
ATOM      4  C   UNL d   1       0.458  -2.677  -3.066  0.00  0.00    -0.024 A 
ATOM      5  C   UNL d   1      -0.026   0.036  -2.648  0.00  0.00     0.022 A 
ATOM      6  C   UNL d   1      -0.350  -0.530  -3.869  0.00  0.00     0.002 A 
ATOM      7  C   UNL d   1       1.121  -4.929  -2.441  0.00  0.00     0.002 A 
ATOM      8  C   UNL d   1       1.654  -4.432  -1.267  0.00  0.00     0.010 A 
ATOM      9  C   UNL d   1       0.553  -4.048  -3.343  0.00  0.00     0.012 A 
ATOM     10  C   UNL d   1      -0.138  -1.885  -4.058  0.00  0.00     0.012 A 
ENDROOT
BRANCH   1  11
ATOM     11  S   UNL d   1       0.455   0.003   0.054  0.00  0.00     0.086 S 
ATOM     12  O   UNL d   1      -0.699   0.966   0.002  0.00  0.00    -0.247 OA
BRANCH  11  13
ATOM     13  C   UNL d   1       1.905   1.102   0.134  0.00  0.00     0.052 A 
ATOM     14  C   UNL d   1       2.369   1.502   1.409  0.00  0.00     0.059 A 
ATOM     15  C   UNL d   1       3.420   2.422   1.547  0.00  0.00     0.019 A 
ATOM     16  C   UNL d   1       4.035   2.941   0.415  0.00  0.00     0.001 A 
ATOM     17  C   UNL d   1       3.608   2.545  -0.847  0.00  0.00     0.002 A 
ATOM     18  C   UNL d   1       2.546   1.639  -0.991  0.00  0.00     0.022 A 
BRANCH  14  19
ATOM     19  C   UNL d   1       1.849   0.876   2.649  0.00  0.00     0.294 C 
ATOM     20  O   UNL d   1       1.713  -0.331   2.774  0.00  0.00    -0.259 OA
BRANCH  19  21
ATOM     21  O   UNL d   1       1.630   1.827   3.587  0.00  0.00    -0.322 OA
ATOM     22  C   UNL d   1       1.162   1.353   4.853  0.00  0.00     0.213 C 
ENDBRANCH  19  21
ENDBRANCH  14  19
ENDBRANCH  11  13
ENDBRANCH   1  11
BRANCH   3  23
ATOM     23  C   UNL d   1       2.283  -2.703   0.353  0.00  0.00     0.203 C 
BRANCH  23  24
ATOM     24  O   UNL d   1       3.078  -1.538   0.251  0.00  0.00    -0.396 OA
ATOM     25  H   UNL d   1       3.225  -1.256   1.173  0.00  0.00     0.209 HD
ENDBRANCH  23  24
ENDBRANCH   3  23
TORSDOF 6
