REMARK  1 active torsions:
REMARK  status: ('A' for Active; 'I' for Inactive)
REMARK    1  A    between atoms: C_6  and  C_7 
ROOT
ATOM      1  C   UNL d   1      -1.396  -0.340   0.010  0.00  0.00     0.178 A 
ATOM      2  N   UNL d   1      -0.666   0.869   0.004  0.00  0.00    -0.326 N 
ATOM      3  N   UNL d   1      -0.455  -1.384   0.012  0.00  0.00    -0.331 N 
ATOM      4  C   UNL d   1       0.823  -0.837   0.008  0.00  0.00     0.062 A 
ATOM      5  C   UNL d   1       0.705   0.553   0.001  0.00  0.00     0.063 A 
ATOM      6  C   UNL d   1       3.192  -0.678   0.006  0.00  0.00     0.050 A 
ATOM      7  C   UNL d   1       2.038  -1.482   0.011  0.00  0.00     0.048 A 
ATOM      8  S   UNL d   1      -3.033  -0.589   0.016  0.00  0.00    -0.040 SA
ATOM      9  C   UNL d   1       1.816   1.366  -0.005  0.00  0.00     0.033 A 
ATOM     10  C   UNL d   1       3.069   0.738  -0.004  0.00  0.00     0.018 A 
ATOM     11  C   UNL d   1      -1.167   2.224   0.015  0.00  0.00     0.159 C 
ATOM     12  H   UNL d   1      -0.692  -2.364   0.017  0.00  0.00     0.168 HD
ENDROOT
BRANCH   6  13
ATOM     13  C   UNL d   1       4.567  -1.306   0.010  0.00  0.00     0.417 C 
ATOM     14  F   UNL d   1       4.543  -2.667   0.028  0.00  0.00    -0.166 F 
ATOM     15  F   UNL d   1       5.299  -0.959  -1.085  0.00  0.00    -0.166 F 
ATOM     16  F   UNL d   1       5.306  -0.930   1.090  0.00  0.00    -0.166 F 
ENDBRANCH   6  13
TORSDOF 1
