REMARK  9 active torsions:
REMARK  status: ('A' for Active; 'I' for Inactive)
REMARK    1  A    between atoms: C_19  and  N_1 
REMARK    2  A    between atoms: C_16  and  C_2 
REMARK    3  A    between atoms: S_10  and  C_5 
REMARK    4  A    between atoms: N_8  and  C_11 
REMARK    5  A    between atoms: C_9  and  C_20 
REMARK       I    between atoms: N_17  and  C_9 
REMARK    6  A    between atoms: C_20  and  S_10 
REMARK    7  A    between atoms: N_12  and  N_17 
REMARK    8  A    between atoms: C_21  and  C_19 
REMARK    9  A    between atoms: C_26  and  C_24 
ROOT
ATOM      1  S   UNL d   1      -2.911   0.008   0.318  0.00  0.00    -0.083 SA
ENDROOT
BRANCH   1   2
ATOM      2  C   UNL d   1      -1.221  -0.245  -0.017  0.00  0.00     0.163 A 
ATOM      3  N   UNL d   1      -0.237   0.700   0.165  0.00  0.00    -0.307 N 
ATOM      4  C   UNL d   1       0.950   0.099  -0.241  0.00  0.00     0.135 A 
ATOM      5  N   UNL d   1       0.652  -1.129  -0.643  0.00  0.00    -0.283 N 
ATOM      6  N   UNL d   1      -0.695  -1.345  -0.495  0.00  0.00    -0.278 N 
ATOM      7  HN  UNL d   1       1.321  -1.809  -1.007  1.00  0.00     0.188 HD
ATOM      8  HN  UNL d   1      -1.196  -2.206  -0.717  1.00  0.00     0.189 HD
BRANCH   3   9
ATOM      9  C   UNL d   1      -0.419   2.038   0.697  0.00  0.00     0.159 C 
BRANCH   9  10
ATOM     10  C   UNL d   1      -0.122   3.171  -0.246  0.00  0.00    -0.017 C 
ATOM     11  C   UNL d   1      -0.177   3.154  -1.585  0.00  0.00     0.008 C 
ENDBRANCH   9  10
ENDBRANCH   3   9
BRANCH   4  12
ATOM     12  C   UNL d   1       2.306   0.684  -0.332  0.00  0.00     0.009 A 
ATOM     13  C   UNL d   1       2.819   1.629   0.568  0.00  0.00     0.015 A 
ATOM     14  C   UNL d   1       4.101   2.171   0.403  0.00  0.00     0.001 A 
ATOM     15  C   UNL d   1       4.912   1.752  -0.647  0.00  0.00     0.000 A 
ATOM     16  C   UNL d   1       4.445   0.780  -1.525  0.00  0.00     0.001 A 
ATOM     17  C   UNL d   1       3.157   0.253  -1.367  0.00  0.00     0.015 A 
ENDBRANCH   4  12
ENDBRANCH   1   2
BRANCH   1  18
ATOM     18  C   UNL d   1      -3.590  -1.649   0.001  0.00  0.00     0.186 C 
BRANCH  18  19
ATOM     19  C   UNL d   1      -5.090  -1.769   0.263  0.00  0.00     0.245 C 
ATOM     20  N   UNL d   1      -5.860  -0.635   0.021  0.00  0.00    -0.270 N 
ATOM     21  H   UNL d   1      -5.420   0.247  -0.206  0.00  0.00     0.190 HD
ATOM     22  O   UNL d   1      -5.568  -2.858   0.591  0.00  0.00    -0.271 OA
BRANCH  20  23
ATOM     23  N   UNL d   1      -7.221  -0.722   0.144  0.00  0.00    -0.308 N 
ATOM     24  C   UNL d   1      -7.912   0.356  -0.032  0.00  0.00     0.118 C 
ATOM     25  HN  UNL d   1      -7.674  -1.608   0.367  1.00  0.00     0.186 HD
BRANCH  24  26
ATOM     26  C   UNL d   1      -9.396   0.334   0.065  0.00  0.00    -0.019 A 
ATOM     27  C   UNL d   1     -10.070  -0.874   0.298  0.00  0.00     0.015 A 
ATOM     28  C   UNL d   1     -11.468  -0.899   0.379  0.00  0.00     0.037 A 
ATOM     29  C   UNL d   1     -12.190   0.289   0.229  0.00  0.00     0.102 A 
ATOM     30  C   UNL d   1     -11.522   1.502  -0.001  0.00  0.00     0.037 A 
ATOM     31  C   UNL d   1     -10.121   1.521  -0.084  0.00  0.00     0.015 A 
BRANCH  29  32
ATOM     32  N   UNL d   1     -13.658   0.268   0.311  0.00  0.00    -0.116 N 
ATOM     33  O   UNL d   1     -14.209  -0.826   0.506  0.00  0.00    -0.532 OA
ATOM     34  O   UNL d   1     -14.258   1.344   0.180  0.00  0.00    -0.532 OA
ENDBRANCH  29  32
ENDBRANCH  24  26
ENDBRANCH  20  23
ENDBRANCH  18  19
ENDBRANCH   1  18
TORSDOF 9
