REMARK  5 active torsions:
REMARK  status: ('A' for Active; 'I' for Inactive)
REMARK       I    between atoms: N_2  and  C_1 
REMARK    1  A    between atoms: C_3  and  C_1 
REMARK    2  A    between atoms: C_4  and  N_2 
REMARK    3  A    between atoms: N_5  and  C_3 
REMARK    4  A    between atoms: C_12  and  N_5 
REMARK    5  A    between atoms: C_15  and  C_12 
ROOT
ATOM      1  C   UNL d   1       1.218   0.200  -0.007  0.00  0.00     0.283 C 
ATOM      2  N   UNL d   1       0.517  -0.362  -1.060  0.00  0.00    -0.320 N 
ATOM      3  O   UNL d   1       2.401   0.512  -0.018  0.00  0.00    -0.265 OA
ATOM      4  H   UNL d   1      -0.487  -0.222  -1.028  0.00  0.00     0.169 HD
ENDROOT
BRANCH   1   5
ATOM      5  C   UNL d   1       0.393   0.493   1.249  0.00  0.00     0.165 C 
ATOM      6  S   UNL d   1      -1.208   0.936   1.079  0.00  0.00    -0.055 SA
BRANCH   5   7
ATOM      7  N   UNL d   1       0.972   0.401   2.490  0.00  0.00    -0.372 N 
ATOM      8  H   UNL d   1       0.392   0.673   3.276  0.00  0.00     0.161 HD
BRANCH   7   9
ATOM      9  C   UNL d   1       2.331  -0.013   2.792  0.00  0.00     0.159 C 
BRANCH   9  10
ATOM     10  C   UNL d   1       2.319  -0.921   3.988  0.00  0.00    -0.041 A 
ATOM     11  C   UNL d   1       2.009  -2.279   3.822  0.00  0.00     0.009 A 
ATOM     12  C   UNL d   1       1.946  -3.130   4.923  0.00  0.00     0.001 A 
ATOM     13  C   UNL d   1       2.187  -2.628   6.201  0.00  0.00     0.000 A 
ATOM     14  C   UNL d   1       2.489  -1.279   6.377  0.00  0.00     0.001 A 
ATOM     15  C   UNL d   1       2.553  -0.425   5.279  0.00  0.00     0.009 A 
ENDBRANCH   9  10
ENDBRANCH   7   9
ENDBRANCH   5   7
ENDBRANCH   1   5
BRANCH   2  16
ATOM     16  C   UNL d   1       1.122  -0.687  -2.288  0.00  0.00     0.043 A 
ATOM     17  C   UNL d   1       2.353  -1.357  -2.298  0.00  0.00     0.072 A 
ATOM     18  C   UNL d   1       2.940  -1.718  -3.503  0.00  0.00     0.118 A 
ATOM     19  F   UNL d   1       4.106  -2.378  -3.499  0.00  0.00    -0.206 F 
ATOM     20  C   UNL d   1       2.331  -1.416  -4.711  0.00  0.00     0.043 A 
ATOM     21  C   UNL d   1       1.109  -0.744  -4.711  0.00  0.00     0.012 A 
ATOM     22  C   UNL d   1       0.488  -0.371  -3.503  0.00  0.00    -0.035 A 
ATOM     23  C   UNL d   1      -0.788   0.422  -3.596  0.00  0.00     0.050 C 
ENDBRANCH   2  16
TORSDOF 5
