REMARK  10 active torsions:
REMARK  status: ('A' for Active; 'I' for Inactive)
REMARK    1  A    between atoms: C_3  and  C_1 
REMARK    2  A    between atoms: C_13  and  N_2 
REMARK    3  A    between atoms: C_21  and  C_8 
REMARK    4  A    between atoms: N_22  and  C_8 
REMARK    5  A    between atoms: N_9  and  O_14 
REMARK    6  A    between atoms: C_11  and  C_12 
REMARK    7  A    between atoms: O_14  and  C_11 
REMARK    8  A    between atoms: C_12  and  C_13 
REMARK    9  A    between atoms: O_23  and  C_21 
REMARK   10  A    between atoms: C_24  and  O_23 
ROOT
ATOM      1  O   UNL d   1      -3.179  -1.009  -0.403  0.00  0.00    -0.199 OA
ENDROOT
BRANCH   1   2
ATOM      2  N   UNL d   1      -2.435  -1.916  -1.189  0.00  0.00    -0.249 N 
ATOM      3  C   UNL d   1      -1.315  -2.286  -0.646  0.00  0.00     0.100 C 
ATOM      4  HN  UNL d   1      -2.750  -2.250  -2.100  1.00  0.00     0.196 HD
BRANCH   3   5
ATOM      5  C   UNL d   1      -0.439  -3.228  -1.475  0.00  0.00     0.247 C 
BRANCH   5   6
ATOM      6  O   UNL d   1      -0.056  -4.295  -0.620  0.00  0.00    -0.344 OA
BRANCH   6   7
ATOM      7  C   UNL d   1       0.824  -5.211  -1.118  0.00  0.00     0.070 A 
ATOM      8  C   UNL d   1       1.417  -5.181  -2.381  0.00  0.00     0.060 A 
ATOM      9  C   UNL d   1       2.320  -6.185  -2.737  0.00  0.00     0.036 A 
ATOM     10 CL   UNL d   1       3.070  -6.143  -4.287  0.00  0.00    -0.084 Cl
ATOM     11  C   UNL d   1       2.631  -7.215  -1.851  0.00  0.00     0.024 A 
ATOM     12  C   UNL d   1       2.031  -7.247  -0.595  0.00  0.00     0.004 A 
ATOM     13  C   UNL d   1       1.131  -6.247  -0.233  0.00  0.00     0.037 A 
ENDBRANCH   6   7
ENDBRANCH   5   6
ENDBRANCH   3   5
BRANCH   3  14
ATOM     14  N   UNL d   1      -0.809  -1.858   0.567  0.00  0.00    -0.289 NA
ATOM     15  H   UNL d   1      -1.134  -0.940   0.842  0.00  0.00     0.125 HD
ATOM     16  H   UNL d   1       0.200  -1.935   0.650  0.00  0.00     0.125 HD
ENDBRANCH   3  14
ENDBRANCH   1   2
BRANCH   1  17
ATOM     17  C   UNL d   1      -2.717   0.269  -0.582  0.00  0.00     0.282 C 
ATOM     18  O   UNL d   1      -1.552   0.578  -0.825  0.00  0.00    -0.263 OA
BRANCH  17  19
ATOM     19  C   UNL d   1      -3.800   1.270  -0.349  0.00  0.00     0.133 C 
BRANCH  19  20
ATOM     20  C   UNL d   1      -3.582   2.450  -1.296  0.00  0.00     0.141 C 
BRANCH  20  21
ATOM     21  N   UNL d   1      -3.763   2.107  -2.713  0.00  0.00    -0.323 N 
ATOM     22  C   UNL d   1      -2.691   2.213  -3.592  0.00  0.00     0.110 A 
ATOM     23  C   UNL d   1      -2.826   1.977  -4.910  0.00  0.00     0.063 A 
ATOM     24  C   UNL d   1      -4.117   1.531  -5.405  0.00  0.00     0.023 A 
ATOM     25  C   UNL d   1      -5.171   1.426  -4.588  0.00  0.00     0.075 A 
ATOM     26  C   UNL d   1      -5.046   1.772  -3.151  0.00  0.00     0.247 A 
ATOM     27  O   UNL d   1      -6.038   1.739  -2.431  0.00  0.00    -0.268 OA
BRANCH  23  28
ATOM     28  C   UNL d   1      -1.702   2.198  -5.884  0.00  0.00     0.418 C 
ATOM     29  F   UNL d   1      -2.075   2.005  -7.177  0.00  0.00    -0.166 F 
ATOM     30  F   UNL d   1      -1.224   3.468  -5.808  0.00  0.00    -0.166 F 
ATOM     31  F   UNL d   1      -0.654   1.369  -5.651  0.00  0.00    -0.166 F 
ENDBRANCH  23  28
ENDBRANCH  20  21
ENDBRANCH  19  20
ENDBRANCH  17  19
ENDBRANCH   1  17
TORSDOF 10
