REMARK  8 active torsions:
REMARK  status: ('A' for Active; 'I' for Inactive)
REMARK    1  A    between atoms: C_2  and  C_1 
REMARK    2  A    between atoms: C_3  and  C_2 
REMARK    3  A    between atoms: N_5  and  C_4 
REMARK       I    between atoms: C_7  and  N_5 
REMARK    4  A    between atoms: C_14  and  N_6 
REMARK    5  A    between atoms: C_19  and  C_7 
REMARK    6  A    between atoms: N_12  and  C_19 
REMARK    7  A    between atoms: C_20  and  N_12 
REMARK    8  A    between atoms: C_25  and  C_14 
ROOT
ATOM      1  N   UNL d   1       6.312  -0.172  -0.542  0.00  0.00    -0.325 N 
ATOM      2  C   UNL d   1       5.442   0.433   0.343  0.00  0.00     0.250 C 
ATOM      3  O   UNL d   1       4.526  -0.171   0.906  0.00  0.00    -0.271 OA
ATOM      4  H   UNL d   1       7.201   0.304  -0.622  0.00  0.00     0.169 HD
ENDROOT
BRANCH   1   5
ATOM      5  C   UNL d   1       6.274  -1.577  -0.760  0.00  0.00     0.049 A 
ATOM      6  C   UNL d   1       5.145  -2.308  -1.200  0.00  0.00     0.043 A 
ATOM      7  C   UNL d   1       5.199  -3.714  -1.235  0.00  0.00     0.041 A 
ATOM      8  C   UNL d   1       6.367  -4.381  -0.885  0.00  0.00     0.035 A 
ATOM      9  C   UNL d   1       7.505  -3.665  -0.530  0.00  0.00     0.026 A 
ATOM     10 CL   UNL d   1       6.419  -6.100  -0.914  0.00  0.00    -0.084 Cl
ATOM     11  C   UNL d   1       7.464  -2.269  -0.483  0.00  0.00     0.032 A 
BRANCH   6  12
ATOM     12  C   UNL d   1       3.905  -1.707  -1.784  0.00  0.00     0.196 C 
ATOM     13  O   UNL d   1       2.842  -2.333  -1.784  0.00  0.00    -0.287 OA
BRANCH  12  14
ATOM     14  C   UNL d   1       3.921  -0.362  -2.393  0.00  0.00     0.037 A 
ATOM     15  C   UNL d   1       4.881   0.047  -3.327  0.00  0.00     0.048 A 
ATOM     16 CL   UNL d   1       5.945  -1.053  -4.130  0.00  0.00    -0.083 Cl
ATOM     17  C   UNL d   1       4.992   1.403  -3.646  0.00  0.00     0.025 A 
ATOM     18  C   UNL d   1       4.114   2.331  -3.083  0.00  0.00     0.002 A 
ATOM     19  C   UNL d   1       3.088   1.905  -2.241  0.00  0.00     0.001 A 
ATOM     20  C   UNL d   1       2.984   0.557  -1.902  0.00  0.00     0.017 A 
ENDBRANCH  12  14
ENDBRANCH   6  12
ENDBRANCH   1   5
BRANCH   2  21
ATOM     21  C   UNL d   1       5.686   1.912   0.679  0.00  0.00     0.372 C 
BRANCH  21  22
ATOM     22  N   UNL d   1       6.586   2.674  -0.215  0.00  0.00     0.097 N 
ATOM     23  H   UNL d   1       6.187   3.612  -0.287  0.00  0.00     0.317 HD
BRANCH  22  24
ATOM     24  C   UNL d   1       8.013   2.810   0.153  0.00  0.00     0.224 C 
ATOM     25  C   UNL d   1       8.382   2.921   1.634  0.00  0.00     0.066 C 
ATOM     26  C   UNL d   1       7.908   4.235   2.247  0.00  0.00     0.275 C 
ATOM     27  N   UNL d   1       8.469   5.425   1.580  0.00  0.00     0.092 N 
ATOM     28  C   UNL d   1       8.254   5.392   0.123  0.00  0.00     0.275 C 
ATOM     29  C   UNL d   1       8.627   4.050  -0.542  0.00  0.00     0.066 C 
BRANCH  27  30
ATOM     30  C   UNL d   1       7.841   6.620   2.197  0.00  0.00     0.311 C 
BRANCH  30  31
ATOM     31  C   UNL d   1       8.428   7.971   1.847  0.00  0.00    -0.030 A 
ATOM     32  C   UNL d   1       7.645   8.929   1.180  0.00  0.00     0.009 A 
ATOM     33  C   UNL d   1       8.119  10.228   0.983  0.00  0.00     0.001 A 
ATOM     34  C   UNL d   1       9.382  10.587   1.447  0.00  0.00     0.000 A 
ATOM     35  C   UNL d   1      10.176   9.644   2.098  0.00  0.00     0.001 A 
ATOM     36  C   UNL d   1       9.704   8.341   2.293  0.00  0.00     0.009 A 
ENDBRANCH  30  31
ENDBRANCH  27  30
ENDBRANCH  22  24
ENDBRANCH  21  22
ENDBRANCH   2  21
TORSDOF 8
