REMARK  1 active torsions:
REMARK  status: ('A' for Active; 'I' for Inactive)
REMARK    1  A    between atoms: C_10  and  N_8 
ROOT
ATOM      1  C   UNL d   1       2.919   1.898   0.530  0.00  0.00     0.165 A 
ATOM      2  S   UNL d   1       1.469   2.838   0.448  0.00  0.00    -0.038 SA
ATOM      3  N   UNL d   1       3.903   2.543   1.123  0.00  0.00    -0.279 N 
ATOM      4  HN  UNL d   1       4.834   2.146   1.250  1.00  0.00     0.189 HD
ATOM      5  N   UNL d   1       3.556   3.803   1.554  0.00  0.00    -0.296 N 
ATOM      6  HN  UNL d   1       4.192   4.438   2.036  1.00  0.00     0.187 HD
ATOM      7  C   UNL d   1       2.307   4.090   1.268  0.00  0.00     0.066 A 
ATOM      8  N   UNL d   1       2.952   0.657  -0.018  0.00  0.00    -0.336 N 
ATOM      9  C   UNL d   1       1.654   5.379   1.607  0.00  0.00     0.078 C 
ATOM     10  H   UNL d   1       2.158   0.358  -0.565  0.00  0.00     0.168 HD
ENDROOT
BRANCH   8  11
ATOM     11  C   UNL d   1       4.018  -0.262   0.035  0.00  0.00     0.034 A 
ATOM     12  C   UNL d   1       4.159  -1.203  -0.997  0.00  0.00     0.036 A 
ATOM     13  C   UNL d   1       5.255  -2.086  -1.053  0.00  0.00    -0.054 A 
ATOM     14  C   UNL d   1       5.371  -3.048  -2.203  0.00  0.00     0.049 C 
ATOM     15  C   UNL d   1       6.233  -2.035  -0.043  0.00  0.00    -0.056 A 
ATOM     16  C   UNL d   1       6.092  -1.105   0.992  0.00  0.00     0.009 A 
ATOM     17  C   UNL d   1       7.436  -2.937  -0.058  0.00  0.00     0.049 C 
ATOM     18  C   UNL d   1       5.006  -0.228   1.022  0.00  0.00     0.030 A 
ENDBRANCH   8  11
TORSDOF 1
