REMARK  8 active torsions:
REMARK  status: ('A' for Active; 'I' for Inactive)
REMARK    1  A    between atoms: N_3  and  S_1 
REMARK    2  A    between atoms: C_12  and  S_1 
REMARK    3  A    between atoms: S_2  and  N_6 
REMARK    4  A    between atoms: C_5  and  S_2 
REMARK    5  A    between atoms: C_4  and  N_3 
REMARK    6  A    between atoms: N_6  and  C_26 
REMARK    7  A    between atoms: O_29  and  C_17 
REMARK    8  A    between atoms: O_30  and  C_20 
ROOT
ATOM      1  C   UNL d   1       0.439  -1.433  -0.496  0.00  0.00     0.075 A 
ATOM      2  C   UNL d   1       1.152  -2.541  -0.033  0.00  0.00     0.027 A 
ATOM      3  C   UNL d   1      -0.667  -1.599  -1.341  0.00  0.00     0.027 A 
ATOM      4  C   UNL d   1      -0.243  -3.976  -1.380  0.00  0.00     0.042 A 
ATOM      5  C   UNL d   1      -1.000  -2.878  -1.798  0.00  0.00     0.031 A 
ATOM      6  C   UNL d   1       0.804  -3.814  -0.477  0.00  0.00     0.031 A 
ENDROOT
BRANCH   1   7
ATOM      7  S   UNL d   1       0.952   0.202   0.014  0.00  0.00     0.248 S 
ATOM      8  O   UNL d   1      -0.204   1.062  -0.057  0.00  0.00    -0.205 OA
ATOM      9  O   UNL d   1       1.663   0.021   1.269  0.00  0.00    -0.205 OA
BRANCH   7  10
ATOM     10  N   UNL d   1       2.111   0.622  -1.130  0.00  0.00    -0.151 NA
ATOM     11  H   UNL d   1       2.821  -0.098  -1.184  0.00  0.00     0.149 HD
BRANCH  10  12
ATOM     12  C   UNL d   1       1.578   0.829  -2.404  0.00  0.00     0.171 A 
ATOM     13  N   UNL d   1       1.091   2.035  -2.679  0.00  0.00    -0.336 N 
ATOM     14  C   UNL d   1       0.493   2.168  -3.878  0.00  0.00     0.009 A 
ATOM     15  HN  UNL d   1       1.165   2.812  -2.022  1.00  0.00     0.168 HD
ATOM     16  C   UNL d   1      -0.046   3.520  -4.232  0.00  0.00     0.068 C 
ATOM     17  C   UNL d   1       0.361   1.109  -4.757  0.00  0.00     0.049 A 
ATOM     18  C   UNL d   1       0.898  -0.102  -4.359  0.00  0.00     0.009 A 
ATOM     19  N   UNL d   1       1.536  -0.257  -3.180  0.00  0.00    -0.336 N 
ATOM     20  C   UNL d   1       0.747  -1.313  -5.231  0.00  0.00     0.068 C 
ATOM     21  HN  UNL d   1       1.958  -1.143  -2.901  1.00  0.00     0.168 HD
ENDBRANCH  10  12
ENDBRANCH   7  10
ENDBRANCH   1   7
BRANCH   4  22
ATOM     22  N   UNL d   1      -0.496  -5.280  -1.870  0.00  0.00    -0.281 N 
ATOM     23  H   UNL d   1      -1.353  -5.763  -1.607  0.00  0.00     0.179 HD
BRANCH  22  24
ATOM     24  S   UNL d   1       0.167  -5.761  -3.336  0.00  0.00     0.263 S 
ATOM     25  O   UNL d   1      -0.353  -7.089  -3.592  0.00  0.00    -0.200 OA
ATOM     26  O   UNL d   1       0.005  -4.703  -4.309  0.00  0.00    -0.200 OA
BRANCH  24  27
ATOM     27  C   UNL d   1       1.904  -5.939  -2.982  0.00  0.00     0.082 A 
ATOM     28  C   UNL d   1       2.396  -7.157  -2.500  0.00  0.00     0.065 A 
ATOM     29  C   UNL d   1       3.778  -7.349  -2.329  0.00  0.00     0.102 A 
ATOM     30  C   UNL d   1       4.662  -6.291  -2.612  0.00  0.00     0.101 A 
ATOM     31  C   UNL d   1       4.146  -5.075  -3.088  0.00  0.00     0.041 A 
ATOM     32  C   UNL d   1       2.777  -4.896  -3.285  0.00  0.00     0.028 A 
BRANCH  29  33
ATOM     33  O   UNL d   1       4.285  -8.525  -1.842  0.00  0.00    -0.353 OA
ATOM     34  C   UNL d   1       3.581  -9.713  -2.193  0.00  0.00     0.210 C 
ENDBRANCH  29  33
BRANCH  30  35
ATOM     35  O   UNL d   1       6.028  -6.260  -2.504  0.00  0.00    -0.353 OA
ATOM     36  C   UNL d   1       6.719  -7.434  -2.106  0.00  0.00     0.210 C 
ENDBRANCH  30  35
ENDBRANCH  24  27
ENDBRANCH  22  24
ENDBRANCH   4  22
TORSDOF 8
