REMARK  5 active torsions:
REMARK  status: ('A' for Active; 'I' for Inactive)
REMARK    1  A    between atoms: C_2  and  C_1 
REMARK    2  A    between atoms: N_3  and  N_12 
REMARK    3  A    between atoms: C_5  and  C_8 
REMARK    4  A    between atoms: O_14  and  C_7 
REMARK    5  A    between atoms: N_12  and  C_13 
ROOT
ATOM      1  N   UNL d   1      -1.115  -1.207  -4.212  0.00  0.00    -0.301 N 
ATOM      2  H   UNL d   1      -1.791  -0.819  -4.869  0.00  0.00     0.187 HD
ENDROOT
BRANCH   1   3
ATOM      3  N   UNL d   1      -1.360  -2.435  -3.688  0.00  0.00    -0.311 N 
ATOM      4  C   UNL d   1      -1.916  -3.278  -4.503  0.00  0.00     0.121 C 
ATOM      5  HN  UNL d   1      -1.124  -2.678  -2.726  1.00  0.00     0.186 HD
BRANCH   4   6
ATOM      6  C   UNL d   1      -2.262  -4.644  -4.062  0.00  0.00     0.014 A 
ATOM      7  C   UNL d   1      -2.073  -5.068  -2.741  0.00  0.00     0.077 A 
ATOM      8  C   UNL d   1      -2.411  -6.365  -2.365  0.00  0.00     0.037 A 
ATOM      9  C   UNL d   1      -2.941  -7.246  -3.307  0.00  0.00     0.003 A 
ATOM     10  C   UNL d   1      -3.133  -6.829  -4.625  0.00  0.00     0.001 A 
ATOM     11  C   UNL d   1      -2.797  -5.527  -5.006  0.00  0.00     0.015 A 
BRANCH   7  12
ATOM     12  O   UNL d   1      -1.563  -4.260  -1.761  0.00  0.00    -0.360 OA
ATOM     13  H   UNL d   1      -1.364  -3.390  -2.175  0.00  0.00     0.217 HD
ENDBRANCH   7  12
ENDBRANCH   4   6
ENDBRANCH   1   3
BRANCH   1  14
ATOM     14  C   UNL d   1      -0.559  -0.235  -3.349  0.00  0.00     0.048 A 
ATOM     15  C   UNL d   1       0.197  -0.591  -2.223  0.00  0.00     0.047 A 
ATOM     16  C   UNL d   1       0.792   0.381  -1.403  0.00  0.00     0.050 A 
ATOM     17  C   UNL d   1       0.634   1.734  -1.731  0.00  0.00     0.016 A 
ATOM     18  C   UNL d   1      -0.093   2.103  -2.862  0.00  0.00     0.003 A 
ATOM     19  C   UNL d   1      -0.673   1.123  -3.670  0.00  0.00     0.031 A 
BRANCH  16  20
ATOM     20  C   UNL d   1       1.601  -0.014  -0.193  0.00  0.00     0.417 C 
ATOM     21  F   UNL d   1       1.683  -1.359   0.004  0.00  0.00    -0.166 F 
ATOM     22  F   UNL d   1       1.095   0.501   0.962  0.00  0.00    -0.166 F 
ATOM     23  F   UNL d   1       2.889   0.429  -0.263  0.00  0.00    -0.166 F 
ENDBRANCH  16  20
ENDBRANCH   1  14
TORSDOF 5
