REMARK  2 active torsions:
REMARK  status: ('A' for Active; 'I' for Inactive)
REMARK    1  A    between atoms: C_2  and  N_1 
REMARK    2  A    between atoms: C_8  and  C_5 
ROOT
ATOM      1  C   UNL d   1      -2.903   0.171  -0.689  0.00  0.00     0.045 A 
ATOM      2  N   UNL d   1      -5.129   0.308  -2.438  0.00  0.00    -0.352 N 
ATOM      3  HN  UNL d   1      -5.908   0.331  -3.095  1.00  0.00     0.166 HD
ATOM      4  C   UNL d   1      -4.116   1.200  -2.536  0.00  0.00     0.119 A 
ATOM      5  C   UNL d   1      -4.021  -0.707  -0.531  0.00  0.00     0.017 A 
ATOM      6  C   UNL d   1      -5.085  -0.606  -1.459  0.00  0.00     0.045 A 
ATOM      7  C   UNL d   1      -3.015   1.155  -1.685  0.00  0.00     0.064 A 
ATOM      8  C   UNL d   1      -4.173  -1.651   0.519  0.00  0.00     0.016 A 
ATOM      9  C   UNL d   1      -6.169  -1.470  -1.364  0.00  0.00     0.037 A 
ATOM     10  C   UNL d   1      -5.272  -2.507   0.600  0.00  0.00     0.008 A 
ATOM     11  C   UNL d   1      -6.284  -2.426  -0.346  0.00  0.00    -0.060 A 
ATOM     12  C   UNL d   1      -7.484  -3.319  -0.280  0.00  0.00     0.048 C 
ENDROOT
BRANCH   1  13
ATOM     13  N   UNL d   1      -1.720   0.088   0.059  0.00  0.00    -0.379 N 
ATOM     14  C   UNL d   1      -0.987   1.299   0.438  0.00  0.00     0.127 C 
ATOM     15  C   UNL d   1       0.418   1.391  -0.199  0.00  0.00     0.003 C 
ATOM     16  C   UNL d   1       1.476   0.848   0.767  0.00  0.00     0.007 C 
ATOM     17  C   UNL d   1       0.565   0.657  -1.544  0.00  0.00     0.007 C 
ATOM     18  C   UNL d   1       1.269  -0.635   1.066  0.00  0.00     0.007 C 
ATOM     19  C   UNL d   1       0.372  -1.343   0.037  0.00  0.00     0.003 C 
ATOM     20  C   UNL d   1      -1.126  -1.219   0.377  0.00  0.00     0.127 C 
ATOM     21  C   UNL d   1       0.675  -0.865  -1.387  0.00  0.00     0.007 C 
ENDBRANCH   1  13
BRANCH   4  22
ATOM     22  C   UNL d   1      -4.163   2.285  -3.601  0.00  0.00     0.432 C 
ATOM     23  F   UNL d   1      -5.227   2.204  -4.449  0.00  0.00    -0.165 F 
ATOM     24  F   UNL d   1      -4.212   3.540  -3.063  0.00  0.00    -0.165 F 
ATOM     25  F   UNL d   1      -3.054   2.280  -4.400  0.00  0.00    -0.165 F 
ENDBRANCH   4  22
TORSDOF 2
