REMARK  10 active torsions:
REMARK  status: ('A' for Active; 'I' for Inactive)
REMARK    1  A    between atoms: C_12  and  S_1 
REMARK    2  A    between atoms: N_19  and  S_1 
REMARK    3  A    between atoms: S_2  and  C_13 
REMARK    4  A    between atoms: N_20  and  S_2 
REMARK    5  A    between atoms: N_11  and  C_6 
REMARK    6  A    between atoms: N_10  and  C_7 
REMARK    7  A    between atoms: C_33  and  N_19 
REMARK    8  A    between atoms: C_34  and  N_20 
REMARK    9  A    between atoms: C_35  and  C_33 
REMARK   10  A    between atoms: C_36  and  C_34 
ROOT
ATOM      1  C   UNL d   1      -0.700  -4.349  -0.514  0.00  0.00     0.022 C 
ATOM      2  C   UNL d   1      -0.955  -5.813  -0.453  0.00  0.00     0.022 C 
ATOM      3  C   UNL d   1       1.379  -5.450  -0.347  0.00  0.00     0.018 C 
ATOM      4  C   UNL d   1      -2.116  -6.600  -0.317  0.00  0.00     0.116 C 
ATOM      5  C   UNL d   1      -1.505  -3.224  -0.761  0.00  0.00     0.116 C 
ATOM      6  C   UNL d   1       0.690  -4.115  -0.316  0.00  0.00    -0.008 C 
ATOM      7  C   UNL d   1       0.297  -6.491  -0.389  0.00  0.00    -0.008 C 
ATOM      8  C   UNL d   1       0.331  -1.736  -0.211  0.00  0.00     0.082 C 
ATOM      9  C   UNL d   1      -0.797  -8.637  -0.296  0.00  0.00     0.082 C 
ATOM     10  C   UNL d   1      -2.042  -8.007  -0.310  0.00  0.00     0.062 C 
ATOM     11  C   UNL d   1      -1.010  -1.922  -0.549  0.00  0.00     0.062 C 
ATOM     12  C   UNL d   1       2.724  -5.673  -0.425  0.00  0.00     0.136 C 
ATOM     13  C   UNL d   1       0.372  -7.878  -0.268  0.00  0.00     0.038 C 
ATOM     14  C   UNL d   1       1.199  -2.826  -0.164  0.00  0.00     0.038 C 
ATOM     15  C   UNL d   1       3.689  -4.625  -0.436  0.00  0.00     0.111 C 
ATOM     16  C   UNL d   1       3.309  -6.966  -0.529  0.00  0.00     0.111 C 
ATOM     17  N   UNL d   1       4.481  -3.780  -0.425  0.00  0.00    -0.191 NA
ATOM     18  N   UNL d   1       3.788  -8.026  -0.616  0.00  0.00    -0.191 NA
ENDROOT
BRANCH   5  19
ATOM     19  N   UNL d   1      -2.789  -3.320  -1.465  0.00  0.00    -0.115 N 
ATOM     20  O   UNL d   1      -2.959  -4.312  -2.191  0.00  0.00    -0.532 OA
ATOM     21  O   UNL d   1      -3.584  -2.377  -1.353  0.00  0.00    -0.532 OA
ENDBRANCH   5  19
BRANCH   8  22
ATOM     22  S   UNL d   1       0.967  -0.074  -0.017  0.00  0.00     0.259 S 
ATOM     23  O   UNL d   1      -0.177   0.807  -0.056  0.00  0.00    -0.201 OA
ATOM     24  O   UNL d   1       2.075   0.053  -0.934  0.00  0.00    -0.201 OA
BRANCH  22  25
ATOM     25  N   UNL d   1       1.537  -0.048   1.564  0.00  0.00    -0.311 N 
ATOM     26  H   UNL d   1       0.875  -0.393   2.257  0.00  0.00     0.172 HD
BRANCH  25  27
ATOM     27  C   UNL d   1       2.940  -0.425   1.778  0.00  0.00     0.170 C 
BRANCH  27  28
ATOM     28  C   UNL d   1       3.378  -0.382   3.223  0.00  0.00    -0.040 A 
ATOM     29  C   UNL d   1       4.379  -1.267   3.659  0.00  0.00     0.009 A 
ATOM     30  C   UNL d   1       4.888  -1.186   4.955  0.00  0.00     0.001 A 
ATOM     31  C   UNL d   1       4.407  -0.218   5.831  0.00  0.00     0.000 A 
ATOM     32  C   UNL d   1       3.411   0.664   5.415  0.00  0.00     0.001 A 
ATOM     33  C   UNL d   1       2.902   0.588   4.116  0.00  0.00     0.009 A 
ENDBRANCH  27  28
ENDBRANCH  25  27
ENDBRANCH  22  25
ENDBRANCH   8  22
BRANCH   9  34
ATOM     34  S   UNL d   1      -0.708 -10.413  -0.123  0.00  0.00     0.259 S 
ATOM     35  O   UNL d   1       0.105 -10.670   1.042  0.00  0.00    -0.201 OA
ATOM     36  O   UNL d   1      -2.061 -10.904  -0.249  0.00  0.00    -0.201 OA
BRANCH  34  37
ATOM     37  N   UNL d   1       0.114 -10.895  -1.509  0.00  0.00    -0.311 N 
ATOM     38  H   UNL d   1      -0.198 -10.422  -2.356  0.00  0.00     0.172 HD
BRANCH  37  39
ATOM     39  C   UNL d   1       1.576 -11.027  -1.399  0.00  0.00     0.170 C 
BRANCH  39  40
ATOM     40  C   UNL d   1       2.236 -11.495  -2.674  0.00  0.00    -0.040 A 
ATOM     41  C   UNL d   1       3.535 -11.055  -2.979  0.00  0.00     0.009 A 
ATOM     42  C   UNL d   1       4.210 -11.548  -4.096  0.00  0.00     0.001 A 
ATOM     43  C   UNL d   1       3.596 -12.489  -4.918  0.00  0.00     0.000 A 
ATOM     44  C   UNL d   1       2.307 -12.931  -4.630  0.00  0.00     0.001 A 
ATOM     45  C   UNL d   1       1.631 -12.442  -3.511  0.00  0.00     0.009 A 
ENDBRANCH  39  40
ENDBRANCH  37  39
ENDBRANCH  34  37
ENDBRANCH   9  34
BRANCH   4  46
ATOM     46  N   UNL d   1      -3.413  -6.038   0.065  0.00  0.00    -0.115 N 
ATOM     47  O   UNL d   1      -3.399  -5.015   0.764  0.00  0.00    -0.532 OA
ATOM     48  O   UNL d   1      -4.431  -6.659  -0.266  0.00  0.00    -0.532 OA
ENDBRANCH   4  46
TORSDOF 10
