REMARK  2 active torsions:
REMARK  status: ('A' for Active; 'I' for Inactive)
REMARK       I    between atoms: N_2  and  C_1 
REMARK    1  A    between atoms: C_4  and  C_1 
REMARK    2  A    between atoms: O_15  and  C_13 
ROOT
ATOM      1  C   UNL d   1       1.014   0.173  -0.085  0.00  0.00     0.253 C 
ATOM      2  N   UNL d   1       0.286   0.836   0.905  0.00  0.00    -0.348 N 
ATOM      3  C   UNL d   1      -1.663   2.608   2.047  0.00  0.00     0.167 C 
ATOM      4  C   UNL d   1      -2.020   1.173   1.659  0.00  0.00     0.088 C 
ATOM      5  C   UNL d   1      -0.450   3.131   1.270  0.00  0.00     0.088 C 
ATOM      6  C   UNL d   1       0.722   2.160   1.335  0.00  0.00     0.131 C 
ATOM      7  C   UNL d   1      -0.791   0.273   1.722  0.00  0.00     0.131 C 
ATOM      8  O   UNL d   1      -2.783   3.465   1.754  0.00  0.00    -0.353 OA
ATOM      9  O   UNL d   1      -1.394   2.647   3.460  0.00  0.00    -0.353 OA
ATOM     10  O   UNL d   1       2.104   0.559  -0.495  0.00  0.00    -0.267 OA
ATOM     11  C   UNL d   1      -2.123   3.776   3.938  0.00  0.00     0.197 C 
ATOM     12  C   UNL d   1      -3.315   3.836   3.023  0.00  0.00     0.197 C 
ENDROOT
BRANCH   1  13
ATOM     13  C   UNL d   1       0.433  -1.052  -0.712  0.00  0.00     0.034 A 
ATOM     14  C   UNL d   1       1.285  -2.113  -1.052  0.00  0.00     0.053 A 
ATOM     15  C   UNL d   1       0.760  -3.264  -1.642  0.00  0.00     0.069 A 
ATOM     16  C   UNL d   1      -0.615  -3.350  -1.885  0.00  0.00     0.037 A 
ATOM     17  C   UNL d   1      -1.460  -2.287  -1.581  0.00  0.00     0.004 A 
ATOM     18  C   UNL d   1      -0.929  -1.125  -1.031  0.00  0.00     0.017 A 
BRANCH  15  19
ATOM     19  O   UNL d   1       1.468  -4.371  -2.022  0.00  0.00    -0.356 OA
ATOM     20  C   UNL d   1       2.877  -4.326  -1.843  0.00  0.00     0.210 C 
ENDBRANCH  15  19
ENDBRANCH   1  13
TORSDOF 2
