REMARK  4 active torsions:
REMARK  status: ('A' for Active; 'I' for Inactive)
REMARK    1  A    between atoms: C_8  and  C_2 
REMARK    2  A    between atoms: S_9  and  C_5 
REMARK    3  A    between atoms: C_18  and  S_9 
REMARK    4  A    between atoms: C_19  and  C_18 
ROOT
ATOM      1  N   UNL d   1       0.843   0.002   0.021  0.00  0.00    -0.315 N 
ATOM      2  C   UNL d   1       0.020   1.101  -0.138  0.00  0.00     0.134 A 
ATOM      3  N   UNL d   1      -1.226   0.662  -0.231  0.00  0.00    -0.283 N 
ATOM      4  HN  UNL d   1      -2.057   1.249  -0.309  1.00  0.00     0.188 HD
ATOM      5  C   UNL d   1       0.026  -1.094  -0.064  0.00  0.00     0.162 A 
ATOM      6  N   UNL d   1      -1.218  -0.712  -0.206  0.00  0.00    -0.278 N 
ATOM      7  HN  UNL d   1      -2.032  -1.321  -0.284  1.00  0.00     0.189 HD
ATOM      8  C   UNL d   1       2.263  -0.018   0.263  0.00  0.00     0.160 C 
ENDROOT
BRANCH   2   9
ATOM      9  C   UNL d   1       0.409   2.515  -0.160  0.00  0.00     0.010 A 
ATOM     10  C   UNL d   1      -0.408   3.470   0.463  0.00  0.00     0.029 A 
ATOM     11  C   UNL d   1      -0.057   4.835   0.476  0.00  0.00    -0.009 A 
ATOM     12  C   UNL d   1      -0.859   5.807   1.095  0.00  0.00     0.015 A 
ATOM     13  C   UNL d   1       1.131   5.267  -0.145  0.00  0.00     0.042 A 
ATOM     14  C   UNL d   1      -0.459   7.138   1.095  0.00  0.00     0.018 A 
ATOM     15  C   UNL d   1       0.734   7.456   0.474  0.00  0.00     0.088 A 
ATOM     16  N   UNL d   1       1.526   6.553  -0.142  0.00  0.00    -0.365 N 
ATOM     17  HN  UNL d   1       2.397   6.836  -0.591  1.00  0.00     0.165 HD
ATOM     18  C   UNL d   1       1.912   4.320  -0.788  0.00  0.00     0.031 A 
ATOM     19  C   UNL d   1       1.557   2.965  -0.818  0.00  0.00     0.017 A 
ENDBRANCH   2   9
BRANCH   5  20
ATOM     20  S   UNL d   1       0.600  -2.724   0.024  0.00  0.00    -0.088 SA
BRANCH  20  21
ATOM     21  C   UNL d   1      -0.781  -3.611  -0.757  0.00  0.00     0.121 C 
BRANCH  21  22
ATOM     22  C   UNL d   1      -0.562  -5.106  -0.732  0.00  0.00    -0.049 A 
ATOM     23  C   UNL d   1      -1.091  -5.883   0.310  0.00  0.00     0.008 A 
ATOM     24  C   UNL d   1      -0.895  -7.265   0.336  0.00  0.00     0.001 A 
ATOM     25  C   UNL d   1      -0.163  -7.885  -0.675  0.00  0.00     0.000 A 
ATOM     26  C   UNL d   1       0.379  -7.124  -1.709  0.00  0.00     0.001 A 
ATOM     27  C   UNL d   1       0.183  -5.741  -1.737  0.00  0.00     0.008 A 
ENDBRANCH  21  22
ENDBRANCH  20  21
ENDBRANCH   5  20
TORSDOF 4
