REMARK  7 active torsions:
REMARK  status: ('A' for Active; 'I' for Inactive)
REMARK    1  A    between atoms: O_11  and  C_1 
REMARK    2  A    between atoms: O_13  and  C_2 
REMARK    3  A    between atoms: O_14  and  C_3 
REMARK    4  A    between atoms: C_10  and  C_4 
REMARK    5  A    between atoms: N_9  and  C_10 
REMARK    6  A    between atoms: C_12  and  N_9 
REMARK    7  A    between atoms: C_15  and  C_12 
ROOT
ATOM      1  N   UNL d   1      -3.868  -0.498  -2.459  0.00  0.00    -0.195 NA
ATOM      2  C   UNL d   1      -3.419  -0.017  -1.497  0.00  0.00     0.100 C 
ATOM      3  C   UNL d   1      -2.825   0.562  -0.258  0.00  0.00     0.359 C 
ENDROOT
BRANCH   3   4
ATOM      4  N   UNL d   1      -3.565   0.108   0.937  0.00  0.00     0.110 N 
ATOM      5  H   UNL d   1      -3.494  -0.902   1.034  0.00  0.00     0.318 HD
BRANCH   4   6
ATOM      6  C   UNL d   1      -3.122   0.744   2.176  0.00  0.00     0.310 C 
BRANCH   6   7
ATOM      7  C   UNL d   1      -3.987   0.311   3.340  0.00  0.00    -0.030 A 
ATOM      8  C   UNL d   1      -3.429  -0.357   4.440  0.00  0.00     0.009 A 
ATOM      9  C   UNL d   1      -4.228  -0.734   5.522  0.00  0.00     0.001 A 
ATOM     10  C   UNL d   1      -5.592  -0.449   5.517  0.00  0.00     0.000 A 
ATOM     11  C   UNL d   1      -6.159   0.211   4.430  0.00  0.00     0.001 A 
ATOM     12  C   UNL d   1      -5.362   0.591   3.349  0.00  0.00     0.009 A 
ENDBRANCH   6   7
ENDBRANCH   4   6
ENDBRANCH   3   4
BRANCH   3  13
ATOM     13  C   UNL d   1      -1.336   0.242  -0.188  0.00  0.00    -0.006 A 
ATOM     14  C   UNL d   1      -0.387   1.270  -0.151  0.00  0.00     0.050 A 
ATOM     15  C   UNL d   1       0.988   0.994  -0.100  0.00  0.00     0.104 A 
ATOM     16  C   UNL d   1       1.435  -0.338  -0.046  0.00  0.00     0.135 A 
ATOM     17  C   UNL d   1       0.481  -1.377   0.021  0.00  0.00     0.104 A 
ATOM     18  C   UNL d   1      -0.882  -1.083  -0.114  0.00  0.00     0.050 A 
BRANCH  15  19
ATOM     19  O   UNL d   1       1.751   2.130  -0.018  0.00  0.00    -0.353 OA
ATOM     20  C   UNL d   1       3.001   2.110  -0.694  0.00  0.00     0.210 C 
ENDBRANCH  15  19
BRANCH  16  21
ATOM     21  O   UNL d   1       2.776  -0.580   0.121  0.00  0.00    -0.351 OA
ATOM     22  C   UNL d   1       3.347  -1.483  -0.829  0.00  0.00     0.210 C 
ENDBRANCH  16  21
BRANCH  17  23
ATOM     23  O   UNL d   1       0.936  -2.651   0.264  0.00  0.00    -0.353 OA
ATOM     24  C   UNL d   1      -0.012  -3.578   0.784  0.00  0.00     0.210 C 
ENDBRANCH  17  23
ENDBRANCH   3  13
TORSDOF 7
