REMARK  5 active torsions:
REMARK  status: ('A' for Active; 'I' for Inactive)
REMARK    1  A    between atoms: C_2  and  N_1 
REMARK       I    between atoms: C_3  and  N_1 
REMARK    2  A    between atoms: C_6  and  C_3 
REMARK    3  A    between atoms: C_11  and  C_4 
REMARK    4  A    between atoms: C_12  and  C_5 
REMARK    5  A    between atoms: C_16  and  C_10 
ROOT
ATOM      1  C   UNL d   1       0.480   0.013   1.319  0.00  0.00     0.047 A 
ATOM      2  C   UNL d   1       0.808   0.840   2.420  0.00  0.00    -0.031 A 
ATOM      3  C   UNL d   1      -0.631  -0.858   1.386  0.00  0.00    -0.031 A 
ATOM      4  C   UNL d   1      -0.012   0.800   3.567  0.00  0.00     0.016 A 
ATOM      5  C   UNL d   1      -1.409  -0.876   2.558  0.00  0.00     0.016 A 
ATOM      6  C   UNL d   1      -1.126  -0.042   3.642  0.00  0.00    -0.057 A 
ENDROOT
BRANCH   1   7
ATOM      7  N   UNL d   1       1.207   0.121   0.107  0.00  0.00    -0.326 N 
ATOM      8  C   UNL d   1       2.463  -0.469  -0.014  0.00  0.00     0.229 C 
ATOM      9  O   UNL d   1       3.020  -1.071   0.902  0.00  0.00    -0.272 OA
ATOM     10  H   UNL d   1       0.644   0.054  -0.728  0.00  0.00     0.169 HD
BRANCH   8  11
ATOM     11  C   UNL d   1       3.157  -0.246  -1.382  0.00  0.00     0.030 C 
ATOM     12  C   UNL d   1       3.567   1.231  -1.479  0.00  0.00     0.025 C 
ATOM     13  C   UNL d   1       4.425  -1.117  -1.452  0.00  0.00     0.025 C 
ATOM     14  C   UNL d   1       2.263  -0.612  -2.578  0.00  0.00     0.025 C 
ENDBRANCH   8  11
ENDBRANCH   1   7
BRANCH   2  15
ATOM     15  C   UNL d   1       1.937   1.852   2.392  0.00  0.00     0.036 C 
ATOM     16  C   UNL d   1       2.943   1.684   3.526  0.00  0.00     0.010 C 
ENDBRANCH   2  15
BRANCH   3  17
ATOM     17  C   UNL d   1      -0.951  -1.876   0.309  0.00  0.00     0.036 C 
ATOM     18  C   UNL d   1      -2.345  -1.721  -0.286  0.00  0.00     0.010 C 
ENDBRANCH   3  17
BRANCH   6  19
ATOM     19  C   UNL d   1      -1.992  -0.060   4.875  0.00  0.00     0.034 C 
ATOM     20  C   UNL d   1      -1.526  -1.081   5.899  0.00  0.00     0.010 C 
ENDBRANCH   6  19
TORSDOF 5
