REMARK  4 active torsions:
REMARK  status: ('A' for Active; 'I' for Inactive)
REMARK    1  A    between atoms: C_7  and  C_1 
REMARK    2  A    between atoms: C_8  and  N_2 
REMARK       I    between atoms: N_10  and  C_7 
REMARK    3  A    between atoms: C_21  and  N_10 
REMARK    4  A    between atoms: C_20  and  C_21 
ROOT
ATOM      1  C   UNL d   1      -0.190   1.149  -0.029  0.00  0.00     0.073 A 
ATOM      2  N   UNL d   1       1.016  -0.726   0.021  0.00  0.00    -0.260 N 
ATOM      3  C   UNL d   1       1.118   0.670   0.008  0.00  0.00     0.048 A 
ATOM      4  N   UNL d   1      -0.255  -1.141  -0.144  0.00  0.00    -0.304 N 
ATOM      5  HN  UNL d   1      -0.589  -2.097  -0.268  1.00  0.00     0.186 HD
ATOM      6  C   UNL d   1      -0.978  -0.023  -0.109  0.00  0.00     0.126 A 
ATOM      7  C   UNL d   1       2.411   1.395  -0.109  0.00  0.00     0.071 C 
ENDROOT
BRANCH   1   8
ATOM      8  C   UNL d   1      -0.763   2.490  -0.088  0.00  0.00     0.255 C 
ATOM      9  N   UNL d   1       0.065   3.589   0.073  0.00  0.00    -0.353 N 
ATOM     10  H   UNL d   1       0.995   3.476   0.442  0.00  0.00     0.163 HD
ATOM     11  O   UNL d   1      -1.974   2.630  -0.264  0.00  0.00    -0.268 OA
BRANCH   9  12
ATOM     12  C   UNL d   1      -0.581   4.883   0.115  0.00  0.00     0.161 C 
BRANCH  12  13
ATOM     13  C   UNL d   1       0.296   6.101   0.270  0.00  0.00    -0.038 A 
ATOM     14  C   UNL d   1       1.566   6.224  -0.315  0.00  0.00     0.048 A 
ATOM     15  C   UNL d   1       2.219   7.439  -0.208  0.00  0.00     0.105 A 
ATOM     16  O   UNL d   1       3.443   7.737  -0.726  0.00  0.00    -0.323 OA
ATOM     17  C   UNL d   1       1.657   8.519   0.435  0.00  0.00     0.105 A 
ATOM     18  C   UNL d   1       3.572   9.127  -0.353  0.00  0.00     0.352 A 
ATOM     19  O   UNL d   1       2.450   9.622   0.405  0.00  0.00    -0.323 OA
ATOM     20  C   UNL d   1       0.412   8.447   1.013  0.00  0.00     0.040 A 
ATOM     21  C   UNL d   1      -0.269   7.231   0.922  0.00  0.00     0.012 A 
ENDBRANCH  12  13
ENDBRANCH   9  12
ENDBRANCH   1   8
BRANCH   2  22
ATOM     22  C   UNL d   1       2.062  -1.692   0.074  0.00  0.00     0.056 A 
ATOM     23  C   UNL d   1       3.222  -1.458   0.822  0.00  0.00     0.034 A 
ATOM     24  C   UNL d   1       4.304  -2.333   0.715  0.00  0.00     0.044 A 
ATOM     25  C   UNL d   1       4.213  -3.439  -0.121  0.00  0.00     0.116 A 
ATOM     26  C   UNL d   1       3.037  -3.727  -0.806  0.00  0.00     0.044 A 
ATOM     27  F   UNL d   1       5.278  -4.236  -0.276  0.00  0.00    -0.206 F 
ATOM     28  C   UNL d   1       1.944  -2.865  -0.691  0.00  0.00     0.034 A 
ENDBRANCH   2  22
TORSDOF 4
