REMARK  4 active torsions:
REMARK  status: ('A' for Active; 'I' for Inactive)
REMARK    1  A    between atoms: C_3  and  C_1 
REMARK    2  A    between atoms: O_13  and  C_3 
REMARK    3  A    between atoms: C_7  and  C_14 
REMARK    4  A    between atoms: N_10  and  O_13 
ROOT
ATOM      1  N   UNL d   1      -3.735   3.506  -0.021  0.00  0.00    -0.268 N 
ATOM      2  HN  UNL d   1      -3.262   4.405  -0.104  1.00  0.00     0.194 HD
ATOM      3  C   UNL d   1      -5.021   3.374   0.026  0.00  0.00     0.127 C 
ENDROOT
BRANCH   1   4
ATOM      4  O   UNL d   1      -3.056   2.265   0.056  0.00  0.00    -0.195 OA
BRANCH   4   5
ATOM      5  C   UNL d   1      -1.690   2.520   0.020  0.00  0.00     0.322 C 
ATOM      6  O   UNL d   1      -1.195   3.640  -0.056  0.00  0.00    -0.257 OA
BRANCH   5   7
ATOM      7  C   UNL d   1      -0.876   1.312   0.086  0.00  0.00     0.082 A 
ATOM      8  S   UNL d   1      -1.498  -0.274   0.188  0.00  0.00    -0.095 SA
ATOM      9  C   UNL d   1       0.073  -0.963   0.221  0.00  0.00     0.057 A 
ATOM     10  C   UNL d   1       1.076  -0.015   0.157  0.00  0.00    -0.054 A 
ATOM     11  C   UNL d   1       0.510   1.295   0.074  0.00  0.00     0.032 A 
ATOM     12  C   UNL d   1       2.541  -0.305   0.171  0.00  0.00     0.048 C 
ENDBRANCH   5   7
ENDBRANCH   4   5
ENDBRANCH   1   4
BRANCH   3  13
ATOM     13  C   UNL d   1      -5.891   4.576  -0.070  0.00  0.00     0.003 A 
ATOM     14  C   UNL d   1      -7.290   4.503  -0.037  0.00  0.00     0.047 A 
ATOM     15  C   UNL d   1      -8.059   5.665  -0.183  0.00  0.00     0.048 A 
ATOM     16 CL   UNL d   1      -8.152   3.028   0.221  0.00  0.00    -0.083 Cl
ATOM     17  C   UNL d   1      -7.432   6.899  -0.337  0.00  0.00     0.035 A 
ATOM     18  C   UNL d   1      -6.043   6.988  -0.343  0.00  0.00     0.025 A 
ATOM     19 CL   UNL d   1      -8.380   8.323  -0.512  0.00  0.00    -0.084 Cl
ATOM     20  C   UNL d   1      -5.274   5.831  -0.212  0.00  0.00     0.016 A 
ENDBRANCH   3  13
TORSDOF 4
