REMARK  3 active torsions:
REMARK  status: ('A' for Active; 'I' for Inactive)
REMARK       I    between atoms: N_2  and  C_1 
REMARK       I    between atoms: N_6  and  C_1 
REMARK    1  A    between atoms: C_4  and  N_2 
REMARK    2  A    between atoms: N_3  and  C_5 
REMARK    3  A    between atoms: C_8  and  N_6 
ROOT
ATOM      1  C   UNL d   1       0.619   0.698   1.071  0.00  0.00     0.303 C 
ATOM      2  N   UNL d   1       0.117   1.361  -0.051  0.00  0.00    -0.208 NA
ATOM      3  N   UNL d   1      -0.323  -0.230   1.498  0.00  0.00    -0.313 N 
ATOM      4  O   UNL d   1       1.684   0.943   1.620  0.00  0.00    -0.253 OA
ATOM      5  H   UNL d   1      -0.849   1.602   0.119  0.00  0.00     0.138 HD
ATOM      6  H   UNL d   1      -1.010  -0.479   0.802  0.00  0.00     0.170 HD
ENDROOT
BRANCH   2   7
ATOM      7  C   UNL d   1       0.862   2.420  -0.634  0.00  0.00     0.043 A 
ATOM      8  C   UNL d   1       2.016   2.206  -1.431  0.00  0.00     0.052 A 
ATOM      9  C   UNL d   1       2.664   3.363  -1.903  0.00  0.00     0.031 A 
ATOM     10  C   UNL d   1       2.217   4.653  -1.598  0.00  0.00     0.002 A 
ATOM     11  C   UNL d   1       1.083   4.831  -0.817  0.00  0.00     0.002 A 
ATOM     12  C   UNL d   1       0.396   3.717  -0.355  0.00  0.00     0.026 A 
BRANCH   8  13
ATOM     13  N   UNL d   1       2.509   0.938  -1.723  0.00  0.00    -0.375 N 
ATOM     14  C   UNL d   1       3.922   0.743  -2.095  0.00  0.00     0.149 C 
ATOM     15  C   UNL d   1       4.346  -0.674  -1.681  0.00  0.00     0.187 C 
ATOM     16  O   UNL d   1       3.503  -1.678  -2.281  0.00  0.00    -0.388 OA
ATOM     17  C   UNL d   1       2.132  -1.467  -1.892  0.00  0.00     0.187 C 
ATOM     18  C   UNL d   1       1.632  -0.079  -2.328  0.00  0.00     0.149 C 
ENDBRANCH   8  13
ENDBRANCH   2   7
BRANCH   3  19
ATOM     19  C   UNL d   1      -0.325  -0.984   2.689  0.00  0.00     0.037 A 
ATOM     20  C   UNL d   1       0.581  -0.794   3.735  0.00  0.00     0.053 A 
ATOM     21  C   UNL d   1       0.504  -1.596   4.877  0.00  0.00     0.036 A 
ATOM     22 CL   UNL d   1       1.630  -1.370   6.160  0.00  0.00    -0.084 Cl
ATOM     23  C   UNL d   1      -0.475  -2.582   4.993  0.00  0.00     0.024 A 
ATOM     24  C   UNL d   1      -1.395  -2.764   3.964  0.00  0.00     0.004 A 
ATOM     25  C   UNL d   1      -1.320  -1.964   2.817  0.00  0.00     0.029 A 
ENDBRANCH   3  19
TORSDOF 3
