REMARK  5 active torsions:
REMARK  status: ('A' for Active; 'I' for Inactive)
REMARK    1  A    between atoms: C_4  and  N_1 
REMARK    2  A    between atoms: C_2  and  C_6 
REMARK    3  A    between atoms: O_3  and  C_2 
REMARK    4  A    between atoms: C_8  and  O_3 
REMARK    5  A    between atoms: C_9  and  C_8 
ROOT
ATOM      1  C   UNL d   1      -2.175  -4.647   0.001  0.00  0.00     0.294 C 
ATOM      2  O   UNL d   1      -1.662  -3.543   0.083  0.00  0.00    -0.259 OA
ENDROOT
BRANCH   1   3
ATOM      3  C   UNL d   1      -1.792  -5.772   0.907  0.00  0.00     0.039 A 
ATOM      4  C   UNL d   1      -0.774  -5.540   1.849  0.00  0.00     0.020 A 
ATOM      5  C   UNL d   1      -0.354  -6.556   2.716  0.00  0.00     0.037 A 
ATOM      6  C   UNL d   1      -0.958  -7.815   2.646  0.00  0.00     0.102 A 
ATOM      7  C   UNL d   1      -1.985  -8.058   1.721  0.00  0.00     0.037 A 
ATOM      8  C   UNL d   1      -2.397  -7.035   0.855  0.00  0.00     0.020 A 
BRANCH   6   9
ATOM      9  N   UNL d   1      -0.509  -8.893   3.540  0.00  0.00    -0.116 N 
ATOM     10  O   UNL d   1      -1.099  -9.980   3.472  0.00  0.00    -0.532 OA
ATOM     11  O   UNL d   1       0.435  -8.649   4.307  0.00  0.00    -0.532 OA
ENDBRANCH   6   9
ENDBRANCH   1   3
BRANCH   1  12
ATOM     12  O   UNL d   1      -3.132  -5.018  -0.887  0.00  0.00    -0.308 OA
BRANCH  12  13
ATOM     13  C   UNL d   1      -3.569  -3.998  -1.814  0.00  0.00     0.162 C 
ATOM     14  C   UNL d   1      -5.040  -3.688  -1.539  0.00  0.00     0.045 C 
BRANCH  13  15
ATOM     15  C   UNL d   1      -3.349  -4.491  -3.225  0.00  0.00    -0.014 A 
ATOM     16  C   UNL d   1      -3.922  -5.670  -3.693  0.00  0.00     0.097 A 
ATOM     17  N   UNL d   1      -3.746  -6.164  -4.941  0.00  0.00    -0.375 N 
ATOM     18  C   UNL d   1      -2.956  -5.450  -5.771  0.00  0.00     0.087 A 
ATOM     19  HN  UNL d   1      -4.188  -7.033  -5.240  1.00  0.00     0.164 HD
ATOM     20  C   UNL d   1      -2.348  -4.259  -5.414  0.00  0.00     0.018 A 
ATOM     21  C   UNL d   1      -2.551  -3.775  -4.124  0.00  0.00     0.012 A 
ENDBRANCH  13  15
ENDBRANCH  12  13
ENDBRANCH   1  12
TORSDOF 5
