REMARK  5 active torsions:
REMARK  status: ('A' for Active; 'I' for Inactive)
REMARK    1  A    between atoms: C_2  and  C_1 
REMARK       I    between atoms: N_3  and  C_1 
REMARK    2  A    between atoms: N_8  and  C_2 
REMARK    3  A    between atoms: C_5  and  N_3 
REMARK    4  A    between atoms: C_11  and  N_8 
REMARK    5  A    between atoms: C_12  and  C_11 
ROOT
ATOM      1  N   UNL d   1       0.044  -3.927  -1.529  0.00  0.00    -0.191 NA
ATOM      2  C   UNL d   1       0.960  -1.958   1.248  0.00  0.00     0.056 A 
ATOM      3  C   UNL d   1       0.443  -3.675  -0.467  0.00  0.00     0.102 C 
ATOM      4  C   UNL d   1       0.913  -3.306   0.836  0.00  0.00     0.071 A 
ATOM      5  C   UNL d   1       1.338  -4.326   1.703  0.00  0.00     0.025 A 
ATOM      6  C   UNL d   1       1.395  -1.671   2.548  0.00  0.00     0.031 A 
ATOM      7  C   UNL d   1       1.784  -4.019   2.985  0.00  0.00     0.002 A 
ATOM      8  C   UNL d   1       1.797  -2.695   3.411  0.00  0.00     0.002 A 
ENDROOT
BRANCH   2   9
ATOM      9  N   UNL d   1       0.567  -0.936   0.349  0.00  0.00    -0.320 N 
ATOM     10  C   UNL d   1       0.708   0.428   0.513  0.00  0.00     0.283 C 
ATOM     11  O   UNL d   1       1.230   1.048   1.425  0.00  0.00    -0.265 OA
ATOM     12  H   UNL d   1       0.154  -1.222  -0.534  0.00  0.00     0.169 HD
BRANCH  10  13
ATOM     13  C   UNL d   1       0.059   1.209  -0.617  0.00  0.00     0.165 C 
ATOM     14  S   UNL d   1       0.994   1.576  -1.940  0.00  0.00    -0.055 SA
BRANCH  13  15
ATOM     15  N   UNL d   1      -1.277   1.521  -0.539  0.00  0.00    -0.372 N 
ATOM     16  H   UNL d   1      -1.657   2.046  -1.318  0.00  0.00     0.161 HD
BRANCH  15  17
ATOM     17  C   UNL d   1      -2.098   1.393   0.651  0.00  0.00     0.159 C 
BRANCH  17  18
ATOM     18  C   UNL d   1      -2.775   0.054   0.828  0.00  0.00    -0.041 A 
ATOM     19  C   UNL d   1      -2.761  -0.962  -0.139  0.00  0.00     0.009 A 
ATOM     20  C   UNL d   1      -3.373  -2.194   0.113  0.00  0.00     0.001 A 
ATOM     21  C   UNL d   1      -4.037  -2.414   1.317  0.00  0.00     0.000 A 
ATOM     22  C   UNL d   1      -4.100  -1.400   2.269  0.00  0.00     0.001 A 
ATOM     23  C   UNL d   1      -3.472  -0.177   2.026  0.00  0.00     0.009 A 
ENDBRANCH  17  18
ENDBRANCH  15  17
ENDBRANCH  13  15
ENDBRANCH  10  13
ENDBRANCH   2   9
TORSDOF 5
