REMARK  2 active torsions:
REMARK  status: ('A' for Active; 'I' for Inactive)
REMARK    1  A    between atoms: C_9  and  C_3 
REMARK    2  A    between atoms: C_10  and  C_7 
ROOT
ATOM      1  C   UNL d   1      -2.069   0.424   0.165  0.00  0.00     0.027 C 
ATOM      2  C   UNL d   1      -1.603   1.767   0.629  0.00  0.00     0.194 C 
ATOM      3  C   UNL d   1      -0.959  -0.589   0.012  0.00  0.00     0.199 C 
ATOM      4  O   UNL d   1      -0.082  -0.596   1.158  0.00  0.00    -0.335 OA
ATOM      5  C   UNL d   1      -0.244   1.820   1.194  0.00  0.00     0.048 A 
ATOM      6  C   UNL d   1       0.441   0.635   1.447  0.00  0.00     0.084 A 
ATOM      7  C   UNL d   1      -3.344   0.148  -0.186  0.00  0.00     0.025 C 
ATOM      8  O   UNL d   1      -2.257   2.797   0.533  0.00  0.00    -0.287 OA
ATOM      9  C   UNL d   1       0.348   3.053   1.487  0.00  0.00     0.018 A 
ATOM     10  C   UNL d   1       1.709   0.674   2.025  0.00  0.00     0.038 A 
ATOM     11  C   UNL d   1       1.630   3.094   2.033  0.00  0.00     0.001 A 
ATOM     12  C   UNL d   1       2.308   1.905   2.306  0.00  0.00     0.003 A 
ENDROOT
BRANCH   3  13
ATOM     13  C   UNL d   1      -0.149  -0.480  -1.288  0.00  0.00    -0.024 A 
ATOM     14  C   UNL d   1      -0.438   0.464  -2.290  0.00  0.00     0.010 A 
ATOM     15  C   UNL d   1       0.343   0.549  -3.445  0.00  0.00     0.001 A 
ATOM     16  C   UNL d   1       1.419  -0.314  -3.624  0.00  0.00     0.000 A 
ATOM     17  C   UNL d   1       1.712  -1.268  -2.652  0.00  0.00     0.001 A 
ATOM     18  C   UNL d   1       0.933  -1.353  -1.496  0.00  0.00     0.010 A 
ENDBRANCH   3  13
BRANCH   7  19
ATOM     19  C   UNL d   1      -4.431   1.124  -0.260  0.00  0.00    -0.035 A 
ATOM     20  C   UNL d   1      -4.639   1.814  -1.460  0.00  0.00     0.012 A 
ATOM     21  C   UNL d   1      -5.591   2.831  -1.532  0.00  0.00     0.007 A 
ATOM     22  C   UNL d   1      -6.355   3.165  -0.408  0.00  0.00    -0.062 A 
ATOM     23  C   UNL d   1      -6.169   2.448   0.781  0.00  0.00     0.007 A 
ATOM     24  C   UNL d   1      -7.309   4.319  -0.475  0.00  0.00     0.048 C 
ATOM     25  C   UNL d   1      -5.213   1.431   0.856  0.00  0.00     0.012 A 
ENDBRANCH   7  19
TORSDOF 2
