REMARK  4 active torsions:
REMARK  status: ('A' for Active; 'I' for Inactive)
REMARK    1  A    between atoms: C_6  and  C_1 
REMARK    2  A    between atoms: C_8  and  C_6 
REMARK       I    between atoms: C_7  and  N_9 
REMARK       I    between atoms: N_10  and  C_7 
REMARK       I    between atoms: N_11  and  C_8 
REMARK    3  A    between atoms: N_9  and  N_11 
REMARK    4  A    between atoms: C_16  and  N_10 
ROOT
ATOM      1  C   UNL d   1       4.277   1.615   0.062  0.00  0.00     0.240 C 
ATOM      2  N   UNL d   1       3.412   2.584   0.513  0.00  0.00    -0.266 N 
ATOM      3  O   UNL d   1       5.470   1.865  -0.147  0.00  0.00    -0.271 OA
ATOM      4  H   UNL d   1       2.421   2.435   0.709  0.00  0.00     0.190 HD
ENDROOT
BRANCH   2   5
ATOM      5  N   UNL d   1       3.938   3.862   0.818  0.00  0.00    -0.249 N 
ATOM      6  C   UNL d   1       3.079   4.763   1.428  0.00  0.00     0.339 C 
ATOM      7  N   UNL d   1       3.680   5.974   1.700  0.00  0.00    -0.308 N 
ATOM      8  O   UNL d   1       1.901   4.460   1.619  0.00  0.00    -0.245 OA
ATOM      9  H   UNL d   1       4.605   6.101   1.314  0.00  0.00     0.170 HD
ATOM     10  H   UNL d   1       4.934   3.879   1.024  0.00  0.00     0.192 HD
BRANCH   7  11
ATOM     11  C   UNL d   1       3.020   7.145   2.146  0.00  0.00     0.036 A 
ATOM     12  C   UNL d   1       1.724   7.130   2.676  0.00  0.00     0.031 A 
ATOM     13  C   UNL d   1       1.046   8.323   2.931  0.00  0.00     0.026 A 
ATOM     14  C   UNL d   1       1.668   9.541   2.681  0.00  0.00     0.034 A 
ATOM     15  C   UNL d   1       2.989   9.572   2.240  0.00  0.00     0.026 A 
ATOM     16 CL   UNL d   1       0.794  11.006   2.892  0.00  0.00    -0.084 Cl
ATOM     17  C   UNL d   1       3.670   8.374   1.986  0.00  0.00     0.031 A 
ENDBRANCH   7  11
ENDBRANCH   2   5
BRANCH   1  18
ATOM     18  C   UNL d   1       3.740   0.205  -0.004  0.00  0.00     0.151 C 
BRANCH  18  19
ATOM     19  C   UNL d   1       2.684  -0.062  -1.044  0.00  0.00    -0.001 C 
ATOM     20  S   UNL d   1       1.162  -0.625  -0.495  0.00  0.00    -0.093 SA
ATOM     21  C   UNL d   1       0.728  -1.223  -2.040  0.00  0.00     0.016 A 
ATOM     22  C   UNL d   1      -0.378  -2.044  -2.343  0.00  0.00     0.021 A 
ATOM     23  C   UNL d   1       1.631  -0.801  -3.018  0.00  0.00    -0.011 A 
ATOM     24  C   UNL d   1      -0.586  -2.442  -3.663  0.00  0.00     0.025 A 
ATOM     25  C   UNL d   1       0.263  -1.996  -4.663  0.00  0.00     0.035 A 
ATOM     26  C   UNL d   1       1.361  -1.177  -4.361  0.00  0.00     0.037 A 
ATOM     27 CL   UNL d   1      -0.021  -2.477  -6.292  0.00  0.00    -0.084 Cl
ATOM     28  C   UNL d   1       2.763  -0.089  -2.432  0.00  0.00    -0.037 C 
ATOM     29  C   UNL d   1       3.919   0.403  -3.250  0.00  0.00     0.050 C 
ENDBRANCH  18  19
ENDBRANCH   1  18
TORSDOF 4
