REMARK  3 active torsions:
REMARK  status: ('A' for Active; 'I' for Inactive)
REMARK       I    between atoms: N_2  and  C_1 
REMARK       I    between atoms: N_5  and  C_1 
REMARK    1  A    between atoms: C_3  and  N_2 
REMARK    2  A    between atoms: C_12  and  N_5 
REMARK    3  A    between atoms: C_6  and  C_7 
ROOT
ATOM      1  C   UNL d   1       1.130   0.046  -0.023  0.00  0.00     0.321 C 
ATOM      2  N   UNL d   1       0.419   0.617   1.006  0.00  0.00    -0.334 N 
ATOM      3  N   UNL d   1       0.305  -0.477  -0.992  0.00  0.00    -0.309 N 
ATOM      4  O   UNL d   1       2.357   0.048  -0.036  0.00  0.00    -0.247 OA
ATOM      5  H   UNL d   1      -0.563   0.411   1.098  0.00  0.00     0.165 HD
ATOM      6  H   UNL d   1      -0.663  -0.202  -0.949  0.00  0.00     0.170 HD
ENDROOT
BRANCH   2   7
ATOM      7  C   UNL d   1       1.104   1.153   2.172  0.00  0.00     0.120 C 
ATOM      8  C   UNL d   1       0.231   2.216   2.810  0.00  0.00    -0.029 A 
ATOM      9  C   UNL d   1      -0.430   2.001   4.034  0.00  0.00    -0.050 A 
ATOM     10  C   UNL d   1       0.052   3.437   2.135  0.00  0.00     0.010 A 
ATOM     11  C   UNL d   1      -1.230   3.021   4.570  0.00  0.00     0.007 A 
ATOM     12  C   UNL d   1      -0.244   0.727   4.820  0.00  0.00     0.039 C 
ATOM     13  C   UNL d   1      -1.395   4.229   3.891  0.00  0.00     0.001 A 
ATOM     14  C   UNL d   1      -0.756   4.436   2.672  0.00  0.00     0.001 A 
ATOM     15  C   UNL d   1       0.295  -0.425   3.977  0.00  0.00     0.007 C 
ATOM     16  C   UNL d   1       1.495   0.036   3.156  0.00  0.00     0.030 C 
ENDBRANCH   2   7
BRANCH   3  17
ATOM     17  C   UNL d   1       0.710  -1.213  -2.125  0.00  0.00     0.036 A 
ATOM     18  C   UNL d   1       1.984  -1.760  -2.268  0.00  0.00     0.030 A 
ATOM     19  C   UNL d   1       2.312  -2.524  -3.394  0.00  0.00     0.010 A 
ATOM     20  C   UNL d   1       1.382  -2.765  -4.418  0.00  0.00    -0.051 A 
ATOM     21  C   UNL d   1       0.113  -2.182  -4.273  0.00  0.00     0.010 A 
ATOM     22  C   UNL d   1      -0.222  -1.428  -3.138  0.00  0.00     0.030 A 
BRANCH  20  23
ATOM     23  C   UNL d   1       1.769  -3.647  -5.618  0.00  0.00    -0.024 C 
ATOM     24  C   UNL d   1       0.619  -3.830  -6.633  0.00  0.00     0.019 C 
ATOM     25  C   UNL d   1       2.965  -3.028  -6.371  0.00  0.00     0.019 C 
ATOM     26  C   UNL d   1       2.170  -5.057  -5.128  0.00  0.00     0.019 C 
ENDBRANCH  20  23
ENDBRANCH   3  17
TORSDOF 3
