REMARK  6 active torsions:
REMARK  status: ('A' for Active; 'I' for Inactive)
REMARK    1  A    between atoms: C_5  and  C_1 
REMARK    2  A    between atoms: N_2  and  C_4 
REMARK    3  A    between atoms: S_10  and  C_3 
REMARK       I    between atoms: C_7  and  N_11 
REMARK       I    between atoms: N_15  and  C_7 
REMARK    4  A    between atoms: C_12  and  S_10 
REMARK    5  A    between atoms: N_11  and  C_13 
REMARK    6  A    between atoms: C_22  and  N_15 
ROOT
ATOM      1  C   UNL d   1      -0.809   4.220  -0.807  0.00  0.00     0.028 C 
ATOM      2  C   UNL d   1       0.300   4.197  -1.682  0.00  0.00     0.033 C 
ATOM      3  C   UNL d   1      -0.962   5.353  -0.001  0.00  0.00     0.021 C 
ATOM      4  C   UNL d   1       1.097   5.333  -1.881  0.00  0.00     0.025 C 
ATOM      5  C   UNL d   1       0.905   6.454  -1.077  0.00  0.00     0.002 C 
ATOM      6  C   UNL d   1      -0.083   6.436  -0.099  0.00  0.00     0.001 C 
ENDROOT
BRANCH   1   7
ATOM      7  S   UNL d   1      -2.189   3.106  -1.091  0.00  0.00    -0.070 SA
BRANCH   7   8
ATOM      8  C   UNL d   1      -2.374   1.991   0.277  0.00  0.00     0.089 A 
ATOM      9  C   UNL d   1      -2.925   2.303   1.521  0.00  0.00     0.084 A 
ATOM     10  C   UNL d   1      -3.135   1.251   2.445  0.00  0.00     0.056 A 
ATOM     11  C   UNL d   1      -2.918  -0.071   2.070  0.00  0.00     0.119 A 
ATOM     12  C   UNL d   1      -2.456  -0.311   0.788  0.00  0.00     0.124 A 
ATOM     13  N   UNL d   1      -2.160   0.688  -0.084  0.00  0.00    -0.357 N 
ATOM     14  HN  UNL d   1      -1.778   0.467  -1.004  1.00  0.00     0.166 HD
BRANCH   9  15
ATOM     15  C   UNL d   1      -3.374   3.667   1.938  0.00  0.00     0.420 C 
ATOM     16  F   UNL d   1      -3.785   4.483   0.933  0.00  0.00    -0.166 F 
ATOM     17  F   UNL d   1      -4.443   3.613   2.789  0.00  0.00    -0.166 F 
ATOM     18  F   UNL d   1      -2.411   4.338   2.623  0.00  0.00    -0.166 F 
ENDBRANCH   9  15
BRANCH  11  19
ATOM     19  N   UNL d   1      -3.221  -1.168   2.962  0.00  0.00    -0.114 N 
ATOM     20  O   UNL d   1      -3.489  -0.890   4.152  0.00  0.00    -0.532 OA
ATOM     21  O   UNL d   1      -3.207  -2.317   2.503  0.00  0.00    -0.532 OA
ENDBRANCH  11  19
ENDBRANCH   7   8
ENDBRANCH   1   7
BRANCH   2  22
ATOM     22  N   UNL d   1       0.785   2.966  -2.181  0.00  0.00    -0.214 NA
ATOM     23  C   UNL d   1       1.469   2.192  -1.235  0.00  0.00     0.281 C 
ATOM     24  N   UNL d   1       2.021   1.079  -1.839  0.00  0.00    -0.215 NA
ATOM     25  O   UNL d   1       1.571   2.474  -0.046  0.00  0.00    -0.260 OA
ATOM     26  H   UNL d   1       1.316   0.352  -1.734  0.00  0.00     0.138 HD
ATOM     27  H   UNL d   1       1.348   3.024  -3.019  0.00  0.00     0.138 HD
BRANCH  24  28
ATOM     28  C   UNL d   1       3.272   0.552  -1.431  0.00  0.00     0.016 A 
ATOM     29  C   UNL d   1       3.717   0.516  -0.108  0.00  0.00     0.024 A 
ATOM     30  C   UNL d   1       4.977  -0.008   0.191  0.00  0.00     0.002 A 
ATOM     31  C   UNL d   1       5.793  -0.497  -0.828  0.00  0.00     0.000 A 
ATOM     32  C   UNL d   1       5.349  -0.468  -2.149  0.00  0.00     0.002 A 
ATOM     33  C   UNL d   1       4.087   0.047  -2.447  0.00  0.00     0.024 A 
ENDBRANCH  24  28
ENDBRANCH   2  22
TORSDOF 6
