REMARK  4 active torsions:
REMARK  status: ('A' for Active; 'I' for Inactive)
REMARK    1  A    between atoms: C_8  and  C_1 
REMARK    2  A    between atoms: N_13  and  C_2 
REMARK    3  A    between atoms: C_12  and  C_8 
REMARK    4  A    between atoms: C_15  and  C_10 
ROOT
ATOM      1  C   UNL d   1       2.381   0.127   0.044  0.00  0.00     0.155 A 
ATOM      2  C   UNL d   1       1.635   1.290   0.029  0.00  0.00     0.079 A 
ATOM      3  C   UNL d   1       0.260   0.917   0.024  0.00  0.00     0.050 A 
ATOM      4  C   UNL d   1       0.264  -0.481   0.026  0.00  0.00     0.162 A 
ATOM      5  O   UNL d   1       1.544  -0.952   0.045  0.00  0.00    -0.286 OA
ATOM      6  N   UNL d   1      -0.796  -1.308   0.011  0.00  0.00    -0.335 N 
ATOM      7  HN  UNL d   1      -0.705  -2.324   0.026  1.00  0.00     0.168 HD
ATOM      8  C   UNL d   1      -0.997   1.560   0.020  0.00  0.00    -0.043 A 
ATOM      9  C   UNL d   1      -1.993  -0.680  -0.025  0.00  0.00     0.044 A 
ATOM     10  C   UNL d   1      -2.121   0.713   0.002  0.00  0.00     0.038 A 
ATOM     11  C   UNL d   1      -1.238   3.041   0.020  0.00  0.00     0.049 C 
ENDROOT
BRANCH   1  12
ATOM     12  C   UNL d   1       3.816  -0.059   0.021  0.00  0.00     0.218 C 
ATOM     13  O   UNL d   1       4.582   0.769  -0.476  0.00  0.00    -0.284 OA
BRANCH  12  14
ATOM     14  C   UNL d   1       4.431  -1.251   0.672  0.00  0.00     0.017 A 
ATOM     15  C   UNL d   1       3.832  -1.892   1.763  0.00  0.00     0.017 A 
ATOM     16  C   UNL d   1       4.482  -2.956   2.399  0.00  0.00     0.025 A 
ATOM     17  C   UNL d   1       5.734  -3.373   1.950  0.00  0.00     0.034 A 
ATOM     18  C   UNL d   1       6.345  -2.739   0.870  0.00  0.00     0.025 A 
ATOM     19 CL   UNL d   1       6.536  -4.671   2.745  0.00  0.00    -0.084 Cl
ATOM     20  C   UNL d   1       5.696  -1.675   0.234  0.00  0.00     0.017 A 
ENDBRANCH  12  14
ENDBRANCH   1  12
BRANCH   2  21
ATOM     21  N   UNL d   1       2.168   2.528   0.042  0.00  0.00    -0.396 N 
ATOM     22  H   UNL d   1       3.167   2.649  -0.146  0.00  0.00     0.156 HD
ATOM     23  H   UNL d   1       1.634   3.370  -0.134  0.00  0.00     0.156 HD
ENDBRANCH   2  21
BRANCH   9  24
ATOM     24  C   UNL d   1      -3.182  -1.559  -0.117  0.00  0.00    -0.009 A 
ATOM     25  C   UNL d   1      -3.222  -2.805   0.535  0.00  0.00     0.013 A 
ATOM     26  C   UNL d   1      -4.345  -3.636   0.448  0.00  0.00     0.001 A 
ATOM     27  C   UNL d   1      -5.452  -3.242  -0.299  0.00  0.00     0.000 A 
ATOM     28  C   UNL d   1      -5.437  -2.019  -0.960  0.00  0.00     0.001 A 
ATOM     29  C   UNL d   1      -4.314  -1.191  -0.872  0.00  0.00     0.013 A 
ENDBRANCH   9  24
TORSDOF 4
