REMARK  1 active torsions:
REMARK  status: ('A' for Active; 'I' for Inactive)
REMARK    1  A    between atoms: C_2  and  C_3 
REMARK       I    between atoms: C_3  and  N_4 
ROOT
ATOM      1  C   UNL d   1      -0.724  -0.484   0.079  0.00  0.00    -0.005 A 
ATOM      2  C   UNL d   1      -4.059  -1.915   0.755  0.00  0.00     0.264 C 
ATOM      3  N   UNL d   1      -3.084  -1.101   0.164  0.00  0.00    -0.343 N 
ATOM      4  C   UNL d   1      -1.110   0.843   0.065  0.00  0.00     0.020 A 
ATOM      5  N   UNL d   1      -0.003   1.634   0.086  0.00  0.00    -0.358 N 
ATOM      6  C   UNL d   1       0.704  -0.493   0.048  0.00  0.00     0.003 A 
ATOM      7  C   UNL d   1      -1.704  -1.627   0.060  0.00  0.00     0.167 C 
ATOM      8  C   UNL d   1       1.126   0.844   0.050  0.00  0.00     0.043 A 
ATOM      9  C   UNL d   1      -2.521   1.310   0.002  0.00  0.00     0.077 C 
ATOM     10  C   UNL d   1      -3.349   0.149  -0.585  0.00  0.00     0.132 C 
ATOM     11  C   UNL d   1       1.684  -1.503  -0.002  0.00  0.00     0.056 A 
ATOM     12  O   UNL d   1      -3.780  -3.073   1.080  0.00  0.00    -0.267 OA
ATOM     13  C   UNL d   1       2.476   1.217   0.012  0.00  0.00     0.033 A 
ATOM     14  C   UNL d   1       3.028  -1.135  -0.046  0.00  0.00     0.117 A 
ATOM     15  C   UNL d   1       3.427   0.195  -0.039  0.00  0.00     0.044 A 
ATOM     16  F   UNL d   1       3.965  -2.092  -0.104  0.00  0.00    -0.206 F 
ATOM     17  H   UNL d   1       0.005   2.646   0.090  0.00  0.00     0.166 HD
ENDROOT
BRANCH   2  18
ATOM     18  C   UNL d   1      -5.397  -1.398   0.950  0.00  0.00     0.114 C 
ATOM     19  C   UNL d   1      -6.636  -2.005   0.789  0.00  0.00     0.046 C 
ATOM     20  N   UNL d   1      -7.725  -1.164   1.014  0.00  0.00    -0.298 N 
ATOM     21  C   UNL d   1      -6.942  -3.408   0.408  0.00  0.00     0.071 C 
ATOM     22  N   UNL d   1      -7.350   0.017   1.470  0.00  0.00    -0.269 N 
ATOM     23  HN  UNL d   1      -8.696  -1.429   0.847  1.00  0.00     0.187 HD
ATOM     24  S   UNL d   1      -5.703   0.117   1.706  0.00  0.00     0.009 SA
ATOM     25  HN  UNL d   1      -7.997   0.783   1.657  1.00  0.00     0.195 HD
ENDBRANCH   2  18
TORSDOF 1
