REMARK  3 active torsions:
REMARK  status: ('A' for Active; 'I' for Inactive)
REMARK    1  A    between atoms: N_3  and  C_2 
REMARK    2  A    between atoms: N_10  and  C_2 
REMARK    3  A    between atoms: C_8  and  N_3 
ROOT
ATOM      1  C   UNL d   1      -0.949  -2.706   2.353  0.00  0.00     0.162 C 
ATOM      2  C   UNL d   1      -0.356  -1.644   1.740  0.00  0.00     0.110 C 
ATOM      3  C   UNL d   1      -2.361  -2.757   2.539  0.00  0.00     0.114 C 
ATOM      4  C   UNL d   1      -0.175  -3.770   2.900  0.00  0.00     0.114 C 
ATOM      5  N   UNL d   1      -3.510  -2.821   2.697  0.00  0.00    -0.190 NA
ATOM      6  N   UNL d   1       0.484  -4.617   3.341  0.00  0.00    -0.190 NA
ENDROOT
BRANCH   2   7
ATOM      7  N   UNL d   1      -1.088  -0.542   1.326  0.00  0.00    -0.345 N 
ATOM      8  H   UNL d   1      -0.516   0.300   1.387  0.00  0.00     0.167 HD
BRANCH   7   9
ATOM      9  C   UNL d   1      -1.907  -0.445   0.172  0.00  0.00     0.034 A 
ATOM     10  C   UNL d   1      -1.904  -1.370  -0.876  0.00  0.00     0.053 A 
ATOM     11  C   UNL d   1      -2.717  -1.159  -1.996  0.00  0.00     0.036 A 
ATOM     12 CL   UNL d   1      -2.669  -2.273  -3.309  0.00  0.00    -0.084 Cl
ATOM     13  C   UNL d   1      -3.554  -0.046  -2.078  0.00  0.00     0.024 A 
ATOM     14  C   UNL d   1      -3.581   0.867  -1.029  0.00  0.00     0.004 A 
ATOM     15  C   UNL d   1      -2.760   0.668   0.083  0.00  0.00     0.029 A 
ENDBRANCH   7   9
ENDBRANCH   2   7
BRANCH   2  16
ATOM     16  N   UNL d   1       1.014  -1.514   1.597  0.00  0.00    -0.287 NA
ATOM     17  H   UNL d   1       1.556  -2.374   1.673  0.00  0.00     0.125 HD
ATOM     18  H   UNL d   1       1.271  -0.989   0.763  0.00  0.00     0.125 HD
ENDBRANCH   2  16
TORSDOF 3
