REMARK  3 active torsions:
REMARK  status: ('A' for Active; 'I' for Inactive)
REMARK    1  A    between atoms: C_2  and  S_1 
REMARK    2  A    between atoms: S_3  and  S_1 
REMARK    3  A    between atoms: C_4  and  S_3 
ROOT
ATOM      1  C   UNL d   1       0.557  -0.410   1.551  0.00  0.00     0.161 A 
ATOM      2  C   UNL d   1       0.979  -1.599   2.142  0.00  0.00     0.089 A 
ATOM      3  N   UNL d   1      -0.294   0.488   2.124  0.00  0.00    -0.349 N 
ATOM      4  HN  UNL d   1      -0.570   1.344   1.643  1.00  0.00     0.166 HD
ATOM      5  C   UNL d   1       0.474  -1.895   3.421  0.00  0.00    -0.036 A 
ATOM      6  C   UNL d   1       1.894  -2.477   1.479  0.00  0.00     0.103 C 
ATOM      7  N   UNL d   1       2.640  -3.204   0.969  0.00  0.00    -0.191 NA
ATOM      8  C   UNL d   1      -0.756   0.191   3.359  0.00  0.00     0.006 A 
ATOM      9  C   UNL d   1      -0.401  -0.980   4.026  0.00  0.00     0.033 A 
ATOM     10  C   UNL d   1       0.824  -3.143   4.190  0.00  0.00     0.050 C 
ATOM     11  C   UNL d   1      -1.679   1.173   4.018  0.00  0.00     0.068 C 
ENDROOT
BRANCH   1  12
ATOM     12  S   UNL d   1       1.108   0.024  -0.101  0.00  0.00     0.253 S 
ATOM     13  O   UNL d   1       0.612  -1.021  -0.978  0.00  0.00    -0.209 OA
ATOM     14  O   UNL d   1       2.526   0.318  -0.003  0.00  0.00    -0.209 OA
BRANCH  12  15
ATOM     15  S   UNL d   1       0.148   1.804  -0.630  0.00  0.00     0.029 SA
BRANCH  15  16
ATOM     16  C   UNL d   1       1.003   2.174  -2.151  0.00  0.00     0.107 A 
ATOM     17  C   UNL d   1       2.156   2.965  -2.217  0.00  0.00     0.085 A 
ATOM     18  C   UNL d   1       2.709   3.248  -3.482  0.00  0.00    -0.037 A 
ATOM     19  C   UNL d   1       2.736   3.513  -1.027  0.00  0.00     0.103 C 
ATOM     20  C   UNL d   1       3.948   4.078  -3.692  0.00  0.00     0.050 C 
ATOM     21  C   UNL d   1       2.078   2.729  -4.619  0.00  0.00     0.033 A 
ATOM     22  C   UNL d   1       0.928   1.964  -4.474  0.00  0.00     0.006 A 
ATOM     23  N   UNL d   1       0.387   1.695  -3.264  0.00  0.00    -0.353 N 
ATOM     24  C   UNL d   1       0.244   1.403  -5.685  0.00  0.00     0.068 C 
ATOM     25  HN  UNL d   1      -0.468   1.142  -3.188  1.00  0.00     0.166 HD
ATOM     26  N   UNL d   1       3.197   3.984  -0.071  0.00  0.00    -0.191 NA
ENDBRANCH  15  16
ENDBRANCH  12  15
ENDBRANCH   1  12
TORSDOF 3
