REMARK  4 active torsions:
REMARK  status: ('A' for Active; 'I' for Inactive)
REMARK    1  A    between atoms: C_6  and  N_1 
REMARK    2  A    between atoms: S_15  and  C_2 
REMARK    3  A    between atoms: C_19  and  S_15 
REMARK    4  A    between atoms: C_17  and  C_19 
ROOT
ATOM      1  N   UNL d   1       0.990  -0.736   0.092  0.00  0.00    -0.241 N 
ATOM      2  C   UNL d   1      -0.315  -0.901  -0.252  0.00  0.00     0.170 A 
ATOM      3  C   UNL d   1       1.150   0.628   0.242  0.00  0.00     0.347 A 
ATOM      4  N   UNL d   1      -1.003   0.207  -0.315  0.00  0.00    -0.275 N 
ATOM      5  HN  UNL d   1      -1.988   0.320  -0.553  1.00  0.00     0.189 HD
ATOM      6  N   UNL d   1      -0.101   1.180   0.012  0.00  0.00    -0.249 N 
ATOM      7  O   UNL d   1       2.171   1.270   0.457  0.00  0.00    -0.245 OA
ATOM      8  H   UNL d   1      -0.301   2.167  -0.066  0.00  0.00     0.192 HD
ENDROOT
BRANCH   1   9
ATOM      9  C   UNL d   1       2.088  -1.615   0.060  0.00  0.00     0.049 A 
ATOM     10  C   UNL d   1       2.305  -2.475  -1.021  0.00  0.00     0.069 A 
ATOM     11  C   UNL d   1       3.435  -3.294  -1.038  0.00  0.00     0.104 A 
ATOM     12  O   UNL d   1       3.593  -4.102  -2.136  0.00  0.00    -0.346 OA
ATOM     13  C   UNL d   1       4.352  -3.253   0.018  0.00  0.00     0.102 A 
ATOM     14  C   UNL d   1       4.602  -5.096  -1.917  0.00  0.00     0.202 C 
ATOM     15  C   UNL d   1       5.830  -4.481  -1.265  0.00  0.00     0.202 C 
ATOM     16  O   UNL d   1       5.506  -3.994   0.042  0.00  0.00    -0.346 OA
ATOM     17  C   UNL d   1       4.121  -2.427   1.112  0.00  0.00     0.042 A 
ATOM     18  C   UNL d   1       3.000  -1.597   1.124  0.00  0.00     0.033 A 
ENDBRANCH   1   9
BRANCH   2  19
ATOM     19  S   UNL d   1      -1.090  -2.428  -0.548  0.00  0.00    -0.088 SA
BRANCH  19  20
ATOM     20  C   UNL d   1      -0.447  -3.478   0.778  0.00  0.00     0.108 C 
BRANCH  20  21
ATOM     21  C   UNL d   1      -1.249  -4.744   0.869  0.00  0.00    -0.026 C 
ATOM     22  C   UNL d   1      -1.756  -5.241   2.005  0.00  0.00     0.007 C 
ENDBRANCH  20  21
ENDBRANCH  19  20
ENDBRANCH   2  19
TORSDOF 4
