REMARK  3 active torsions:
REMARK  status: ('A' for Active; 'I' for Inactive)
REMARK    1  A    between atoms: S_16  and  C_1 
REMARK       I    between atoms: C_5  and  N_9 
REMARK    2  A    between atoms: C_8  and  C_5 
REMARK    3  A    between atoms: N_9  and  C_12 
ROOT
ATOM      1  C   UNL d   1      -2.130  -0.819  -0.088  0.00  0.00     0.112 A 
ATOM      2  N   UNL d   1      -1.105  -1.603   0.153  0.00  0.00    -0.344 N 
ATOM      3  HN  UNL d   1      -1.158  -2.613   0.291  1.00  0.00     0.167 HD
ATOM      4  S   UNL d   1      -1.778   0.843  -0.283  0.00  0.00    -0.063 SA
ATOM      5  C   UNL d   1      -0.105   0.513  -0.031  0.00  0.00     0.036 A 
ATOM      6  C   UNL d   1       0.055  -0.853   0.193  0.00  0.00     0.050 A 
ATOM      7  C   UNL d   1       0.987   1.402  -0.039  0.00  0.00     0.051 A 
ATOM      8  C   UNL d   1       2.273   0.892   0.179  0.00  0.00     0.036 A 
ATOM      9  C   UNL d   1       1.349  -1.350   0.434  0.00  0.00     0.033 A 
ATOM     10  C   UNL d   1       2.441  -0.474   0.428  0.00  0.00     0.032 A 
ENDROOT
BRANCH   8  11
ATOM     11  N   UNL d   1       3.446   1.675   0.121  0.00  0.00    -0.322 N 
ATOM     12  C   UNL d   1       3.557   3.023  -0.184  0.00  0.00     0.263 C 
ATOM     13  O   UNL d   1       2.603   3.781  -0.314  0.00  0.00    -0.267 OA
ATOM     14  H   UNL d   1       4.325   1.187   0.245  0.00  0.00     0.169 HD
BRANCH  12  15
ATOM     15  C   UNL d   1       4.928   3.499  -0.379  0.00  0.00     0.072 A 
ATOM     16  S   UNL d   1       6.303   2.492  -0.190  0.00  0.00    -0.097 SA
ATOM     17  C   UNL d   1       7.371   3.738  -0.671  0.00  0.00     0.050 A 
ATOM     18  C   UNL d   1       6.705   4.911  -0.945  0.00  0.00     0.009 A 
ATOM     19  C   UNL d   1       5.299   4.777  -0.762  0.00  0.00     0.025 A 
ENDBRANCH  12  15
ENDBRANCH   8  11
BRANCH   1  20
ATOM     20  S   UNL d   1      -3.763  -1.445  -0.198  0.00  0.00    -0.109 SA
ATOM     21  C   UNL d   1      -3.447  -3.214  -0.004  0.00  0.00     0.097 C 
ENDBRANCH   1  20
TORSDOF 3
