REMARK  9 active torsions:
REMARK  status: ('A' for Active; 'I' for Inactive)
REMARK    1  A    between atoms: N_4  and  C_1 
REMARK       I    between atoms: C_2  and  N_7 
REMARK    2  A    between atoms: O_8  and  C_2 
REMARK       I    between atoms: C_3  and  N_5 
REMARK    3  A    between atoms: C_13  and  C_3 
REMARK    4  A    between atoms: N_5  and  N_4 
REMARK    5  A    between atoms: N_7  and  C_13 
REMARK    6  A    between atoms: C_11  and  O_8 
REMARK    7  A    between atoms: C_17  and  N_12 
REMARK    8  A    between atoms: C_18  and  C_17 
REMARK    9  A    between atoms: C_19  and  C_18 
ROOT
ATOM      1  C   UNL d   1      -0.029   0.006  -3.495  0.00  0.00     0.253 C 
ATOM      2  N   UNL d   1       0.836   0.058  -2.426  0.00  0.00    -0.267 N 
ATOM      3  O   UNL d   1      -1.243  -0.169  -3.394  0.00  0.00    -0.270 OA
ATOM      4  H   UNL d   1       1.848   0.037  -2.586  0.00  0.00     0.190 HD
ENDROOT
BRANCH   1   5
ATOM      5  C   UNL d   1       0.681   0.242  -4.840  0.00  0.00     0.229 C 
BRANCH   5   6
ATOM      6  N   UNL d   1       1.550  -0.843  -5.267  0.00  0.00    -0.328 N 
ATOM      7  C   UNL d   1       2.747  -1.123  -4.674  0.00  0.00     0.361 C 
ATOM      8  O   UNL d   1       3.109  -0.650  -3.612  0.00  0.00    -0.238 OA
ATOM      9  H   UNL d   1       1.413  -1.257  -6.179  0.00  0.00     0.165 HD
BRANCH   7  10
ATOM     10  O   UNL d   1       3.422  -2.022  -5.424  0.00  0.00    -0.294 OA
BRANCH  10  11
ATOM     11  C   UNL d   1       4.607  -2.689  -4.905  0.00  0.00     0.061 C 
ATOM     12  C   UNL d   1       4.233  -3.553  -3.692  0.00  0.00     0.046 C 
ATOM     13  C   UNL d   1       5.086  -3.594  -6.056  0.00  0.00     0.046 C 
ATOM     14  C   UNL d   1       5.738  -1.712  -4.561  0.00  0.00     0.046 C 
ENDBRANCH  10  11
ENDBRANCH   7  10
ENDBRANCH   5   6
ENDBRANCH   1   5
BRANCH   2  15
ATOM     15  N   UNL d   1       0.414  -0.205  -1.122  0.00  0.00    -0.274 N 
ATOM     16  H   UNL d   1      -0.517  -0.604  -1.022  0.00  0.00     0.189 HD
BRANCH  15  17
ATOM     17  C   UNL d   1       0.957   0.507  -0.083  0.00  0.00     0.186 C 
ATOM     18  S   UNL d   1       1.876   1.899  -0.224  0.00  0.00    -0.040 SA
ATOM     19  N   UNL d   1       0.804  -0.024   1.164  0.00  0.00    -0.366 N 
ATOM     20  H   UNL d   1       1.287   0.515   1.875  0.00  0.00     0.161 HD
BRANCH  19  21
ATOM     21  C   UNL d   1       0.555  -1.422   1.484  0.00  0.00     0.122 C 
BRANCH  21  22
ATOM     22  C   UNL d   1       1.675  -2.369   1.031  0.00  0.00     0.019 C 
BRANCH  22  23
ATOM     23  C   UNL d   1       3.050  -2.011   1.604  0.00  0.00    -0.003 C 
ATOM     24  C   UNL d   1       4.118  -2.999   1.155  0.00  0.00     0.005 C 
ENDBRANCH  22  23
ENDBRANCH  21  22
ENDBRANCH  19  21
ENDBRANCH  15  17
ENDBRANCH   2  15
TORSDOF 9
