REMARK  4 active torsions:
REMARK  status: ('A' for Active; 'I' for Inactive)
REMARK    1  A    between atoms: C_12  and  C_5 
REMARK    2  A    between atoms: N_14  and  C_9 
REMARK    3  A    between atoms: C_13  and  C_12 
REMARK    4  A    between atoms: C_18  and  C_13 
ROOT
ATOM      1  C   UNL d   1       1.132  -0.920  -0.295  0.00  0.00     0.691 A 
ATOM      2  N   UNL d   1       0.723   0.425  -0.315  0.00  0.00    -0.148 N 
ATOM      3  N   UNL d   1       2.449  -1.277  -0.233  0.00  0.00    -0.181 N 
ATOM      4  HN  UNL d   1       2.738  -2.253  -0.307  1.00  0.00     0.185 HD
ATOM      5  C   UNL d   1       1.661   1.470  -0.124  0.00  0.00     0.041 A 
ATOM      6  N   UNL d   1       0.105  -1.736  -0.282  0.00  0.00    -0.189 N 
ATOM      7  HN  UNL d   1       0.130  -2.754  -0.232  1.00  0.00     0.184 HD
ATOM      8  C   UNL d   1       2.956   1.117   0.013  0.00  0.00     0.069 A 
ATOM      9  C   UNL d   1       3.318  -0.327  -0.074  0.00  0.00     0.095 A 
ATOM     10  C   UNL d   1      -0.663   0.404  -0.472  0.00  0.00     0.084 A 
ATOM     11  C   UNL d   1      -1.000  -0.945  -0.349  0.00  0.00     0.077 A 
ATOM     12  C   UNL d   1      -1.660   1.374  -0.674  0.00  0.00     0.033 A 
ATOM     13  C   UNL d   1      -2.347  -1.337  -0.311  0.00  0.00     0.032 A 
ATOM     14  C   UNL d   1      -3.000   0.963  -0.649  0.00  0.00     0.002 A 
ATOM     15  C   UNL d   1      -3.343  -0.369  -0.441  0.00  0.00     0.002 A 
ENDROOT
BRANCH   5  16
ATOM     16  C   UNL d   1       1.234   2.935  -0.014  0.00  0.00     0.033 C 
ATOM     17  C   UNL d   1       2.316   3.919  -0.490  0.00  0.00     0.016 C 
BRANCH  16  18
ATOM     18  C   UNL d   1       0.780   3.247   1.440  0.00  0.00     0.014 C 
BRANCH  18  19
ATOM     19  C   UNL d   1       0.375   4.712   1.720  0.00  0.00    -0.022 C 
ATOM     20  C   UNL d   1      -0.869   5.136   0.940  0.00  0.00     0.009 C 
ATOM     21  C   UNL d   1       0.137   4.928   3.219  0.00  0.00     0.009 C 
ENDBRANCH  18  19
ENDBRANCH  16  18
ENDBRANCH   5  16
BRANCH   9  22
ATOM     22  N   UNL d   1       4.633  -0.693   0.016  0.00  0.00    -0.288 NA
ATOM     23  H   UNL d   1       5.327  -0.048  -0.338  0.00  0.00     0.125 HD
ATOM     24  H   UNL d   1       4.782  -1.654  -0.278  0.00  0.00     0.125 HD
ENDBRANCH   9  22
TORSDOF 4
