REMARK  5 active torsions:
REMARK  status: ('A' for Active; 'I' for Inactive)
REMARK    1  A    between atoms: C_4  and  C_1 
REMARK       I    between atoms: N_7  and  C_4 
REMARK    2  A    between atoms: C_13  and  N_7 
REMARK    3  A    between atoms: N_10  and  C_9 
REMARK    4  A    between atoms: C_18  and  N_10 
REMARK    5  A    between atoms: C_19  and  N_10 
ROOT
ATOM      1  C   UNL d   1      -3.341  -4.655  -0.238  0.00  0.00     0.030 A 
ATOM      2  C   UNL d   1      -0.491  -4.391  -0.263  0.00  0.00     0.035 A 
ATOM      3  C   UNL d   1      -2.515  -5.436   0.579  0.00  0.00     0.031 A 
ATOM      4  C   UNL d   1      -2.684  -3.785  -1.121  0.00  0.00     0.031 A 
ATOM      5  C   UNL d   1      -1.118  -5.304   0.578  0.00  0.00     0.032 A 
ATOM      6  C   UNL d   1      -1.287  -3.649  -1.137  0.00  0.00     0.032 A 
ENDROOT
BRANCH   2   7
ATOM      7  N   UNL d   1       0.898  -4.117  -0.240  0.00  0.00    -0.323 N 
ATOM      8  C   UNL d   1       1.850  -4.734   0.546  0.00  0.00     0.258 C 
ATOM      9  O   UNL d   1       1.667  -5.755   1.201  0.00  0.00    -0.267 OA
ATOM     10  H   UNL d   1       1.197  -3.336  -0.812  0.00  0.00     0.169 HD
BRANCH   8  11
ATOM     11  C   UNL d   1       3.154  -4.063   0.631  0.00  0.00     0.063 A 
ATOM     12  C   UNL d   1       3.714  -3.131  -0.221  0.00  0.00     0.091 A 
ATOM     13  S   UNL d   1       5.237  -2.558   0.284  0.00  0.00    -0.065 SA
ATOM     14 CL   UNL d   1       3.087  -2.494  -1.695  0.00  0.00    -0.075 Cl
ATOM     15  C   UNL d   1       5.208  -3.564   1.638  0.00  0.00     0.077 A 
ATOM     16  C   UNL d   1       4.079  -4.334   1.712  0.00  0.00     0.050 A 
ATOM     17 CL   UNL d   1       6.506  -3.543   2.760  0.00  0.00    -0.076 Cl
ENDBRANCH   8  11
ENDBRANCH   2   7
BRANCH   1  18
ATOM     18  N   UNL d   1      -4.725  -4.706  -0.137  0.00  0.00    -0.382 N 
BRANCH  18  19
ATOM     19  C   UNL d   1      -5.411  -5.979   0.116  0.00  0.00     0.118 C 
ATOM     20  C   UNL d   1      -5.867  -6.098   1.562  0.00  0.00     0.026 C 
ENDBRANCH  18  19
BRANCH  18  21
ATOM     21  C   UNL d   1      -5.557  -3.540  -0.456  0.00  0.00     0.118 C 
ATOM     22  C   UNL d   1      -5.289  -2.382   0.500  0.00  0.00     0.026 C 
ENDBRANCH  18  21
ENDBRANCH   1  18
TORSDOF 5
