REMARK  7 active torsions:
REMARK  status: ('A' for Active; 'I' for Inactive)
REMARK    1  A    between atoms: C_6  and  S_1 
REMARK    2  A    between atoms: N_9  and  S_1 
REMARK    3  A    between atoms: C_2  and  C_11 
REMARK    4  A    between atoms: C_16  and  C_5 
REMARK    5  A    between atoms: C_11  and  N_9 
REMARK    6  A    between atoms: O_19  and  C_10 
REMARK    7  A    between atoms: O_20  and  C_17 
ROOT
ATOM      1  N   UNL d   1       0.335   1.683   0.193  0.00  0.00    -0.311 N 
ATOM      2  H   UNL d   1      -0.259   1.897  -0.607  0.00  0.00     0.172 HD
ENDROOT
BRANCH   1   3
ATOM      3  S   UNL d   1       0.851   0.087   0.149  0.00  0.00     0.261 S 
ATOM      4  O   UNL d   1      -0.175  -0.572  -0.627  0.00  0.00    -0.200 OA
ATOM      5  O   UNL d   1       2.243   0.069  -0.247  0.00  0.00    -0.200 OA
BRANCH   3   6
ATOM      6  C   UNL d   1       0.741  -0.556   1.799  0.00  0.00     0.112 A 
ATOM      7  C   UNL d   1       1.301  -1.795   2.145  0.00  0.00     0.094 A 
ATOM      8  C   UNL d   1       1.416  -2.129   3.512  0.00  0.00     0.075 A 
ATOM      9  C   UNL d   1       0.994  -1.254   4.513  0.00  0.00     0.070 A 
ATOM     10  C   UNL d   1       0.396  -0.054   4.150  0.00  0.00     0.038 A 
ATOM     11  C   UNL d   1       0.231   0.274   2.805  0.00  0.00     0.031 A 
BRANCH   7  12
ATOM     12  O   UNL d   1       1.873  -2.738   1.335  0.00  0.00    -0.354 OA
ATOM     13  C   UNL d   1       1.198  -3.088   0.129  0.00  0.00     0.210 C 
ENDBRANCH   7  12
BRANCH   9  14
ATOM     14  O   UNL d   1       1.108  -1.439   5.861  0.00  0.00    -0.356 OA
ATOM     15  C   UNL d   1       1.640  -2.683   6.299  0.00  0.00     0.210 C 
ENDBRANCH   9  14
ENDBRANCH   3   6
ENDBRANCH   1   3
BRANCH   1  16
ATOM     16  C   UNL d   1       1.088   2.768   0.803  0.00  0.00     0.176 C 
BRANCH  16  17
ATOM     17  C   UNL d   1       2.413   2.990   0.212  0.00  0.00     0.021 A 
ATOM     18  C   UNL d   1       2.800   3.363  -1.114  0.00  0.00     0.075 A 
ATOM     19  N   UNL d   1       4.141   3.438  -1.199  0.00  0.00    -0.260 N 
ATOM     20  O   UNL d   1       4.637   3.132   0.049  0.00  0.00    -0.242 OA
ATOM     21  HN  UNL d   1       4.685   3.675  -2.028  1.00  0.00     0.195 HD
ATOM     22  C   UNL d   1       3.610   2.879   0.892  0.00  0.00     0.083 A 
ATOM     23  C   UNL d   1       3.949   2.555   2.292  0.00  0.00     0.079 C 
BRANCH  18  24
ATOM     24  C   UNL d   1       1.968   3.664  -2.283  0.00  0.00    -0.007 A 
ATOM     25  C   UNL d   1       2.419   3.337  -3.570  0.00  0.00     0.014 A 
ATOM     26  C   UNL d   1       1.660   3.661  -4.698  0.00  0.00     0.001 A 
ATOM     27  C   UNL d   1       0.434   4.306  -4.554  0.00  0.00     0.000 A 
ATOM     28  C   UNL d   1      -0.031   4.632  -3.284  0.00  0.00     0.001 A 
ATOM     29  C   UNL d   1       0.736   4.322  -2.156  0.00  0.00     0.014 A 
ENDBRANCH  18  24
ENDBRANCH  16  17
ENDBRANCH   1  16
TORSDOF 7
