REMARK  2 active torsions:
REMARK  status: ('A' for Active; 'I' for Inactive)
REMARK    1  A    between atoms: S_3  and  C_2 
REMARK    2  A    between atoms: C_7  and  S_3 
ROOT
ATOM      1  S   UNL d   1      -1.439  -1.732   0.019  0.00  0.00     0.177 S 
ATOM      2  C   UNL d   1      -1.885   0.910   0.069  0.00  0.00     0.162 A 
ATOM      3  C   UNL d   1      -2.646  -0.419  -0.020  0.00  0.00     0.171 A 
ATOM      4  C   UNL d   1      -0.399   0.650   0.082  0.00  0.00    -0.017 A 
ATOM      5  C   UNL d   1      -0.040  -0.695   0.064  0.00  0.00     0.067 A 
ATOM      6  O   UNL d   1      -1.443  -2.419  -1.252  0.00  0.00    -0.223 OA
ATOM      7  O   UNL d   1      -1.520  -2.416   1.293  0.00  0.00    -0.223 OA
ATOM      8  C   UNL d   1       0.618   1.599   0.026  0.00  0.00     0.010 A 
ATOM      9  C   UNL d   1       1.270  -1.145   0.021  0.00  0.00     0.024 A 
ATOM     10  C   UNL d   1       1.953   1.177  -0.003  0.00  0.00     0.001 A 
ATOM     11  C   UNL d   1       2.278  -0.186  -0.002  0.00  0.00     0.002 A 
ENDROOT
BRANCH   2  12
ATOM     12  S   UNL d   1      -2.422   1.893   1.460  0.00  0.00     0.184 S 
ATOM     13  O   UNL d   1      -1.629   3.109   1.522  0.00  0.00    -0.222 OA
ATOM     14  O   UNL d   1      -3.868   1.998   1.359  0.00  0.00    -0.222 OA
BRANCH  12  15
ATOM     15  C   UNL d   1      -2.075   0.957   2.929  0.00  0.00     0.060 A 
ATOM     16  C   UNL d   1      -0.839   1.091   3.563  0.00  0.00     0.024 A 
ATOM     17  C   UNL d   1      -0.572   0.335   4.705  0.00  0.00     0.008 A 
ATOM     18  C   UNL d   1      -1.538  -0.537   5.226  0.00  0.00    -0.062 A 
ATOM     19  C   UNL d   1      -2.795  -0.613   4.614  0.00  0.00     0.008 A 
ATOM     20  C   UNL d   1      -1.211  -1.399   6.410  0.00  0.00     0.048 C 
ATOM     21  C   UNL d   1      -3.070   0.144   3.476  0.00  0.00     0.024 A 
ENDBRANCH  12  15
ENDBRANCH   2  12
TORSDOF 2
