REMARK  2 active torsions:
REMARK  status: ('A' for Active; 'I' for Inactive)
REMARK    1  A    between atoms: C_2  and  C_1 
REMARK       I    between atoms: N_7  and  C_2 
REMARK    2  A    between atoms: O_11  and  N_7 
ROOT
ATOM      1  C   UNL d   1       0.001  -1.143   0.334  0.00  0.00     0.043 C 
ATOM      2  C   UNL d   1       0.015  -0.011   1.368  0.00  0.00     0.024 C 
ATOM      3  C   UNL d   1      -1.261  -0.805  -0.484  0.00  0.00     0.020 C 
ATOM      4  C   UNL d   1       1.243  -0.807  -0.515  0.00  0.00     0.020 C 
ATOM      5  C   UNL d   1       0.001   1.086   0.308  0.00  0.00    -0.013 C 
ATOM      6  C   UNL d   1       1.244   0.731  -0.526  0.00  0.00     0.006 C 
ATOM      7  C   UNL d   1      -1.262   0.732  -0.494  0.00  0.00     0.006 C 
ENDROOT
BRANCH   1   8
ATOM      8  C   UNL d   1       0.006  -2.534   0.932  0.00  0.00     0.249 C 
ATOM      9  O   UNL d   1       0.019  -2.757   2.141  0.00  0.00    -0.271 OA
ATOM     10  N   UNL d   1      -0.005  -3.552   0.015  0.00  0.00    -0.237 N 
ATOM     11  H   UNL d   1      -0.018  -3.445  -0.992  0.00  0.00     0.197 HD
BRANCH  10  12
ATOM     12  O   UNL d   1      -0.004  -4.866   0.531  0.00  0.00    -0.287 OA
ATOM     13  H   UNL d   1       0.005  -4.707   1.501  0.00  0.00     0.244 HD
ENDBRANCH  10  12
ENDBRANCH   1   8
TORSDOF 2
