REMARK  4 active torsions:
REMARK  status: ('A' for Active; 'I' for Inactive)
REMARK    1  A    between atoms: C_2  and  C_1 
REMARK    2  A    between atoms: O_4  and  C_2 
REMARK    3  A    between atoms: C_13  and  O_4 
REMARK    4  A    between atoms: C_7  and  C_9 
ROOT
ATOM      1  O   UNL d   1      -2.611  -3.619  -0.037  0.00  0.00    -0.275 OA
ENDROOT
BRANCH   1   2
ATOM      2  C   UNL d   1      -3.173  -2.749   0.883  0.00  0.00     0.300 C 
ATOM      3  O   UNL d   1      -2.946  -2.685   2.080  0.00  0.00    -0.259 OA
BRANCH   2   4
ATOM      4  C   UNL d   1      -4.237  -1.945   0.231  0.00  0.00     0.061 A 
ATOM      5  C   UNL d   1      -4.116  -1.358  -1.037  0.00  0.00     0.051 A 
ATOM      6  C   UNL d   1      -5.175  -0.604  -1.564  0.00  0.00     0.048 A 
ATOM      7 CL   UNL d   1      -2.681  -1.441  -1.996  0.00  0.00    -0.083 Cl
ATOM      8  C   UNL d   1      -6.338  -0.415  -0.819  0.00  0.00     0.035 A 
ATOM      9  C   UNL d   1      -6.456  -0.966   0.454  0.00  0.00     0.025 A 
ATOM     10 CL   UNL d   1      -7.625   0.521  -1.468  0.00  0.00    -0.084 Cl
ATOM     11  C   UNL d   1      -5.407  -1.727   0.978  0.00  0.00     0.021 A 
ENDBRANCH   2   4
ENDBRANCH   1   2
BRANCH   1  12
ATOM     12  C   UNL d   1      -1.447  -4.390   0.194  0.00  0.00     0.079 A 
ATOM     13  C   UNL d   1      -1.206  -5.401  -0.733  0.00  0.00     0.038 A 
ATOM     14  C   UNL d   1      -0.020  -6.142  -0.667  0.00  0.00     0.011 A 
ATOM     15  C   UNL d   1       0.956  -5.883   0.315  0.00  0.00    -0.050 A 
ATOM     16  C   UNL d   1       0.667  -4.877   1.255  0.00  0.00     0.011 A 
ATOM     17  C   UNL d   1      -0.520  -4.130   1.193  0.00  0.00     0.038 A 
BRANCH  15  18
ATOM     18  C   UNL d   1       2.292  -6.652   0.303  0.00  0.00    -0.024 C 
ATOM     19  C   UNL d   1       3.272  -6.219   1.417  0.00  0.00     0.019 C 
ATOM     20  C   UNL d   1       2.042  -8.165   0.476  0.00  0.00     0.019 C 
ATOM     21  C   UNL d   1       3.011  -6.414  -1.044  0.00  0.00     0.019 C 
ENDBRANCH  15  18
ENDBRANCH   1  12
TORSDOF 4
