REMARK  7 active torsions:
REMARK  status: ('A' for Active; 'I' for Inactive)
REMARK    1  A    between atoms: C_8  and  C_1 
REMARK    2  A    between atoms: C_2  and  N_6 
REMARK    3  A    between atoms: N_7  and  C_2 
REMARK    4  A    between atoms: C_5  and  C_8 
REMARK       I    between atoms: N_10  and  C_5 
REMARK    5  A    between atoms: N_6  and  N_10 
REMARK    6  A    between atoms: C_18  and  N_7 
REMARK    7  A    between atoms: C_19  and  C_13 
ROOT
ATOM      1  N   UNL d   1       2.100   2.146  -1.322  0.00  0.00    -0.274 N 
ATOM      2  H   UNL d   1       1.381   1.488  -1.630  0.00  0.00     0.189 HD
ENDROOT
BRANCH   1   3
ATOM      3  C   UNL d   1       1.795   3.473  -1.180  0.00  0.00     0.191 C 
ATOM      4  S   UNL d   1       2.486   4.483  -0.032  0.00  0.00    -0.039 SA
BRANCH   3   5
ATOM      5  N   UNL d   1       0.877   4.011  -2.035  0.00  0.00    -0.332 N 
ATOM      6  H   UNL d   1       0.550   4.925  -1.743  0.00  0.00     0.168 HD
BRANCH   5   7
ATOM      7  C   UNL d   1       0.418   3.565  -3.291  0.00  0.00     0.034 A 
ATOM      8  C   UNL d   1       0.998   2.522  -4.012  0.00  0.00     0.030 A 
ATOM      9  C   UNL d   1       0.437   2.089  -5.216  0.00  0.00     0.010 A 
ATOM     10  C   UNL d   1      -0.704   2.708  -5.737  0.00  0.00    -0.055 A 
ATOM     11  C   UNL d   1      -1.223   3.821  -5.066  0.00  0.00     0.010 A 
ATOM     12  C   UNL d   1      -0.664   4.248  -3.856  0.00  0.00     0.030 A 
BRANCH  10  13
ATOM     13  C   UNL d   1      -1.416   2.147  -6.954  0.00  0.00     0.010 C 
ATOM     14  C   UNL d   1      -0.520   2.091  -8.192  0.00  0.00     0.015 C 
ATOM     15  C   UNL d   1      -1.985   0.760  -6.632  0.00  0.00     0.015 C 
ENDBRANCH  10  13
ENDBRANCH   5   7
ENDBRANCH   3   5
ENDBRANCH   1   3
BRANCH   1  16
ATOM     16  N   UNL d   1       3.196   1.585  -0.669  0.00  0.00    -0.268 N 
ATOM     17  C   UNL d   1       3.342   0.210  -0.659  0.00  0.00     0.240 C 
ATOM     18  O   UNL d   1       2.445  -0.559  -1.000  0.00  0.00    -0.272 OA
ATOM     19  H   UNL d   1       3.980   2.211  -0.504  0.00  0.00     0.190 HD
BRANCH  17  20
ATOM     20  C   UNL d   1       4.692  -0.228  -0.144  0.00  0.00     0.144 C 
BRANCH  20  21
ATOM     21  C   UNL d   1       5.596  -0.941  -1.136  0.00  0.00    -0.037 C 
ATOM     22  C   UNL d   1       6.568  -0.215  -1.867  0.00  0.00    -0.054 C 
ATOM     23  C   UNL d   1       7.653  -0.900  -2.447  0.00  0.00     0.014 C 
ATOM     24  C   UNL d   1       6.530   1.280  -2.032  0.00  0.00     0.049 C 
ATOM     25  C   UNL d   1       7.733  -2.289  -2.406  0.00  0.00    -0.061 C 
ATOM     26  C   UNL d   1       6.666  -3.006  -1.857  0.00  0.00     0.014 C 
ATOM     27  C   UNL d   1       8.973  -2.995  -2.877  0.00  0.00     0.048 C 
ATOM     28  C   UNL d   1       5.586  -2.346  -1.244  0.00  0.00    -0.054 C 
ATOM     29  C   UNL d   1       4.425  -3.201  -0.805  0.00  0.00     0.049 C 
ENDBRANCH  20  21
ENDBRANCH  17  20
ENDBRANCH   1  16
TORSDOF 7
