REMARK  8 active torsions:
REMARK  status: ('A' for Active; 'I' for Inactive)
REMARK    1  A    between atoms: C_7  and  C_1 
REMARK    2  A    between atoms: N_22  and  C_3 
REMARK    3  A    between atoms: C_21  and  C_6 
REMARK       I    between atoms: N_15  and  C_7 
REMARK    4  A    between atoms: C_24  and  C_12 
REMARK    5  A    between atoms: C_13  and  N_18 
REMARK    6  A    between atoms: N_14  and  C_13 
REMARK    7  A    between atoms: C_16  and  N_14 
REMARK    8  A    between atoms: N_18  and  N_15 
ROOT
ATOM      1  C   UNL d   1      -2.525  -0.724  -0.250  0.00  0.00     0.103 A 
ATOM      2  C   UNL d   1      -0.170  -0.989  -0.086  0.00  0.00     0.040 A 
ATOM      3  C   UNL d   1      -1.462  -1.611  -0.300  0.00  0.00     0.062 A 
ATOM      4  C   UNL d   1      -0.350   0.380   0.055  0.00  0.00     0.103 A 
ATOM      5  S   UNL d   1      -1.977   0.870   0.040  0.00  0.00    -0.062 SA
ATOM      6  C   UNL d   1       1.178  -1.455   0.008  0.00  0.00     0.018 A 
ATOM      7  N   UNL d   1       1.876   0.859   0.236  0.00  0.00    -0.298 N 
ATOM      8  HN  UNL d   1       2.634   1.537   0.316  1.00  0.00     0.187 HD
ATOM      9  N   UNL d   1       0.629   1.286   0.213  0.00  0.00    -0.292 N 
ATOM     10  HN  UNL d   1       0.414   2.278   0.314  1.00  0.00     0.187 HD
ATOM     11  C   UNL d   1       2.176  -0.464   0.156  0.00  0.00     0.070 A 
ENDROOT
BRANCH   1  12
ATOM     12  C   UNL d   1      -3.952  -0.964  -0.420  0.00  0.00     0.279 C 
ATOM     13  N   UNL d   1      -4.256  -2.075  -1.202  0.00  0.00    -0.263 N 
ATOM     14  H   UNL d   1      -3.497  -2.684  -1.505  0.00  0.00     0.190 HD
ATOM     15  O   UNL d   1      -4.848  -0.288   0.086  0.00  0.00    -0.265 OA
BRANCH  13  16
ATOM     16  N   UNL d   1      -5.535  -2.673  -1.048  0.00  0.00    -0.273 N 
ATOM     17  H   UNL d   1      -6.215  -2.042  -0.625  0.00  0.00     0.189 HD
BRANCH  16  18
ATOM     18  C   UNL d   1      -5.612  -4.001  -0.697  0.00  0.00     0.191 C 
ATOM     19  S   UNL d   1      -4.333  -5.088  -0.743  0.00  0.00    -0.039 SA
BRANCH  18  20
ATOM     20  N   UNL d   1      -6.798  -4.459  -0.207  0.00  0.00    -0.331 N 
ATOM     21  H   UNL d   1      -6.708  -5.321   0.328  0.00  0.00     0.168 HD
BRANCH  20  22
ATOM     22  C   UNL d   1      -8.116  -3.972  -0.322  0.00  0.00     0.056 A 
ATOM     23  C   UNL d   1      -9.080  -4.420   0.604  0.00  0.00     0.062 A 
ATOM     24  C   UNL d   1     -10.411  -4.013   0.510  0.00  0.00     0.050 A 
ATOM     25 CL   UNL d   1      -8.639  -5.470   1.908  0.00  0.00    -0.082 Cl
ATOM     26  C   UNL d   1     -10.795  -3.180  -0.535  0.00  0.00     0.035 A 
ATOM     27  C   UNL d   1      -9.861  -2.749  -1.477  0.00  0.00     0.026 A 
ATOM     28 CL   UNL d   1     -12.439  -2.696  -0.678  0.00  0.00    -0.084 Cl
ATOM     29  C   UNL d   1      -8.521  -3.141  -1.369  0.00  0.00     0.033 A 
ENDBRANCH  20  22
ENDBRANCH  18  20
ENDBRANCH  16  18
ENDBRANCH  13  16
ENDBRANCH   1  12
BRANCH   3  30
ATOM     30  N   UNL d   1      -1.650  -2.936  -0.536  0.00  0.00    -0.397 N 
ATOM     31  H   UNL d   1      -0.845  -3.550  -0.664  0.00  0.00     0.156 HD
ATOM     32  H   UNL d   1      -2.348  -3.445   0.013  0.00  0.00     0.156 HD
ENDBRANCH   3  30
BRANCH   6  33
ATOM     33  C   UNL d   1       1.461  -2.898  -0.052  0.00  0.00    -0.023 A 
ATOM     34  C   UNL d   1       2.241  -3.448  -1.082  0.00  0.00     0.012 A 
ATOM     35  C   UNL d   1       2.514  -4.818  -1.123  0.00  0.00     0.001 A 
ATOM     36  C   UNL d   1       1.984  -5.666  -0.154  0.00  0.00     0.000 A 
ATOM     37  C   UNL d   1       1.207  -5.144   0.876  0.00  0.00     0.001 A 
ATOM     38  C   UNL d   1       0.970  -3.769   0.940  0.00  0.00     0.012 A 
ENDBRANCH   6  33
BRANCH  11  39
ATOM     39  C   UNL d   1       3.634  -0.738   0.194  0.00  0.00    -0.007 A 
ATOM     40  C   UNL d   1       4.514   0.005  -0.617  0.00  0.00     0.014 A 
ATOM     41  C   UNL d   1       5.884  -0.275  -0.655  0.00  0.00     0.001 A 
ATOM     42  C   UNL d   1       6.406  -1.306   0.121  0.00  0.00     0.000 A 
ATOM     43  C   UNL d   1       5.564  -2.034   0.956  0.00  0.00     0.001 A 
ATOM     44  C   UNL d   1       4.197  -1.740   1.005  0.00  0.00     0.014 A 
ENDBRANCH  11  39
TORSDOF 8
