REMARK  6 active torsions:
REMARK  status: ('A' for Active; 'I' for Inactive)
REMARK    1  A    between atoms: N_4  and  C_1 
REMARK    2  A    between atoms: S_2  and  N_4 
REMARK    3  A    between atoms: C_9  and  S_2 
REMARK    4  A    between atoms: C_8  and  C_3 
REMARK    5  A    between atoms: O_15  and  C_8 
REMARK    6  A    between atoms: C_21  and  O_15 
ROOT
ATOM      1  C   UNL d   1      -2.163  -0.753   0.034  0.00  0.00     0.101 A 
ATOM      2  C   UNL d   1      -1.094  -1.642  -0.037  0.00  0.00     0.081 A 
ATOM      3  S   UNL d   1      -1.685   0.883  -0.034  0.00  0.00    -0.075 SA
ATOM      4  C   UNL d   1       0.159  -0.897  -0.003  0.00  0.00    -0.026 A 
ATOM      5  C   UNL d   1      -0.049   0.469  -0.016  0.00  0.00    -0.008 A 
ATOM      6  C   UNL d   1       1.555  -1.464  -0.019  0.00  0.00     0.041 C 
ATOM      7  C   UNL d   1       1.014   1.522   0.010  0.00  0.00     0.047 C 
ATOM      8  C   UNL d   1       2.602  -0.418   0.403  0.00  0.00     0.005 C 
ATOM      9  C   UNL d   1       2.386   0.921  -0.312  0.00  0.00     0.005 C 
ENDROOT
BRANCH   1  10
ATOM     10  N   UNL d   1      -3.552  -1.030   0.087  0.00  0.00    -0.273 N 
ATOM     11  H   UNL d   1      -4.020  -1.456  -0.709  0.00  0.00     0.179 HD
BRANCH  10  12
ATOM     12  S   UNL d   1      -4.191  -1.503   1.574  0.00  0.00     0.263 S 
ATOM     13  O   UNL d   1      -5.568  -1.889   1.316  0.00  0.00    -0.200 OA
ATOM     14  O   UNL d   1      -3.283  -2.408   2.240  0.00  0.00    -0.200 OA
BRANCH  12  15
ATOM     15  C   UNL d   1      -4.220   0.034   2.465  0.00  0.00     0.079 A 
ATOM     16  C   UNL d   1      -5.279   0.924   2.294  0.00  0.00     0.026 A 
ATOM     17  C   UNL d   1      -5.260   2.148   2.967  0.00  0.00     0.008 A 
ATOM     18  C   UNL d   1      -4.190   2.479   3.812  0.00  0.00    -0.062 A 
ATOM     19  C   UNL d   1      -3.147   1.562   3.994  0.00  0.00     0.008 A 
ATOM     20  C   UNL d   1      -4.173   3.806   4.515  0.00  0.00     0.048 C 
ATOM     21  C   UNL d   1      -3.163   0.336   3.329  0.00  0.00     0.026 A 
ENDBRANCH  12  15
ENDBRANCH  10  12
ENDBRANCH   1  10
BRANCH   2  22
ATOM     22  C   UNL d   1      -1.190  -3.101  -0.107  0.00  0.00     0.296 C 
ATOM     23  O   UNL d   1      -0.264  -3.851   0.199  0.00  0.00    -0.259 OA
BRANCH  22  24
ATOM     24  O   UNL d   1      -2.381  -3.537  -0.614  0.00  0.00    -0.318 OA
BRANCH  24  25
ATOM     25  C   UNL d   1      -2.539  -4.961  -0.694  0.00  0.00     0.174 C 
ATOM     26  C   UNL d   1      -3.072  -5.492   0.622  0.00  0.00     0.034 C 
ENDBRANCH  24  25
ENDBRANCH  22  24
ENDBRANCH   2  22
TORSDOF 6
