REMARK  1 active torsions:
REMARK  status: ('A' for Active; 'I' for Inactive)
REMARK    1  A    between atoms: C_2  and  C_1 
REMARK       I    between atoms: N_5  and  C_2 
ROOT
ATOM      1  C   UNL d   1       0.884  -1.174  -0.008  0.00  0.00     0.049 A 
ATOM      2  C   UNL d   1       0.257   0.084  -0.006  0.00  0.00     0.026 A 
ATOM      3 BR   UNL d   1      -1.623   0.380  -0.015  0.00  0.00    -0.050 Br
ATOM      4  C   UNL d   1       2.296  -1.208   0.004  0.00  0.00     0.018 A 
ATOM      5  C   UNL d   1       1.033   1.257   0.006  0.00  0.00     0.020 A 
ATOM      6  C   UNL d   1       3.058  -0.038   0.016  0.00  0.00     0.001 A 
ATOM      7  C   UNL d   1       2.425   1.197   0.017  0.00  0.00     0.001 A 
ENDROOT
BRANCH   1   8
ATOM      8  C   UNL d   1       0.226  -2.520  -0.021  0.00  0.00     0.250 C 
ATOM      9  O   UNL d   1       0.889  -3.553  -0.020  0.00  0.00    -0.268 OA
ATOM     10  N   UNL d   1      -1.132  -2.614  -0.034  0.00  0.00    -0.366 N 
ATOM     11  H   UNL d   1      -1.749  -1.815  -0.035  0.00  0.00     0.159 HD
ATOM     12  H   UNL d   1      -1.538  -3.540  -0.043  0.00  0.00     0.159 HD
ENDBRANCH   1   8
TORSDOF 1
