REMARK  2 active torsions:
REMARK  status: ('A' for Active; 'I' for Inactive)
REMARK    1  A    between atoms: C_5  and  N_1 
REMARK    2  A    between atoms: C_16  and  C_15 
ROOT
ATOM      1  N   UNL d   1      -1.822   7.555  -1.806  0.00  0.00    -0.197 NA
ATOM      2  C   UNL d   1      -0.961   7.128  -1.155  0.00  0.00     0.063 C 
ATOM      3  C   UNL d   1       0.140   6.608  -0.327  0.00  0.00     0.162 C 
ENDROOT
BRANCH   3   4
ATOM      4  C   UNL d   1       0.147   5.101  -0.252  0.00  0.00    -0.045 A 
ATOM      5  C   UNL d   1       0.859   4.341  -1.185  0.00  0.00     0.010 A 
ATOM      6  C   UNL d   1       0.835   2.941  -1.134  0.00  0.00     0.031 A 
ATOM      7  C   UNL d   1       0.090   2.254  -0.163  0.00  0.00     0.045 A 
ATOM      8  C   UNL d   1      -0.627   3.029   0.761  0.00  0.00     0.031 A 
ATOM      9  C   UNL d   1      -0.595   4.430   0.725  0.00  0.00     0.010 A 
BRANCH   7  10
ATOM     10  N   UNL d   1       0.065   0.826  -0.118  0.00  0.00    -0.252 N 
ATOM     11  C   UNL d   1      -0.923   0.083   0.490  0.00  0.00     0.231 A 
ATOM     12  C   UNL d   1      -0.633  -1.376   0.304  0.00  0.00     0.113 A 
ATOM     13  O   UNL d   1      -1.937   0.461   1.062  0.00  0.00    -0.273 OA
ATOM     14  C   UNL d   1       0.707  -1.417  -0.381  0.00  0.00     0.113 A 
ATOM     15  C   UNL d   1       1.037   0.017  -0.664  0.00  0.00     0.231 A 
ATOM     16  O   UNL d   1       2.070   0.329  -1.242  0.00  0.00    -0.273 OA
ENDBRANCH   7  10
ENDBRANCH   3   4
TORSDOF 2
