REMARK  3 active torsions:
REMARK  status: ('A' for Active; 'I' for Inactive)
REMARK    1  A    between atoms: C_2  and  S_1 
REMARK    2  A    between atoms: N_3  and  S_1 
REMARK    3  A    between atoms: C_9  and  N_3 
ROOT
ATOM      1  S   UNL d   1       0.852  -0.215  -0.220  0.00  0.00     0.264 S 
ATOM      2  O   UNL d   1       0.259   0.624   0.805  0.00  0.00    -0.200 OA
ATOM      3  O   UNL d   1       2.287  -0.343  -0.289  0.00  0.00    -0.200 OA
ENDROOT
BRANCH   1   4
ATOM      4  C   UNL d   1       0.162   0.319  -1.776  0.00  0.00     0.096 A 
ATOM      5  C   UNL d   1       0.804   0.239  -3.018  0.00  0.00     0.031 A 
ATOM      6  C   UNL d   1       0.171   0.781  -4.154  0.00  0.00     0.043 A 
ATOM      7  I   UNL d   1       2.643  -0.685  -3.424  0.00  0.00    -0.043 I 
ATOM      8  C   UNL d   1      -1.087   1.376  -4.056  0.00  0.00     0.035 A 
ATOM      9  C   UNL d   1      -1.738   1.438  -2.832  0.00  0.00     0.025 A 
ATOM     10 CL   UNL d   1      -1.838   2.030  -5.458  0.00  0.00    -0.084 Cl
ATOM     11  C   UNL d   1      -1.114   0.919  -1.698  0.00  0.00     0.028 A 
ENDBRANCH   1   4
BRANCH   1  12
ATOM     12  N   UNL d   1       0.136  -1.722  -0.007  0.00  0.00    -0.281 N 
ATOM     13  H   UNL d   1      -0.258  -1.831   0.926  0.00  0.00     0.179 HD
BRANCH  12  14
ATOM     14  C   UNL d   1       0.690  -2.873  -0.619  0.00  0.00     0.042 A 
ATOM     15  C   UNL d   1       1.872  -3.442  -0.141  0.00  0.00     0.032 A 
ATOM     16  C   UNL d   1       2.326  -4.650  -0.674  0.00  0.00     0.026 A 
ATOM     17  C   UNL d   1       1.590  -5.287  -1.673  0.00  0.00     0.034 A 
ATOM     18  C   UNL d   1       0.409  -4.721  -2.150  0.00  0.00     0.026 A 
ATOM     19 CL   UNL d   1       2.130  -6.793  -2.304  0.00  0.00    -0.084 Cl
ATOM     20  C   UNL d   1      -0.046  -3.513  -1.615  0.00  0.00     0.032 A 
ENDBRANCH  12  14
ENDBRANCH   1  12
TORSDOF 3
