REMARK  8 active torsions:
REMARK  status: ('A' for Active; 'I' for Inactive)
REMARK    1  A    between atoms: N_7  and  S_1 
REMARK    2  A    between atoms: C_10  and  S_1 
REMARK    3  A    between atoms: C_8  and  C_2 
REMARK    4  A    between atoms: C_4  and  C_14 
REMARK    5  A    between atoms: C_9  and  C_5 
REMARK    6  A    between atoms: O_28  and  C_9 
REMARK    7  A    between atoms: C_27  and  N_11 
REMARK    8  A    between atoms: C_29  and  C_27 
ROOT
ATOM      1  C   UNL d   1       0.386  -0.802  -1.523  0.00  0.00     0.079 A 
ATOM      2  C   UNL d   1      -0.472  -2.052  -3.914  0.00  0.00    -0.025 A 
ATOM      3  C   UNL d   1       1.303  -1.076  -2.543  0.00  0.00     0.026 A 
ATOM      4  C   UNL d   1      -0.959  -1.148  -1.693  0.00  0.00     0.026 A 
ATOM      5  C   UNL d   1      -1.380  -1.760  -2.880  0.00  0.00     0.014 A 
ATOM      6  C   UNL d   1       0.875  -1.710  -3.725  0.00  0.00     0.014 A 
ENDROOT
BRANCH   1   7
ATOM      7  S   UNL d   1       0.923  -0.162   0.061  0.00  0.00     0.260 S 
ATOM      8  O   UNL d   1       0.244  -0.965   1.061  0.00  0.00    -0.200 OA
ATOM      9  O   UNL d   1       2.372  -0.073   0.035  0.00  0.00    -0.200 OA
BRANCH   7  10
ATOM     10  N   UNL d   1       0.271   1.407   0.081  0.00  0.00    -0.303 N 
ATOM     11  C   UNL d   1       1.062   2.444  -0.621  0.00  0.00     0.165 C 
ATOM     12  C   UNL d   1       2.081   3.087   0.345  0.00  0.00     0.293 C 
ATOM     13  N   UNL d   1       1.455   3.797   1.489  0.00  0.00     0.095 N 
ATOM     14  C   UNL d   1       0.549   2.855   2.183  0.00  0.00     0.293 C 
ATOM     15  C   UNL d   1      -0.358   1.925   1.336  0.00  0.00     0.165 C 
BRANCH  13  16
ATOM     16  C   UNL d   1       0.838   5.044   1.008  0.00  0.00     0.311 C 
BRANCH  16  17
ATOM     17  C   UNL d   1       0.276   6.026   2.015  0.00  0.00    -0.030 A 
ATOM     18  C   UNL d   1       0.718   6.138   3.338  0.00  0.00     0.009 A 
ATOM     19  C   UNL d   1       0.167   7.106   4.187  0.00  0.00     0.001 A 
ATOM     20  C   UNL d   1      -0.805   7.990   3.717  0.00  0.00     0.000 A 
ATOM     21  C   UNL d   1      -1.218   7.922   2.392  0.00  0.00     0.001 A 
ATOM     22  C   UNL d   1      -0.677   6.953   1.549  0.00  0.00     0.009 A 
ENDBRANCH  16  17
ENDBRANCH  13  16
ENDBRANCH   7  10
ENDBRANCH   1   7
BRANCH   2  23
ATOM     23  C   UNL d   1      -0.952  -2.784  -5.098  0.00  0.00    -0.002 A 
ATOM     24  C   UNL d   1      -0.646  -2.466  -6.418  0.00  0.00     0.100 A 
ATOM     25  S   UNL d   1      -1.446  -3.526  -7.519  0.00  0.00    -0.079 SA
ATOM     26  C   UNL d   1      -2.208  -4.407  -6.277  0.00  0.00     0.081 A 
ATOM     27  C   UNL d   1      -1.853  -3.912  -5.040  0.00  0.00     0.038 A 
BRANCH  24  28
ATOM     28  C   UNL d   1       0.212  -1.381  -6.994  0.00  0.00     0.424 C 
ATOM     29  F   UNL d   1       0.158  -1.308  -8.352  0.00  0.00    -0.166 F 
ATOM     30  F   UNL d   1      -0.145  -0.154  -6.534  0.00  0.00    -0.166 F 
ATOM     31  F   UNL d   1       1.523  -1.554  -6.683  0.00  0.00    -0.166 F 
ENDBRANCH  24  28
BRANCH  26  32
ATOM     32  C   UNL d   1      -3.099  -5.505  -6.624  0.00  0.00     0.299 C 
ATOM     33  O   UNL d   1      -3.380  -5.890  -7.750  0.00  0.00    -0.259 OA
BRANCH  32  34
ATOM     34  O   UNL d   1      -3.595  -6.070  -5.480  0.00  0.00    -0.322 OA
ATOM     35  C   UNL d   1      -4.474  -7.173  -5.703  0.00  0.00     0.213 C 
ENDBRANCH  32  34
ENDBRANCH  26  32
ENDBRANCH   2  23
TORSDOF 8
