REMARK  9 active torsions:
REMARK  status: ('A' for Active; 'I' for Inactive)
REMARK    1  A    between atoms: C_4  and  C_1 
REMARK       I    between atoms: C_2  and  N_5 
REMARK       I    between atoms: N_7  and  C_2 
REMARK    2  A    between atoms: O_6  and  C_3 
REMARK    3  A    between atoms: N_5  and  C_4 
REMARK    4  A    between atoms: C_10  and  O_6 
REMARK    5  A    between atoms: C_11  and  N_7 
REMARK    6  A    between atoms: O_12  and  C_13 
REMARK    7  A    between atoms: C_16  and  O_12 
REMARK    8  A    between atoms: O_27  and  C_15 
REMARK    9  A    between atoms: C_25  and  C_16 
ROOT
ATOM      1  C   UNL d   1      -3.086   3.000   0.160  0.00  0.00     0.320 C 
ATOM      2  N   UNL d   1      -2.182   2.052  -0.206  0.00  0.00    -0.338 N 
ATOM      3  N   UNL d   1      -4.386   2.623   0.343  0.00  0.00    -0.309 N 
ATOM      4  O   UNL d   1      -2.764   4.149   0.461  0.00  0.00    -0.247 OA
ATOM      5  H   UNL d   1      -2.550   1.120  -0.270  0.00  0.00     0.164 HD
ATOM      6  H   UNL d   1      -4.859   3.342   0.877  0.00  0.00     0.170 HD
ENDROOT
BRANCH   2   7
ATOM      7  C   UNL d   1      -0.835   2.088   0.313  0.00  0.00     0.167 C 
BRANCH   7   8
ATOM      8  C   UNL d   1       0.167   3.081  -0.223  0.00  0.00     0.015 A 
ATOM      9  C   UNL d   1       0.081   3.714  -1.475  0.00  0.00     0.085 A 
ATOM     10  C   UNL d   1       1.042   4.651  -1.891  0.00  0.00     0.038 A 
ATOM     11  C   UNL d   1       2.159   4.909  -1.104  0.00  0.00     0.004 A 
ATOM     12  C   UNL d   1       2.322   4.224   0.093  0.00  0.00     0.024 A 
ATOM     13  C   UNL d   1       1.342   3.322   0.525  0.00  0.00     0.044 A 
ATOM     14 CL   UNL d   1       1.682   2.464   1.996  0.00  0.00    -0.084 Cl
BRANCH   9  15
ATOM     15  O   UNL d   1      -0.952   3.460  -2.350  0.00  0.00    -0.310 OA
BRANCH  15  16
ATOM     16  C   UNL d   1      -0.709   2.508  -3.321  0.00  0.00     0.076 A 
ATOM     17  C   UNL d   1       0.023   1.342  -3.099  0.00  0.00     0.040 A 
ATOM     18  C   UNL d   1       0.144   0.387  -4.112  0.00  0.00     0.039 A 
ATOM     19  C   UNL d   1      -0.458   0.588  -5.352  0.00  0.00     0.068 A 
ATOM     20  C   UNL d   1      -1.173   1.763  -5.584  0.00  0.00     0.039 A 
ATOM     21  C   UNL d   1      -1.306   2.717  -4.566  0.00  0.00     0.040 A 
BRANCH  19  22
ATOM     22  O   UNL d   1      -0.272  -0.439  -6.236  0.00  0.00    -0.356 OA
ATOM     23  C   UNL d   1      -0.912  -0.327  -7.498  0.00  0.00     0.210 C 
ENDBRANCH  19  22
ENDBRANCH  15  16
ENDBRANCH   9  15
ENDBRANCH   7   8
ENDBRANCH   2   7
BRANCH   3  24
ATOM     24  C   UNL d   1      -4.965   1.340   0.373  0.00  0.00     0.036 A 
ATOM     25  C   UNL d   1      -5.840   1.057   1.428  0.00  0.00     0.032 A 
ATOM     26  C   UNL d   1      -6.373  -0.227   1.589  0.00  0.00     0.039 A 
ATOM     27  C   UNL d   1      -6.059  -1.229   0.674  0.00  0.00     0.069 A 
ATOM     28  C   UNL d   1      -5.272  -0.921  -0.436  0.00  0.00     0.039 A 
ATOM     29  C   UNL d   1      -4.725   0.359  -0.589  0.00  0.00     0.032 A 
BRANCH  27  30
ATOM     30  O   UNL d   1      -6.520  -2.515   0.745  0.00  0.00    -0.347 OA
BRANCH  30  31
ATOM     31  C   UNL d   1      -6.579  -3.065   2.066  0.00  0.00     0.214 C 
BRANCH  31  32
ATOM     32  C   UNL d   1      -6.849  -4.557   2.041  0.00  0.00    -0.034 A 
ATOM     33  C   UNL d   1      -7.008  -5.276   0.848  0.00  0.00     0.009 A 
ATOM     34  C   UNL d   1      -7.267  -6.649   0.870  0.00  0.00     0.001 A 
ATOM     35  C   UNL d   1      -7.370  -7.321   2.085  0.00  0.00     0.000 A 
ATOM     36  C   UNL d   1      -7.213  -6.623   3.280  0.00  0.00     0.001 A 
ATOM     37  C   UNL d   1      -6.953  -5.251   3.259  0.00  0.00     0.009 A 
ENDBRANCH  31  32
ENDBRANCH  30  31
ENDBRANCH  27  30
ENDBRANCH   3  24
TORSDOF 9
