REMARK  7 active torsions:
REMARK  status: ('A' for Active; 'I' for Inactive)
REMARK    1  A    between atoms: O_8  and  C_1 
REMARK       I    between atoms: C_2  and  N_7 
REMARK    2  A    between atoms: O_17  and  C_2 
REMARK    3  A    between atoms: C_10  and  C_4 
REMARK    4  A    between atoms: C_5  and  C_26 
REMARK    5  A    between atoms: N_7  and  C_15 
REMARK    6  A    between atoms: C_16  and  O_8 
REMARK    7  A    between atoms: C_26  and  O_17 
ROOT
ATOM      1  N   UNL d   1       4.755  -8.372  11.759  0.00  0.00    -0.191 NA
ATOM      2  C   UNL d   1       4.164  -8.435  10.759  0.00  0.00     0.099 C 
ATOM      3  C   UNL d   1       2.061  -8.770   7.094  0.00  0.00     0.017 A 
ATOM      4  C   UNL d   1       3.443  -8.529   9.524  0.00  0.00     0.044 A 
ATOM      5  C   UNL d   1       3.275  -8.077   7.146  0.00  0.00     0.022 A 
ATOM      6  C   UNL d   1       1.527  -9.318   8.262  0.00  0.00     0.022 A 
ATOM      7  C   UNL d   1       3.966  -7.959   8.357  0.00  0.00     0.024 A 
ATOM      8  C   UNL d   1       2.216  -9.199   9.474  0.00  0.00     0.024 A 
ENDROOT
BRANCH   3   9
ATOM      9  C   UNL d   1       1.382  -8.946   5.847  0.00  0.00    -0.065 C 
ATOM     10  C   UNL d   1       0.840  -9.098   4.782  0.00  0.00    -0.074 C 
BRANCH  10  11
ATOM     11  C   UNL d   1       0.228  -9.224   3.454  0.00  0.00     0.274 C 
BRANCH  11  12
ATOM     12  O   UNL d   1       0.920  -8.345   2.556  0.00  0.00    -0.292 OA
BRANCH  12  13
ATOM     13  C   UNL d   1       0.358  -7.112   2.465  0.00  0.00     0.366 C 
ATOM     14  N   UNL d   1       1.292  -6.236   1.980  0.00  0.00    -0.303 N 
ATOM     15  H   UNL d   1       2.174  -6.659   1.730  0.00  0.00     0.171 HD
ATOM     16  O   UNL d   1      -0.782  -6.861   2.825  0.00  0.00    -0.238 OA
BRANCH  14  17
ATOM     17  C   UNL d   1       1.172  -4.835   1.905  0.00  0.00     0.037 A 
ATOM     18  C   UNL d   1       0.012  -4.150   2.265  0.00  0.00     0.032 A 
ATOM     19  C   UNL d   1      -0.065  -2.762   2.134  0.00  0.00     0.039 A 
ATOM     20  C   UNL d   1       1.016  -2.033   1.644  0.00  0.00     0.078 A 
ATOM     21  C   UNL d   1       2.208  -2.700   1.370  0.00  0.00     0.039 A 
ATOM     22  C   UNL d   1       2.279  -4.097   1.476  0.00  0.00     0.032 A 
BRANCH  20  23
ATOM     23  O   UNL d   1       0.793  -0.697   1.533  0.00  0.00    -0.255 OA
BRANCH  23  24
ATOM     24  C   UNL d   1       1.482   0.052   0.544  0.00  0.00     0.530 C 
ATOM     25  F   UNL d   1       2.233  -0.688  -0.298  0.00  0.00    -0.144 F 
ATOM     26  F   UNL d   1       2.279   0.955   1.154  0.00  0.00    -0.144 F 
ATOM     27  F   UNL d   1       0.575   0.725  -0.199  0.00  0.00    -0.144 F 
ENDBRANCH  23  24
ENDBRANCH  20  23
ENDBRANCH  14  17
ENDBRANCH  12  13
ENDBRANCH  11  12
ENDBRANCH  10  11
ENDBRANCH   3   9
TORSDOF 7
