REMARK  3 active torsions:
REMARK  status: ('A' for Active; 'I' for Inactive)
REMARK    1  A    between atoms: N_8  and  C_1 
REMARK    2  A    between atoms: C_5  and  C_2 
REMARK       I    between atoms: C_6  and  N_9 
REMARK    3  A    between atoms: C_11  and  C_6 
ROOT
ATOM      1  C   UNL d   1      -1.086  -1.494  -0.056  0.00  0.00     0.045 A 
ATOM      2  C   UNL d   1      -1.276   0.725   0.893  0.00  0.00     0.119 A 
ATOM      3  N   UNL d   1      -1.147   1.308  -0.326  0.00  0.00    -0.352 N 
ATOM      4  HN  UNL d   1      -1.172   2.324  -0.421  1.00  0.00     0.166 HD
ATOM      5  C   UNL d   1      -1.264  -0.658   1.052  0.00  0.00     0.064 A 
ATOM      6  C   UNL d   1      -0.945  -0.881  -1.338  0.00  0.00     0.017 A 
ATOM      7  C   UNL d   1      -0.984   0.527  -1.405  0.00  0.00     0.045 A 
ATOM      8  C   UNL d   1      -0.719  -1.599  -2.539  0.00  0.00     0.016 A 
ATOM      9  C   UNL d   1      -0.817   1.155  -2.632  0.00  0.00     0.030 A 
ATOM     10  C   UNL d   1      -0.575  -0.951  -3.766  0.00  0.00     0.001 A 
ATOM     11  C   UNL d   1      -0.623   0.431  -3.812  0.00  0.00     0.002 A 
ENDROOT
BRANCH   1  12
ATOM     12  N   UNL d   1      -0.961  -2.875   0.100  0.00  0.00    -0.377 N 
ATOM     13  C   UNL d   1      -0.360  -3.420   1.332  0.00  0.00     0.143 C 
ATOM     14  C   UNL d   1       0.277  -4.779   0.998  0.00  0.00     0.146 C 
ATOM     15  N   UNL d   1      -0.696  -5.702   0.381  0.00  0.00    -0.344 N 
ATOM     16  C   UNL d   1      -0.798  -6.997   0.893  0.00  0.00     0.260 C 
ATOM     17  C   UNL d   1      -1.457  -5.128  -0.747  0.00  0.00     0.146 C 
ATOM     18  O   UNL d   1      -0.152  -7.311   1.897  0.00  0.00    -0.267 OA
ATOM     19  C   UNL d   1      -2.041  -3.734  -0.425  0.00  0.00     0.143 C 
BRANCH  16  20
ATOM     20  C   UNL d   1      -1.692  -7.946   0.245  0.00  0.00     0.072 A 
ATOM     21  S   UNL d   1      -2.647  -8.968   1.246  0.00  0.00    -0.097 SA
ATOM     22  C   UNL d   1      -3.400  -9.702  -0.100  0.00  0.00     0.050 A 
ATOM     23  C   UNL d   1      -2.915  -9.216  -1.291  0.00  0.00     0.009 A 
ATOM     24  C   UNL d   1      -1.895  -8.237  -1.092  0.00  0.00     0.025 A 
ENDBRANCH  16  20
ENDBRANCH   1  12
BRANCH   2  25
ATOM     25  C   UNL d   1      -1.409   1.600   2.130  0.00  0.00     0.432 C 
ATOM     26  F   UNL d   1      -1.300   2.937   1.894  0.00  0.00    -0.165 F 
ATOM     27  F   UNL d   1      -2.608   1.429   2.763  0.00  0.00    -0.165 F 
ATOM     28  F   UNL d   1      -0.461   1.313   3.072  0.00  0.00    -0.165 F 
ENDBRANCH   2  25
TORSDOF 3
