REMARK  4 active torsions:
REMARK  status: ('A' for Active; 'I' for Inactive)
REMARK    1  A    between atoms: C_7  and  C_1 
REMARK       I    between atoms: N_14  and  C_7 
REMARK    2  A    between atoms: N_12  and  N_14 
REMARK    3  A    between atoms: C_18  and  C_16 
REMARK    4  A    between atoms: O_24  and  C_19 
ROOT
ATOM      1  C   UNL d   1       2.116   2.498   0.051  0.00  0.00     0.289 C 
ATOM      2  N   UNL d   1       3.490   2.751  -0.025  0.00  0.00    -0.265 N 
ATOM      3  O   UNL d   1       1.311   3.426   0.102  0.00  0.00    -0.264 OA
ATOM      4  H   UNL d   1       4.172   2.014  -0.084  0.00  0.00     0.190 HD
ENDROOT
BRANCH   1   5
ATOM      5  C   UNL d   1       1.687   1.104   0.062  0.00  0.00     0.132 A 
ATOM      6  N   UNL d   1       0.344   0.710   0.145  0.00  0.00    -0.302 N 
ATOM      7  C   UNL d   1       0.323  -0.681   0.117  0.00  0.00     0.113 A 
ATOM      8  C   UNL d   1      -0.840   1.455   0.238  0.00  0.00     0.099 A 
ATOM      9  C   UNL d   1      -0.938  -1.338   0.187  0.00  0.00     0.056 A 
ATOM     10  N   UNL d   1       1.529  -1.182   0.026  0.00  0.00    -0.344 N 
ATOM     11  C   UNL d   1      -2.081  -0.624   0.277  0.00  0.00    -0.057 A 
ATOM     12  C   UNL d   1      -2.031   0.833   0.303  0.00  0.00     0.024 A 
ATOM     13  C   UNL d   1      -3.420  -1.295   0.354  0.00  0.00     0.048 C 
ATOM     14  C   UNL d   1       2.381  -0.106  -0.013  0.00  0.00     0.040 A 
ATOM     15  HN  UNL d   1       1.784  -2.169  -0.009  1.00  0.00     0.167 HD
ATOM     16  C   UNL d   1       3.828  -0.408  -0.134  0.00  0.00     0.071 C 
ENDBRANCH   1   5
BRANCH   2  17
ATOM     17  N   UNL d   1       3.906   4.050  -0.162  0.00  0.00    -0.308 N 
ATOM     18  C   UNL d   1       5.176   4.280  -0.258  0.00  0.00     0.118 C 
ATOM     19  HN  UNL d   1       3.232   4.815  -0.189  1.00  0.00     0.186 HD
BRANCH  18  20
ATOM     20  C   UNL d   1       5.671   5.659  -0.503  0.00  0.00    -0.019 A 
ATOM     21  C   UNL d   1       4.762   6.716  -0.606  0.00  0.00     0.015 A 
ATOM     22  C   UNL d   1       5.210   7.989  -0.966  0.00  0.00     0.037 A 
ATOM     23  C   UNL d   1       6.564   8.229  -1.205  0.00  0.00     0.068 A 
ATOM     24  C   UNL d   1       7.479   7.184  -1.061  0.00  0.00     0.037 A 
ATOM     25  C   UNL d   1       7.033   5.896  -0.711  0.00  0.00     0.015 A 
BRANCH  23  26
ATOM     26  O   UNL d   1       6.843   9.496  -1.635  0.00  0.00    -0.356 OA
ATOM     27  C   UNL d   1       8.169   9.970  -1.457  0.00  0.00     0.210 C 
ENDBRANCH  23  26
ENDBRANCH  18  20
ENDBRANCH   2  17
TORSDOF 4
