REMARK  2 active torsions:
REMARK  status: ('A' for Active; 'I' for Inactive)
REMARK    1  A    between atoms: C_8  and  C_6 
REMARK    2  A    between atoms: O_20  and  C_14 
ROOT
ATOM      1  N   UNL d   1       1.593   1.415  -0.605  0.00  0.00    -0.326 N 
ATOM      2  HN  UNL d   1       1.791   2.281  -1.106  1.00  0.00     0.180 HD
ATOM      3  C   UNL d   1       0.441   0.922  -0.319  0.00  0.00     0.038 C 
ATOM      4  C   UNL d   1       0.554  -0.738   0.486  0.00  0.00     0.293 C 
ATOM      5  N   UNL d   1       2.511   0.509  -0.083  0.00  0.00    -0.229 NA
ATOM      6  C   UNL d   1       2.055  -0.897   0.153  0.00  0.00     0.148 C 
ATOM      7  N   UNL d   1      -0.631  -1.667  -0.095  0.00  0.00     0.100 N 
ATOM      8  C   UNL d   1      -1.244   1.411  -0.665  0.00  0.00     0.038 C 
ATOM      9  C   UNL d   1      -2.216  -1.367   0.059  0.00  0.00     0.274 C 
ATOM     10  C   UNL d   1      -0.752  -0.676  -1.036  0.00  0.00     0.274 C 
ATOM     11  C   UNL d   1      -2.704   0.315  -0.684  0.00  0.00     0.041 C 
ATOM     12  C   UNL d   1      -1.172   0.562   0.442  0.00  0.00     0.041 C 
ATOM     13  H   UNL d   1       3.416   0.546  -0.558  0.00  0.00     0.147 HD
ENDROOT
BRANCH   6  14
ATOM     14  C   UNL d   1       2.648  -1.558   1.391  0.00  0.00    -0.035 A 
ATOM     15  C   UNL d   1       2.870  -0.807   2.562  0.00  0.00     0.030 A 
ATOM     16  C   UNL d   1       2.924  -1.416   3.828  0.00  0.00     0.044 A 
ATOM     17 BR   UNL d   1       2.922  -0.196   5.286  0.00  0.00    -0.048 Br
ATOM     18  C   UNL d   1       2.824  -2.809   3.931  0.00  0.00     0.085 A 
ATOM     19  C   UNL d   1       2.703  -3.560   2.750  0.00  0.00     0.039 A 
ATOM     20  C   UNL d   1       2.616  -2.951   1.495  0.00  0.00     0.012 A 
BRANCH  18  21
ATOM     21  O   UNL d   1       2.699  -3.592   5.045  0.00  0.00    -0.355 OA
ATOM     22  C   UNL d   1       3.362  -3.208   6.237  0.00  0.00     0.210 C 
ENDBRANCH  18  21
ENDBRANCH   6  14
TORSDOF 2
