REMARK  3 active torsions:
REMARK  status: ('A' for Active; 'I' for Inactive)
REMARK    1  A    between atoms: C_2  and  C_1 
REMARK    2  A    between atoms: O_8  and  C_2 
REMARK    3  A    between atoms: C_12  and  O_8 
ROOT
ATOM      1  N   UNL d   1       2.926   5.461   0.137  0.00  0.00    -0.191 NA
ATOM      2  C   UNL d   1       1.839   5.061   0.082  0.00  0.00     0.099 C 
ATOM      3  C   UNL d   1      -2.098   3.523  -0.056  0.00  0.00     0.079 A 
ATOM      4  C   UNL d   1       0.497   4.556   0.023  0.00  0.00     0.044 A 
ATOM      5  C   UNL d   1       0.144   3.609  -0.947  0.00  0.00     0.025 A 
ATOM      6  C   UNL d   1      -1.757   4.470   0.911  0.00  0.00     0.039 A 
ATOM      7  C   UNL d   1      -1.153   3.085  -0.983  0.00  0.00     0.039 A 
ATOM      8  C   UNL d   1      -0.460   4.990   0.948  0.00  0.00     0.025 A 
ENDROOT
BRANCH   3   9
ATOM      9  O   UNL d   1      -3.397   2.978   0.048  0.00  0.00    -0.273 OA
BRANCH   9  10
ATOM     10  C   UNL d   1      -4.108   2.496  -1.054  0.00  0.00     0.322 C 
ATOM     11  O   UNL d   1      -3.753   2.590  -2.224  0.00  0.00    -0.257 OA
BRANCH  10  12
ATOM     12  C   UNL d   1      -5.332   1.862  -0.616  0.00  0.00     0.152 A 
ATOM     13  O   UNL d   1      -5.640   1.792   0.719  0.00  0.00    -0.297 OA
ATOM     14  C   UNL d   1      -6.825   1.133   0.827  0.00  0.00     0.122 A 
ATOM     15 BR   UNL d   1      -7.681   0.765   2.443  0.00  0.00    -0.023 Br
ATOM     16  C   UNL d   1      -7.294   0.777  -0.416  0.00  0.00     0.048 A 
ATOM     17  C   UNL d   1      -6.333   1.246  -1.346  0.00  0.00     0.047 A 
ENDBRANCH  10  12
ENDBRANCH   9  10
ENDBRANCH   3   9
TORSDOF 3
