REMARK  6 active torsions:
REMARK  status: ('A' for Active; 'I' for Inactive)
REMARK    1  A    between atoms: N_5  and  C_1 
REMARK    2  A    between atoms: C_4  and  C_7 
REMARK    3  A    between atoms: C_6  and  C_14 
REMARK    4  A    between atoms: O_8  and  C_6 
REMARK    5  A    between atoms: C_10  and  O_8 
REMARK    6  A    between atoms: N_9  and  C_11 
ROOT
ATOM      1  N   UNL d   1       0.118   2.320  -0.189  0.00  0.00    -0.218 N 
ATOM      2  C   UNL d   1      -0.047   5.196  -0.076  0.00  0.00     0.089 C 
ATOM      3  C   UNL d   1      -0.285   2.942   1.067  0.00  0.00     0.142 C 
ATOM      4  C   UNL d   1      -0.273   3.016  -1.410  0.00  0.00     0.142 C 
ATOM      5  C   UNL d   1       0.295   4.442  -1.377  0.00  0.00     0.035 C 
ATOM      6  C   UNL d   1       0.346   4.331   1.132  0.00  0.00     0.035 C 
ENDROOT
BRANCH   2   7
ATOM      7  C   UNL d   1      -1.516   5.619  -0.089  0.00  0.00     0.268 C 
ATOM      8  O   UNL d   1      -2.105   5.993  -1.093  0.00  0.00    -0.264 OA
BRANCH   7   9
ATOM      9  O   UNL d   1      -2.071   5.544   1.185  0.00  0.00    -0.276 OA
BRANCH   9  10
ATOM     10  C   UNL d   1      -3.446   5.218   1.365  0.00  0.00     0.105 A 
ATOM     11  C   UNL d   1      -4.021   5.478   2.633  0.00  0.00     0.064 A 
ATOM     12  C   UNL d   1      -5.290   4.911   2.864  0.00  0.00     0.032 A 
ATOM     13  C   UNL d   1      -5.936   4.117   1.911  0.00  0.00     0.002 A 
ATOM     14  C   UNL d   1      -5.346   3.888   0.674  0.00  0.00     0.003 A 
ATOM     15  C   UNL d   1      -4.102   4.442   0.398  0.00  0.00     0.040 A 
BRANCH  11  16
ATOM     16  N   UNL d   1      -3.330   6.163   3.635  0.00  0.00    -0.379 N 
ATOM     17  C   UNL d   1      -3.668   5.919   5.041  0.00  0.00     0.123 C 
ATOM     18  C   UNL d   1      -2.421   6.185   5.883  0.00  0.00     0.020 C 
ATOM     19  C   UNL d   1      -1.888   7.599   5.656  0.00  0.00     0.003 C 
ATOM     20  C   UNL d   1      -1.708   7.899   4.165  0.00  0.00     0.020 C 
ATOM     21  C   UNL d   1      -2.964   7.561   3.356  0.00  0.00     0.123 C 
ENDBRANCH  11  16
ENDBRANCH   9  10
ENDBRANCH   7   9
ENDBRANCH   2   7
BRANCH   1  22
ATOM     22  C   UNL d   1       0.162   0.937  -0.207  0.00  0.00     0.680 A 
ATOM     23  N   UNL d   1      -0.048   0.288  -1.361  0.00  0.00    -0.186 N 
ATOM     24  C   UNL d   1       0.117  -1.061  -1.394  0.00  0.00     0.133 A 
ATOM     25  HN  UNL d   1      -0.327   0.797  -2.199  1.00  0.00     0.184 HD
ATOM     26  C   UNL d   1       0.505  -1.776  -0.278  0.00  0.00     0.052 A 
ATOM     27  C   UNL d   1       0.682  -1.041   0.863  0.00  0.00     0.108 A 
ATOM     28  N   UNL d   1       0.507   0.290   0.918  0.00  0.00    -0.202 N 
ATOM     29  HN  UNL d   1       0.633   0.797   1.794  1.00  0.00     0.183 HD
BRANCH  24  30
ATOM     30  C   UNL d   1      -0.107  -1.800  -2.699  0.00  0.00     0.433 C 
ATOM     31  F   UNL d   1      -0.552  -1.017  -3.722  0.00  0.00    -0.165 F 
ATOM     32  F   UNL d   1       1.029  -2.402  -3.157  0.00  0.00    -0.165 F 
ATOM     33  F   UNL d   1      -1.024  -2.805  -2.577  0.00  0.00    -0.165 F 
ENDBRANCH  24  30
ENDBRANCH   1  22
TORSDOF 6
