REMARK  5 active torsions:
REMARK  status: ('A' for Active; 'I' for Inactive)
REMARK    1  A    between atoms: O_15  and  C_1 
REMARK    2  A    between atoms: O_17  and  C_2 
REMARK    3  A    between atoms: O_16  and  C_3 
REMARK    4  A    between atoms: C_13  and  N_4 
REMARK    5  A    between atoms: C_10  and  C_9 
ROOT
ATOM      1  C   UNL d   1       1.401  -0.362  -0.066  0.00  0.00     0.135 A 
ATOM      2  C   UNL d   1       0.451  -1.405   0.065  0.00  0.00     0.105 A 
ATOM      3  C   UNL d   1       0.957   0.971  -0.154  0.00  0.00     0.105 A 
ATOM      4  C   UNL d   1      -0.914  -1.122  -0.029  0.00  0.00     0.052 A 
ATOM      5  C   UNL d   1      -0.420   1.236  -0.179  0.00  0.00     0.052 A 
ATOM      6  C   UNL d   1      -1.343   0.196  -0.142  0.00  0.00    -0.015 A 
ENDROOT
BRANCH   6   7
ATOM      7  C   UNL d   1      -2.798   0.456  -0.185  0.00  0.00     0.100 C 
ATOM      8  N   UNL d   1      -3.281   1.653  -0.125  0.00  0.00    -0.365 N 
ATOM      9  HN  UNL d   1      -2.659   2.459  -0.064  1.00  0.00     0.165 HD
BRANCH   8  10
ATOM     10  C   UNL d   1      -4.675   1.831  -0.145  0.00  0.00     0.032 A 
ATOM     11  C   UNL d   1      -5.577   0.978   0.503  0.00  0.00     0.036 A 
ATOM     12  C   UNL d   1      -6.961   1.223   0.498  0.00  0.00    -0.054 A 
ATOM     13  C   UNL d   1      -7.881   0.244   1.174  0.00  0.00     0.049 C 
ATOM     14  C   UNL d   1      -7.451   2.380  -0.134  0.00  0.00    -0.056 A 
ATOM     15  C   UNL d   1      -6.550   3.238  -0.780  0.00  0.00     0.009 A 
ATOM     16  C   UNL d   1      -8.912   2.734  -0.099  0.00  0.00     0.049 C 
ATOM     17  C   UNL d   1      -5.181   2.961  -0.786  0.00  0.00     0.030 A 
ENDBRANCH   8  10
ENDBRANCH   6   7
BRANCH   3  18
ATOM     18  O   UNL d   1       1.690   2.127  -0.223  0.00  0.00    -0.353 OA
ATOM     19  C   UNL d   1       3.105   2.061  -0.215  0.00  0.00     0.210 C 
ENDBRANCH   3  18
BRANCH   2  20
ATOM     20  O   UNL d   1       0.933  -2.673   0.297  0.00  0.00    -0.353 OA
ATOM     21  C   UNL d   1       0.015  -3.623   0.829  0.00  0.00     0.210 C 
ENDBRANCH   2  20
BRANCH   1  22
ATOM     22  O   UNL d   1       2.746  -0.620   0.020  0.00  0.00    -0.351 OA
ATOM     23  C   UNL d   1       3.241  -1.556  -0.940  0.00  0.00     0.210 C 
ENDBRANCH   1  22
TORSDOF 5
