REMARK  4 active torsions:
REMARK  status: ('A' for Active; 'I' for Inactive)
REMARK    1  A    between atoms: N_10  and  C_1 
REMARK    2  A    between atoms: O_16  and  C_8 
REMARK    3  A    between atoms: O_17  and  C_9 
REMARK    4  A    between atoms: C_13  and  N_10 
ROOT
ATOM      1  C   UNL d   1      -1.261  -0.201   0.022  0.00  0.00     0.689 A 
ATOM      2  N   UNL d   1      -0.780   0.930  -0.475  0.00  0.00    -0.154 N 
ATOM      3  HN  UNL d   1      -1.377   1.644  -0.894  1.00  0.00     0.188 HD
ATOM      4  N   UNL d   1      -0.513  -1.129   0.608  0.00  0.00    -0.154 N 
ATOM      5  HN  UNL d   1      -0.912  -1.990   0.982  1.00  0.00     0.188 HD
ATOM      6  N   UNL d   1       1.377   0.206   0.186  0.00  0.00    -0.287 N 
ATOM      7  HN  UNL d   1       2.383   0.361   0.242  1.00  0.00     0.173 HD
ATOM      8  C   UNL d   1       0.785  -0.866   0.675  0.00  0.00     0.240 A 
ATOM      9  C   UNL d   1       0.543   1.062  -0.385  0.00  0.00     0.240 A 
ENDROOT
BRANCH   1  10
ATOM     10  N   UNL d   1      -2.641  -0.396  -0.045  0.00  0.00    -0.191 N 
ATOM     11  H   UNL d   1      -3.122   0.412  -0.413  0.00  0.00     0.184 HD
BRANCH  10  12
ATOM     12  C   UNL d   1      -3.349  -1.607  -0.055  0.00  0.00     0.050 A 
ATOM     13  C   UNL d   1      -2.789  -2.792  -0.545  0.00  0.00     0.054 A 
ATOM     14  C   UNL d   1      -3.486  -4.002  -0.484  0.00  0.00     0.042 A 
ATOM     15 CL   UNL d   1      -2.719  -5.407  -1.135  0.00  0.00    -0.084 Cl
ATOM     16  C   UNL d   1      -4.760  -4.062   0.093  0.00  0.00    -0.040 A 
ATOM     17  C   UNL d   1      -5.328  -2.874   0.576  0.00  0.00     0.011 A 
ATOM     18  C   UNL d   1      -5.513  -5.356   0.214  0.00  0.00     0.050 C 
ATOM     19  C   UNL d   1      -4.634  -1.661   0.494  0.00  0.00     0.030 A 
ENDBRANCH  10  12
ENDBRANCH   1  10
BRANCH   9  20
ATOM     20  O   UNL d   1       1.158   2.176  -0.916  0.00  0.00    -0.327 OA
ATOM     21  C   UNL d   1       0.278   3.018  -1.646  0.00  0.00     0.213 C 
ENDBRANCH   9  20
BRANCH   8  22
ATOM     22  O   UNL d   1       1.626  -1.769   1.292  0.00  0.00    -0.327 OA
ATOM     23  C   UNL d   1       0.931  -2.847   1.907  0.00  0.00     0.213 C 
ENDBRANCH   8  22
TORSDOF 4
