REMARK  3 active torsions:
REMARK  status: ('A' for Active; 'I' for Inactive)
REMARK    1  A    between atoms: C_11  and  C_1 
REMARK       I    between atoms: C_4  and  N_10 
REMARK       I    between atoms: N_6  and  C_4 
REMARK    2  A    between atoms: C_7  and  N_6 
REMARK    3  A    between atoms: N_10  and  C_11 
ROOT
ATOM      1  C   UNL d   1       2.435  -4.195  -0.752  0.00  0.00     0.321 C 
ATOM      2  N   UNL d   1       1.100  -4.588  -0.665  0.00  0.00    -0.308 N 
ATOM      3  N   UNL d   1       2.644  -2.875  -0.417  0.00  0.00    -0.339 N 
ATOM      4  O   UNL d   1       3.384  -4.925  -1.016  0.00  0.00    -0.247 OA
ATOM      5  H   UNL d   1       0.399  -3.869  -0.727  0.00  0.00     0.170 HD
ATOM      6  H   UNL d   1       1.866  -2.245  -0.317  0.00  0.00     0.164 HD
ENDROOT
BRANCH   3   7
ATOM      7  C   UNL d   1       3.963  -2.431   0.025  0.00  0.00     0.164 C 
BRANCH   7   8
ATOM      8  C   UNL d   1       4.804  -1.810  -1.060  0.00  0.00    -0.022 A 
ATOM      9  C   UNL d   1       6.251  -1.622  -0.970  0.00  0.00    -0.009 A 
ATOM     10  C   UNL d   1       6.773  -1.003  -2.113  0.00  0.00     0.015 A 
ATOM     11  C   UNL d   1       7.179  -1.951   0.064  0.00  0.00     0.037 A 
ATOM     12  C   UNL d   1       8.152  -0.724  -2.258  0.00  0.00     0.021 A 
ATOM     13  S   UNL d   1       5.538  -0.659  -3.252  0.00  0.00    -0.101 SA
ATOM     14  C   UNL d   1       9.029  -1.062  -1.226  0.00  0.00     0.025 A 
ATOM     15  C   UNL d   1       8.543  -1.667  -0.079  0.00  0.00     0.035 A 
ATOM     16 CL   UNL d   1       9.634  -2.069   1.191  0.00  0.00    -0.084 Cl
ATOM     17  C   UNL d   1       4.322  -1.306  -2.256  0.00  0.00     0.060 A 
ENDBRANCH   7   8
ENDBRANCH   3   7
BRANCH   2  18
ATOM     18  C   UNL d   1       0.645  -5.949  -0.603  0.00  0.00     0.047 A 
ATOM     19  C   UNL d   1      -0.737  -6.312  -0.784  0.00  0.00     0.001 A 
ATOM     20  C   UNL d   1      -1.089  -7.695  -0.697  0.00  0.00    -0.024 A 
ATOM     21  C   UNL d   1      -1.814  -5.423  -1.061  0.00  0.00     0.014 A 
ATOM     22  C   UNL d   1      -2.404  -8.135  -0.894  0.00  0.00     0.012 A 
ATOM     23  C   UNL d   1      -0.126  -8.658  -0.386  0.00  0.00     0.012 A 
ATOM     24  C   UNL d   1      -3.427  -7.231  -1.152  0.00  0.00     0.001 A 
ATOM     25  C   UNL d   1      -3.135  -5.877  -1.220  0.00  0.00     0.001 A 
ATOM     26  C   UNL d   1       1.191  -8.296  -0.164  0.00  0.00     0.003 A 
ATOM     27  C   UNL d   1       1.568  -6.961  -0.282  0.00  0.00     0.030 A 
ENDBRANCH   2  18
TORSDOF 3
