REMARK  1 active torsions:
REMARK  status: ('A' for Active; 'I' for Inactive)
REMARK       I    between atoms: C_2  and  N_1 
REMARK    1  A    between atoms: C_9  and  C_2 
ROOT
ATOM      1  N   UNL d   1       0.793   1.512   0.590  0.00  0.00    -0.307 N 
ATOM      2  C   UNL d   1       0.942   2.159   1.838  0.00  0.00     0.258 C 
ATOM      3  C   UNL d   1       1.815   1.431  -0.464  0.00  0.00     0.098 C 
ATOM      4  N   UNL d   1       0.979  -1.417  -0.205  0.00  0.00    -0.325 N 
ATOM      5  C   UNL d   1      -0.333   0.643   0.427  0.00  0.00     0.064 A 
ATOM      6  C   UNL d   1       2.280  -1.081  -0.330  0.00  0.00     0.224 C 
ATOM      7  C   UNL d   1       2.801   0.318  -0.204  0.00  0.00     0.128 C 
ATOM      8  C   UNL d   1      -0.211  -0.707   0.042  0.00  0.00     0.061 A 
ATOM      9  O   UNL d   1       0.057   2.246   2.691  0.00  0.00    -0.267 OA
ATOM     10  O   UNL d   1       3.083  -1.997  -0.537  0.00  0.00    -0.273 OA
ATOM     11  C   UNL d   1       1.246   1.455  -1.896  0.00  0.00     0.033 C 
ATOM     12  C   UNL d   1      -1.617   1.179   0.637  0.00  0.00     0.032 A 
ATOM     13  C   UNL d   1      -1.382  -1.478  -0.097  0.00  0.00     0.032 A 
ATOM     14  C   UNL d   1      -2.765   0.407   0.461  0.00  0.00     0.002 A 
ATOM     15  C   UNL d   1      -2.647  -0.926   0.098  0.00  0.00     0.002 A 
ATOM     16  H   UNL d   1       0.872  -2.417  -0.360  0.00  0.00     0.169 HD
ENDROOT
BRANCH   2  17
ATOM     17  C   UNL d   1       2.275   2.652   2.278  0.00  0.00     0.034 A 
ATOM     18  C   UNL d   1       3.007   3.616   1.584  0.00  0.00     0.041 A 
ATOM     19  C   UNL d   1       4.282   3.962   2.034  0.00  0.00     0.035 A 
ATOM     20 CL   UNL d   1       5.235   5.063   1.117  0.00  0.00    -0.084 Cl
ATOM     21  C   UNL d   1       4.801   3.417   3.209  0.00  0.00     0.024 A 
ATOM     22  C   UNL d   1       4.036   2.517   3.949  0.00  0.00     0.003 A 
ATOM     23  C   UNL d   1       2.778   2.133   3.482  0.00  0.00     0.017 A 
ENDBRANCH   2  17
TORSDOF 1
