REMARK  1 active torsions:
REMARK  status: ('A' for Active; 'I' for Inactive)
REMARK    1  A    between atoms: N_5  and  C_1 
REMARK       I    between atoms: C_7  and  N_5 
REMARK       I    between atoms: N_12  and  C_7 
ROOT
ATOM      1  C   UNL d   1       1.887   1.071  -0.077  0.00  0.00     0.155 A 
ATOM      2  S   UNL d   1       1.741  -0.609   0.171  0.00  0.00    -0.034 SA
ATOM      3  N   UNL d   1       0.779   1.769  -0.169  0.00  0.00    -0.334 N 
ATOM      4  HN  UNL d   1       0.719   2.778  -0.304  1.00  0.00     0.168 HD
ATOM      5  C   UNL d   1       0.045  -0.437   0.117  0.00  0.00     0.104 A 
ATOM      6  C   UNL d   1      -0.293   0.905  -0.051  0.00  0.00     0.068 A 
ATOM      7  N   UNL d   1      -0.803  -1.481   0.226  0.00  0.00    -0.358 N 
ATOM      8  HN  UNL d   1      -0.494  -2.446   0.346  1.00  0.00     0.166 HD
ATOM      9  C   UNL d   1      -1.660   1.224  -0.092  0.00  0.00     0.034 A 
ATOM     10  C   UNL d   1      -2.104  -1.117   0.161  0.00  0.00     0.089 A 
ATOM     11  C   UNL d   1      -2.577   0.180   0.015  0.00  0.00     0.019 A 
ENDROOT
BRANCH   1  12
ATOM     12  N   UNL d   1       3.168   1.530  -0.179  0.00  0.00    -0.289 N 
ATOM     13  C   UNL d   1       3.538   2.801  -0.499  0.00  0.00     0.321 C 
ATOM     14  O   UNL d   1       4.732   3.071  -0.607  0.00  0.00    -0.247 OA
ATOM     15  N   UNL d   1       2.543   3.708  -0.705  0.00  0.00    -0.347 N 
ATOM     16  C   UNL d   1       2.766   5.051  -1.169  0.00  0.00     0.151 C 
ATOM     17  H   UNL d   1       1.588   3.374  -0.617  0.00  0.00     0.163 HD
ATOM     18  H   UNL d   1       3.924   0.870  -0.072  0.00  0.00     0.172 HD
ENDBRANCH   1  12
TORSDOF 1
