REMARK  10 active torsions:
REMARK  status: ('A' for Active; 'I' for Inactive)
REMARK    1  A    between atoms: C_1  and  O_8 
REMARK    2  A    between atoms: C_2  and  O_9 
REMARK    3  A    between atoms: C_3  and  N_7 
REMARK    4  A    between atoms: C_5  and  O_10 
REMARK    5  A    between atoms: C_6  and  C_15 
REMARK    6  A    between atoms: C_11  and  O_8 
REMARK    7  A    between atoms: C_12  and  O_9 
REMARK    8  A    between atoms: C_13  and  O_10 
REMARK    9  A    between atoms: C_14  and  O_16 
REMARK   10  A    between atoms: O_16  and  C_15 
ROOT
ATOM      1  C   UNL d   1       1.045  -1.121   0.042  0.00  0.00     0.223 C 
ATOM      2  C   UNL d   1       1.729   0.262   0.210  0.00  0.00     0.198 C 
ATOM      3  C   UNL d   1      -0.501  -1.098   0.290  0.00  0.00     0.391 C 
ATOM      4  O   UNL d   1      -1.101   0.095  -0.202  0.00  0.00    -0.345 OA
ATOM      5  C   UNL d   1       0.875   1.452  -0.254  0.00  0.00     0.195 C 
ATOM      6  C   UNL d   1      -0.539   1.303   0.305  0.00  0.00     0.181 C 
ENDROOT
BRANCH   3   7
ATOM      7  N   UNL d   1      -1.186  -2.295  -0.263  0.00  0.00     0.119 N 
ATOM      8  C   UNL d   1      -1.224  -2.387  -1.731  0.00  0.00     0.276 C 
ATOM      9  C   UNL d   1      -2.169  -1.408  -2.432  0.00  0.00     0.030 C 
ATOM     10  C   UNL d   1      -3.557  -1.331  -1.798  0.00  0.00     0.003 C 
ATOM     11  C   UNL d   1      -3.569  -1.450  -0.275  0.00  0.00     0.030 C 
ATOM     12  C   UNL d   1      -2.553  -2.465   0.252  0.00  0.00     0.276 C 
ENDBRANCH   3   7
BRANCH   1  13
ATOM     13  O   UNL d   1       1.744  -2.145   0.819  0.00  0.00    -0.309 OA
BRANCH  13  14
ATOM     14  C   UNL d   1       1.755  -2.040   2.174  0.00  0.00     0.255 C 
ATOM     15  O   UNL d   1       1.177  -1.184   2.820  0.00  0.00    -0.266 OA
ATOM     16  C   UNL d   1       2.589  -3.129   2.781  0.00  0.00     0.126 C 
ENDBRANCH  13  14
ENDBRANCH   1  13
BRANCH   2  17
ATOM     17  O   UNL d   1       3.054   0.308  -0.405  0.00  0.00    -0.311 OA
BRANCH  17  18
ATOM     18  C   UNL d   1       3.148   0.188  -1.758  0.00  0.00     0.255 C 
ATOM     19  O   UNL d   1       2.224  -0.079  -2.515  0.00  0.00    -0.266 OA
ATOM     20  C   UNL d   1       4.542   0.485  -2.212  0.00  0.00     0.126 C 
ENDBRANCH  17  18
ENDBRANCH   2  17
BRANCH   6  21
ATOM     21  C   UNL d   1      -1.444   2.467  -0.128  0.00  0.00     0.213 C 
BRANCH  21  22
ATOM     22  O   UNL d   1      -1.472   2.552  -1.565  0.00  0.00    -0.319 OA
BRANCH  22  23
ATOM     23  C   UNL d   1      -2.680   2.396  -2.166  0.00  0.00     0.254 C 
ATOM     24  O   UNL d   1      -3.761   2.333  -1.593  0.00  0.00    -0.266 OA
ATOM     25  C   UNL d   1      -2.529   2.336  -3.657  0.00  0.00     0.126 C 
ENDBRANCH  22  23
ENDBRANCH  21  22
ENDBRANCH   6  21
BRANCH   5  26
ATOM     26  O   UNL d   1       1.464   2.676   0.252  0.00  0.00    -0.311 OA
BRANCH  26  27
ATOM     27  C   UNL d   1       2.087   3.472  -0.658  0.00  0.00     0.255 C 
ATOM     28  O   UNL d   1       2.166   3.256  -1.861  0.00  0.00    -0.266 OA
ATOM     29  C   UNL d   1       2.676   4.685  -0.005  0.00  0.00     0.126 C 
ENDBRANCH  26  27
ENDBRANCH   5  26
TORSDOF 10
