REMARK  5 active torsions:
REMARK  status: ('A' for Active; 'I' for Inactive)
REMARK    1  A    between atoms: C_4  and  C_1 
REMARK    2  A    between atoms: O_6  and  C_2 
REMARK       I    between atoms: C_3  and  N_5 
REMARK    3  A    between atoms: C_9  and  C_3 
REMARK    4  A    between atoms: N_5  and  C_4 
REMARK    5  A    between atoms: C_10  and  O_6 
ROOT
ATOM      1  C   UNL d   1       0.238   1.057  -0.134  0.00  0.00     0.015 A 
ATOM      2  C   UNL d   1       1.647   1.118  -0.139  0.00  0.00     0.085 A 
ATOM      3  C   UNL d   1      -0.359  -0.220  -0.122  0.00  0.00     0.044 A 
ATOM      4 CL   UNL d   1      -2.076  -0.448  -0.108  0.00  0.00    -0.084 Cl
ATOM      5  C   UNL d   1       2.412  -0.059  -0.229  0.00  0.00     0.038 A 
ATOM      6  C   UNL d   1       1.802  -1.306  -0.201  0.00  0.00     0.004 A 
ATOM      7  C   UNL d   1       0.416  -1.385  -0.134  0.00  0.00     0.024 A 
ENDROOT
BRANCH   1   8
ATOM      8  C   UNL d   1      -0.596   2.312  -0.176  0.00  0.00     0.166 C 
BRANCH   8   9
ATOM      9  N   UNL d   1      -0.388   3.269   0.891  0.00  0.00    -0.352 N 
ATOM     10  C   UNL d   1      -0.424   2.926   2.227  0.00  0.00     0.251 C 
ATOM     11  O   UNL d   1      -0.507   1.770   2.632  0.00  0.00    -0.268 OA
ATOM     12  H   UNL d   1      -0.617   4.222   0.655  0.00  0.00     0.163 HD
BRANCH  10  13
ATOM     13  C   UNL d   1      -0.398   4.052   3.204  0.00  0.00     0.032 A 
ATOM     14  C   UNL d   1      -0.778   3.790   4.526  0.00  0.00     0.017 A 
ATOM     15  C   UNL d   1      -0.790   4.815   5.475  0.00  0.00     0.001 A 
ATOM     16  C   UNL d   1      -0.412   6.107   5.110  0.00  0.00     0.000 A 
ATOM     17  C   UNL d   1      -0.014   6.373   3.801  0.00  0.00     0.001 A 
ATOM     18  C   UNL d   1       0.007   5.348   2.852  0.00  0.00     0.017 A 
ENDBRANCH  10  13
ENDBRANCH   8   9
ENDBRANCH   1   8
BRANCH   2  19
ATOM     19  O   UNL d   1       2.253   2.364  -0.087  0.00  0.00    -0.310 OA
BRANCH  19  20
ATOM     20  C   UNL d   1       3.452   2.455   0.593  0.00  0.00     0.076 A 
ATOM     21  C   UNL d   1       4.488   3.148  -0.033  0.00  0.00     0.037 A 
ATOM     22  C   UNL d   1       5.755   3.178   0.552  0.00  0.00     0.003 A 
ATOM     23  C   UNL d   1       5.981   2.529   1.767  0.00  0.00     0.000 A 
ATOM     24  C   UNL d   1       4.930   1.887   2.421  0.00  0.00     0.003 A 
ATOM     25  C   UNL d   1       3.658   1.875   1.850  0.00  0.00     0.037 A 
ENDBRANCH  19  20
ENDBRANCH   2  19
TORSDOF 5
