REMARK  7 active torsions:
REMARK  status: ('A' for Active; 'I' for Inactive)
REMARK    1  A    between atoms: C_7  and  C_1 
REMARK    2  A    between atoms: C_11  and  C_4 
REMARK    3  A    between atoms: N_9  and  C_7 
REMARK       I    between atoms: C_8  and  N_9 
REMARK    4  A    between atoms: C_14  and  C_8 
REMARK    5  A    between atoms: C_10  and  C_15 
REMARK    6  A    between atoms: O_16  and  C_10 
REMARK    7  A    between atoms: C_15  and  C_14 
ROOT
ATOM      1  C   UNL d   1       0.030  -1.302  -0.007  0.00  0.00     0.020 A 
ATOM      2  N   UNL d   1      -1.343   0.516   0.007  0.00  0.00    -0.260 N 
ATOM      3  HN  UNL d   1      -2.170   1.113   0.005  1.00  0.00     0.195 HD
ATOM      4  C   UNL d   1      -1.325  -0.829   0.010  0.00  0.00     0.075 A 
ATOM      5  O   UNL d   1      -0.034   0.932   0.008  0.00  0.00    -0.242 OA
ATOM      6  C   UNL d   1       0.786  -0.146   0.004  0.00  0.00     0.082 A 
ATOM      7  C   UNL d   1       2.235   0.140  -0.002  0.00  0.00     0.079 C 
ENDROOT
BRANCH   1   8
ATOM      8  C   UNL d   1       0.542  -2.691  -0.069  0.00  0.00     0.166 C 
BRANCH   8   9
ATOM      9  N   UNL d   1       0.706  -3.198   1.276  0.00  0.00    -0.357 N 
ATOM     10  C   UNL d   1       1.509  -4.274   1.543  0.00  0.00     0.218 C 
ATOM     11  O   UNL d   1       2.206  -4.838   0.703  0.00  0.00    -0.274 OA
ATOM     12  H   UNL d   1       0.148  -2.795   2.019  0.00  0.00     0.162 HD
BRANCH  10  13
ATOM     13  C   UNL d   1       1.485  -4.722   2.989  0.00  0.00     0.113 C 
BRANCH  13  14
ATOM     14  C   UNL d   1       2.823  -5.334   3.374  0.00  0.00     0.119 C 
BRANCH  14  15
ATOM     15  C   UNL d   1       3.921  -4.310   3.248  0.00  0.00     0.139 C 
ATOM     16  O   UNL d   1       4.237  -3.546   4.149  0.00  0.00    -0.650 OA
BRANCH  15  17
ATOM     17  O   UNL d   1       4.488  -4.265   2.023  0.00  0.00    -0.776 OA
ATOM     18  H   UNL d   1       4.017  -4.812   1.351  0.00  0.00     0.167 HD
ENDBRANCH  15  17
ENDBRANCH  14  15
ENDBRANCH  13  14
ENDBRANCH  10  13
ENDBRANCH   8   9
ENDBRANCH   1   8
BRANCH   4  19
ATOM     19  C   UNL d   1      -2.585  -1.579   0.020  0.00  0.00    -0.007 A 
ATOM     20  C   UNL d   1      -3.729  -1.043  -0.593  0.00  0.00     0.014 A 
ATOM     21  C   UNL d   1      -4.940  -1.745  -0.589  0.00  0.00     0.001 A 
ATOM     22  C   UNL d   1      -5.023  -2.990   0.023  0.00  0.00     0.000 A 
ATOM     23  C   UNL d   1      -3.905  -3.530   0.648  0.00  0.00     0.001 A 
ATOM     24  C   UNL d   1      -2.697  -2.826   0.651  0.00  0.00     0.014 A 
ENDBRANCH   4  19
TORSDOF 7
