REMARK  4 active torsions:
REMARK  status: ('A' for Active; 'I' for Inactive)
REMARK    1  A    between atoms: C_2  and  N_1 
REMARK    2  A    between atoms: C_3  and  N_4 
REMARK    3  A    between atoms: O_20  and  C_6 
REMARK    4  A    between atoms: N_7  and  C_9 
ROOT
ATOM      1  N   UNL d   1      -1.046  -1.976   0.342  0.00  0.00    -0.297 N 
ATOM      2  HN  UNL d   1      -0.957  -1.086  -0.147  1.00  0.00     0.187 HD
ATOM      3  N   UNL d   1      -1.077  -2.041   1.591  0.00  0.00    -0.298 N 
ATOM      4  HN  UNL d   1      -0.232  -1.960   2.156  1.00  0.00     0.187 HD
ENDROOT
BRANCH   1   5
ATOM      5  C   UNL d   1      -1.142  -3.209  -0.360  0.00  0.00     0.087 A 
ATOM      6  C   UNL d   1      -1.431  -3.145  -1.734  0.00  0.00     0.133 A 
ATOM      7  C   UNL d   1      -1.585  -4.306  -2.493  0.00  0.00     0.154 A 
ATOM      8  F   UNL d   1      -1.866  -4.229  -3.801  0.00  0.00    -0.203 F 
ATOM      9  C   UNL d   1      -1.458  -5.555  -1.905  0.00  0.00     0.087 A 
ATOM     10  C   UNL d   1      -1.161  -5.627  -0.551  0.00  0.00     0.121 A 
ATOM     11  C   UNL d   1      -0.988  -4.477   0.219  0.00  0.00     0.076 A 
ATOM     12  F   UNL d   1      -1.049  -6.827   0.032  0.00  0.00    -0.206 F 
BRANCH   6  13
ATOM     13  O   UNL d   1      -1.580  -1.930  -2.357  0.00  0.00    -0.356 OA
ATOM     14  H   UNL d   1      -1.342  -1.240  -1.710  0.00  0.00     0.218 HD
ENDBRANCH   6  13
ENDBRANCH   1   5
BRANCH   3  15
ATOM     15  C   UNL d   1      -2.357  -2.234   2.177  0.00  0.00     0.081 A 
ATOM     16  C   UNL d   1      -2.469  -2.673   3.505  0.00  0.00     0.132 A 
ATOM     17  C   UNL d   1      -3.702  -2.950   4.115  0.00  0.00     0.062 A 
ATOM     18  C   UNL d   1      -4.865  -2.761   3.381  0.00  0.00     0.036 A 
ATOM     19  C   UNL d   1      -4.802  -2.275   2.076  0.00  0.00     0.026 A 
ATOM     20 CL   UNL d   1      -6.389  -3.126   4.083  0.00  0.00    -0.084 Cl
ATOM     21  C   UNL d   1      -3.561  -2.004   1.486  0.00  0.00     0.035 A 
BRANCH  16  22
ATOM     22  N   UNL d   1      -1.277  -2.839   4.311  0.00  0.00    -0.113 N 
ATOM     23  O   UNL d   1      -0.427  -3.647   3.914  0.00  0.00    -0.532 OA
ATOM     24  O   UNL d   1      -1.225  -2.196   5.368  0.00  0.00    -0.532 OA
ENDBRANCH  16  22
ENDBRANCH   3  15
TORSDOF 4
