REMARK  7 active torsions:
REMARK  status: ('A' for Active; 'I' for Inactive)
REMARK    1  A    between atoms: N_4  and  C_1 
REMARK    2  A    between atoms: N_10  and  C_1 
REMARK       I    between atoms: C_2  and  N_3 
REMARK    3  A    between atoms: C_9  and  C_2 
REMARK    4  A    between atoms: N_3  and  N_4 
REMARK    5  A    between atoms: C_11  and  N_10 
REMARK    6  A    between atoms: C_17  and  C_11 
REMARK    7  A    between atoms: C_12  and  C_17 
ROOT
ATOM      1  N   UNL d   1       0.360  -0.344  -1.319  0.00  0.00    -0.274 N 
ATOM      2  H   UNL d   1       0.793  -1.036  -1.928  0.00  0.00     0.189 HD
ENDROOT
BRANCH   1   3
ATOM      3  N   UNL d   1      -0.991  -0.088  -1.567  0.00  0.00    -0.264 N 
ATOM      4  C   UNL d   1      -1.562  -0.570  -2.728  0.00  0.00     0.270 C 
ATOM      5  O   UNL d   1      -1.027  -1.391  -3.465  0.00  0.00    -0.266 OA
ATOM      6  H   UNL d   1      -1.472   0.511  -0.903  0.00  0.00     0.190 HD
BRANCH   4   7
ATOM      7  C   UNL d   1      -2.903  -0.017  -3.046  0.00  0.00     0.036 A 
ATOM      8  C   UNL d   1      -3.197   1.325  -2.798  0.00  0.00     0.034 A 
ATOM      9  C   UNL d   1      -4.455   1.784  -3.142  0.00  0.00     0.088 A 
ATOM     10  N   UNL d   1      -5.407   1.006  -3.697  0.00  0.00    -0.375 N 
ATOM     11  C   UNL d   1      -5.086  -0.284  -3.942  0.00  0.00     0.088 A 
ATOM     12  HN  UNL d   1      -6.330   1.376  -3.924  1.00  0.00     0.164 HD
ATOM     13  C   UNL d   1      -3.854  -0.839  -3.645  0.00  0.00     0.034 A 
ENDBRANCH   4   7
ENDBRANCH   1   3
BRANCH   1  14
ATOM     14  C   UNL d   1       0.943   0.021  -0.132  0.00  0.00     0.186 C 
ATOM     15  S   UNL d   1       0.136   0.684   1.174  0.00  0.00    -0.040 SA
BRANCH  14  16
ATOM     16  N   UNL d   1       2.304  -0.105  -0.062  0.00  0.00    -0.366 N 
ATOM     17  H   UNL d   1       2.677   0.261   0.808  0.00  0.00     0.161 HD
BRANCH  16  18
ATOM     18  C   UNL d   1       3.179  -0.041  -1.225  0.00  0.00     0.126 C 
BRANCH  18  19
ATOM     19  C   UNL d   1       4.663  -0.062  -0.858  0.00  0.00     0.058 C 
BRANCH  19  20
ATOM     20  C   UNL d   1       5.514   0.003  -2.103  0.00  0.00    -0.057 A 
ATOM     21  C   UNL d   1       5.935   1.236  -2.618  0.00  0.00     0.007 A 
ATOM     22  C   UNL d   1       6.662   1.292  -3.809  0.00  0.00     0.001 A 
ATOM     23  C   UNL d   1       6.972   0.119  -4.494  0.00  0.00     0.000 A 
ATOM     24  C   UNL d   1       6.559  -1.112  -3.989  0.00  0.00     0.001 A 
ATOM     25  C   UNL d   1       5.833  -1.171  -2.799  0.00  0.00     0.007 A 
ENDBRANCH  19  20
ENDBRANCH  18  19
ENDBRANCH  16  18
ENDBRANCH  14  16
ENDBRANCH   1  14
TORSDOF 7
