REMARK  5 active torsions:
REMARK  status: ('A' for Active; 'I' for Inactive)
REMARK    1  A    between atoms: C_8  and  C_2 
REMARK    2  A    between atoms: S_9  and  C_5 
REMARK    3  A    between atoms: C_17  and  S_9 
REMARK    4  A    between atoms: C_11  and  C_17 
REMARK    5  A    between atoms: C_13  and  C_11 
ROOT
ATOM      1  N   UNL d   1       0.869   0.016   0.114  0.00  0.00    -0.315 N 
ATOM      2  C   UNL d   1       0.025   1.098  -0.075  0.00  0.00     0.134 A 
ATOM      3  N   UNL d   1      -1.216   0.638  -0.108  0.00  0.00    -0.283 N 
ATOM      4  HN  UNL d   1      -2.055   1.207  -0.217  1.00  0.00     0.188 HD
ATOM      5  C   UNL d   1       0.058  -1.089   0.165  0.00  0.00     0.163 A 
ATOM      6  N   UNL d   1      -1.194  -0.731   0.029  0.00  0.00    -0.278 N 
ATOM      7  HN  UNL d   1      -2.003  -1.352   0.024  1.00  0.00     0.189 HD
ATOM      8  C   UNL d   1       2.300   0.013   0.284  0.00  0.00     0.160 C 
ENDROOT
BRANCH   2   9
ATOM      9  C   UNL d   1       0.394   2.521  -0.146  0.00  0.00     0.010 A 
ATOM     10  C   UNL d   1      -0.460   3.483   0.414  0.00  0.00     0.029 A 
ATOM     11  C   UNL d   1      -0.114   4.852   0.432  0.00  0.00    -0.009 A 
ATOM     12  C   UNL d   1      -0.949   5.830   0.993  0.00  0.00     0.015 A 
ATOM     13  C   UNL d   1       1.111   5.279  -0.118  0.00  0.00     0.042 A 
ATOM     14  C   UNL d   1      -0.544   7.160   1.013  0.00  0.00     0.018 A 
ATOM     15  C   UNL d   1       0.688   7.471   0.471  0.00  0.00     0.088 A 
ATOM     16  N   UNL d   1       1.512   6.562  -0.093  0.00  0.00    -0.365 N 
ATOM     17  HN  UNL d   1       2.410   6.840  -0.488  1.00  0.00     0.165 HD
ATOM     18  C   UNL d   1       1.921   4.327  -0.717  0.00  0.00     0.031 A 
ATOM     19  C   UNL d   1       1.566   2.972  -0.758  0.00  0.00     0.017 A 
ENDBRANCH   2   9
BRANCH   5  20
ATOM     20  S   UNL d   1       0.656  -2.695   0.397  0.00  0.00    -0.085 SA
BRANCH  20  21
ATOM     21  C   UNL d   1      -0.885  -3.653   0.424  0.00  0.00     0.166 C 
BRANCH  21  22
ATOM     22  C   UNL d   1      -0.635  -5.117   0.763  0.00  0.00     0.169 C 
ATOM     23  O   UNL d   1       0.455  -5.568   1.112  0.00  0.00    -0.291 OA
BRANCH  22  24
ATOM     24  C   UNL d   1      -1.793  -6.067   0.677  0.00  0.00     0.011 A 
ATOM     25  C   UNL d   1      -3.099  -5.636   0.404  0.00  0.00     0.017 A 
ATOM     26  C   UNL d   1      -4.143  -6.564   0.318  0.00  0.00     0.025 A 
ATOM     27  C   UNL d   1      -3.890  -7.922   0.506  0.00  0.00     0.034 A 
ATOM     28  C   UNL d   1      -2.599  -8.362   0.788  0.00  0.00     0.025 A 
ATOM     29 CL   UNL d   1      -5.176  -9.056   0.384  0.00  0.00    -0.084 Cl
ATOM     30  C   UNL d   1      -1.555  -7.437   0.876  0.00  0.00     0.017 A 
ENDBRANCH  22  24
ENDBRANCH  21  22
ENDBRANCH  20  21
ENDBRANCH   5  20
TORSDOF 5
