REMARK  1 active torsions:
REMARK  status: ('A' for Active; 'I' for Inactive)
REMARK    1  A    between atoms: N_8  and  C_5 
ROOT
ATOM      1  C   UNL d   1       0.802  -0.259   0.060  0.00  0.00     0.069 A 
ATOM      2  N   UNL d   1       1.457  -1.447   0.057  0.00  0.00    -0.190 N 
ATOM      3  HN  UNL d   1       0.947  -2.325  -0.032  1.00  0.00     0.184 HD
ATOM      4  C   UNL d   1       1.482   0.943   0.144  0.00  0.00    -0.000 A 
ATOM      5  C   UNL d   1       2.799  -1.437   0.176  0.00  0.00     0.688 A 
ATOM      6  C   UNL d   1      -0.671  -0.352  -0.017  0.00  0.00     0.010 A 
ATOM      7  S   UNL d   1      -0.896   2.410   0.499  0.00  0.00    -0.120 SA
ATOM      8  C   UNL d   1      -1.502   0.773   0.134  0.00  0.00     0.013 A 
ATOM      9  N   UNL d   1       3.535  -0.322   0.305  0.00  0.00    -0.201 N 
ATOM     10  HN  UNL d   1       4.548  -0.354   0.419  1.00  0.00     0.183 HD
ATOM     11  C   UNL d   1       0.856   2.298   0.032  0.00  0.00     0.085 C 
ATOM     12  C   UNL d   1       2.858   0.838   0.276  0.00  0.00     0.116 A 
ATOM     13  C   UNL d   1      -1.302  -1.606  -0.195  0.00  0.00     0.039 A 
ATOM     14  C   UNL d   1      -2.903   0.636   0.088  0.00  0.00     0.021 A 
ATOM     15  C   UNL d   1      -2.691  -1.732  -0.222  0.00  0.00     0.035 A 
ATOM     16  C   UNL d   1      -3.497  -0.612  -0.089  0.00  0.00     0.025 A 
ATOM     17 CL   UNL d   1      -3.409  -3.286  -0.397  0.00  0.00    -0.084 Cl
ATOM     18  C   UNL d   1       1.051   2.891  -1.367  0.00  0.00     0.027 C 
ENDROOT
BRANCH   5  19
ATOM     19  N   UNL d   1       3.486  -2.689   0.146  0.00  0.00    -0.169 N 
ATOM     20  C   UNL d   1       2.919  -3.932  -0.065  0.00  0.00     0.114 A 
ATOM     21  C   UNL d   1       3.912  -4.887  -0.029  0.00  0.00     0.020 A 
ATOM     22  C   UNL d   1       5.130  -4.218   0.218  0.00  0.00     0.020 A 
ATOM     23  C   UNL d   1       4.847  -2.873   0.314  0.00  0.00     0.114 A 
ENDBRANCH   5  19
TORSDOF 1
