REMARK  7 active torsions:
REMARK  status: ('A' for Active; 'I' for Inactive)
REMARK    1  A    between atoms: C_2  and  C_1 
REMARK    2  A    between atoms: N_12  and  C_3 
REMARK    3  A    between atoms: C_7  and  O_23 
REMARK       I    between atoms: N_11  and  C_7 
REMARK    4  A    between atoms: C_9  and  N_11 
REMARK    5  A    between atoms: C_27  and  N_12 
REMARK    6  A    between atoms: O_23  and  C_26 
REMARK    7  A    between atoms: C_26  and  C_27 
ROOT
ATOM      1  C   UNL d   1       0.128  -6.560  -0.348  0.00  0.00     0.151 C 
ENDROOT
BRANCH   1   2
ATOM      2  C   UNL d   1       1.526  -5.954  -0.156  0.00  0.00     0.200 C 
BRANCH   2   3
ATOM      3  O   UNL d   1       2.548  -6.973  -0.140  0.00  0.00    -0.302 OA
BRANCH   3   4
ATOM      4  C   UNL d   1       2.961  -7.413  -1.351  0.00  0.00     0.365 C 
ATOM      5  N   UNL d   1       3.997  -8.313  -1.345  0.00  0.00    -0.303 N 
ATOM      6  H   UNL d   1       4.249  -8.565  -2.291  0.00  0.00     0.171 HD
ATOM      7  O   UNL d   1       2.480  -7.043  -2.417  0.00  0.00    -0.238 OA
BRANCH   5   8
ATOM      8  C   UNL d   1       4.755  -8.892  -0.309  0.00  0.00     0.040 A 
ATOM      9  C   UNL d   1       4.540  -8.686   1.055  0.00  0.00     0.053 A 
ATOM     10  C   UNL d   1       5.374  -9.297   2.000  0.00  0.00     0.037 A 
ATOM     11 CL   UNL d   1       5.099  -9.026   3.679  0.00  0.00    -0.084 Cl
ATOM     12  C   UNL d   1       6.423 -10.121   1.606  0.00  0.00     0.048 A 
ATOM     13  C   UNL d   1       6.633 -10.336   0.251  0.00  0.00     0.037 A 
ATOM     14  C   UNL d   1       5.807  -9.732  -0.701  0.00  0.00     0.053 A 
ATOM     15 CL   UNL d   1       7.925 -11.351  -0.262  0.00  0.00    -0.084 Cl
ENDBRANCH   5   8
ENDBRANCH   3   4
ENDBRANCH   2   3
ENDBRANCH   1   2
BRANCH   1  16
ATOM     16  N   UNL d   1      -0.976  -5.582  -0.295  0.00  0.00    -0.368 N 
ATOM     17  C   UNL d   1      -1.391  -5.085  -1.612  0.00  0.00     0.151 C 
BRANCH  16  18
ATOM     18  C   UNL d   1      -1.136  -4.697   0.772  0.00  0.00     0.125 A 
ATOM     19  N   UNL d   1      -1.567  -3.443   0.457  0.00  0.00    -0.350 N 
ATOM     20  C   UNL d   1      -1.738  -2.508   1.424  0.00  0.00     0.106 A 
ATOM     21  HN  UNL d   1      -1.762  -3.205  -0.515  1.00  0.00     0.166 HD
ATOM     22  C   UNL d   1      -1.472  -2.726   2.758  0.00  0.00     0.065 A 
ATOM     23  C   UNL d   1      -1.068  -4.011   3.110  0.00  0.00     0.045 A 
ATOM     24  C   UNL d   1      -0.919  -5.006   2.131  0.00  0.00     0.078 A 
ATOM     25 CL   UNL d   1      -0.523  -6.574   2.745  0.00  0.00    -0.080 Cl
BRANCH  22  26
ATOM     26  C   UNL d   1      -1.617  -1.617   3.750  0.00  0.00     0.418 C 
ATOM     27  F   UNL d   1      -1.212  -1.959   5.005  0.00  0.00    -0.166 F 
ATOM     28  F   UNL d   1      -2.901  -1.186   3.876  0.00  0.00    -0.166 F 
ATOM     29  F   UNL d   1      -0.884  -0.520   3.411  0.00  0.00    -0.166 F 
ENDBRANCH  22  26
ENDBRANCH  16  18
ENDBRANCH   1  16
TORSDOF 7
