REMARK  5 active torsions:
REMARK  status: ('A' for Active; 'I' for Inactive)
REMARK    1  A    between atoms: C_2  and  C_1 
REMARK       I    between atoms: N_3  and  C_1 
REMARK    2  A    between atoms: C_9  and  N_3 
REMARK    3  A    between atoms: O_12  and  C_4 
REMARK    4  A    between atoms: O_14  and  C_5 
REMARK    5  A    between atoms: O_13  and  C_6 
ROOT
ATOM      1  C   UNL d   1       0.372  -0.083  -1.402  0.00  0.00     0.037 A 
ATOM      2  C   UNL d   1      -1.035  -0.520  -3.793  0.00  0.00     0.135 A 
ATOM      3  C   UNL d   1      -1.457   0.474  -2.876  0.00  0.00     0.105 A 
ATOM      4  C   UNL d   1       0.111  -1.291  -3.506  0.00  0.00     0.105 A 
ATOM      5  C   UNL d   1       0.808  -1.050  -2.317  0.00  0.00     0.057 A 
ATOM      6  C   UNL d   1      -0.764   0.673  -1.679  0.00  0.00     0.057 A 
ENDROOT
BRANCH   1   7
ATOM      7  C   UNL d   1       1.095   0.017  -0.105  0.00  0.00     0.256 C 
ATOM      8  N   UNL d   1       1.114   1.258   0.504  0.00  0.00    -0.320 N 
ATOM      9  H   UNL d   1       0.558   1.996   0.098  0.00  0.00     0.169 HD
ATOM     10  O   UNL d   1       1.562  -1.027   0.336  0.00  0.00    -0.267 OA
BRANCH   8  11
ATOM     11  C   UNL d   1       1.715   1.552   1.753  0.00  0.00     0.073 A 
ATOM     12  C   UNL d   1       2.745   0.806   2.344  0.00  0.00     0.143 A 
ATOM     13  F   UNL d   1       3.380  -0.172   1.685  0.00  0.00    -0.204 F 
ATOM     14  C   UNL d   1       3.227   1.122   3.613  0.00  0.00     0.044 A 
ATOM     15  C   UNL d   1       2.706   2.209   4.307  0.00  0.00     0.003 A 
ATOM     16  C   UNL d   1       1.722   2.997   3.714  0.00  0.00     0.002 A 
ATOM     17  C   UNL d   1       1.236   2.677   2.440  0.00  0.00     0.033 A 
ENDBRANCH   8  11
ENDBRANCH   1   7
BRANCH   4  18
ATOM     18  O   UNL d   1       0.471  -2.280  -4.383  0.00  0.00    -0.353 OA
ATOM     19  C   UNL d   1       1.628  -3.056  -4.087  0.00  0.00     0.210 C 
ENDBRANCH   4  18
BRANCH   3  20
ATOM     20  O   UNL d   1      -2.592   1.183  -3.203  0.00  0.00    -0.353 OA
ATOM     21  C   UNL d   1      -2.743   2.455  -2.584  0.00  0.00     0.210 C 
ENDBRANCH   3  20
BRANCH   2  22
ATOM     22  O   UNL d   1      -1.865  -0.687  -4.878  0.00  0.00    -0.351 OA
ATOM     23  C   UNL d   1      -1.285  -1.129  -6.097  0.00  0.00     0.210 C 
ENDBRANCH   2  22
TORSDOF 5
