REMARK  6 active torsions:
REMARK  status: ('A' for Active; 'I' for Inactive)
REMARK    1  A    between atoms: C_7  and  C_3 
REMARK    2  A    between atoms: C_11  and  N_4 
REMARK    3  A    between atoms: O_12  and  C_7 
REMARK    4  A    between atoms: N_8  and  O_12 
REMARK    5  A    between atoms: C_13  and  C_10 
REMARK    6  A    between atoms: N_17  and  C_10 
ROOT
ATOM      1  O   UNL d   1       1.857  -2.035   0.032  0.00  0.00    -0.192 OA
ENDROOT
BRANCH   1   2
ATOM      2  N   UNL d   1       3.203  -1.566   0.016  0.00  0.00    -0.246 N 
ATOM      3  C   UNL d   1       4.072  -2.531  -0.008  0.00  0.00     0.109 C 
ATOM      4  HN  UNL d   1       3.457  -0.578   0.024  1.00  0.00     0.196 HD
BRANCH   3   5
ATOM      5  C   UNL d   1       5.531  -2.166  -0.043  0.00  0.00     0.004 A 
ATOM      6  C   UNL d   1       5.969  -0.944   0.487  0.00  0.00     0.016 A 
ATOM      7  C   UNL d   1       7.330  -0.617   0.475  0.00  0.00     0.024 A 
ATOM      8  C   UNL d   1       8.254  -1.503  -0.078  0.00  0.00     0.034 A 
ATOM      9  C   UNL d   1       7.828  -2.712  -0.625  0.00  0.00     0.024 A 
ATOM     10 CL   UNL d   1       9.928  -1.103  -0.088  0.00  0.00    -0.084 Cl
ATOM     11  C   UNL d   1       6.467  -3.044  -0.608  0.00  0.00     0.016 A 
ENDBRANCH   3   5
BRANCH   3  12
ATOM     12  N   UNL d   1       3.731  -3.862   0.015  0.00  0.00    -0.286 NA
ATOM     13  H   UNL d   1       2.760  -4.002   0.282  0.00  0.00     0.125 HD
ATOM     14  H   UNL d   1       4.361  -4.463   0.535  0.00  0.00     0.125 HD
ENDBRANCH   3  12
ENDBRANCH   1   2
BRANCH   1  15
ATOM     15  C   UNL d   1       1.004  -0.945   0.014  0.00  0.00     0.333 C 
ATOM     16  O   UNL d   1       1.372   0.231   0.017  0.00  0.00    -0.256 OA
BRANCH  15  17
ATOM     17  C   UNL d   1      -0.434  -1.285  -0.000  0.00  0.00     0.127 A 
ATOM     18  N   UNL d   1      -0.963  -2.524   0.010  0.00  0.00    -0.292 N 
ATOM     19  N   UNL d   1      -2.319  -2.344  -0.012  0.00  0.00    -0.287 N 
ATOM     20  HN  UNL d   1      -0.458  -3.410   0.029  1.00  0.00     0.187 HD
ATOM     21  C   UNL d   1      -2.662  -1.005  -0.024  0.00  0.00     0.028 A 
ATOM     22  C   UNL d   1      -4.022  -0.406  -0.035  0.00  0.00     0.070 C 
ATOM     23  C   UNL d   1      -1.468  -0.320  -0.019  0.00  0.00     0.063 A 
BRANCH  19  24
ATOM     24  C   UNL d   1      -3.208  -3.531  -0.011  0.00  0.00     0.043 C 
ATOM     25  C   UNL d   1      -2.398  -4.854   0.017  0.00  0.00     0.039 C 
ATOM     26  C   UNL d   1      -4.107  -3.544   1.244  0.00  0.00     0.039 C 
ATOM     27  C   UNL d   1      -4.070  -3.577  -1.290  0.00  0.00     0.039 C 
ENDBRANCH  19  24
ENDBRANCH  15  17
ENDBRANCH   1  15
TORSDOF 6
