REMARK  3 active torsions:
REMARK  status: ('A' for Active; 'I' for Inactive)
REMARK    1  A    between atoms: N_2  and  S_1 
REMARK    2  A    between atoms: C_5  and  S_1 
REMARK    3  A    between atoms: C_3  and  N_2 
ROOT
ATOM      1  S   UNL d   1       1.055  -0.129   0.110  0.00  0.00     0.242 S 
ATOM      2  O   UNL d   1       2.298   0.505   0.505  0.00  0.00    -0.206 OA
ATOM      3  O   UNL d   1       0.971  -1.547  -0.141  0.00  0.00    -0.206 OA
ENDROOT
BRANCH   1   4
ATOM      4  N   UNL d   1       0.484   0.663  -1.290  0.00  0.00    -0.202 NA
ATOM      5  H   UNL d   1      -0.538   0.662  -1.294  0.00  0.00     0.141 HD
BRANCH   4   6
ATOM      6  C   UNL d   1       0.997   2.046  -1.518  0.00  0.00     0.163 C 
ATOM      7  C   UNL d   1       0.445   3.041  -0.501  0.00  0.00     0.236 C 
ATOM      8  N   UNL d   1       1.068   4.246  -0.379  0.00  0.00    -0.360 N 
ATOM      9  O   UNL d   1      -0.580   2.829   0.144  0.00  0.00    -0.272 OA
ATOM     10  C   UNL d   1       2.053   4.776  -1.293  0.00  0.00     0.122 C 
ATOM     11  H   UNL d   1       0.621   4.872   0.282  0.00  0.00     0.162 HD
ATOM     12  C   UNL d   1       1.498   4.916  -2.709  0.00  0.00     0.020 C 
ATOM     13  C   UNL d   1       1.449   3.603  -3.496  0.00  0.00     0.004 C 
ATOM     14  C   UNL d   1       0.548   2.511  -2.910  0.00  0.00     0.030 C 
ENDBRANCH   4   6
ENDBRANCH   1   4
BRANCH   1  15
ATOM     15  C   UNL d   1      -0.184   0.234   1.333  0.00  0.00     0.075 A 
ATOM     16  C   UNL d   1       0.160   0.956   2.483  0.00  0.00     0.034 A 
ATOM     17  C   UNL d   1      -0.862   1.296   3.351  0.00  0.00    -0.021 A 
ATOM     18  C   UNL d   1      -0.828   2.136   4.568  0.00  0.00     0.068 C 
ATOM     19  C   UNL d   1      -2.176   0.932   3.087  0.00  0.00     0.075 A 
ATOM     20  C   UNL d   1      -2.223   1.824   5.112  0.00  0.00     0.180 C 
ATOM     21  O   UNL d   1      -3.070   1.385   4.023  0.00  0.00    -0.350 OA
ATOM     22  C   UNL d   1      -2.529   0.206   1.967  0.00  0.00     0.039 A 
ATOM     23  C   UNL d   1      -1.514  -0.165   1.084  0.00  0.00     0.027 A 
ENDBRANCH   1  15
TORSDOF 3
