REMARK  4 active torsions:
REMARK  status: ('A' for Active; 'I' for Inactive)
REMARK       I    between atoms: N_3  and  C_1 
REMARK       I    between atoms: N_6  and  C_1 
REMARK    1  A    between atoms: C_2  and  N_3 
REMARK    2  A    between atoms: N_4  and  C_7 
REMARK    3  A    between atoms: C_14  and  N_6 
REMARK    4  A    between atoms: O_19  and  C_8 
ROOT
ATOM      1  C   UNL d   1       1.207  -1.996  -0.328  0.00  0.00     0.325 C 
ATOM      2  N   UNL d   1       2.457  -1.490   0.002  0.00  0.00    -0.306 N 
ATOM      3  N   UNL d   1       0.305  -0.966  -0.530  0.00  0.00    -0.309 N 
ATOM      4  O   UNL d   1       0.944  -3.191  -0.382  0.00  0.00    -0.247 OA
ATOM      5  H   UNL d   1       2.438  -0.596   0.465  0.00  0.00     0.171 HD
ATOM      6  H   UNL d   1       0.697  -0.097  -0.855  0.00  0.00     0.170 HD
ENDROOT
BRANCH   3   7
ATOM      7  C   UNL d   1      -1.103  -1.093  -0.580  0.00  0.00     0.036 A 
ATOM      8  C   UNL d   1      -1.785  -2.208  -0.112  0.00  0.00     0.032 A 
ATOM      9  C   UNL d   1      -3.185  -2.256  -0.149  0.00  0.00     0.031 A 
ATOM     10  C   UNL d   1      -3.953  -1.202  -0.659  0.00  0.00     0.030 A 
ATOM     11  C   UNL d   1      -3.245  -0.088  -1.133  0.00  0.00     0.031 A 
ATOM     12  C   UNL d   1      -1.843  -0.025  -1.085  0.00  0.00     0.032 A 
BRANCH  10  13
ATOM     13  N   UNL d   1      -5.332  -1.273  -0.695  0.00  0.00    -0.381 N 
ATOM     14  C   UNL d   1      -6.124  -0.646  -1.750  0.00  0.00     0.123 C 
ATOM     15  C   UNL d   1      -7.059  -1.693  -2.361  0.00  0.00     0.020 C 
ATOM     16  C   UNL d   1      -7.891  -2.410  -1.297  0.00  0.00     0.003 C 
ATOM     17  C   UNL d   1      -7.003  -2.976  -0.188  0.00  0.00     0.020 C 
ATOM     18  C   UNL d   1      -6.094  -1.897   0.389  0.00  0.00     0.123 C 
ENDBRANCH  10  13
ENDBRANCH   3   7
BRANCH   2  19
ATOM     19  C   UNL d   1       3.532  -2.343   0.353  0.00  0.00     0.071 A 
ATOM     20  C   UNL d   1       3.867  -3.403  -0.502  0.00  0.00     0.056 A 
ATOM     21  C   UNL d   1       4.978  -4.196  -0.233  0.00  0.00     0.036 A 
ATOM     22 CL   UNL d   1       5.436  -5.437  -1.335  0.00  0.00    -0.084 Cl
ATOM     23  C   UNL d   1       5.747  -3.970   0.908  0.00  0.00     0.026 A 
ATOM     24  C   UNL d   1       5.412  -2.921   1.767  0.00  0.00     0.041 A 
ATOM     25  C   UNL d   1       4.312  -2.096   1.492  0.00  0.00     0.095 A 
BRANCH  25  26
ATOM     26  O   UNL d   1       4.140  -1.054   2.366  0.00  0.00    -0.354 OA
ATOM     27  C   UNL d   1       2.832  -0.907   2.916  0.00  0.00     0.210 C 
ENDBRANCH  25  26
ENDBRANCH   2  19
TORSDOF 4
