REMARK  7 active torsions:
REMARK  status: ('A' for Active; 'I' for Inactive)
REMARK    1  A    between atoms: N_3  and  C_1 
REMARK    2  A    between atoms: N_7  and  C_1 
REMARK    3  A    between atoms: C_2  and  O_9 
REMARK    4  A    between atoms: C_5  and  N_3 
REMARK    5  A    between atoms: N_4  and  C_6 
REMARK    6  A    between atoms: C_14  and  N_7 
REMARK    7  A    between atoms: O_9  and  C_15 
ROOT
ATOM      1  C   UNL d   1      -0.840   0.019   1.581  0.00  0.00     0.176 C 
ATOM      2  S   UNL d   1      -1.035  -1.467   0.839  0.00  0.00    -0.041 SA
ENDROOT
BRANCH   1   3
ATOM      3  N   UNL d   1       0.434   0.531   1.540  0.00  0.00    -0.332 N 
ATOM      4  H   UNL d   1       1.057   0.064   0.884  0.00  0.00     0.168 HD
BRANCH   3   5
ATOM      5  C   UNL d   1       1.031   1.649   2.160  0.00  0.00     0.055 A 
ATOM      6  C   UNL d   1       2.160   2.222   1.514  0.00  0.00     0.037 A 
ATOM      7  C   UNL d   1       2.788   3.306   2.147  0.00  0.00     0.026 A 
ATOM      8  C   UNL d   1       2.343   3.783   3.385  0.00  0.00     0.002 A 
ATOM      9  C   UNL d   1       1.265   3.179   4.022  0.00  0.00     0.002 A 
ATOM     10  C   UNL d   1       0.609   2.113   3.412  0.00  0.00     0.031 A 
BRANCH   6  11
ATOM     11  N   UNL d   1       2.622   1.681   0.296  0.00  0.00    -0.278 NA
ATOM     12  C   UNL d   1       4.053   1.867  -0.036  0.00  0.00     0.122 C 
ATOM     13  C   UNL d   1       4.415   0.955  -1.220  0.00  0.00     0.182 C 
ATOM     14  O   UNL d   1       3.591   1.231  -2.366  0.00  0.00    -0.389 OA
ATOM     15  C   UNL d   1       2.200   1.052  -2.040  0.00  0.00     0.182 C 
ATOM     16  C   UNL d   1       1.769   1.976  -0.885  0.00  0.00     0.122 C 
ENDBRANCH   6  11
ENDBRANCH   3   5
ENDBRANCH   1   3
BRANCH   1  17
ATOM     17  N   UNL d   1      -1.798   0.857   2.103  0.00  0.00    -0.333 N 
ATOM     18  H   UNL d   1      -1.474   1.812   2.171  0.00  0.00     0.168 HD
BRANCH  17  19
ATOM     19  C   UNL d   1      -3.183   0.710   2.335  0.00  0.00     0.034 A 
ATOM     20  C   UNL d   1      -3.877  -0.500   2.340  0.00  0.00     0.032 A 
ATOM     21  C   UNL d   1      -5.262  -0.529   2.525  0.00  0.00     0.039 A 
ATOM     22  C   UNL d   1      -5.974   0.655   2.703  0.00  0.00     0.078 A 
ATOM     23  C   UNL d   1      -5.289   1.862   2.791  0.00  0.00     0.039 A 
ATOM     24  C   UNL d   1      -3.902   1.886   2.605  0.00  0.00     0.032 A 
BRANCH  22  25
ATOM     25  O   UNL d   1      -7.318   0.647   2.918  0.00  0.00    -0.255 OA
BRANCH  25  26
ATOM     26  C   UNL d   1      -8.083   0.278   1.770  0.00  0.00     0.530 C 
ATOM     27  F   UNL d   1      -7.409  -0.491   0.888  0.00  0.00    -0.144 F 
ATOM     28  F   UNL d   1      -9.168  -0.415   2.184  0.00  0.00    -0.144 F 
ATOM     29  F   UNL d   1      -8.512   1.391   1.137  0.00  0.00    -0.144 F 
ENDBRANCH  25  26
ENDBRANCH  22  25
ENDBRANCH  17  19
ENDBRANCH   1  17
TORSDOF 7
