REMARK  2 active torsions:
REMARK  status: ('A' for Active; 'I' for Inactive)
REMARK    1  A    between atoms: C_10  and  C_4 
REMARK    2  A    between atoms: C_8  and  C_12 
ROOT
ATOM      1  N   UNL d   1       1.243  -1.418   0.004  0.00  0.00    -0.335 N 
ATOM      2  HN  UNL d   1       1.267  -2.438   0.009  1.00  0.00     0.168 HD
ATOM      3  C   UNL d   1       0.017   0.665   0.008  0.00  0.00     0.067 A 
ATOM      4  C   UNL d   1       2.330  -0.724   0.001  0.00  0.00     0.162 A 
ATOM      5  C   UNL d   1       0.036  -0.723  -0.001  0.00  0.00     0.056 A 
ATOM      6  C   UNL d   1       1.306   1.371   0.027  0.00  0.00     0.302 A 
ATOM      7  O   UNL d   1       2.432   0.620   0.017  0.00  0.00    -0.257 OA
ATOM      8  C   UNL d   1      -1.180  -1.425  -0.010  0.00  0.00    -0.034 A 
ATOM      9  C   UNL d   1      -1.188   1.379   0.006  0.00  0.00     0.026 A 
ATOM     10  O   UNL d   1       1.354   2.596   0.047  0.00  0.00    -0.259 OA
ATOM     11  C   UNL d   1      -2.390  -0.709  -0.012  0.00  0.00     0.015 A 
ATOM     12  C   UNL d   1      -2.404   0.691  -0.003  0.00  0.00    -0.060 A 
ATOM     13  C   UNL d   1      -1.233  -2.928  -0.011  0.00  0.00     0.050 C 
ATOM     14  C   UNL d   1      -3.699   1.449  -0.001  0.00  0.00     0.048 C 
ENDROOT
BRANCH   4  15
ATOM     15  C   UNL d   1       3.671  -1.348   0.024  0.00  0.00     0.015 A 
ATOM     16  C   UNL d   1       4.791  -0.696  -0.506  0.00  0.00     0.016 A 
ATOM     17  C   UNL d   1       6.045  -1.310  -0.456  0.00  0.00     0.017 A 
ATOM     18  C   UNL d   1       6.198  -2.579   0.123  0.00  0.00     0.048 A 
ATOM     19  C   UNL d   1       5.066  -3.234   0.636  0.00  0.00     0.017 A 
ATOM     20  C   UNL d   1       3.812  -2.625   0.582  0.00  0.00     0.016 A 
BRANCH  18  21
ATOM     21  C   UNL d   1       7.553  -3.241   0.208  0.00  0.00     0.417 C 
ATOM     22  F   UNL d   1       8.557  -2.498  -0.333  0.00  0.00    -0.166 F 
ATOM     23  F   UNL d   1       7.926  -3.494   1.492  0.00  0.00    -0.166 F 
ATOM     24  F   UNL d   1       7.588  -4.442  -0.435  0.00  0.00    -0.166 F 
ENDBRANCH  18  21
ENDBRANCH   4  15
TORSDOF 2
