REMARK  5 active torsions:
REMARK  status: ('A' for Active; 'I' for Inactive)
REMARK    1  A    between atoms: C_2  and  N_1 
REMARK    2  A    between atoms: C_3  and  C_9 
REMARK    3  A    between atoms: C_4  and  C_15 
REMARK    4  A    between atoms: S_13  and  C_10 
REMARK    5  A    between atoms: C_15  and  S_13 
ROOT
ATOM      1  C   UNL d   1      -2.819  -2.818   3.315  0.00  0.00     0.120 A 
ATOM      2  C   UNL d   1      -3.436  -3.112   4.539  0.00  0.00     0.053 A 
ATOM      3  C   UNL d   1      -2.663  -3.572   5.611  0.00  0.00     0.050 A 
ATOM      4  C   UNL d   1      -1.435  -2.958   3.104  0.00  0.00     0.034 A 
ATOM      5  C   UNL d   1      -1.284  -3.742   5.415  0.00  0.00     0.017 A 
ATOM      6  C   UNL d   1      -0.678  -3.431   4.184  0.00  0.00     0.022 A 
ENDROOT
BRANCH   4   7
ATOM      7  S   UNL d   1      -0.681  -2.414   1.574  0.00  0.00    -0.123 SA
BRANCH   7   8
ATOM      8  C   UNL d   1       0.850  -3.360   1.401  0.00  0.00     0.119 C 
BRANCH   8   9
ATOM      9  C   UNL d   1       0.789  -4.865   1.364  0.00  0.00    -0.030 A 
ATOM     10  C   UNL d   1      -0.194  -5.737   0.729  0.00  0.00    -0.010 A 
ATOM     11  C   UNL d   1       0.221  -7.077   0.755  0.00  0.00     0.015 A 
ATOM     12  C   UNL d   1      -1.442  -5.471   0.100  0.00  0.00     0.037 A 
ATOM     13  C   UNL d   1      -0.529  -8.113   0.159  0.00  0.00     0.021 A 
ATOM     14  S   UNL d   1       1.709  -7.271   1.586  0.00  0.00    -0.101 SA
ATOM     15  C   UNL d   1      -1.766  -7.817  -0.408  0.00  0.00     0.025 A 
ATOM     16  C   UNL d   1      -2.223  -6.511  -0.419  0.00  0.00     0.035 A 
ATOM     17 CL   UNL d   1      -3.782  -6.167  -1.063  0.00  0.00    -0.084 Cl
ATOM     18  C   UNL d   1       1.815  -5.613   1.919  0.00  0.00     0.059 A 
ENDBRANCH   8   9
ENDBRANCH   7   8
ENDBRANCH   4   7
BRANCH   1  19
ATOM     19  N   UNL d   1      -3.690  -2.332   2.256  0.00  0.00    -0.114 N 
ATOM     20  O   UNL d   1      -4.225  -1.231   2.437  0.00  0.00    -0.532 OA
ATOM     21  O   UNL d   1      -3.881  -3.083   1.292  0.00  0.00    -0.532 OA
ENDBRANCH   1  19
BRANCH   3  22
ATOM     22  C   UNL d   1      -3.293  -3.872   6.952  0.00  0.00     0.417 C 
ATOM     23  F   UNL d   1      -4.612  -3.547   7.012  0.00  0.00    -0.166 F 
ATOM     24  F   UNL d   1      -3.214  -5.190   7.278  0.00  0.00    -0.166 F 
ATOM     25  F   UNL d   1      -2.693  -3.193   7.967  0.00  0.00    -0.166 F 
ENDBRANCH   3  22
TORSDOF 5
