REMARK  10 active torsions:
REMARK  status: ('A' for Active; 'I' for Inactive)
REMARK    1  A    between atoms: S_18  and  C_5 
REMARK    2  A    between atoms: C_12  and  C_10 
REMARK    3  A    between atoms: C_15  and  C_11 
REMARK    4  A    between atoms: C_13  and  O_17 
REMARK    5  A    between atoms: C_14  and  O_28 
REMARK       I    between atoms: N_16  and  C_14 
REMARK    6  A    between atoms: C_26  and  N_16 
REMARK    7  A    between atoms: O_17  and  C_27 
REMARK    8  A    between atoms: C_36  and  S_18 
REMARK    9  A    between atoms: O_28  and  C_37 
REMARK   10  A    between atoms: C_37  and  C_36 
ROOT
ATOM      1  N   UNL d   1       0.234   0.618   0.107  0.00  0.00    -0.233 N 
ATOM      2  C   UNL d   1       0.109  -0.776   0.068  0.00  0.00     0.130 A 
ATOM      3  N   UNL d   1       1.552   0.982   0.098  0.00  0.00    -0.295 N 
ATOM      4  HN  UNL d   1       1.930   1.928   0.147  1.00  0.00     0.187 HD
ATOM      5  C   UNL d   1      -0.919   1.424   0.146  0.00  0.00     0.097 A 
ATOM      6  N   UNL d   1      -1.102  -1.410   0.090  0.00  0.00    -0.337 N 
ATOM      7  HN  UNL d   1      -1.168  -2.427   0.077  1.00  0.00     0.167 HD
ATOM      8  C   UNL d   1       1.380  -1.280  -0.002  0.00  0.00     0.077 A 
ATOM      9  C   UNL d   1      -2.136   0.842   0.153  0.00  0.00     0.073 A 
ATOM     10  C   UNL d   1      -2.170  -0.660   0.127  0.00  0.00     0.120 A 
ATOM     11  C   UNL d   1       2.244  -0.163   0.012  0.00  0.00     0.037 A 
ENDROOT
BRANCH   5  12
ATOM     12  S   UNL d   1      -0.816   3.162   0.098  0.00  0.00    -0.108 SA
BRANCH  12  13
ATOM     13  C   UNL d   1      -0.012   3.508   1.696  0.00  0.00     0.108 C 
BRANCH  13  14
ATOM     14  C   UNL d   1       0.272   4.998   1.862  0.00  0.00     0.191 C 
BRANCH  14  15
ATOM     15  O   UNL d   1      -0.870   5.867   1.919  0.00  0.00    -0.303 OA
BRANCH  15  16
ATOM     16  C   UNL d   1      -1.586   5.867   3.065  0.00  0.00     0.365 C 
ATOM     17  N   UNL d   1      -1.983   7.106   3.509  0.00  0.00    -0.303 N 
ATOM     18  H   UNL d   1      -2.507   7.035   4.372  0.00  0.00     0.171 HD
ATOM     19  O   UNL d   1      -1.829   4.861   3.722  0.00  0.00    -0.238 OA
BRANCH  17  20
ATOM     20  C   UNL d   1      -1.497   8.385   3.163  0.00  0.00     0.037 A 
ATOM     21  C   UNL d   1      -0.709   8.662   2.045  0.00  0.00     0.032 A 
ATOM     22  C   UNL d   1      -0.136   9.928   1.851  0.00  0.00     0.039 A 
ATOM     23  C   UNL d   1      -0.395  10.961   2.743  0.00  0.00     0.078 A 
ATOM     24  C   UNL d   1      -1.211  10.700   3.847  0.00  0.00     0.039 A 
ATOM     25  C   UNL d   1      -1.766   9.431   4.052  0.00  0.00     0.032 A 
BRANCH  23  26
ATOM     26  O   UNL d   1       0.068  12.238   2.674  0.00  0.00    -0.255 OA
BRANCH  26  27
ATOM     27  C   UNL d   1       0.632  12.729   1.467  0.00  0.00     0.530 C 
ATOM     28  F   UNL d   1       0.158  12.118   0.361  0.00  0.00    -0.144 F 
ATOM     29  F   UNL d   1       0.328  14.043   1.366  0.00  0.00    -0.144 F 
ATOM     30  F   UNL d   1       1.976  12.609   1.502  0.00  0.00    -0.144 F 
ENDBRANCH  26  27
ENDBRANCH  23  26
ENDBRANCH  17  20
ENDBRANCH  15  16
ENDBRANCH  14  15
ENDBRANCH  13  14
ENDBRANCH  12  13
ENDBRANCH   5  12
BRANCH  10  31
ATOM     31  C   UNL d   1      -3.557  -1.313   0.136  0.00  0.00     0.432 C 
ATOM     32  F   UNL d   1      -4.570  -0.403   0.172  0.00  0.00    -0.165 F 
ATOM     33  F   UNL d   1      -3.772  -2.075  -0.970  0.00  0.00    -0.165 F 
ATOM     34  F   UNL d   1      -3.738  -2.124   1.213  0.00  0.00    -0.165 F 
ENDBRANCH  10  31
BRANCH  11  35
ATOM     35  C   UNL d   1       3.767  -0.162  -0.007  0.00  0.00    -0.007 C 
ATOM     36  C   UNL d   1       4.298  -0.242   1.438  0.00  0.00     0.021 C 
ATOM     37  C   UNL d   1       4.318  -1.369  -0.797  0.00  0.00     0.021 C 
ATOM     38  C   UNL d   1       4.327   1.115  -0.668  0.00  0.00     0.021 C 
ENDBRANCH  11  35
TORSDOF 10
