REMARK  8 active torsions:
REMARK  status: ('A' for Active; 'I' for Inactive)
REMARK    1  A    between atoms: N_3  and  C_1 
REMARK    2  A    between atoms: N_4  and  C_1 
REMARK    3  A    between atoms: C_2  and  C_6 
REMARK    4  A    between atoms: C_11  and  N_3 
REMARK    5  A    between atoms: C_17  and  N_3 
REMARK    6  A    between atoms: C_9  and  N_4 
REMARK    7  A    between atoms: C_16  and  C_11 
REMARK    8  A    between atoms: C_15  and  C_17 
ROOT
ATOM      1  N   UNL d   1       2.367   0.030  -5.617  0.00  0.00    -0.197 NA
ATOM      2  C   UNL d   1       1.924  -0.273  -4.592  0.00  0.00     0.060 C 
ATOM      3  C   UNL d   1       1.344  -0.627  -3.275  0.00  0.00     0.143 C 
ENDROOT
BRANCH   3   4
ATOM      4  C   UNL d   1       1.303   0.619  -2.377  0.00  0.00     0.139 C 
BRANCH   4   5
ATOM      5  N   UNL d   1       0.697   0.471  -1.014  0.00  0.00    -0.353 N 
BRANCH   5   6
ATOM      6  C   UNL d   1       1.502   0.150   0.124  0.00  0.00     0.174 C 
ATOM      7  S   UNL d   1       2.958  -0.672  -0.076  0.00  0.00    -0.041 SA
BRANCH   6   8
ATOM      8  N   UNL d   1       0.994   0.645   1.343  0.00  0.00    -0.333 N 
ATOM      9  H   UNL d   1       0.233   1.302   1.243  0.00  0.00     0.168 HD
BRANCH   8  10
ATOM     10  C   UNL d   1       1.549   0.653   2.669  0.00  0.00     0.035 A 
ATOM     11  C   UNL d   1       1.073   1.619   3.581  0.00  0.00     0.045 A 
ATOM     12  C   UNL d   1       1.627   1.761   4.878  0.00  0.00     0.050 A 
ATOM     13  C   UNL d   1       2.658   0.901   5.274  0.00  0.00     0.016 A 
ATOM     14  C   UNL d   1       3.099  -0.090   4.407  0.00  0.00     0.003 A 
ATOM     15  C   UNL d   1       2.536  -0.220   3.130  0.00  0.00     0.029 A 
BRANCH  12  16
ATOM     16  C   UNL d   1       1.164   2.819   5.852  0.00  0.00     0.417 C 
ATOM     17  F   UNL d   1       0.169   3.614   5.369  0.00  0.00    -0.166 F 
ATOM     18  F   UNL d   1       0.687   2.287   7.012  0.00  0.00    -0.166 F 
ATOM     19  F   UNL d   1       2.169   3.664   6.221  0.00  0.00    -0.166 F 
ENDBRANCH  12  16
ENDBRANCH   8  10
ENDBRANCH   6   8
ENDBRANCH   5   6
BRANCH   5  20
ATOM     20  C   UNL d   1      -0.717   0.882  -0.928  0.00  0.00     0.163 C 
BRANCH  20  21
ATOM     21  C   UNL d   1      -0.944   2.385  -0.899  0.00  0.00    -0.040 A 
ATOM     22  C   UNL d   1       0.074   3.302  -0.587  0.00  0.00     0.009 A 
ATOM     23  C   UNL d   1      -0.184   4.674  -0.535  0.00  0.00     0.001 A 
ATOM     24  C   UNL d   1      -1.463   5.155  -0.796  0.00  0.00     0.000 A 
ATOM     25  C   UNL d   1      -2.485   4.265  -1.113  0.00  0.00     0.001 A 
ATOM     26  C   UNL d   1      -2.229   2.890  -1.160  0.00  0.00     0.009 A 
ENDBRANCH  20  21
ENDBRANCH   5  20
ENDBRANCH   4   5
ENDBRANCH   3   4
TORSDOF 8
