REMARK  7 active torsions:
REMARK  status: ('A' for Active; 'I' for Inactive)
REMARK    1  A    between atoms: C_2  and  C_1 
REMARK       I    between atoms: N_10  and  C_2 
REMARK    2  A    between atoms: C_11  and  N_3 
REMARK    3  A    between atoms: N_5  and  C_17 
REMARK    4  A    between atoms: C_19  and  N_10 
REMARK    5  A    between atoms: C_16  and  C_11 
REMARK    6  A    between atoms: C_17  and  C_18 
REMARK    7  A    between atoms: C_18  and  C_19 
ROOT
ATOM      1  N   UNL d   1       3.416  10.024  -2.268  0.00  0.00     0.096 N 
ATOM      2  N   UNL d   1       3.026   7.773  -0.263  0.00  0.00     0.091 N 
ATOM      3  C   UNL d   1       3.123   8.629  -2.670  0.00  0.00     0.303 C 
ATOM      4  C   UNL d   1       2.774  10.241  -0.954  0.00  0.00     0.303 C 
ATOM      5  C   UNL d   1       3.566   7.576  -1.624  0.00  0.00     0.302 C 
ATOM      6  C   UNL d   1       3.131   9.197   0.133  0.00  0.00     0.302 C 
ENDROOT
BRANCH   2   7
ATOM      7  C   UNL d   1       1.660   7.244  -0.106  0.00  0.00     0.274 C 
BRANCH   7   8
ATOM      8  C   UNL d   1       1.660   5.711  -0.199  0.00  0.00     0.050 C 
BRANCH   8   9
ATOM      9  C   UNL d   1       0.281   5.101   0.017  0.00  0.00     0.125 C 
BRANCH   9  10
ATOM     10  N   UNL d   1       0.336   3.662  -0.169  0.00  0.00    -0.356 N 
ATOM     11  C   UNL d   1       0.317   3.081  -1.424  0.00  0.00     0.258 C 
ATOM     12  O   UNL d   1       0.084   3.740  -2.433  0.00  0.00    -0.267 OA
ATOM     13  H   UNL d   1       0.650   3.085   0.601  0.00  0.00     0.162 HD
BRANCH  11  14
ATOM     14  C   UNL d   1       0.613   1.651  -1.467  0.00  0.00     0.072 A 
ATOM     15  S   UNL d   1       1.040   0.758  -0.065  0.00  0.00    -0.097 SA
ATOM     16  C   UNL d   1       1.201  -0.695  -0.950  0.00  0.00     0.050 A 
ATOM     17  C   UNL d   1       0.944  -0.514  -2.290  0.00  0.00     0.009 A 
ATOM     18  C   UNL d   1       0.612   0.840  -2.588  0.00  0.00     0.025 A 
ENDBRANCH  11  14
ENDBRANCH   9  10
ENDBRANCH   8   9
ENDBRANCH   7   8
ENDBRANCH   2   7
BRANCH   1  19
ATOM     19  C   UNL d   1       4.878  10.221  -2.249  0.00  0.00     0.311 C 
BRANCH  19  20
ATOM     20  C   UNL d   1       5.356  11.601  -1.867  0.00  0.00    -0.030 A 
ATOM     21  C   UNL d   1       6.130  11.773  -0.707  0.00  0.00     0.009 A 
ATOM     22  C   UNL d   1       6.658  13.022  -0.385  0.00  0.00     0.001 A 
ATOM     23  C   UNL d   1       6.417  14.111  -1.218  0.00  0.00     0.000 A 
ATOM     24  C   UNL d   1       5.639  13.955  -2.365  0.00  0.00     0.001 A 
ATOM     25  C   UNL d   1       5.106  12.706  -2.688  0.00  0.00     0.009 A 
ENDBRANCH  19  20
ENDBRANCH   1  19
TORSDOF 7
