REMARK  7 active torsions:
REMARK  status: ('A' for Active; 'I' for Inactive)
REMARK    1  A    between atoms: C_7  and  C_1 
REMARK    2  A    between atoms: S_15  and  C_6 
REMARK    3  A    between atoms: C_10  and  C_21 
REMARK       I    between atoms: N_14  and  C_10 
REMARK    4  A    between atoms: C_16  and  C_13 
REMARK    5  A    between atoms: C_22  and  N_14 
REMARK    6  A    between atoms: C_21  and  S_15 
REMARK    7  A    between atoms: C_24  and  C_17 
ROOT
ATOM      1  C   UNL d   1       7.658   2.652   0.136  0.00  0.00     0.144 A 
ATOM      2  N   UNL d   1       6.340   2.502   0.324  0.00  0.00    -0.337 N 
ATOM      3  HN  UNL d   1       5.782   3.217   0.789  1.00  0.00     0.168 HD
ATOM      4  N   UNL d   1       8.460   1.774  -0.477  0.00  0.00    -0.347 N 
ATOM      5  HN  UNL d   1       9.458   1.945  -0.600  1.00  0.00     0.167 HD
ATOM      6  C   UNL d   1       5.787   1.362  -0.131  0.00  0.00     0.035 A 
ATOM      7  C   UNL d   1       7.867   0.652  -0.922  0.00  0.00     0.092 A 
ATOM      8  C   UNL d   1       6.524   0.391  -0.776  0.00  0.00     0.046 A 
ENDROOT
BRANCH   1   9
ATOM      9  S   UNL d   1       8.302   4.240   0.586  0.00  0.00    -0.085 SA
BRANCH   9  10
ATOM     10  C   UNL d   1       9.106   4.670  -0.979  0.00  0.00     0.185 C 
BRANCH  10  11
ATOM     11  C   UNL d   1       8.215   4.704  -2.217  0.00  0.00     0.231 C 
ATOM     12  N   UNL d   1       6.848   4.672  -2.009  0.00  0.00    -0.327 N 
ATOM     13  H   UNL d   1       6.534   4.705  -1.044  0.00  0.00     0.169 HD
ATOM     14  O   UNL d   1       8.757   4.789  -3.321  0.00  0.00    -0.272 OA
BRANCH  12  15
ATOM     15  C   UNL d   1       5.838   4.486  -2.979  0.00  0.00     0.034 A 
ATOM     16  C   UNL d   1       6.095   4.305  -4.338  0.00  0.00     0.030 A 
ATOM     17  C   UNL d   1       5.050   4.058  -5.236  0.00  0.00     0.010 A 
ATOM     18  C   UNL d   1       3.723   3.983  -4.797  0.00  0.00    -0.055 A 
ATOM     19  C   UNL d   1       3.465   4.179  -3.434  0.00  0.00     0.010 A 
ATOM     20  C   UNL d   1       4.512   4.427  -2.536  0.00  0.00     0.030 A 
BRANCH  18  21
ATOM     21  C   UNL d   1       2.593   3.666  -5.760  0.00  0.00     0.010 C 
ATOM     22  C   UNL d   1       2.495   4.692  -6.894  0.00  0.00     0.015 C 
ATOM     23  C   UNL d   1       2.741   2.250  -6.326  0.00  0.00     0.015 C 
ENDBRANCH  18  21
ENDBRANCH  12  15
ENDBRANCH  10  11
ENDBRANCH   9  10
ENDBRANCH   1   9
BRANCH   6  24
ATOM     24  C   UNL d   1       4.339   1.200   0.067  0.00  0.00     0.031 C 
ATOM     25  C   UNL d   1       3.563   2.168   0.582  0.00  0.00     0.021 C 
BRANCH  25  26
ATOM     26  C   UNL d   1       2.156   2.030   0.781  0.00  0.00     0.012 A 
ATOM     27  S   UNL d   1       1.502   2.844   2.151  0.00  0.00    -0.089 SA
ATOM     28  C   UNL d   1      -0.093   2.316   1.838  0.00  0.00     0.016 A 
ATOM     29  C   UNL d   1      -1.243   2.608   2.601  0.00  0.00     0.019 A 
ATOM     30  C   UNL d   1      -0.150   1.529   0.690  0.00  0.00    -0.012 A 
ATOM     31  C   UNL d   1      -2.474   2.091   2.196  0.00  0.00     0.001 A 
ATOM     32  C   UNL d   1      -2.563   1.298   1.062  0.00  0.00     0.001 A 
ATOM     33  C   UNL d   1      -1.419   1.016   0.309  0.00  0.00     0.013 A 
ATOM     34  C   UNL d   1       1.154   1.390   0.058  0.00  0.00    -0.033 A 
ATOM     35  C   UNL d   1       1.323   0.651  -1.235  0.00  0.00     0.050 C 
ENDBRANCH  25  26
ENDBRANCH   6  24
TORSDOF 7
