REMARK  6 active torsions:
REMARK  status: ('A' for Active; 'I' for Inactive)
REMARK       I    between atoms: C_3  and  N_1 
REMARK    1  A    between atoms: C_9  and  C_2 
REMARK    2  A    between atoms: C_8  and  C_3 
REMARK    3  A    between atoms: C_4  and  N_11 
REMARK    4  A    between atoms: C_7  and  C_5 
REMARK    5  A    between atoms: C_10  and  C_7 
REMARK    6  A    between atoms: O_26  and  C_9 
REMARK       I    between atoms: N_11  and  C_10 
ROOT
ATOM      1  N   UNL d   1      -1.775  -1.598  -0.129  0.00  0.00    -0.333 N 
ATOM      2  C   UNL d   1      -2.468  -2.186   0.934  0.00  0.00     0.254 C 
ATOM      3  C   UNL d   1      -0.280  -1.637  -0.177  0.00  0.00     0.188 C 
ATOM      4  C   UNL d   1       0.325  -0.294   0.336  0.00  0.00     0.241 C 
ATOM      5  N   UNL d   1      -0.372   0.858   0.051  0.00  0.00    -0.358 N 
ATOM      6  O   UNL d   1      -1.882  -2.709   1.887  0.00  0.00    -0.267 OA
ATOM      7  O   UNL d   1       1.454  -0.187   0.812  0.00  0.00    -0.271 OA
ATOM      8  C   UNL d   1      -2.311  -0.409  -0.818  0.00  0.00     0.147 C 
ATOM      9  C   UNL d   1      -1.805   0.861  -0.132  0.00  0.00     0.142 C 
ATOM     10  H   UNL d   1       0.074   1.690   0.421  0.00  0.00     0.162 HD
ENDROOT
BRANCH   3  11
ATOM     11  C   UNL d   1       0.506  -2.781   0.476  0.00  0.00     0.138 C 
BRANCH  11  12
ATOM     12  C   UNL d   1       0.219  -4.178  -0.036  0.00  0.00     0.224 C 
ATOM     13  N   UNL d   1      -0.790  -4.799   0.668  0.00  0.00    -0.326 N 
ATOM     14  H   UNL d   1      -1.153  -4.270   1.464  0.00  0.00     0.169 HD
ATOM     15  O   UNL d   1       0.918  -4.684  -0.909  0.00  0.00    -0.273 OA
BRANCH  13  16
ATOM     16  C   UNL d   1      -1.114  -6.152   0.652  0.00  0.00     0.058 C 
ATOM     17  C   UNL d   1      -0.958  -7.098  -0.350  0.00  0.00     0.106 C 
ATOM     18  S   UNL d   1      -1.333  -8.683   0.231  0.00  0.00    -0.094 SA
ATOM     19  C   UNL d   1      -1.849  -8.095   1.740  0.00  0.00     0.053 C 
ATOM     20  C   UNL d   1      -1.707  -6.731   1.825  0.00  0.00     0.038 C 
BRANCH  17  21
ATOM     21  C   UNL d   1      -0.611  -7.004  -1.756  0.00  0.00     0.302 C 
ATOM     22  O   UNL d   1      -0.080  -7.885  -2.427  0.00  0.00    -0.259 OA
BRANCH  21  23
ATOM     23  O   UNL d   1      -1.111  -5.847  -2.288  0.00  0.00    -0.322 OA
ATOM     24  C   UNL d   1      -0.843  -5.696  -3.681  0.00  0.00     0.213 C 
ENDBRANCH  21  23
ENDBRANCH  17  21
ENDBRANCH  13  16
ENDBRANCH  11  12
ENDBRANCH   3  11
BRANCH   2  25
ATOM     25  C   UNL d   1      -3.962  -2.265   0.951  0.00  0.00     0.032 A 
ATOM     26  C   UNL d   1      -4.587  -2.419   2.198  0.00  0.00     0.024 A 
ATOM     27  C   UNL d   1      -5.983  -2.522   2.314  0.00  0.00    -0.055 A 
ATOM     28  C   UNL d   1      -6.590  -2.770   3.668  0.00  0.00     0.049 C 
ATOM     29  C   UNL d   1      -6.776  -2.401   1.159  0.00  0.00    -0.056 A 
ATOM     30  C   UNL d   1      -6.150  -2.314  -0.093  0.00  0.00     0.008 A 
ATOM     31  C   UNL d   1      -8.279  -2.390   1.240  0.00  0.00     0.049 C 
ATOM     32  C   UNL d   1      -4.755  -2.291  -0.198  0.00  0.00     0.017 A 
ENDBRANCH   2  25
TORSDOF 6
