REMARK  0 active torsions:
REMARK  status: ('A' for Active; 'I' for Inactive)
ROOT
ATOM      1  C   UNL d   1       1.176  -0.941   0.000  0.00  0.00     0.102 A 
ATOM      2  C   UNL d   1       0.714   0.348   0.000  0.00  0.00     0.069 A 
ATOM      3  S   UNL d   1      -0.069  -2.085   0.000  0.00  0.00    -0.064 SA
ATOM      4  C   UNL d   1      -0.710   0.434   0.001  0.00  0.00     0.026 A 
ATOM      5  C   UNL d   1      -1.254  -0.852  -0.000  0.00  0.00     0.087 A 
ATOM      6  C   UNL d   1       2.570  -1.264   0.000  0.00  0.00     0.265 A 
ATOM      7  N   UNL d   1       1.583   1.458  -0.000  0.00  0.00    -0.350 N 
ATOM      8  HN  UNL d   1       1.254   2.423   0.000  1.00  0.00     0.166 HD
ATOM      9  N   UNL d   1       3.358  -0.134  -0.000  0.00  0.00    -0.319 N 
ATOM     10  C   UNL d   1       2.840   1.138  -0.000  0.00  0.00     0.184 A 
ATOM     11  N   UNL d   1      -2.565  -1.174  -0.001  0.00  0.00    -0.360 N 
ATOM     12  HN  UNL d   1      -2.900  -2.137  -0.001  1.00  0.00     0.166 HD
ATOM     13  O   UNL d   1       3.071  -2.383   0.000  0.00  0.00    -0.267 OA
ATOM     14  C   UNL d   1      -1.627   1.507   0.001  0.00  0.00     0.018 A 
ATOM     15  C   UNL d   1      -3.390  -0.110  -0.000  0.00  0.00     0.089 A 
ATOM     16  C   UNL d   1      -2.991   1.216   0.000  0.00  0.00     0.018 A 
ATOM     17  H   UNL d   1       4.355  -0.296  -0.001  0.00  0.00     0.169 HD
ENDROOT
TORSDOF 0
