REMARK  8 active torsions:
REMARK  status: ('A' for Active; 'I' for Inactive)
REMARK    1  A    between atoms: C_6  and  N_1 
REMARK    2  A    between atoms: N_2  and  C_5 
REMARK    3  A    between atoms: C_3  and  C_11 
REMARK       I    between atoms: N_23  and  C_3 
REMARK    4  A    between atoms: C_4  and  O_24 
REMARK    5  A    between atoms: C_12  and  C_4 
REMARK    6  A    between atoms: C_25  and  N_23 
REMARK    7  A    between atoms: O_24  and  C_26 
REMARK    8  A    between atoms: C_26  and  C_25 
ROOT
ATOM      1  C   UNL d   1      -2.562   7.141   1.492  0.00  0.00     0.149 C 
ENDROOT
BRANCH   1   2
ATOM      2  N   UNL d   1      -1.829   5.943   1.103  0.00  0.00    -0.355 N 
ATOM      3  C   UNL d   1      -2.101   5.279  -0.076  0.00  0.00     0.251 C 
ATOM      4  O   UNL d   1      -2.962   5.671  -0.858  0.00  0.00    -0.268 OA
ATOM      5  H   UNL d   1      -1.111   5.624   1.735  0.00  0.00     0.162 HD
BRANCH   3   6
ATOM      6  C   UNL d   1      -1.314   4.041  -0.400  0.00  0.00     0.032 A 
ATOM      7  C   UNL d   1      -1.649   3.345  -1.577  0.00  0.00     0.019 A 
ATOM      8  C   UNL d   1      -0.961   2.185  -1.956  0.00  0.00     0.037 A 
ATOM      9  C   UNL d   1       0.079   1.711  -1.151  0.00  0.00     0.102 A 
ATOM     10  C   UNL d   1       0.428   2.389   0.024  0.00  0.00     0.037 A 
ATOM     11  C   UNL d   1      -0.268   3.550   0.396  0.00  0.00     0.019 A 
BRANCH   9  12
ATOM     12  N   UNL d   1       0.810   0.496  -1.539  0.00  0.00    -0.116 N 
ATOM     13  O   UNL d   1       1.726   0.114  -0.796  0.00  0.00    -0.532 OA
ATOM     14  O   UNL d   1       0.469  -0.073  -2.586  0.00  0.00    -0.532 OA
ENDBRANCH   9  12
ENDBRANCH   3   6
ENDBRANCH   1   2
BRANCH   1  15
ATOM     15  C   UNL d   1      -1.961   8.429   0.920  0.00  0.00     0.198 C 
BRANCH  15  16
ATOM     16  O   UNL d   1      -2.722   9.593   1.310  0.00  0.00    -0.316 OA
BRANCH  16  17
ATOM     17  C   UNL d   1      -2.445  10.082   2.544  0.00  0.00     0.293 C 
ATOM     18  O   UNL d   1      -1.662   9.584   3.341  0.00  0.00    -0.259 OA
BRANCH  17  19
ATOM     19  C   UNL d   1      -3.216  11.327   2.837  0.00  0.00     0.039 A 
ATOM     20  C   UNL d   1      -3.006  11.952   4.078  0.00  0.00     0.020 A 
ATOM     21  C   UNL d   1      -3.692  13.123   4.419  0.00  0.00     0.037 A 
ATOM     22  C   UNL d   1      -4.598  13.680   3.509  0.00  0.00     0.102 A 
ATOM     23  C   UNL d   1      -4.819  13.069   2.266  0.00  0.00     0.037 A 
ATOM     24  C   UNL d   1      -4.128  11.893   1.933  0.00  0.00     0.020 A 
BRANCH  22  25
ATOM     25  N   UNL d   1      -5.318  14.913   3.861  0.00  0.00    -0.116 N 
ATOM     26  O   UNL d   1      -5.114  15.398   4.982  0.00  0.00    -0.532 OA
ATOM     27  O   UNL d   1      -6.085  15.393   3.015  0.00  0.00    -0.532 OA
ENDBRANCH  22  25
ENDBRANCH  17  19
ENDBRANCH  16  17
ENDBRANCH  15  16
ENDBRANCH   1  15
TORSDOF 8
