REMARK  2 active torsions:
REMARK  status: ('A' for Active; 'I' for Inactive)
REMARK    1  A    between atoms: C_5  and  C_1 
REMARK    2  A    between atoms: N_3  and  C_2 
REMARK       I    between atoms: N_8  and  C_5 
ROOT
ATOM      1  C   UNL d   1       1.277  -0.542   0.053  0.00  0.00     0.032 C 
ATOM      2  C   UNL d   1       0.194  -1.354   0.181  0.00  0.00     0.021 C 
ATOM      3  C   UNL d   1       1.174   0.967  -0.056  0.00  0.00     0.046 C 
ATOM      4  C   UNL d   1      -1.202  -0.750   0.110  0.00  0.00     0.058 C 
ATOM      5  C   UNL d   1      -0.216   1.524   0.224  0.00  0.00     0.005 C 
ATOM      6  C   UNL d   1      -1.267   0.665  -0.457  0.00  0.00     0.006 C 
ENDROOT
BRANCH   2   7
ATOM      7  N   UNL d   1       0.324  -2.729   0.148  0.00  0.00    -0.366 N 
ATOM      8  C   UNL d   1      -0.350  -3.572   0.874  0.00  0.00    -0.013 C 
ATOM      9  C   UNL d   1      -1.459  -3.302   1.877  0.00  0.00     0.052 C 
ATOM     10  C   UNL d   1      -0.046  -5.051   0.657  0.00  0.00     0.052 C 
ATOM     11  C   UNL d   1      -1.189  -4.031   3.186  0.00  0.00     0.006 C 
ATOM     12  C   UNL d   1      -0.925  -5.517   2.976  0.00  0.00     0.001 C 
ATOM     13  C   UNL d   1       0.224  -5.733   1.992  0.00  0.00     0.006 C 
ATOM     14  HN  UNL d   1       1.007  -3.117  -0.503  1.00  0.00     0.165 HD
ENDBRANCH   2   7
BRANCH   1  15
ATOM     15  C   UNL d   1       2.709  -1.004  -0.034  0.00  0.00     0.247 C 
ATOM     16  O   UNL d   1       3.653  -0.243   0.133  0.00  0.00    -0.268 OA
ATOM     17  N   UNL d   1       2.919  -2.300  -0.376  0.00  0.00    -0.366 N 
ATOM     18  H   UNL d   1       2.125  -2.930  -0.436  0.00  0.00     0.159 HD
ATOM     19  H   UNL d   1       3.863  -2.652  -0.419  0.00  0.00     0.159 HD
ENDBRANCH   1  15
TORSDOF 2
