REMARK  6 active torsions:
REMARK  status: ('A' for Active; 'I' for Inactive)
REMARK    1  A    between atoms: C_4  and  N_1 
REMARK    2  A    between atoms: C_2  and  O_3 
REMARK    3  A    between atoms: N_6  and  C_2 
REMARK    4  A    between atoms: O_3  and  C_11 
REMARK    5  A    between atoms: C_14  and  N_6 
REMARK    6  A    between atoms: C_15  and  N_6 
ROOT
ATOM      1  C   UNL d   1      -0.744  -0.805   1.177  0.00  0.00     0.103 A 
ATOM      2  C   UNL d   1      -0.906  -1.679   2.259  0.00  0.00     0.039 A 
ATOM      3  C   UNL d   1      -0.912  -1.261  -0.140  0.00  0.00     0.039 A 
ATOM      4  C   UNL d   1      -1.340  -3.482   0.709  0.00  0.00     0.078 A 
ATOM      5  C   UNL d   1      -1.215  -2.607  -0.373  0.00  0.00     0.040 A 
ATOM      6  C   UNL d   1      -1.231  -3.019   2.021  0.00  0.00     0.040 A 
ENDROOT
BRANCH   4   7
ATOM      7  O   UNL d   1      -1.686  -4.833   0.395  0.00  0.00    -0.284 OA
BRANCH   7   8
ATOM      8  C   UNL d   1      -1.400  -6.020   1.094  0.00  0.00     0.217 C 
ATOM      9  S   UNL d   1      -0.084  -6.173   2.111  0.00  0.00    -0.033 SA
BRANCH   8  10
ATOM     10  N   UNL d   1      -2.288  -7.044   0.794  0.00  0.00    -0.353 N 
BRANCH  10  11
ATOM     11  C   UNL d   1      -2.987  -7.758   1.868  0.00  0.00     0.121 C 
ATOM     12  C   UNL d   1      -2.712  -9.250   1.928  0.00  0.00     0.026 C 
ENDBRANCH  10  11
BRANCH  10  13
ATOM     13  C   UNL d   1      -2.512  -7.419  -0.602  0.00  0.00     0.121 C 
ATOM     14  C   UNL d   1      -3.957  -7.325  -1.056  0.00  0.00     0.026 C 
ENDBRANCH  10  13
ENDBRANCH   8  10
ENDBRANCH   7   8
ENDBRANCH   4   7
BRANCH   1  15
ATOM     15  N   UNL d   1      -0.405   0.603   1.429  0.00  0.00    -0.116 N 
ATOM     16  O   UNL d   1      -0.268   0.964   2.603  0.00  0.00    -0.532 OA
ATOM     17  O   UNL d   1      -0.280   1.344   0.442  0.00  0.00    -0.532 OA
ENDBRANCH   1  15
TORSDOF 6
