REMARK  8 active torsions:
REMARK  status: ('A' for Active; 'I' for Inactive)
REMARK    1  A    between atoms: C_6  and  C_1 
REMARK    2  A    between atoms: C_10  and  C_2 
REMARK    3  A    between atoms: S_11  and  C_5 
REMARK    4  A    between atoms: O_13  and  C_6 
REMARK    5  A    between atoms: O_17  and  C_10 
REMARK    6  A    between atoms: O_18  and  C_10 
REMARK    7  A    between atoms: C_14  and  S_11 
REMARK    8  A    between atoms: C_16  and  C_14 
ROOT
ATOM      1  C   UNL d   1      -0.141  -1.382   0.004  0.00  0.00     0.080 A 
ATOM      2  C   UNL d   1       1.083  -0.747  -0.066  0.00  0.00     0.085 A 
ATOM      3  N   UNL d   1       1.166   0.602  -0.243  0.00  0.00    -0.335 N 
ATOM      4  HN  UNL d   1       2.072   1.055  -0.364  1.00  0.00     0.168 HD
ATOM      5  C   UNL d   1       0.037   1.323  -0.255  0.00  0.00     0.144 A 
ATOM      6  N   UNL d   1      -1.187   0.797  -0.122  0.00  0.00    -0.346 N 
ATOM      7  HN  UNL d   1      -2.026   1.378  -0.112  1.00  0.00     0.167 HD
ATOM      8  C   UNL d   1      -1.247  -0.551  -0.003  0.00  0.00     0.110 A 
ENDROOT
BRANCH   5   9
ATOM      9  S   UNL d   1       0.238   3.066  -0.465  0.00  0.00    -0.089 SA
BRANCH   9  10
ATOM     10  C   UNL d   1      -1.091   3.671   0.616  0.00  0.00     0.121 C 
BRANCH  10  11
ATOM     11  C   UNL d   1      -1.065   5.181   0.691  0.00  0.00    -0.048 A 
ATOM     12  C   UNL d   1      -1.701   5.948  -0.299  0.00  0.00     0.009 A 
ATOM     13  C   UNL d   1      -1.642   7.343  -0.265  0.00  0.00     0.024 A 
ATOM     14  C   UNL d   1      -0.944   7.981   0.758  0.00  0.00     0.034 A 
ATOM     15  C   UNL d   1      -0.305   7.237   1.747  0.00  0.00     0.024 A 
ATOM     16 CL   UNL d   1      -0.860   9.700   0.789  0.00  0.00    -0.084 Cl
ATOM     17  C   UNL d   1      -0.362   5.841   1.711  0.00  0.00     0.009 A 
ENDBRANCH  10  11
ENDBRANCH   9  10
ENDBRANCH   5   9
BRANCH   2  18
ATOM     18  C   UNL d   1       2.404  -1.498   0.082  0.00  0.00     0.310 C 
BRANCH  18  19
ATOM     19  O   UNL d   1       2.707  -1.998  -1.232  0.00  0.00    -0.360 OA
ATOM     20  C   UNL d   1       4.022  -2.542  -1.329  0.00  0.00     0.205 C 
ENDBRANCH  18  19
BRANCH  18  21
ATOM     21  O   UNL d   1       3.444  -0.647   0.578  0.00  0.00    -0.360 OA
ATOM     22  C   UNL d   1       3.243  -0.245   1.927  0.00  0.00     0.205 C 
ENDBRANCH  18  21
ENDBRANCH   2  18
BRANCH   1  23
ATOM     23  C   UNL d   1      -0.351  -2.824   0.171  0.00  0.00     0.179 C 
ATOM     24  O   UNL d   1      -1.204  -3.265   0.917  0.00  0.00    -0.646 OA
BRANCH  23  25
ATOM     25  O   UNL d   1       0.450  -3.603  -0.583  0.00  0.00    -0.773 OA
ATOM     26  H   UNL d   1       1.030  -3.163  -1.245  0.00  0.00     0.167 HD
ENDBRANCH  23  25
ENDBRANCH   1  23
TORSDOF 8
