REMARK  5 active torsions:
REMARK  status: ('A' for Active; 'I' for Inactive)
REMARK    1  A    between atoms: C_6  and  C_1 
REMARK    2  A    between atoms: C_8  and  N_2 
REMARK    3  A    between atoms: C_7  and  C_3 
REMARK    4  A    between atoms: O_11  and  C_6 
REMARK    5  A    between atoms: C_17  and  O_11 
ROOT
ATOM      1  C   UNL d   1      -0.263   1.160   0.056  0.00  0.00     0.064 C 
ATOM      2  N   UNL d   1       1.112  -0.691  -0.008  0.00  0.00    -0.318 N 
ATOM      3  C   UNL d   1      -0.256  -1.131  -0.009  0.00  0.00     0.025 C 
ATOM      4  C   UNL d   1       1.049   0.732  -0.103  0.00  0.00     0.029 C 
ATOM      5  C   UNL d   1      -1.052   0.006   0.013  0.00  0.00     0.046 C 
ATOM      6  C   UNL d   1       2.189   1.673  -0.354  0.00  0.00     0.070 C 
ENDROOT
BRANCH   2   7
ATOM      7  C   UNL d   1       2.358  -1.478   0.050  0.00  0.00     0.039 A 
ATOM      8  C   UNL d   1       3.611  -0.878   0.264  0.00  0.00     0.030 A 
ATOM      9  C   UNL d   1       4.822  -1.590   0.186  0.00  0.00     0.002 A 
ATOM     10  C   UNL d   1       4.820  -2.955  -0.035  0.00  0.00     0.000 A 
ATOM     11  C   UNL d   1       3.605  -3.601  -0.143  0.00  0.00     0.002 A 
ATOM     12  C   UNL d   1       2.405  -2.870  -0.099  0.00  0.00     0.030 A 
ENDBRANCH   2   7
BRANCH   3  13
ATOM     13  C   UNL d   1      -0.853  -2.553   0.044  0.00  0.00    -0.008 C 
ATOM     14  C   UNL d   1      -2.418  -2.527   0.115  0.00  0.00     0.021 C 
ATOM     15  C   UNL d   1      -0.580  -3.330  -1.266  0.00  0.00     0.021 C 
ATOM     16  C   UNL d   1      -0.456  -3.258   1.364  0.00  0.00     0.021 C 
ENDBRANCH   3  13
BRANCH   1  17
ATOM     17  C   UNL d   1      -0.744   2.535   0.215  0.00  0.00     0.295 C 
ATOM     18  O   UNL d   1      -0.010   3.506   0.376  0.00  0.00    -0.259 OA
BRANCH  17  19
ATOM     19  O   UNL d   1      -2.109   2.599   0.255  0.00  0.00    -0.318 OA
BRANCH  19  20
ATOM     20  C   UNL d   1      -2.654   3.844   0.710  0.00  0.00     0.174 C 
ATOM     21  C   UNL d   1      -2.709   3.829   2.227  0.00  0.00     0.034 C 
ENDBRANCH  19  20
ENDBRANCH  17  19
ENDBRANCH   1  17
TORSDOF 5
