REMARK  3 active torsions:
REMARK  status: ('A' for Active; 'I' for Inactive)
REMARK    1  A    between atoms: O_2  and  S_1 
REMARK    2  A    between atoms: C_4  and  S_1 
REMARK    3  A    between atoms: C_3  and  O_2 
ROOT
ATOM      1  S   UNL d   1       1.159   0.061  -0.062  0.00  0.00     0.303 S 
ATOM      2  O   UNL d   1       0.370   0.594  -1.156  0.00  0.00    -0.193 OA
ATOM      3  O   UNL d   1       2.590   0.288   0.022  0.00  0.00    -0.193 OA
ENDROOT
BRANCH   1   4
ATOM      4  O   UNL d   1       0.873  -1.541   0.076  0.00  0.00    -0.228 OA
BRANCH   4   5
ATOM      5  C   UNL d   1       1.151  -2.386  -0.970  0.00  0.00     0.107 A 
ATOM      6  C   UNL d   1       0.206  -3.357  -1.320  0.00  0.00     0.046 A 
ATOM      7  C   UNL d   1       0.482  -4.281  -2.336  0.00  0.00     0.028 A 
ATOM      8 BR   UNL d   1      -1.473  -3.463  -0.441  0.00  0.00    -0.048 Br
ATOM      9  C   UNL d   1       1.712  -4.248  -3.007  0.00  0.00    -0.061 A 
ATOM     10  C   UNL d   1       2.655  -3.282  -2.647  0.00  0.00     0.009 A 
ATOM     11  C   UNL d   1       2.015  -5.255  -4.077  0.00  0.00     0.048 C 
ATOM     12  C   UNL d   1       2.381  -2.362  -1.631  0.00  0.00     0.040 A 
ENDBRANCH   4   5
ENDBRANCH   1   4
BRANCH   1  13
ATOM     13  C   UNL d   1       0.481   0.776   1.424  0.00  0.00     0.086 A 
ATOM     14  C   UNL d   1      -0.351   0.035   2.269  0.00  0.00     0.027 A 
ATOM     15  C   UNL d   1      -0.820   0.621   3.448  0.00  0.00     0.025 A 
ATOM     16  C   UNL d   1      -0.456   1.931   3.772  0.00  0.00     0.034 A 
ATOM     17  C   UNL d   1       0.373   2.667   2.927  0.00  0.00     0.025 A 
ATOM     18 CL   UNL d   1      -1.030   2.640   5.231  0.00  0.00    -0.084 Cl
ATOM     19  C   UNL d   1       0.848   2.088   1.748  0.00  0.00     0.027 A 
ENDBRANCH   1  13
TORSDOF 3
