REMARK  7 active torsions:
REMARK  status: ('A' for Active; 'I' for Inactive)
REMARK       I    between atoms: C_6  and  N_1 
REMARK    1  A    between atoms: C_19  and  C_6 
REMARK    2  A    between atoms: O_16  and  C_8 
REMARK    3  A    between atoms: O_17  and  C_10 
REMARK    4  A    between atoms: C_12  and  C_21 
REMARK    5  A    between atoms: O_15  and  C_12 
REMARK    6  A    between atoms: C_20  and  C_19 
REMARK    7  A    between atoms: C_21  and  C_20 
ROOT
ATOM      1  N   UNL d   1      -2.487   0.612  -0.305  0.00  0.00    -0.343 N 
ATOM      2  C   UNL d   1      -0.041   0.636   0.030  0.00  0.00    -0.026 A 
ATOM      3  C   UNL d   1      -1.334   1.435   0.077  0.00  0.00     0.116 C 
ATOM      4  C   UNL d   1      -0.030  -0.764  -0.029  0.00  0.00    -0.045 A 
ATOM      5  C   UNL d   1       1.178   1.327   0.059  0.00  0.00     0.049 A 
ATOM      6  C   UNL d   1      -3.370   1.102  -1.255  0.00  0.00     0.220 C 
ATOM      7  C   UNL d   1      -2.530  -0.720   0.301  0.00  0.00     0.131 C 
ATOM      8  C   UNL d   1       2.402   0.651   0.064  0.00  0.00     0.102 A 
ATOM      9  C   UNL d   1       1.196  -1.446  -0.070  0.00  0.00     0.047 A 
ATOM     10  C   UNL d   1       2.414  -0.753  -0.020  0.00  0.00     0.102 A 
ATOM     11  C   UNL d   1      -1.319  -1.543  -0.133  0.00  0.00     0.059 C 
ATOM     12  O   UNL d   1      -3.249   2.226  -1.742  0.00  0.00    -0.273 OA
ATOM     13  C   UNL d   1      -1.536   2.050   1.468  0.00  0.00     0.037 C 
ENDROOT
BRANCH   6  14
ATOM     14  C   UNL d   1      -4.507   0.186  -1.680  0.00  0.00     0.103 C 
BRANCH  14  15
ATOM     15  C   UNL d   1      -5.393   0.768  -2.789  0.00  0.00     0.019 C 
BRANCH  15  16
ATOM     16  C   UNL d   1      -4.685   0.985  -4.131  0.00  0.00     0.110 C 
BRANCH  16  17
ATOM     17  C   UNL d   1      -4.121  -0.286  -4.708  0.00  0.00     0.139 C 
ATOM     18  O   UNL d   1      -4.617  -1.397  -4.552  0.00  0.00    -0.650 OA
BRANCH  17  19
ATOM     19  O   UNL d   1      -3.010  -0.098  -5.445  0.00  0.00    -0.776 OA
ATOM     20  H   UNL d   1      -2.713   0.833  -5.482  0.00  0.00     0.167 HD
ENDBRANCH  17  19
ENDBRANCH  16  17
ENDBRANCH  15  16
ENDBRANCH  14  15
ENDBRANCH   6  14
BRANCH   8  21
ATOM     21  O   UNL d   1       3.608   1.311   0.104  0.00  0.00    -0.353 OA
ATOM     22  C   UNL d   1       3.591   2.594   0.731  0.00  0.00     0.210 C 
ENDBRANCH   8  21
BRANCH  10  23
ATOM     23  O   UNL d   1       3.643  -1.368  -0.041  0.00  0.00    -0.353 OA
ATOM     24  C   UNL d   1       3.654  -2.791  -0.107  0.00  0.00     0.210 C 
ENDBRANCH  10  23
TORSDOF 7
