REMARK  5 active torsions:
REMARK  status: ('A' for Active; 'I' for Inactive)
REMARK    1  A    between atoms: C_7  and  C_6 
REMARK    2  A    between atoms: O_11  and  C_7 
REMARK    3  A    between atoms: C_17  and  O_11 
REMARK    4  A    between atoms: O_16  and  C_18 
REMARK    5  A    between atoms: C_18  and  C_17 
ROOT
ATOM      1  C   UNL d   1      -0.657   0.838  -0.005  0.00  0.00     0.006 A 
ATOM      2  C   UNL d   1      -1.154  -0.485  -0.061  0.00  0.00     0.027 A 
ATOM      3  C   UNL d   1      -0.011  -1.415  -0.066  0.00  0.00     0.194 A 
ATOM      4  C   UNL d   1       0.804   0.766  -0.008  0.00  0.00    -0.010 A 
ATOM      5  C   UNL d   1       1.202  -0.586  -0.038  0.00  0.00     0.026 A 
ATOM      6  C   UNL d   1      -1.594   1.870   0.042  0.00  0.00     0.051 A 
ATOM      7  O   UNL d   1      -0.066  -2.627  -0.094  0.00  0.00    -0.287 OA
ATOM      8  C   UNL d   1      -2.494  -0.830  -0.091  0.00  0.00     0.016 A 
ATOM      9  C   UNL d   1       1.801   1.728  -0.023  0.00  0.00     0.013 A 
ATOM     10  C   UNL d   1       2.516  -1.017  -0.065  0.00  0.00     0.016 A 
ATOM     11  C   UNL d   1      -2.971   1.540  -0.015  0.00  0.00     0.018 A 
ATOM     12  C   UNL d   1      -3.414   0.209  -0.081  0.00  0.00     0.002 A 
ATOM     13  C   UNL d   1       3.148   1.322  -0.043  0.00  0.00     0.001 A 
ATOM     14  C   UNL d   1       3.503  -0.037  -0.065  0.00  0.00     0.001 A 
ENDROOT
BRANCH   6  15
ATOM     15  C   UNL d   1      -1.233   3.281   0.316  0.00  0.00     0.294 C 
ATOM     16  O   UNL d   1      -0.321   3.614   1.054  0.00  0.00    -0.259 OA
BRANCH  15  17
ATOM     17  O   UNL d   1      -2.126   4.125  -0.262  0.00  0.00    -0.315 OA
BRANCH  17  18
ATOM     18  C   UNL d   1      -2.171   5.439   0.319  0.00  0.00     0.205 C 
BRANCH  18  19
ATOM     19  C   UNL d   1      -1.035   6.349  -0.135  0.00  0.00     0.191 C 
BRANCH  19  20
ATOM     20  O   UNL d   1      -1.155   7.613   0.512  0.00  0.00    -0.399 OA
ATOM     21  H   UNL d   1      -0.342   8.111   0.320  0.00  0.00     0.209 HD
ENDBRANCH  19  20
ENDBRANCH  18  19
ENDBRANCH  17  18
ENDBRANCH  15  17
ENDBRANCH   6  15
TORSDOF 5
