REMARK  2 active torsions:
REMARK  status: ('A' for Active; 'I' for Inactive)
REMARK    1  A    between atoms: C_10  and  C_2 
REMARK    2  A    between atoms: C_7  and  C_5 
ROOT
ATOM      1  N   UNL d   1      -0.292   1.172  -0.105  0.00  0.00    -0.353 N 
ATOM      2  C   UNL d   1       1.018   0.651   0.051  0.00  0.00     0.123 C 
ATOM      3  N   UNL d   1       1.034  -0.635   0.227  0.00  0.00    -0.304 N 
ATOM      4  HN  UNL d   1       1.854  -1.232   0.335  1.00  0.00     0.182 HD
ATOM      5  C   UNL d   1      -1.198   0.037  -0.175  0.00  0.00     0.209 C 
ATOM      6  N   UNL d   1      -0.286  -1.027   0.236  0.00  0.00    -0.211 NA
ATOM      7  H   UNL d   1      -0.548   2.138  -0.201  0.00  0.00     0.163 HD
ATOM      8  H   UNL d   1      -0.454  -1.904  -0.258  0.00  0.00     0.149 HD
ENDROOT
BRANCH   5   9
ATOM      9  C   UNL d   1      -1.695  -0.054  -1.601  0.00  0.00    -0.017 A 
ATOM     10  C   UNL d   1      -3.067   0.098  -1.871  0.00  0.00     0.050 A 
ATOM     11  C   UNL d   1      -3.478   0.092  -3.190  0.00  0.00     0.105 A 
ATOM     12  O   UNL d   1      -4.759   0.246  -3.619  0.00  0.00    -0.323 OA
ATOM     13  C   UNL d   1      -2.594  -0.057  -4.229  0.00  0.00     0.105 A 
ATOM     14  C   UNL d   1      -4.578   0.177  -5.051  0.00  0.00     0.352 A 
ATOM     15  O   UNL d   1      -3.203  -0.014  -5.443  0.00  0.00    -0.323 OA
ATOM     16  C   UNL d   1      -1.245  -0.219  -4.015  0.00  0.00     0.040 A 
ATOM     17  C   UNL d   1      -0.797  -0.221  -2.691  0.00  0.00     0.013 A 
ENDBRANCH   5   9
BRANCH   2  18
ATOM     18  C   UNL d   1       2.187   1.527  -0.075  0.00  0.00     0.009 A 
ATOM     19  C   UNL d   1       3.404   1.145   0.498  0.00  0.00     0.017 A 
ATOM     20  C   UNL d   1       4.534   1.954   0.335  0.00  0.00     0.025 A 
ATOM     21  C   UNL d   1       4.446   3.128  -0.411  0.00  0.00     0.034 A 
ATOM     22  C   UNL d   1       3.238   3.503  -0.999  0.00  0.00     0.025 A 
ATOM     23 CL   UNL d   1       5.838   4.114  -0.624  0.00  0.00    -0.084 Cl
ATOM     24  C   UNL d   1       2.105   2.704  -0.832  0.00  0.00     0.017 A 
ENDBRANCH   2  18
TORSDOF 2
