REMARK  8 active torsions:
REMARK  status: ('A' for Active; 'I' for Inactive)
REMARK    1  A    between atoms: N_2  and  S_1 
REMARK    2  A    between atoms: C_5  and  S_1 
REMARK    3  A    between atoms: C_3  and  N_2 
REMARK    4  A    between atoms: C_3  and  C_4 
REMARK    5  A    between atoms: C_8  and  C_3 
REMARK    6  A    between atoms: O_12  and  C_4 
REMARK    7  A    between atoms: C_13  and  C_8 
REMARK    8  A    between atoms: C_17  and  O_12 
ROOT
ATOM      1  C   UNL d   1       1.012   1.834   1.868  0.00  0.00     0.175 C 
ENDROOT
BRANCH   1   2
ATOM      2  N   UNL d   1       0.419   1.367   0.571  0.00  0.00    -0.201 NA
ATOM      3  H   UNL d   1      -0.528   1.728   0.450  0.00  0.00     0.141 HD
BRANCH   2   4
ATOM      4  S   UNL d   1       0.485  -0.243   0.065  0.00  0.00     0.242 S 
ATOM      5  O   UNL d   1       1.597  -0.897   0.719  0.00  0.00    -0.206 OA
ATOM      6  O   UNL d   1       0.388  -0.200  -1.378  0.00  0.00    -0.206 OA
BRANCH   4   7
ATOM      7  C   UNL d   1      -1.010  -1.024   0.620  0.00  0.00     0.074 A 
ATOM      8  C   UNL d   1      -2.245  -0.614   0.110  0.00  0.00     0.025 A 
ATOM      9  C   UNL d   1      -3.398  -1.333   0.438  0.00  0.00     0.008 A 
ATOM     10  C   UNL d   1      -3.322  -2.474   1.251  0.00  0.00    -0.062 A 
ATOM     11  C   UNL d   1      -2.079  -2.872   1.755  0.00  0.00     0.008 A 
ATOM     12  C   UNL d   1      -4.558  -3.273   1.548  0.00  0.00     0.048 C 
ATOM     13  C   UNL d   1      -0.924  -2.153   1.441  0.00  0.00     0.025 A 
ENDBRANCH   4   7
ENDBRANCH   2   4
ENDBRANCH   1   2
BRANCH   1  14
ATOM     14  C   UNL d   1       0.195   1.374   3.076  0.00  0.00     0.278 C 
ATOM     15  O   UNL d   1      -0.854   0.748   2.995  0.00  0.00    -0.263 OA
BRANCH  14  16
ATOM     16  O   UNL d   1       0.684   1.913   4.230  0.00  0.00    -0.321 OA
BRANCH  16  17
ATOM     17  C   UNL d   1      -0.170   1.868   5.385  0.00  0.00     0.174 C 
ATOM     18  C   UNL d   1       0.365   0.882   6.404  0.00  0.00     0.034 C 
ENDBRANCH  16  17
ENDBRANCH  14  16
ENDBRANCH   1  14
BRANCH   1  19
ATOM     19  C   UNL d   1       2.525   1.606   2.046  0.00  0.00     0.069 C 
BRANCH  19  20
ATOM     20  C   UNL d   1       3.465   2.375   1.136  0.00  0.00    -0.056 A 
ATOM     21  C   UNL d   1       4.383   3.285   1.689  0.00  0.00     0.007 A 
ATOM     22  C   UNL d   1       5.358   3.894   0.894  0.00  0.00     0.001 A 
ATOM     23  C   UNL d   1       5.428   3.608  -0.466  0.00  0.00     0.000 A 
ATOM     24  C   UNL d   1       4.510   2.728  -1.033  0.00  0.00     0.001 A 
ATOM     25  C   UNL d   1       3.536   2.115  -0.238  0.00  0.00     0.007 A 
ENDBRANCH  19  20
ENDBRANCH   1  19
TORSDOF 8
