REMARK  2 active torsions:
REMARK  status: ('A' for Active; 'I' for Inactive)
REMARK    1  A    between atoms: C_7  and  C_1 
REMARK    2  A    between atoms: C_9  and  C_7 
ROOT
ATOM      1  C   UNL d   1      -1.230   0.860   0.029  0.00  0.00     0.028 C 
ATOM      2  C   UNL d   1      -0.033   1.585   0.254  0.00  0.00    -0.041 C 
ATOM      3  C   UNL d   1      -1.197  -0.538  -0.199  0.00  0.00    -0.041 C 
ATOM      4  C   UNL d   1       1.209   0.912   0.157  0.00  0.00    -0.049 C 
ATOM      5  C   UNL d   1       0.029  -1.234  -0.057  0.00  0.00    -0.049 C 
ATOM      6  C   UNL d   1       1.239  -0.504   0.061  0.00  0.00    -0.049 C 
ATOM      7  C   UNL d   1      -2.437  -1.300  -0.615  0.00  0.00     0.050 C 
ATOM      8  C   UNL d   1      -0.073   3.072   0.527  0.00  0.00     0.050 C 
ATOM      9  C   UNL d   1       2.510   1.687   0.175  0.00  0.00     0.049 C 
ATOM     10  C   UNL d   1       0.057  -2.747  -0.089  0.00  0.00     0.049 C 
ATOM     11  C   UNL d   1       2.582  -1.205   0.012  0.00  0.00     0.049 C 
ENDROOT
BRANCH   1  12
ATOM     12  C   UNL d   1      -2.513   1.618  -0.073  0.00  0.00     0.193 C 
ATOM     13  O   UNL d   1      -2.578   2.568  -0.850  0.00  0.00    -0.287 OA
BRANCH  12  14
ATOM     14  C   UNL d   1      -3.729   1.230   0.698  0.00  0.00     0.015 A 
ATOM     15  C   UNL d   1      -4.978   1.586   0.168  0.00  0.00     0.015 A 
ATOM     16  C   UNL d   1      -6.154   1.160   0.785  0.00  0.00     0.001 A 
ATOM     17  C   UNL d   1      -6.088   0.387   1.943  0.00  0.00     0.000 A 
ATOM     18  C   UNL d   1      -4.848   0.061   2.497  0.00  0.00     0.001 A 
ATOM     19  C   UNL d   1      -3.667   0.491   1.882  0.00  0.00     0.015 A 
ENDBRANCH  12  14
ENDBRANCH   1  12
TORSDOF 2
