REMARK  3 active torsions:
REMARK  status: ('A' for Active; 'I' for Inactive)
REMARK    1  A    between atoms: N_10  and  C_1 
REMARK    2  A    between atoms: C_2  and  C_8 
REMARK       I    between atoms: C_8  and  N_10 
REMARK    3  A    between atoms: N_15  and  C_14 
ROOT
ATOM      1  C   UNL d   1      -0.972   1.731   0.054  0.00  0.00     0.138 C 
ATOM      2  C   UNL d   1       0.285   1.041   0.042  0.00  0.00     0.064 A 
ATOM      3  N   UNL d   1      -2.000   0.932  -0.234  0.00  0.00    -0.282 N 
ATOM      4  HN  UNL d   1      -2.962   1.191  -0.455  1.00  0.00     0.189 HD
ATOM      5  N   UNL d   1      -1.466  -0.292  -0.164  0.00  0.00    -0.294 N 
ATOM      6  C   UNL d   1      -0.099  -0.303  -0.063  0.00  0.00     0.066 A 
ATOM      7  C   UNL d   1       1.675   1.381   0.103  0.00  0.00     0.045 A 
ATOM      8  C   UNL d   1      -2.334  -1.447  -0.187  0.00  0.00     0.178 C 
ATOM      9  C   UNL d   1       0.807  -1.371  -0.038  0.00  0.00     0.032 A 
ATOM     10  C   UNL d   1       2.569   0.277   0.114  0.00  0.00     0.030 A 
ATOM     11  C   UNL d   1       2.153  -1.056   0.053  0.00  0.00     0.005 A 
ENDROOT
BRANCH   1  12
ATOM     12  N   UNL d   1      -1.262   3.063   0.241  0.00  0.00    -0.307 N 
ATOM     13  C   UNL d   1      -0.895   3.726   1.384  0.00  0.00     0.259 C 
ATOM     14  O   UNL d   1      -0.252   3.238   2.310  0.00  0.00    -0.267 OA
ATOM     15  H   UNL d   1      -2.161   3.308  -0.150  0.00  0.00     0.170 HD
BRANCH  13  16
ATOM     16  C   UNL d   1      -1.410   5.102   1.504  0.00  0.00     0.063 A 
ATOM     17  C   UNL d   1      -2.067   5.863   0.554  0.00  0.00     0.091 A 
ATOM     18  S   UNL d   1      -2.447   7.440   1.068  0.00  0.00    -0.065 SA
ATOM     19 CL   UNL d   1      -2.538   5.449  -1.054  0.00  0.00    -0.075 Cl
ATOM     20  C   UNL d   1      -1.769   7.148   2.584  0.00  0.00     0.077 A 
ATOM     21  C   UNL d   1      -1.265   5.882   2.715  0.00  0.00     0.050 A 
ATOM     22 CL   UNL d   1      -1.759   8.388   3.770  0.00  0.00    -0.076 Cl
ENDBRANCH  13  16
ENDBRANCH   1  12
BRANCH   7  23
ATOM     23  N   UNL d   1       2.165   2.691   0.171  0.00  0.00    -0.389 N 
ATOM     24  C   UNL d   1       1.720   3.665  -0.819  0.00  0.00     0.149 C 
ATOM     25  C   UNL d   1       3.483   2.938   0.746  0.00  0.00     0.149 C 
ENDBRANCH   7  23
TORSDOF 3
