REMARK  6 active torsions:
REMARK  status: ('A' for Active; 'I' for Inactive)
REMARK       I    between atoms: N_2  and  C_1 
REMARK       I    between atoms: N_13  and  C_1 
REMARK    1  A    between atoms: C_3  and  N_2 
REMARK    2  A    between atoms: C_6  and  C_19 
REMARK    3  A    between atoms: C_20  and  N_13 
REMARK    4  A    between atoms: S_18  and  C_21 
REMARK    5  A    between atoms: C_19  and  S_18 
REMARK    6  A    between atoms: C_21  and  C_20 
ROOT
ATOM      1  C   UNL d   1       1.991   1.202   0.249  0.00  0.00     0.320 C 
ATOM      2  N   UNL d   1       0.995   1.383   1.166  0.00  0.00    -0.306 N 
ATOM      3  O   UNL d   1       2.227   2.103  -0.551  0.00  0.00    -0.247 OA
ATOM      4  N   UNL d   1       2.572  -0.018   0.171  0.00  0.00    -0.342 N 
ATOM      5  H   UNL d   1       0.494   2.238   0.950  0.00  0.00     0.171 HD
ATOM      6  H   UNL d   1       2.600  -0.590   0.999  0.00  0.00     0.164 HD
ENDROOT
BRANCH   2   7
ATOM      7  C   UNL d   1       0.403   0.525   2.118  0.00  0.00     0.075 A 
ATOM      8  C   UNL d   1       1.030  -0.564   2.740  0.00  0.00     0.146 A 
ATOM      9  C   UNL d   1       0.345  -1.401   3.616  0.00  0.00     0.086 A 
ATOM     10  F   UNL d   1       2.333  -0.817   2.549  0.00  0.00    -0.204 F 
ATOM     11  C   UNL d   1      -0.984  -1.138   3.899  0.00  0.00     0.119 A 
ATOM     12  C   UNL d   1      -1.625  -0.037   3.345  0.00  0.00     0.044 A 
ATOM     13  F   UNL d   1      -1.657  -1.949   4.724  0.00  0.00    -0.206 F 
ATOM     14  C   UNL d   1      -0.928   0.801   2.467  0.00  0.00     0.036 A 
ENDBRANCH   2   7
BRANCH   4  15
ATOM     15  C   UNL d   1       3.327  -0.473  -0.976  0.00  0.00     0.134 C 
BRANCH  15  16
ATOM     16  C   UNL d   1       4.837  -0.274  -0.852  0.00  0.00     0.094 C 
BRANCH  16  17
ATOM     17  S   UNL d   1       5.590  -1.076  -2.304  0.00  0.00    -0.161 SA
BRANCH  17  18
ATOM     18  C   UNL d   1       7.351  -0.715  -2.009  0.00  0.00     0.139 C 
BRANCH  18  19
ATOM     19  C   UNL d   1       8.142  -1.240  -3.155  0.00  0.00     0.061 A 
ATOM     20  O   UNL d   1       9.037  -2.236  -2.886  0.00  0.00    -0.326 OA
ATOM     21  C   UNL d   1       9.584  -2.607  -4.074  0.00  0.00     0.142 A 
ATOM     22  C   UNL d   1       9.066  -1.856  -5.102  0.00  0.00     0.027 A 
ATOM     23  C   UNL d   1       8.147  -0.960  -4.508  0.00  0.00     0.035 A 
ENDBRANCH  18  19
ENDBRANCH  17  18
ENDBRANCH  16  17
ENDBRANCH  15  16
ENDBRANCH   4  15
TORSDOF 6
