REMARK  2 active torsions:
REMARK  status: ('A' for Active; 'I' for Inactive)
REMARK    1  A    between atoms: C_6  and  C_2 
REMARK    2  A    between atoms: C_7  and  C_6 
ROOT
ATOM      1  C   UNL d   1       2.510   0.320   0.090  0.00  0.00     0.082 A 
ATOM      2  C   UNL d   1       1.787  -0.848   0.007  0.00  0.00    -0.011 A 
ATOM      3  S   UNL d   1       1.571   1.717   0.160  0.00  0.00    -0.077 SA
ATOM      4  C   UNL d   1       0.362  -0.562   0.036  0.00  0.00    -0.009 A 
ATOM      5  C   UNL d   1       0.109   0.814   0.088  0.00  0.00     0.017 A 
ATOM      6  C   UNL d   1      -0.757  -1.436   0.006  0.00  0.00     0.037 A 
ATOM      7 CL   UNL d   1       4.224   0.485   0.127  0.00  0.00    -0.076 Cl
ATOM      8  C   UNL d   1      -1.202   1.332   0.079  0.00  0.00     0.021 A 
ATOM      9  C   UNL d   1      -2.057  -0.922   0.007  0.00  0.00     0.035 A 
ATOM     10  C   UNL d   1      -2.280   0.446   0.035  0.00  0.00     0.025 A 
ATOM     11 CL   UNL d   1      -3.396  -2.004  -0.030  0.00  0.00    -0.084 Cl
ENDROOT
BRANCH   2  12
ATOM     12  C   UNL d   1       2.378  -2.227  -0.129  0.00  0.00     0.110 C 
BRANCH  12  13
ATOM     13  C   UNL d   1       2.611  -2.972   1.176  0.00  0.00     0.075 C 
ATOM     14  S   UNL d   1       3.203  -4.537   1.175  0.00  0.00    -0.066 SA
ATOM     15  N   UNL d   1       2.341  -2.377   2.368  0.00  0.00    -0.393 N 
ATOM     16  H   UNL d   1       1.998  -1.428   2.459  0.00  0.00     0.156 HD
ATOM     17  H   UNL d   1       2.517  -2.891   3.224  0.00  0.00     0.156 HD
ENDBRANCH  12  13
ENDBRANCH   2  12
TORSDOF 2
