REMARK  4 active torsions:
REMARK  status: ('A' for Active; 'I' for Inactive)
REMARK    1  A    between atoms: C_2  and  C_1 
REMARK    2  A    between atoms: C_3  and  C_2 
REMARK    3  A    between atoms: C_4  and  N_9 
REMARK    4  A    between atoms: N_9  and  C_5 
ROOT
ATOM      1  C   UNL d   1       1.037   0.005   0.012  0.00  0.00     0.111 C 
ATOM      2  C   UNL d   1       0.358  -1.139   0.219  0.00  0.00     0.133 C 
ATOM      3  C   UNL d   1       0.357   1.233  -0.215  0.00  0.00     0.105 C 
ATOM      4  N   UNL d   1      -0.224   2.217  -0.408  0.00  0.00    -0.191 NA
ENDROOT
BRANCH   1   5
ATOM      5  C   UNL d   1       2.536  -0.027   0.085  0.00  0.00     0.210 C 
ATOM      6  O   UNL d   1       3.075  -0.892   0.778  0.00  0.00    -0.285 OA
BRANCH   5   7
ATOM      7  C   UNL d   1       3.301   0.959  -0.678  0.00  0.00     0.056 A 
ATOM      8  S   UNL d   1       4.845   1.441  -0.097  0.00  0.00    -0.098 SA
ATOM      9  C   UNL d   1       5.089   2.507  -1.409  0.00  0.00     0.050 A 
ATOM     10  C   UNL d   1       4.032   2.490  -2.290  0.00  0.00     0.009 A 
ATOM     11  C   UNL d   1       3.005   1.591  -1.874  0.00  0.00     0.023 A 
ENDBRANCH   5   7
ENDBRANCH   1   5
BRANCH   2  12
ATOM     12  N   UNL d   1      -0.999  -1.345   0.164  0.00  0.00    -0.200 N 
ATOM     13  H   UNL d   1      -1.625  -0.605  -0.128  0.00  0.00     0.183 HD
BRANCH  12  14
ATOM     14  C   UNL d   1      -1.713  -2.495   0.488  0.00  0.00     0.681 A 
ATOM     15  N   UNL d   1      -1.086  -3.590   0.947  0.00  0.00    -0.202 N 
ATOM     16  C   UNL d   1      -1.856  -4.654   1.248  0.00  0.00     0.107 A 
ATOM     17  HN  UNL d   1      -0.073  -3.615   1.062  1.00  0.00     0.183 HD
ATOM     18  C   UNL d   1      -3.220  -4.669   1.104  0.00  0.00     0.035 A 
ATOM     19  C   UNL d   1      -3.768  -3.505   0.628  0.00  0.00     0.107 A 
ATOM     20  N   UNL d   1      -3.042  -2.415   0.317  0.00  0.00    -0.202 N 
ATOM     21  HN  UNL d   1      -3.483  -1.565  -0.033  1.00  0.00     0.183 HD
ENDBRANCH  12  14
ENDBRANCH   2  12
TORSDOF 4
