REMARK  3 active torsions:
REMARK  status: ('A' for Active; 'I' for Inactive)
REMARK    1  A    between atoms: C_2  and  C_1 
REMARK       I    between atoms: N_3  and  C_2 
REMARK    2  A    between atoms: N_6  and  N_3 
REMARK    3  A    between atoms: C_8  and  N_6 
ROOT
ATOM      1  C   UNL d   1       0.392   1.922   0.713  0.00  0.00     0.271 C 
ATOM      2  N   UNL d   1       1.438   2.796   0.451  0.00  0.00    -0.282 N 
ATOM      3  O   UNL d   1       0.423   0.768   0.296  0.00  0.00    -0.266 OA
ATOM      4  H   UNL d   1       1.341   3.801   0.576  0.00  0.00     0.184 HD
ENDROOT
BRANCH   2   5
ATOM      5  N   UNL d   1       2.397   2.391  -0.482  0.00  0.00    -0.203 NA
ATOM      6  H   UNL d   1       2.283   1.400  -0.732  0.00  0.00     0.153 HD
BRANCH   5   7
ATOM      7  C   UNL d   1       3.744   2.691  -0.157  0.00  0.00     0.028 A 
ATOM      8  C   UNL d   1       4.126   3.574   0.866  0.00  0.00     0.032 A 
ATOM      9  C   UNL d   1       5.474   3.911   1.077  0.00  0.00    -0.060 A 
ATOM     10  C   UNL d   1       5.868   4.852   2.177  0.00  0.00     0.048 C 
ATOM     11  C   UNL d   1       6.450   3.388   0.225  0.00  0.00     0.007 A 
ATOM     12  C   UNL d   1       6.089   2.529  -0.809  0.00  0.00     0.002 A 
ATOM     13  C   UNL d   1       4.748   2.185  -0.997  0.00  0.00     0.025 A 
ENDBRANCH   5   7
ENDBRANCH   2   5
BRANCH   1  14
ATOM     14  C   UNL d   1      -0.753   2.459   1.522  0.00  0.00     0.093 A 
ATOM     15  C   UNL d   1      -0.685   3.751   2.067  0.00  0.00     0.133 A 
ATOM     16  F   UNL d   1       0.372   4.548   1.840  0.00  0.00    -0.205 F 
ATOM     17  C   UNL d   1      -1.705   4.282   2.859  0.00  0.00     0.043 A 
ATOM     18  C   UNL d   1      -2.835   3.524   3.129  0.00  0.00     0.005 A 
ATOM     19  C   UNL d   1      -2.939   2.245   2.590  0.00  0.00     0.025 A 
ATOM     20  C   UNL d   1      -1.913   1.708   1.789  0.00  0.00     0.052 A 
ATOM     21 CL   UNL d   1      -2.219   0.119   1.179  0.00  0.00    -0.083 Cl
ENDBRANCH   1  14
TORSDOF 3
