REMARK  5 active torsions:
REMARK  status: ('A' for Active; 'I' for Inactive)
REMARK    1  A    between atoms: N_12  and  C_1 
REMARK    2  A    between atoms: C_4  and  C_13 
REMARK    3  A    between atoms: C_14  and  N_12 
REMARK    4  A    between atoms: C_13  and  S_15 
REMARK    5  A    between atoms: S_15  and  C_17 
ROOT
ATOM      1  C   UNL d   1       6.274  -0.050   3.227  0.00  0.00     0.047 A 
ATOM      2  C   UNL d   1       5.024   0.031   2.532  0.00  0.00     0.027 A 
ATOM      3  C   UNL d   1       6.958   1.158   3.459  0.00  0.00     0.030 A 
ATOM      4  C   UNL d   1       4.561   1.294   2.107  0.00  0.00     0.021 A 
ATOM      5  C   UNL d   1       6.450   2.400   3.075  0.00  0.00     0.002 A 
ATOM      6  C   UNL d   1       5.258   2.467   2.385  0.00  0.00     0.002 A 
ENDROOT
BRANCH   2   7
ATOM      7  S   UNL d   1       3.991  -1.469   2.235  0.00  0.00    -0.123 SA
BRANCH   7   8
ATOM      8  C   UNL d   1       2.561  -0.792   1.301  0.00  0.00     0.119 C 
BRANCH   8   9
ATOM      9  C   UNL d   1       1.392  -1.707   0.913  0.00  0.00    -0.036 C 
ATOM     10  C   UNL d   1       0.089  -1.443   1.437  0.00  0.00    -0.048 C 
ATOM     11  C   UNL d   1      -1.062  -1.977   0.795  0.00  0.00    -0.049 C 
ATOM     12  C   UNL d   1      -0.103  -0.525   2.626  0.00  0.00     0.049 C 
ATOM     13  C   UNL d   1      -2.459  -1.514   1.168  0.00  0.00     0.049 C 
ATOM     14  C   UNL d   1      -0.918  -2.952  -0.222  0.00  0.00    -0.049 C 
ATOM     15  C   UNL d   1       0.377  -3.359  -0.621  0.00  0.00    -0.049 C 
ATOM     16  C   UNL d   1      -2.162  -3.487  -0.906  0.00  0.00     0.049 C 
ATOM     17  C   UNL d   1       1.524  -2.667  -0.128  0.00  0.00    -0.048 C 
ATOM     18  C   UNL d   1       0.525  -4.478  -1.629  0.00  0.00     0.049 C 
ATOM     19  C   UNL d   1       2.870  -2.967  -0.749  0.00  0.00     0.049 C 
ENDBRANCH   8   9
ENDBRANCH   7   8
ENDBRANCH   2   7
BRANCH   1  20
ATOM     20  N   UNL d   1       6.839  -1.281   3.556  0.00  0.00    -0.358 N 
ATOM     21  H   UNL d   1       6.141  -2.018   3.595  0.00  0.00     0.162 HD
BRANCH  20  22
ATOM     22  C   UNL d   1       8.031  -1.561   4.343  0.00  0.00     0.266 A 
ATOM     23  O   UNL d   1       8.245  -0.675   5.457  0.00  0.00    -0.287 OA
ATOM     24  C   UNL d   1       9.530  -0.194   5.477  0.00  0.00     0.296 A 
ATOM     25  O   UNL d   1      10.019   0.532   6.318  0.00  0.00    -0.259 OA
ATOM     26  C   UNL d   1      10.193  -0.692   4.276  0.00  0.00     0.050 A 
ATOM     27  C   UNL d   1       9.307  -1.483   3.579  0.00  0.00     0.007 A 
ATOM     28  C   UNL d   1      11.495  -0.462   3.851  0.00  0.00     0.018 A 
ATOM     29  C   UNL d   1       9.710  -2.120   2.417  0.00  0.00     0.012 A 
ATOM     30  C   UNL d   1      11.024  -1.920   1.967  0.00  0.00     0.001 A 
ATOM     31  C   UNL d   1      11.910  -1.091   2.676  0.00  0.00     0.001 A 
ENDBRANCH  20  22
ENDBRANCH   1  20
TORSDOF 5
