REMARK  7 active torsions:
REMARK  status: ('A' for Active; 'I' for Inactive)
REMARK    1  A    between atoms: C_2  and  C_1 
REMARK       I    between atoms: N_4  and  C_1 
REMARK    2  A    between atoms: N_5  and  C_2 
REMARK    3  A    between atoms: C_3  and  O_7 
REMARK    4  A    between atoms: C_9  and  N_4 
REMARK    5  A    between atoms: C_14  and  N_5 
REMARK    6  A    between atoms: O_7  and  C_13 
REMARK    7  A    between atoms: C_19  and  C_14 
ROOT
ATOM      1  C   UNL d   1       0.907  -0.105  -0.318  0.00  0.00     0.283 C 
ATOM      2  N   UNL d   1       0.301   1.045  -0.786  0.00  0.00    -0.321 N 
ATOM      3  O   UNL d   1       1.950  -0.617  -0.710  0.00  0.00    -0.265 OA
ATOM      4  H   UNL d   1      -0.418   1.467  -0.209  0.00  0.00     0.169 HD
ENDROOT
BRANCH   1   5
ATOM      5  C   UNL d   1       0.208  -0.764   0.852  0.00  0.00     0.165 C 
ATOM      6  S   UNL d   1      -1.176  -1.628   0.521  0.00  0.00    -0.055 SA
BRANCH   5   7
ATOM      7  N   UNL d   1       0.740  -0.708   2.115  0.00  0.00    -0.372 N 
ATOM      8  H   UNL d   1       0.383  -1.426   2.733  0.00  0.00     0.161 HD
BRANCH   7   9
ATOM      9  C   UNL d   1       1.957  -0.025   2.508  0.00  0.00     0.159 C 
BRANCH   9  10
ATOM     10  C   UNL d   1       2.216  -0.050   4.004  0.00  0.00    -0.041 A 
ATOM     11  C   UNL d   1       3.486   0.320   4.480  0.00  0.00     0.009 A 
ATOM     12  C   UNL d   1       3.775   0.303   5.849  0.00  0.00     0.001 A 
ATOM     13  C   UNL d   1       2.804  -0.086   6.766  0.00  0.00     0.000 A 
ATOM     14  C   UNL d   1       1.537  -0.436   6.317  0.00  0.00     0.001 A 
ATOM     15  C   UNL d   1       1.238  -0.399   4.951  0.00  0.00     0.009 A 
ENDBRANCH   9  10
ENDBRANCH   7   9
ENDBRANCH   5   7
ENDBRANCH   1   5
BRANCH   2  16
ATOM     16  C   UNL d   1       0.647   1.700  -1.986  0.00  0.00     0.035 A 
ATOM     17  C   UNL d   1       1.287   1.035  -3.036  0.00  0.00     0.032 A 
ATOM     18  C   UNL d   1       1.615   1.710  -4.215  0.00  0.00     0.039 A 
ATOM     19  C   UNL d   1       1.348   3.070  -4.336  0.00  0.00     0.078 A 
ATOM     20  C   UNL d   1       0.663   3.730  -3.316  0.00  0.00     0.039 A 
ATOM     21  C   UNL d   1       0.299   3.043  -2.149  0.00  0.00     0.032 A 
BRANCH  19  22
ATOM     22  O   UNL d   1       1.620   3.764  -5.480  0.00  0.00    -0.255 OA
BRANCH  22  23
ATOM     23  C   UNL d   1       3.010   3.821  -5.793  0.00  0.00     0.530 C 
ATOM     24  F   UNL d   1       3.556   2.595  -5.939  0.00  0.00    -0.144 F 
ATOM     25  F   UNL d   1       3.156   4.476  -6.968  0.00  0.00    -0.144 F 
ATOM     26  F   UNL d   1       3.687   4.505  -4.846  0.00  0.00    -0.144 F 
ENDBRANCH  22  23
ENDBRANCH  19  22
ENDBRANCH   2  16
TORSDOF 7
