REMARK  3 active torsions:
REMARK  status: ('A' for Active; 'I' for Inactive)
REMARK    1  A    between atoms: C_3  and  C_1 
REMARK    2  A    between atoms: C_16  and  N_2 
REMARK    3  A    between atoms: C_12  and  C_8 
ROOT
ATOM      1  C   UNL d   1      -0.466  -2.746   0.012  0.00  0.00     0.053 A 
ATOM      2  C   UNL d   1      -1.012  -3.371  -1.107  0.00  0.00     0.059 A 
ATOM      3  N   UNL d   1      -1.169  -4.724  -1.157  0.00  0.00    -0.345 N 
ATOM      4  HN  UNL d   1      -1.548  -5.173  -1.990  1.00  0.00     0.167 HD
ATOM      5  C   UNL d   1      -0.196  -3.598   1.078  0.00  0.00     0.107 A 
ATOM      6  N   UNL d   1      -0.340  -4.934   1.052  0.00  0.00    -0.355 N 
ATOM      7  HN  UNL d   1      -0.103  -5.518   1.854  1.00  0.00     0.166 HD
ATOM      8  C   UNL d   1      -0.813  -5.453  -0.085  0.00  0.00     0.077 A 
ATOM      9  C   UNL d   1      -0.978  -6.938  -0.161  0.00  0.00     0.089 C 
ENDROOT
BRANCH   1  10
ATOM     10  C   UNL d   1      -0.231  -1.313   0.151  0.00  0.00     0.152 A 
ATOM     11  N   UNL d   1       0.893  -0.692   0.701  0.00  0.00    -0.224 N 
ATOM     12  N   UNL d   1       0.604   0.620   0.870  0.00  0.00     0.001 NA
ATOM     13  N   UNL d   1      -0.581   0.811   0.316  0.00  0.00    -0.007 NA
ATOM     14  N   UNL d   1      -1.114  -0.367  -0.118  0.00  0.00    -0.269 N 
ATOM     15  HN  UNL d   1      -2.022  -0.494  -0.566  1.00  0.00     0.185 HD
BRANCH  11  16
ATOM     16  C   UNL d   1       2.146  -1.219   1.107  0.00  0.00     0.056 A 
ATOM     17  C   UNL d   1       2.685  -2.371   0.517  0.00  0.00     0.031 A 
ATOM     18  C   UNL d   1       3.872  -2.917   1.013  0.00  0.00     0.002 A 
ATOM     19  C   UNL d   1       4.527  -2.316   2.086  0.00  0.00     0.000 A 
ATOM     20  C   UNL d   1       4.019  -1.146   2.646  0.00  0.00     0.002 A 
ATOM     21  C   UNL d   1       2.841  -0.585   2.147  0.00  0.00     0.031 A 
ENDBRANCH  11  16
ENDBRANCH   1  10
BRANCH   2  22
ATOM     22  C   UNL d   1      -1.518  -2.687  -2.325  0.00  0.00    -0.007 A 
ATOM     23  C   UNL d   1      -0.856  -1.611  -2.940  0.00  0.00     0.037 A 
ATOM     24  C   UNL d   1      -1.410  -0.962  -4.048  0.00  0.00     0.035 A 
ATOM     25 CL   UNL d   1      -0.598   0.392  -4.734  0.00  0.00    -0.084 Cl
ATOM     26  C   UNL d   1      -2.614  -1.392  -4.598  0.00  0.00     0.024 A 
ATOM     27  C   UNL d   1      -3.268  -2.484  -4.039  0.00  0.00     0.003 A 
ATOM     28  C   UNL d   1      -2.725  -3.119  -2.917  0.00  0.00     0.014 A 
ENDBRANCH   2  22
TORSDOF 3
