REMARK  3 active torsions:
REMARK  status: ('A' for Active; 'I' for Inactive)
REMARK    1  A    between atoms: C_9  and  N_3 
REMARK    2  A    between atoms: C_7  and  C_4 
REMARK    3  A    between atoms: C_10  and  C_5 
ROOT
ATOM      1  N   UNL d   1       1.145  -0.211   0.182  0.00  0.00    -0.301 N 
ATOM      2  HN  UNL d   1       2.136  -0.419   0.303  1.00  0.00     0.187 HD
ATOM      3  N   UNL d   1       0.128  -1.119   0.149  0.00  0.00    -0.283 N 
ATOM      4  C   UNL d   1       0.619   0.966   0.032  0.00  0.00     0.039 A 
ATOM      5  C   UNL d   1      -1.194  -0.511   0.008  0.00  0.00     0.147 A 
ATOM      6  C   UNL d   1      -0.885   0.986  -0.040  0.00  0.00     0.091 A 
ENDROOT
BRANCH   4   7
ATOM      7  C   UNL d   1       1.410   2.221  -0.095  0.00  0.00    -0.001 A 
ATOM      8  C   UNL d   1       2.703   2.251  -0.703  0.00  0.00    -0.014 A 
ATOM      9  C   UNL d   1       3.371   3.501  -0.782  0.00  0.00    -0.025 A 
ATOM     10  C   UNL d   1       3.377   1.132  -1.258  0.00  0.00     0.013 A 
ATOM     11  C   UNL d   1       4.646   3.590  -1.368  0.00  0.00     0.012 A 
ATOM     12  C   UNL d   1       2.760   4.662  -0.289  0.00  0.00     0.012 A 
ATOM     13  C   UNL d   1       5.282   2.464  -1.885  0.00  0.00     0.001 A 
ATOM     14  C   UNL d   1       4.646   1.235  -1.833  0.00  0.00     0.001 A 
ATOM     15  C   UNL d   1       1.496   4.617   0.290  0.00  0.00     0.002 A 
ATOM     16  C   UNL d   1       0.825   3.404   0.389  0.00  0.00     0.014 A 
ENDBRANCH   4   7
BRANCH   3  17
ATOM     17  C   UNL d   1       0.396  -2.485   0.082  0.00  0.00     0.051 A 
ATOM     18  C   UNL d   1       1.595  -3.002   0.601  0.00  0.00     0.031 A 
ATOM     19  C   UNL d   1       1.867  -4.374   0.593  0.00  0.00     0.002 A 
ATOM     20  C   UNL d   1       0.953  -5.261   0.036  0.00  0.00     0.000 A 
ATOM     21  C   UNL d   1      -0.232  -4.775  -0.507  0.00  0.00     0.002 A 
ATOM     22  C   UNL d   1      -0.507  -3.403  -0.474  0.00  0.00     0.031 A 
ENDBRANCH   3  17
BRANCH   5  23
ATOM     23  C   UNL d   1      -2.113  -0.847   1.174  0.00  0.00    -0.033 A 
ATOM     24  C   UNL d   1      -1.612  -1.043   2.473  0.00  0.00     0.009 A 
ATOM     25  C   UNL d   1      -2.465  -1.354   3.531  0.00  0.00     0.001 A 
ATOM     26  C   UNL d   1      -3.835  -1.457   3.309  0.00  0.00     0.000 A 
ATOM     27  C   UNL d   1      -4.351  -1.249   2.032  0.00  0.00     0.001 A 
ATOM     28  C   UNL d   1      -3.497  -0.944   0.969  0.00  0.00     0.009 A 
ENDBRANCH   5  23
TORSDOF 3
