REMARK  4 active torsions:
REMARK  status: ('A' for Active; 'I' for Inactive)
REMARK    1  A    between atoms: C_3  and  C_1 
REMARK    2  A    between atoms: C_4  and  C_2 
REMARK       I    between atoms: N_6  and  C_3 
REMARK    3  A    between atoms: C_9  and  C_13 
REMARK    4  A    between atoms: O_20  and  C_9 
ROOT
ATOM      1  C   UNL d   1       0.075  -2.676   0.012  0.00  0.00     0.256 C 
ATOM      2  N   UNL d   1      -0.877  -3.702   0.045  0.00  0.00    -0.348 N 
ATOM      3  O   UNL d   1       0.925  -2.544   0.885  0.00  0.00    -0.267 OA
ATOM      4  C   UNL d   1      -1.889  -3.978  -0.978  0.00  0.00     0.127 C 
ATOM      5  C   UNL d   1      -0.976  -4.511   1.255  0.00  0.00     0.127 C 
ATOM      6  C   UNL d   1      -2.046  -6.370  -0.092  0.00  0.00     0.087 C 
ATOM      7  C   UNL d   1      -0.960  -6.001   0.922  0.00  0.00     0.035 C 
ATOM      8  C   UNL d   1      -1.950  -5.466  -1.327  0.00  0.00     0.035 C 
ENDROOT
BRANCH   1   9
ATOM      9  C   UNL d   1       0.044  -1.739  -1.104  0.00  0.00     0.073 A 
ATOM     10  C   UNL d   1       1.161  -1.293  -1.798  0.00  0.00     0.175 A 
ATOM     11  O   UNL d   1       0.773  -0.431  -2.793  0.00  0.00    -0.310 OA
ATOM     12  C   UNL d   1      -0.575  -0.289  -2.711  0.00  0.00     0.051 A 
ATOM     13  C   UNL d   1      -1.063  -1.032  -1.663  0.00  0.00     0.052 A 
ATOM     14  C   UNL d   1      -1.206   0.594  -3.711  0.00  0.00     0.076 C 
BRANCH  10  15
ATOM     15  C   UNL d   1       2.620  -1.567  -1.709  0.00  0.00     0.440 C 
ATOM     16  F   UNL d   1       2.950  -2.512  -0.796  0.00  0.00    -0.164 F 
ATOM     17  F   UNL d   1       3.111  -2.014  -2.898  0.00  0.00    -0.164 F 
ATOM     18  F   UNL d   1       3.329  -0.450  -1.397  0.00  0.00    -0.164 F 
ENDBRANCH  10  15
ENDBRANCH   1   9
BRANCH   6  19
ATOM     19  C   UNL d   1      -3.432  -6.318   0.531  0.00  0.00     0.143 C 
ATOM     20  O   UNL d   1      -4.305  -5.519   0.229  0.00  0.00    -0.650 OA
BRANCH  19  21
ATOM     21  O   UNL d   1      -3.630  -7.272   1.467  0.00  0.00    -0.776 OA
ATOM     22  H   UNL d   1      -2.877  -7.877   1.600  0.00  0.00     0.167 HD
ENDBRANCH  19  21
ENDBRANCH   6  19
TORSDOF 4
