REMARK  3 active torsions:
REMARK  status: ('A' for Active; 'I' for Inactive)
REMARK    1  A    between atoms: C_12  and  N_1 
REMARK    2  A    between atoms: C_11  and  N_3 
REMARK    3  A    between atoms: C_18  and  C_12 
ROOT
ATOM      1  N   UNL d   1       2.109   0.667   0.036  0.00  0.00    -0.260 N 
ATOM      2  C   UNL d   1       2.138  -0.739   0.169  0.00  0.00     0.338 A 
ATOM      3  N   UNL d   1       0.908  -1.417   0.135  0.00  0.00    -0.247 N 
ATOM      4  C   UNL d   1      -0.264  -0.687   0.061  0.00  0.00     0.150 A 
ATOM      5  C   UNL d   1      -0.232   0.673  -0.035  0.00  0.00     0.147 A 
ATOM      6  C   UNL d   1       0.957   1.445  -0.063  0.00  0.00     0.282 A 
ATOM      7  N   UNL d   1      -1.554  -1.143   0.013  0.00  0.00    -0.336 N 
ATOM      8  HN  UNL d   1      -1.871  -2.112   0.048  1.00  0.00     0.168 HD
ATOM      9  N   UNL d   1      -1.533   1.074  -0.113  0.00  0.00    -0.345 N 
ATOM     10  C   UNL d   1      -2.298  -0.060  -0.087  0.00  0.00     0.182 A 
ATOM     11  O   UNL d   1       3.211  -1.325   0.364  0.00  0.00    -0.246 OA
ATOM     12  O   UNL d   1       0.938   2.668  -0.156  0.00  0.00    -0.265 OA
ATOM     13  H   UNL d   1      -1.862   2.029  -0.196  0.00  0.00     0.167 HD
ENDROOT
BRANCH   1  14
ATOM     14  C   UNL d   1       3.390   1.362   0.049  0.00  0.00     0.175 C 
BRANCH  14  15
ATOM     15  C   UNL d   1       4.051   1.363  -1.312  0.00  0.00    -0.040 A 
ATOM     16  C   UNL d   1       3.777   2.376  -2.240  0.00  0.00     0.009 A 
ATOM     17  C   UNL d   1       4.369   2.354  -3.505  0.00  0.00     0.001 A 
ATOM     18  C   UNL d   1       5.229   1.315  -3.859  0.00  0.00     0.000 A 
ATOM     19  C   UNL d   1       5.508   0.303  -2.946  0.00  0.00     0.001 A 
ATOM     20  C   UNL d   1       4.925   0.329  -1.678  0.00  0.00     0.009 A 
ENDBRANCH  14  15
ENDBRANCH   1  14
BRANCH   3  21
ATOM     21  C   UNL d   1       0.838  -2.841   0.179  0.00  0.00     0.045 A 
ATOM     22  C   UNL d   1      -0.102  -3.510   0.979  0.00  0.00     0.032 A 
ATOM     23  C   UNL d   1      -0.103  -4.906   1.067  0.00  0.00     0.026 A 
ATOM     24  C   UNL d   1       0.817  -5.650   0.333  0.00  0.00     0.034 A 
ATOM     25  C   UNL d   1       1.739  -5.010  -0.489  0.00  0.00     0.026 A 
ATOM     26 CL   UNL d   1       0.823  -7.366   0.450  0.00  0.00    -0.084 Cl
ATOM     27  C   UNL d   1       1.754  -3.613  -0.555  0.00  0.00     0.032 A 
ENDBRANCH   3  21
TORSDOF 3
