REMARK  5 active torsions:
REMARK  status: ('A' for Active; 'I' for Inactive)
REMARK    1  A    between atoms: C_2  and  C_1 
REMARK       I    between atoms: N_3  and  C_8 
REMARK    2  A    between atoms: C_4  and  N_3 
REMARK    3  A    between atoms: C_8  and  C_20 
REMARK    4  A    between atoms: S_12  and  C_10 
REMARK    5  A    between atoms: C_20  and  S_12 
ROOT
ATOM      1  C   UNL d   1      -1.394   1.761  -6.183  0.00  0.00     0.184 C 
ENDROOT
BRANCH   1   2
ATOM      2  C   UNL d   1      -1.976   2.534  -7.352  0.00  0.00     0.231 C 
ATOM      3  N   UNL d   1      -1.565   3.853  -7.440  0.00  0.00    -0.324 N 
ATOM      4  H   UNL d   1      -0.742   4.130  -6.911  0.00  0.00     0.169 HD
ATOM      5  O   UNL d   1      -2.695   1.973  -8.181  0.00  0.00    -0.272 OA
BRANCH   3   6
ATOM      6  C   UNL d   1      -2.053   4.791  -8.374  0.00  0.00     0.073 A 
ATOM      7  C   UNL d   1      -1.236   5.873  -8.729  0.00  0.00     0.145 A 
ATOM      8  C   UNL d   1      -1.646   6.813  -9.666  0.00  0.00     0.086 A 
ATOM      9  F   UNL d   1      -0.012   5.984  -8.189  0.00  0.00    -0.204 F 
ATOM     10  C   UNL d   1      -2.915   6.699 -10.217  0.00  0.00     0.119 A 
ATOM     11  C   UNL d   1      -3.766   5.654  -9.855  0.00  0.00     0.044 A 
ATOM     12  F   UNL d   1      -3.332   7.602 -11.113  0.00  0.00    -0.206 F 
ATOM     13  C   UNL d   1      -3.329   4.697  -8.941  0.00  0.00     0.036 A 
ENDBRANCH   3   6
ENDBRANCH   1   2
BRANCH   1  14
ATOM     14  S   UNL d   1      -1.962   2.482  -4.609  0.00  0.00    -0.103 SA
BRANCH  14  15
ATOM     15  C   UNL d   1      -1.143   1.396  -3.456  0.00  0.00     0.070 A 
ATOM     16  C   UNL d   1      -1.320   1.603  -2.094  0.00  0.00     0.038 A 
ATOM     17  C   UNL d   1      -0.607   0.812  -1.195  0.00  0.00     0.020 A 
ATOM     18  C   UNL d   1       0.265  -0.168  -1.675  0.00  0.00     0.063 A 
ATOM     19  C   UNL d   1       0.343  -0.331  -3.050  0.00  0.00     0.105 A 
ATOM     20  N   UNL d   1      -0.334   0.431  -3.943  0.00  0.00    -0.360 N 
ATOM     21  HN  UNL d   1      -0.235   0.280  -4.947  1.00  0.00     0.166 HD
BRANCH  18  22
ATOM     22  C   UNL d   1       1.117  -0.986  -0.754  0.00  0.00     0.418 C 
ATOM     23  F   UNL d   1       1.923  -1.873  -1.399  0.00  0.00    -0.166 F 
ATOM     24  F   UNL d   1       0.385  -1.717   0.130  0.00  0.00    -0.166 F 
ATOM     25  F   UNL d   1       1.946  -0.211  -0.001  0.00  0.00    -0.166 F 
ENDBRANCH  18  22
ENDBRANCH  14  15
ENDBRANCH   1  14
TORSDOF 5
