REMARK  4 active torsions:
REMARK  status: ('A' for Active; 'I' for Inactive)
REMARK    1  A    between atoms: C_3  and  C_1 
REMARK    2  A    between atoms: C_16  and  N_2 
REMARK    3  A    between atoms: C_15  and  C_6 
REMARK    4  A    between atoms: C_18  and  C_11 
ROOT
ATOM      1  C   UNL d   1      -0.372  -2.740  -0.091  0.00  0.00     0.054 A 
ATOM      2  C   UNL d   1       0.017  -3.506   1.007  0.00  0.00     0.059 A 
ATOM      3  N   UNL d   1      -0.174  -4.855   1.032  0.00  0.00    -0.340 N 
ATOM      4  HN  UNL d   1       0.108  -5.402   1.845  1.00  0.00     0.167 HD
ATOM      5  C   UNL d   1      -0.740  -5.455  -0.031  0.00  0.00     0.116 A 
ATOM      6  N   UNL d   1      -1.147  -4.795  -1.124  0.00  0.00    -0.351 N 
ATOM      7  HN  UNL d   1      -1.593  -5.273  -1.907  1.00  0.00     0.166 HD
ATOM      8  C   UNL d   1      -0.934  -3.467  -1.131  0.00  0.00     0.107 A 
ENDROOT
BRANCH   1   9
ATOM      9  C   UNL d   1      -0.152  -1.306  -0.246  0.00  0.00     0.152 A 
ATOM     10  N   UNL d   1      -1.022  -0.377  -0.815  0.00  0.00    -0.224 N 
ATOM     11  N   UNL d   1      -0.332   0.762  -1.051  0.00  0.00     0.001 NA
ATOM     12  N   UNL d   1       0.857   0.588  -0.500  0.00  0.00    -0.007 NA
ATOM     13  N   UNL d   1       0.990  -0.679  -0.009  0.00  0.00    -0.269 N 
ATOM     14  HN  UNL d   1       1.812  -1.069   0.452  1.00  0.00     0.185 HD
BRANCH  10  15
ATOM     15  C   UNL d   1      -2.385  -0.496  -1.180  0.00  0.00     0.056 A 
ATOM     16  C   UNL d   1      -3.254  -1.335  -0.469  0.00  0.00     0.031 A 
ATOM     17  C   UNL d   1      -4.567  -1.507  -0.912  0.00  0.00     0.002 A 
ATOM     18  C   UNL d   1      -5.011  -0.850  -2.058  0.00  0.00     0.000 A 
ATOM     19  C   UNL d   1      -4.159   0.012  -2.746  0.00  0.00     0.002 A 
ATOM     20  C   UNL d   1      -2.852   0.210  -2.298  0.00  0.00     0.031 A 
ENDBRANCH  10  15
ENDBRANCH   1   9
BRANCH   2  21
ATOM     21  C   UNL d   1       0.661  -2.999   2.248  0.00  0.00    -0.007 A 
ATOM     22  C   UNL d   1       1.626  -3.789   2.910  0.00  0.00     0.037 A 
ATOM     23  C   UNL d   1       2.232  -3.361   4.093  0.00  0.00     0.035 A 
ATOM     24 CL   UNL d   1       3.382  -4.371   4.880  0.00  0.00    -0.084 Cl
ATOM     25  C   UNL d   1       1.907  -2.128   4.645  0.00  0.00     0.024 A 
ATOM     26  C   UNL d   1       0.956  -1.329   4.018  0.00  0.00     0.003 A 
ATOM     27  C   UNL d   1       0.329  -1.769   2.846  0.00  0.00     0.014 A 
ENDBRANCH   2  21
BRANCH   5  28
ATOM     28  C   UNL d   1      -0.885  -6.924  -0.018  0.00  0.00     0.008 A 
ATOM     29  C   UNL d   1      -1.498  -7.610  -1.085  0.00  0.00     0.015 A 
ATOM     30  C   UNL d   1      -1.615  -9.004  -1.092  0.00  0.00     0.001 A 
ATOM     31  C   UNL d   1      -1.119  -9.747  -0.026  0.00  0.00     0.000 A 
ATOM     32  C   UNL d   1      -0.514  -9.098   1.047  0.00  0.00     0.001 A 
ATOM     33  C   UNL d   1      -0.400  -7.703   1.050  0.00  0.00     0.015 A 
ENDBRANCH   5  28
TORSDOF 4
