REMARK  9 active torsions:
REMARK  status: ('A' for Active; 'I' for Inactive)
REMARK    1  A    between atoms: N_2  and  C_1 
REMARK    2  A    between atoms: C_3  and  C_1 
REMARK    3  A    between atoms: C_6  and  C_1 
REMARK    4  A    between atoms: N_7  and  C_1 
REMARK       I    between atoms: C_4  and  N_2 
REMARK    5  A    between atoms: C_8  and  C_4 
REMARK    6  A    between atoms: C_5  and  C_9 
REMARK    7  A    between atoms: O_24  and  C_6 
REMARK    8  A    between atoms: C_11  and  N_7 
REMARK    9  A    between atoms: C_28  and  O_24 
ROOT
ATOM      1  C   UNL d   1       0.880   0.024   0.116  0.00  0.00     0.297 C 
ENDROOT
BRANCH   1   2
ATOM      2  N   UNL d   1       0.477   0.922  -0.954  0.00  0.00    -0.313 N 
ATOM      3  C   UNL d   1      -0.830   1.174  -1.267  0.00  0.00     0.277 C 
ATOM      4  O   UNL d   1      -1.752   0.669  -0.634  0.00  0.00    -0.265 OA
ATOM      5  H   UNL d   1       1.212   1.399  -1.458  0.00  0.00     0.166 HD
BRANCH   3   6
ATOM      6  C   UNL d   1      -1.001   2.084  -2.376  0.00  0.00     0.142 A 
ATOM      7  O   UNL d   1       0.094   2.442  -3.122  0.00  0.00    -0.317 OA
ATOM      8  C   UNL d   1      -0.346   3.266  -4.107  0.00  0.00     0.143 A 
ATOM      9  C   UNL d   1      -1.701   3.466  -3.999  0.00  0.00     0.027 A 
ATOM     10  C   UNL d   1      -2.125   2.705  -2.883  0.00  0.00     0.045 A 
ENDBRANCH   3   6
ENDBRANCH   1   2
BRANCH   1  11
ATOM     11  C   UNL d   1       0.180  -1.384   0.176  0.00  0.00     0.442 C 
ATOM     12  F   UNL d   1      -0.355  -1.735  -1.024  0.00  0.00    -0.166 F 
ATOM     13  F   UNL d   1       1.069  -2.367   0.487  0.00  0.00    -0.166 F 
ATOM     14  F   UNL d   1      -0.816  -1.467   1.087  0.00  0.00    -0.166 F 
ENDBRANCH   1  11
BRANCH   1  15
ATOM     15  C   UNL d   1       0.604   0.631   1.524  0.00  0.00     0.318 C 
ATOM     16  O   UNL d   1       1.011   0.129   2.570  0.00  0.00    -0.260 OA
BRANCH  15  17
ATOM     17  O   UNL d   1      -0.104   1.796   1.459  0.00  0.00    -0.318 OA
BRANCH  17  18
ATOM     18  C   UNL d   1      -0.573   2.347   2.696  0.00  0.00     0.174 C 
ATOM     19  C   UNL d   1      -1.887   1.690   3.078  0.00  0.00     0.034 C 
ENDBRANCH  17  18
ENDBRANCH  15  17
ENDBRANCH   1  15
BRANCH   1  20
ATOM     20  N   UNL d   1       2.373  -0.015  -0.043  0.00  0.00    -0.348 N 
ATOM     21  H   UNL d   1       2.813  -0.251   0.852  0.00  0.00     0.163 HD
BRANCH  20  22
ATOM     22  C   UNL d   1       3.045  -0.637  -1.094  0.00  0.00     0.031 A 
ATOM     23  C   UNL d   1       2.441  -1.066  -2.281  0.00  0.00     0.045 A 
ATOM     24  C   UNL d   1       3.186  -1.613  -3.340  0.00  0.00     0.050 A 
ATOM     25  C   UNL d   1       4.582  -1.688  -3.226  0.00  0.00     0.016 A 
ATOM     26  C   UNL d   1       5.206  -1.229  -2.071  0.00  0.00     0.003 A 
ATOM     27  C   UNL d   1       4.445  -0.708  -1.024  0.00  0.00     0.029 A 
BRANCH  24  28
ATOM     28  C   UNL d   1       2.501  -2.099  -4.593  0.00  0.00     0.417 C 
ATOM     29  F   UNL d   1       1.141  -2.027  -4.534  0.00  0.00    -0.166 F 
ATOM     30  F   UNL d   1       2.862  -1.384  -5.694  0.00  0.00    -0.166 F 
ATOM     31  F   UNL d   1       2.793  -3.398  -4.876  0.00  0.00    -0.166 F 
ENDBRANCH  24  28
ENDBRANCH  20  22
ENDBRANCH   1  20
TORSDOF 9
