REMARK  2 active torsions:
REMARK  status: ('A' for Active; 'I' for Inactive)
REMARK       I    between atoms: N_3  and  C_1 
REMARK       I    between atoms: N_6  and  C_1 
REMARK    1  A    between atoms: C_2  and  N_4 
REMARK    2  A    between atoms: C_7  and  N_6 
ROOT
ATOM      1  C   UNL d   1      -0.839  -4.390   2.951  0.00  0.00     0.141 A 
ATOM      2  C   UNL d   1      -1.267  -5.676   2.574  0.00  0.00     0.158 A 
ATOM      3  C   UNL d   1      -1.046  -6.211   1.258  0.00  0.00     0.121 C 
ATOM      4  N   UNL d   1      -0.874  -6.609   0.179  0.00  0.00    -0.190 NA
ATOM      5  N   UNL d   1      -0.998  -4.015   4.250  0.00  0.00    -0.349 N 
ATOM      6  HN  UNL d   1      -0.681  -3.102   4.575  1.00  0.00     0.167 HD
ATOM      7  N   UNL d   1      -1.862  -6.563   3.428  0.00  0.00    -0.353 N 
ATOM      8  HN  UNL d   1      -2.167  -7.488   3.126  1.00  0.00     0.166 HD
ATOM      9  C   UNL d   1      -1.588  -4.888   5.097  0.00  0.00     0.106 A 
ATOM     10  C   UNL d   1      -2.018  -6.133   4.694  0.00  0.00     0.106 A 
ENDROOT
BRANCH   1  11
ATOM     11  N   UNL d   1      -0.290  -3.440   2.119  0.00  0.00    -0.362 N 
ATOM     12  C   UNL d   1      -0.660  -3.262   0.713  0.00  0.00     0.144 C 
ATOM     13  C   UNL d   1      -0.898  -1.772   0.397  0.00  0.00     0.147 C 
ATOM     14  N   UNL d   1       0.230  -0.939   0.829  0.00  0.00    -0.331 N 
ATOM     15  C   UNL d   1       0.903   0.043   0.117  0.00  0.00     0.323 C 
ATOM     16  C   UNL d   1       0.556  -1.107   2.257  0.00  0.00     0.147 C 
ATOM     17  N   UNL d   1       0.535   0.190  -1.201  0.00  0.00    -0.309 N 
ATOM     18  O   UNL d   1       1.770   0.722   0.662  0.00  0.00    -0.247 OA
ATOM     19  H   UNL d   1      -0.195  -0.403  -1.549  0.00  0.00     0.170 HD
ATOM     20  C   UNL d   1       0.795  -2.581   2.623  0.00  0.00     0.144 C 
BRANCH  17  21
ATOM     21  C   UNL d   1       1.014   1.147  -2.126  0.00  0.00     0.039 A 
ATOM     22  C   UNL d   1       2.039   2.057  -1.851  0.00  0.00     0.053 A 
ATOM     23  C   UNL d   1       2.404   3.015  -2.799  0.00  0.00     0.037 A 
ATOM     24 CL   UNL d   1       3.650   4.145  -2.430  0.00  0.00    -0.084 Cl
ATOM     25  C   UNL d   1       1.768   3.076  -4.033  0.00  0.00     0.048 A 
ATOM     26  C   UNL d   1       0.769   2.153  -4.321  0.00  0.00     0.037 A 
ATOM     27  C   UNL d   1       0.395   1.189  -3.382  0.00  0.00     0.053 A 
ATOM     28 CL   UNL d   1      -0.029   2.210  -5.846  0.00  0.00    -0.084 Cl
ENDBRANCH  17  21
ENDBRANCH   1  11
TORSDOF 2
