REMARK  2 active torsions:
REMARK  status: ('A' for Active; 'I' for Inactive)
REMARK    1  A    between atoms: C_14  and  N_2 
REMARK    2  A    between atoms: C_17  and  N_5 
ROOT
ATOM      1  C   UNL d   1       2.659  -0.724  -0.009  0.00  0.00     0.139 C 
ATOM      2  N   UNL d   1       4.033  -0.384  -0.003  0.00  0.00    -0.248 N 
ATOM      3  C   UNL d   1       1.731   0.267  -0.072  0.00  0.00     0.105 C 
ATOM      4  C   UNL d   1       4.487   0.958   0.034  0.00  0.00     0.342 C 
ATOM      5  N   UNL d   1       3.518   1.951   0.035  0.00  0.00    -0.229 N 
ATOM      6  N   UNL d   1       2.198  -2.067   0.094  0.00  0.00    -0.302 N 
ATOM      7  C   UNL d   1       2.164   1.702  -0.109  0.00  0.00     0.272 C 
ATOM      8  C   UNL d   1      -0.140  -1.370  -0.105  0.00  0.00     0.061 A 
ATOM      9  C   UNL d   1       0.283  -0.061  -0.077  0.00  0.00     0.068 A 
ATOM     10  C   UNL d   1       0.852  -2.434  -0.064  0.00  0.00     0.261 C 
ATOM     11  N   UNL d   1      -0.622   0.948  -0.048  0.00  0.00    -0.354 N 
ATOM     12  HN  UNL d   1      -0.298   1.915  -0.029  1.00  0.00     0.166 HD
ATOM     13  C   UNL d   1      -1.508  -1.664  -0.100  0.00  0.00     0.033 A 
ATOM     14  C   UNL d   1      -1.943   0.688  -0.043  0.00  0.00     0.043 A 
ATOM     15  O   UNL d   1       5.690   1.241  -0.020  0.00  0.00    -0.245 OA
ATOM     16  O   UNL d   1       1.341   2.609  -0.214  0.00  0.00    -0.266 OA
ATOM     17  C   UNL d   1      -2.441  -0.628  -0.067  0.00  0.00    -0.008 A 
ATOM     18  O   UNL d   1       0.458  -3.599  -0.126  0.00  0.00    -0.267 OA
ATOM     19  C   UNL d   1       3.039  -3.205   0.446  0.00  0.00     0.161 C 
ATOM     20  C   UNL d   1      -2.856   1.734  -0.011  0.00  0.00     0.030 A 
ATOM     21  C   UNL d   1      -3.826  -0.866  -0.049  0.00  0.00     0.014 A 
ATOM     22  C   UNL d   1      -4.236   1.502   0.004  0.00  0.00     0.002 A 
ATOM     23  C   UNL d   1      -4.721   0.199  -0.014  0.00  0.00     0.001 A 
ENDROOT
BRANCH   2  24
ATOM     24  C   UNL d   1       5.119  -1.308  -0.216  0.00  0.00     0.045 A 
ATOM     25  C   UNL d   1       6.163  -1.383   0.724  0.00  0.00     0.030 A 
ATOM     26  C   UNL d   1       7.279  -2.184   0.491  0.00  0.00     0.002 A 
ATOM     27  C   UNL d   1       7.364  -2.922  -0.687  0.00  0.00     0.000 A 
ATOM     28  C   UNL d   1       6.334  -2.858  -1.628  0.00  0.00     0.002 A 
ATOM     29  C   UNL d   1       5.216  -2.048  -1.400  0.00  0.00     0.030 A 
ENDBRANCH   2  24
BRANCH   5  30
ATOM     30  C   UNL d   1       3.979   3.317   0.013  0.00  0.00     0.047 A 
ATOM     31  C   UNL d   1       3.536   4.218  -0.968  0.00  0.00     0.030 A 
ATOM     32  C   UNL d   1       4.038   5.521  -1.018  0.00  0.00     0.002 A 
ATOM     33  C   UNL d   1       4.970   5.948  -0.074  0.00  0.00     0.000 A 
ATOM     34  C   UNL d   1       5.407   5.071   0.915  0.00  0.00     0.002 A 
ATOM     35  C   UNL d   1       4.923   3.761   0.952  0.00  0.00     0.030 A 
ENDBRANCH   5  30
TORSDOF 2
