REMARK  3 active torsions:
REMARK  status: ('A' for Active; 'I' for Inactive)
REMARK    1  A    between atoms: C_5  and  C_2 
REMARK    2  A    between atoms: C_7  and  C_5 
REMARK    3  A    between atoms: O_15  and  C_14 
ROOT
ATOM      1  C   UNL d   1      -3.200   1.053  -0.053  0.00  0.00    -0.022 A 
ATOM      2  C   UNL d   1      -3.656   0.204   0.982  0.00  0.00    -0.049 A 
ATOM      3  C   UNL d   1      -4.064   1.376  -1.127  0.00  0.00    -0.049 A 
ATOM      4  C   UNL d   1      -4.948  -0.341   0.905  0.00  0.00     0.044 A 
ATOM      5  C   UNL d   1      -5.357   0.823  -1.166  0.00  0.00     0.044 A 
ATOM      6  C   UNL d   1      -5.783  -0.033  -0.159  0.00  0.00     0.066 A 
ATOM      7  C   UNL d   1      -2.832  -0.164   2.189  0.00  0.00     0.049 C 
ATOM      8  C   UNL d   1      -3.683   2.305  -2.252  0.00  0.00     0.049 C 
ENDROOT
BRANCH   1   9
ATOM      9  C   UNL d   1      -1.830   1.585  -0.030  0.00  0.00     0.048 C 
BRANCH   9  10
ATOM     10  C   UNL d   1      -0.783   0.956  -0.567  0.00  0.00     0.105 A 
ATOM     11  C   UNL d   1       0.623   1.462  -0.567  0.00  0.00     0.276 A 
ATOM     12  N   UNL d   1       1.338   0.481  -1.194  0.00  0.00    -0.274 N 
ATOM     13  O   UNL d   1       1.030   2.511  -0.109  0.00  0.00    -0.266 OA
ATOM     14  C   UNL d   1       0.534  -0.564  -1.572  0.00  0.00     0.327 A 
ATOM     15  H   UNL d   1       2.332   0.505  -1.341  0.00  0.00     0.173 HD
ATOM     16  N   UNL d   1      -0.762  -0.253  -1.200  0.00  0.00    -0.304 N 
ATOM     17  O   UNL d   1       0.897  -1.587  -2.126  0.00  0.00    -0.247 OA
ATOM     18  H   UNL d   1      -1.555  -0.858  -1.353  0.00  0.00     0.171 HD
ENDBRANCH   9  10
ENDBRANCH   1   9
BRANCH   6  19
ATOM     19  O   UNL d   1      -7.024  -0.592  -0.175  0.00  0.00    -0.361 OA
ATOM     20  H   UNL d   1      -7.495  -0.286  -0.968  0.00  0.00     0.217 HD
ENDBRANCH   6  19
TORSDOF 3
