REMARK  11 active torsions:
REMARK  status: ('A' for Active; 'I' for Inactive)
REMARK    1  A    between atoms: N_3  and  S_1 
REMARK    2  A    between atoms: C_6  and  S_1 
REMARK    3  A    between atoms: S_2  and  N_4 
REMARK    4  A    between atoms: C_8  and  S_2 
REMARK    5  A    between atoms: C_7  and  N_3 
REMARK    6  A    between atoms: C_16  and  N_3 
REMARK    7  A    between atoms: N_4  and  N_5 
REMARK       I    between atoms: N_5  and  C_9 
REMARK    8  A    between atoms: C_10  and  C_7 
REMARK    9  A    between atoms: C_9  and  C_13 
REMARK   10  A    between atoms: C_13  and  C_16 
REMARK   11  A    between atoms: O_33  and  C_27 
ROOT
ATOM      1  C   UNL d   1       0.541   3.260  -2.291  0.00  0.00     0.120 C 
ENDROOT
BRANCH   1   2
ATOM      2  C   UNL d   1      -0.930   3.588  -2.358  0.00  0.00     0.237 C 
ATOM      3  N   UNL d   1      -1.758   2.537  -2.672  0.00  0.00    -0.260 N 
ATOM      4  H   UNL d   1      -1.418   1.586  -2.825  0.00  0.00     0.190 HD
ATOM      5  O   UNL d   1      -1.356   4.724  -2.145  0.00  0.00    -0.272 OA
BRANCH   3   6
ATOM      6  N   UNL d   1      -3.166   2.811  -2.803  0.00  0.00    -0.220 N 
ATOM      7  H   UNL d   1      -3.487   3.783  -2.765  0.00  0.00     0.200 HD
BRANCH   6   8
ATOM      8  S   UNL d   1      -4.316   1.597  -2.740  0.00  0.00     0.276 S 
ATOM      9  O   UNL d   1      -5.593   2.160  -3.116  0.00  0.00    -0.199 OA
ATOM     10  O   UNL d   1      -3.757   0.427  -3.404  0.00  0.00    -0.199 OA
BRANCH   8  11
ATOM     11  C   UNL d   1      -4.383   1.242  -1.000  0.00  0.00     0.081 A 
ATOM     12  C   UNL d   1      -4.652   2.276  -0.095  0.00  0.00     0.028 A 
ATOM     13  C   UNL d   1      -4.737   1.997   1.276  0.00  0.00     0.038 A 
ATOM     14  C   UNL d   1      -4.535   0.695   1.742  0.00  0.00     0.068 A 
ATOM     15  C   UNL d   1      -4.274  -0.329   0.824  0.00  0.00     0.038 A 
ATOM     16  C   UNL d   1      -4.192  -0.062  -0.545  0.00  0.00     0.028 A 
BRANCH  14  17
ATOM     17  O   UNL d   1      -4.592   0.291   3.046  0.00  0.00    -0.356 OA
ATOM     18  C   UNL d   1      -4.321   1.258   4.054  0.00  0.00     0.210 C 
ENDBRANCH  14  17
ENDBRANCH   8  11
ENDBRANCH   6   8
ENDBRANCH   3   6
ENDBRANCH   1   2
BRANCH   1  19
ATOM     19  C   UNL d   1       0.890   2.318  -1.151  0.00  0.00     0.117 C 
BRANCH  19  20
ATOM     20  N   UNL d   1       0.499   0.853  -1.312  0.00  0.00    -0.200 NA
BRANCH  20  21
ATOM     21  S   UNL d   1       1.115   0.146  -2.747  0.00  0.00     0.244 S 
ATOM     22  O   UNL d   1       2.555   0.283  -2.686  0.00  0.00    -0.206 OA
ATOM     23  O   UNL d   1       0.349   0.702  -3.841  0.00  0.00    -0.206 OA
BRANCH  21  24
ATOM     24  C   UNL d   1       0.722  -1.582  -2.686  0.00  0.00     0.074 A 
ATOM     25  C   UNL d   1      -0.614  -1.998  -2.677  0.00  0.00     0.026 A 
ATOM     26  C   UNL d   1      -0.902  -3.366  -2.680  0.00  0.00     0.025 A 
ATOM     27  C   UNL d   1       0.137  -4.300  -2.708  0.00  0.00     0.034 A 
ATOM     28  C   UNL d   1       1.466  -3.881  -2.745  0.00  0.00     0.025 A 
ATOM     29 CL   UNL d   1      -0.222  -5.982  -2.705  0.00  0.00    -0.084 Cl
ATOM     30  C   UNL d   1       1.762  -2.518  -2.735  0.00  0.00     0.026 A 
ENDBRANCH  21  24
ENDBRANCH  20  21
BRANCH  20  31
ATOM     31  C   UNL d   1       0.860   0.079  -0.062  0.00  0.00     0.172 C 
BRANCH  31  32
ATOM     32  C   UNL d   1       0.296   0.758   1.142  0.00  0.00     0.066 A 
ATOM     33  O   UNL d   1      -1.031   1.062   1.090  0.00  0.00    -0.326 OA
ATOM     34  C   UNL d   1      -1.283   1.880   2.137  0.00  0.00     0.142 A 
ATOM     35  C   UNL d   1      -0.168   2.038   2.920  0.00  0.00     0.027 A 
ATOM     36  C   UNL d   1       0.861   1.308   2.278  0.00  0.00     0.036 A 
ENDBRANCH  31  32
ENDBRANCH  20  31
ENDBRANCH  19  20
ENDBRANCH   1  19
TORSDOF 11
