REMARK  3 active torsions:
REMARK  status: ('A' for Active; 'I' for Inactive)
REMARK    1  A    between atoms: C_2  and  C_1 
REMARK    2  A    between atoms: N_11  and  C_8 
REMARK       I    between atoms: C_13  and  N_11 
REMARK    3  A    between atoms: C_14  and  C_13 
ROOT
ATOM      1  C   UNL d   1       3.974   0.065  -0.157  0.00  0.00     0.069 C 
ATOM      2  C   UNL d   1       4.757   0.982   0.592  0.00  0.00     0.082 C 
ATOM      3  N   UNL d   1       4.756  -0.820  -0.786  0.00  0.00    -0.298 N 
ATOM      4  HN  UNL d   1       4.471  -1.572  -1.415  1.00  0.00     0.187 HD
ATOM      5  C   UNL d   1       6.048   0.525   0.512  0.00  0.00     0.124 C 
ATOM      6  N   UNL d   1       6.001  -0.494  -0.403  0.00  0.00    -0.285 N 
ATOM      7  H   UNL d   1       6.765  -1.053  -0.766  0.00  0.00     0.188 HD
ENDROOT
BRANCH   1   8
ATOM      8  C   UNL d   1       2.463   0.054  -0.176  0.00  0.00     0.040 A 
ATOM      9  S   UNL d   1       1.589   1.304   0.604  0.00  0.00    -0.087 SA
ATOM     10  C   UNL d   1       0.074   0.604   0.260  0.00  0.00     0.016 A 
ATOM     11  C   UNL d   1      -1.183   1.106   0.648  0.00  0.00     0.021 A 
ATOM     12  C   UNL d   1       0.216  -0.572  -0.475  0.00  0.00    -0.010 A 
ATOM     13  C   UNL d   1      -2.332   0.407   0.280  0.00  0.00     0.025 A 
ATOM     14  C   UNL d   1      -2.225  -0.762  -0.458  0.00  0.00     0.035 A 
ATOM     15  C   UNL d   1      -0.975  -1.259  -0.838  0.00  0.00     0.037 A 
ATOM     16 CL   UNL d   1      -3.650  -1.614  -0.909  0.00  0.00    -0.084 Cl
ATOM     17  C   UNL d   1       1.617  -0.899  -0.727  0.00  0.00    -0.031 A 
ATOM     18  C   UNL d   1       1.998  -2.152  -1.461  0.00  0.00     0.050 C 
ENDBRANCH   1   8
BRANCH   5  19
ATOM     19  N   UNL d   1       7.166   0.930   1.235  0.00  0.00    -0.308 N 
ATOM     20  C   UNL d   1       7.101   1.917   2.287  0.00  0.00     0.257 C 
ATOM     21  O   UNL d   1       6.101   2.581   2.490  0.00  0.00    -0.267 OA
ATOM     22  H   UNL d   1       8.018   0.405   1.104  0.00  0.00     0.170 HD
BRANCH  20  23
ATOM     23  C   UNL d   1       8.287   2.017   3.172  0.00  0.00     0.032 A 
ATOM     24  C   UNL d   1       9.583   1.772   2.705  0.00  0.00     0.018 A 
ATOM     25  C   UNL d   1      10.659   1.816   3.598  0.00  0.00     0.025 A 
ATOM     26  C   UNL d   1      10.440   2.110   4.945  0.00  0.00     0.034 A 
ATOM     27  C   UNL d   1       9.155   2.384   5.408  0.00  0.00     0.025 A 
ATOM     28 CL   UNL d   1      11.765   2.129   6.039  0.00  0.00    -0.084 Cl
ATOM     29  C   UNL d   1       8.076   2.344   4.521  0.00  0.00     0.018 A 
ENDBRANCH  20  23
ENDBRANCH   5  19
TORSDOF 3
