REMARK  2 active torsions:
REMARK  status: ('A' for Active; 'I' for Inactive)
REMARK    1  A    between atoms: N_2  and  S_1 
REMARK    2  A    between atoms: C_4  and  S_1 
ROOT
ATOM      1  S   UNL d   1       0.919  -0.024   0.001  0.00  0.00     0.267 S 
ATOM      2  O   UNL d   1       0.372   0.601   1.190  0.00  0.00    -0.200 OA
ATOM      3  O   UNL d   1       2.349  -0.106  -0.192  0.00  0.00    -0.200 OA
ENDROOT
BRANCH   1   4
ATOM      4  N   UNL d   1       0.200   0.691  -1.323  0.00  0.00    -0.241 N 
ATOM      5  C   UNL d   1       0.569   0.467  -2.660  0.00  0.00     0.233 C 
ATOM      6  O   UNL d   1       1.535  -0.156  -3.060  0.00  0.00    -0.272 OA
ATOM      7  C   UNL d   1      -0.460   1.144  -3.525  0.00  0.00     0.105 C 
ATOM      8  C   UNL d   1      -1.678   1.212  -2.604  0.00  0.00     0.030 C 
ATOM      9  C   UNL d   1      -1.120   1.317  -1.184  0.00  0.00     0.145 C 
ENDBRANCH   1   4
BRANCH   1  10
ATOM     10  C   UNL d   1       0.263  -1.677  -0.079  0.00  0.00     0.080 A 
ATOM     11  C   UNL d   1       0.950  -2.657  -0.799  0.00  0.00     0.026 A 
ATOM     12  C   UNL d   1       0.454  -3.962  -0.830  0.00  0.00     0.008 A 
ATOM     13  C   UNL d   1      -0.721  -4.293  -0.141  0.00  0.00    -0.062 A 
ATOM     14  C   UNL d   1      -1.393  -3.302   0.586  0.00  0.00     0.008 A 
ATOM     15  C   UNL d   1      -1.230  -5.705  -0.165  0.00  0.00     0.048 C 
ATOM     16  C   UNL d   1      -0.901  -1.996   0.625  0.00  0.00     0.026 A 
ENDBRANCH   1  10
TORSDOF 2
