REMARK  4 active torsions:
REMARK  status: ('A' for Active; 'I' for Inactive)
REMARK    1  A    between atoms: C_2  and  S_1 
REMARK    2  A    between atoms: N_7  and  S_1 
REMARK    3  A    between atoms: C_3  and  C_12 
REMARK    4  A    between atoms: C_12  and  N_7 
ROOT
ATOM      1  C   UNL d   1       0.888  -1.277   3.020  0.00  0.00     0.144 C 
ENDROOT
BRANCH   1   2
ATOM      2  C   UNL d   1       0.396  -1.228   4.437  0.00  0.00    -0.026 C 
ATOM      3  C   UNL d   1       1.275  -1.190   5.593  0.00  0.00    -0.009 A 
ATOM      4  C   UNL d   1       0.593  -1.533   6.764  0.00  0.00     0.015 A 
ATOM      5  C   UNL d   1       2.674  -0.966   5.686  0.00  0.00     0.037 A 
ATOM      6  C   UNL d   1       1.274  -1.771   7.976  0.00  0.00     0.021 A 
ATOM      7  S   UNL d   1      -1.103  -1.617   6.498  0.00  0.00    -0.101 SA
ATOM      8  C   UNL d   1       2.661  -1.603   8.018  0.00  0.00     0.025 A 
ATOM      9  C   UNL d   1       3.344  -1.171   6.894  0.00  0.00     0.035 A 
ATOM     10 CL   UNL d   1       5.044  -0.908   6.973  0.00  0.00    -0.084 Cl
ATOM     11  C   UNL d   1      -0.925  -1.367   4.822  0.00  0.00     0.059 C 
ENDBRANCH   1   2
BRANCH   1  12
ATOM     12  N   UNL d   1       0.245  -0.263   2.186  0.00  0.00    -0.211 NA
ATOM     13  H   UNL d   1      -0.746  -0.104   2.352  0.00  0.00     0.140 HD
BRANCH  12  14
ATOM     14  S   UNL d   1       0.549  -0.457   0.532  0.00  0.00     0.248 S 
ATOM     15  O   UNL d   1      -0.106   0.630  -0.163  0.00  0.00    -0.205 OA
ATOM     16  O   UNL d   1       1.954  -0.757   0.361  0.00  0.00    -0.205 OA
BRANCH  14  17
ATOM     17  C   UNL d   1      -0.296  -1.933  -0.006  0.00  0.00     0.115 A 
ATOM     18  S   UNL d   1      -1.962  -2.026   0.380  0.00  0.00    -0.089 SA
ATOM     19  C   UNL d   1      -2.115  -3.558  -0.366  0.00  0.00     0.051 A 
ATOM     20  C   UNL d   1      -0.916  -4.003  -0.882  0.00  0.00     0.009 A 
ATOM     21  C   UNL d   1       0.136  -3.062  -0.673  0.00  0.00     0.033 A 
ENDBRANCH  14  17
ENDBRANCH  12  14
ENDBRANCH   1  12
TORSDOF 4
