REMARK  7 active torsions:
REMARK  status: ('A' for Active; 'I' for Inactive)
REMARK    1  A    between atoms: N_2  and  C_1 
REMARK    2  A    between atoms: N_4  and  C_1 
REMARK    3  A    between atoms: C_3  and  N_2 
REMARK    4  A    between atoms: C_13  and  N_4 
REMARK    5  A    between atoms: C_18  and  N_4 
REMARK    6  A    between atoms: C_17  and  C_13 
REMARK    7  A    between atoms: C_16  and  C_18 
ROOT
ATOM      1  N   UNL d   1      -4.742   1.229  -0.411  0.00  0.00    -0.197 NA
ATOM      2  C   UNL d   1      -3.629   0.907  -0.554  0.00  0.00     0.060 C 
ATOM      3  C   UNL d   1      -2.218   0.512  -0.708  0.00  0.00     0.143 C 
ENDROOT
BRANCH   3   4
ATOM      4  C   UNL d   1      -1.360   1.215   0.353  0.00  0.00     0.139 C 
BRANCH   4   5
ATOM      5  N   UNL d   1       0.095   0.965   0.275  0.00  0.00    -0.355 N 
BRANCH   5   6
ATOM      6  C   UNL d   1       0.536  -0.367   0.396  0.00  0.00     0.170 C 
ATOM      7  S   UNL d   1       1.293  -1.095  -0.900  0.00  0.00    -0.041 SA
BRANCH   6   8
ATOM      8  N   UNL d   1       0.330  -0.911   1.651  0.00  0.00    -0.362 N 
ATOM      9  H   UNL d   1      -0.220  -0.323   2.260  0.00  0.00     0.162 HD
BRANCH   8  10
ATOM     10  C   UNL d   1       0.356  -2.327   2.069  0.00  0.00     0.092 C 
ATOM     11  C   UNL d   1       1.574  -3.232   1.716  0.00  0.00     0.031 C 
ATOM     12  C   UNL d   1       2.838  -2.702   2.356  0.00  0.00    -0.024 C 
ATOM     13  C   UNL d   1       1.320  -4.415   2.671  0.00  0.00     0.019 C 
ATOM     14  C   UNL d   1       2.736  -2.903   3.678  0.00  0.00    -0.026 C 
ATOM     15  C   UNL d   1       1.393  -3.545   3.925  0.00  0.00     0.010 C 
ATOM     16  C   UNL d   1       0.300  -2.487   3.632  0.00  0.00     0.034 C 
ENDBRANCH   8  10
ENDBRANCH   6   8
ENDBRANCH   5   6
BRANCH   5  17
ATOM     17  C   UNL d   1       0.955   1.965   0.951  0.00  0.00     0.157 C 
BRANCH  17  18
ATOM     18  C   UNL d   1       1.109   3.371   0.317  0.00  0.00     0.139 C 
ATOM     19  O   UNL d   1      -0.141   4.082   0.223  0.00  0.00    -0.384 OA
ATOM     20  C   UNL d   1      -0.207   4.690  -1.075  0.00  0.00     0.168 C 
ATOM     21  C   UNL d   1       0.627   3.809  -1.974  0.00  0.00     0.029 C 
ATOM     22  C   UNL d   1       1.764   3.431  -1.059  0.00  0.00     0.035 C 
ENDBRANCH  17  18
ENDBRANCH   5  17
ENDBRANCH   4   5
ENDBRANCH   3   4
TORSDOF 7
