REMARK  3 active torsions:
REMARK  status: ('A' for Active; 'I' for Inactive)
REMARK    1  A    between atoms: C_13  and  C_5 
REMARK    2  A    between atoms: C_14  and  C_5 
REMARK    3  A    between atoms: C_8  and  N_6 
ROOT
ATOM      1  C   UNL d   1      -0.440  -1.042  -0.241  0.00  0.00     0.146 C 
ATOM      2  S   UNL d   1       1.313  -1.122  -0.445  0.00  0.00    -0.057 SA
ATOM      3  N   UNL d   1      -0.818   0.253   0.036  0.00  0.00    -0.356 N 
ATOM      4  C   UNL d   1       1.492   0.587  -0.141  0.00  0.00     0.005 C 
ATOM      5  C   UNL d   1       0.152   1.309  -0.276  0.00  0.00     0.064 C 
ATOM      6  N   UNL d   1      -1.298  -2.003  -0.361  0.00  0.00    -0.337 N 
ATOM      7  HN  UNL d   1      -2.281  -1.809  -0.167  1.00  0.00     0.168 HD
ATOM      8  C   UNL d   1       2.674   1.085   0.243  0.00  0.00     0.029 C 
ATOM      9  H   UNL d   1      -1.801   0.444  -0.107  0.00  0.00     0.162 HD
ENDROOT
BRANCH   6  10
ATOM     10  C   UNL d   1      -0.930  -3.303  -0.750  0.00  0.00     0.035 A 
ATOM     11  C   UNL d   1       0.071  -4.047  -0.121  0.00  0.00     0.053 A 
ATOM     12  C   UNL d   1       0.453  -5.288  -0.634  0.00  0.00     0.036 A 
ATOM     13 CL   UNL d   1       1.785  -6.126   0.063  0.00  0.00    -0.084 Cl
ATOM     14  C   UNL d   1      -0.217  -5.841  -1.723  0.00  0.00     0.024 A 
ATOM     15  C   UNL d   1      -1.283  -5.152  -2.296  0.00  0.00     0.004 A 
ATOM     16  C   UNL d   1      -1.631  -3.888  -1.811  0.00  0.00     0.029 A 
ENDBRANCH   6  10
BRANCH   5  17
ATOM     17  C   UNL d   1      -0.068   2.508   0.676  0.00  0.00     0.032 C 
ATOM     18  C   UNL d   1      -0.012   2.189   2.167  0.00  0.00     0.008 C 
ENDBRANCH   5  17
BRANCH   5  19
ATOM     19  C   UNL d   1      -0.083   1.743  -1.755  0.00  0.00     0.032 C 
ATOM     20  C   UNL d   1       0.923   2.746  -2.310  0.00  0.00     0.008 C 
ENDBRANCH   5  19
TORSDOF 3
