REMARK  0 active torsions:
REMARK  status: ('A' for Active; 'I' for Inactive)
ROOT
ATOM      1  N   UNL d   1       0.009   1.358   0.137  0.00  0.00    -0.362 N 
ATOM      2  HN  UNL d   1       0.009   2.377   0.190  1.00  0.00     0.165 HD
ATOM      3  C   UNL d   1       1.171   0.665   0.051  0.00  0.00     0.015 A 
ATOM      4  C   UNL d   1      -1.152   0.658   0.152  0.00  0.00     0.015 A 
ATOM      5  C   UNL d   1      -1.203  -0.731   0.101  0.00  0.00    -0.035 A 
ATOM      6  C   UNL d   1       1.220  -0.728   0.018  0.00  0.00    -0.035 A 
ATOM      7  C   UNL d   1       0.008  -1.425   0.037  0.00  0.00     0.018 A 
ATOM      8  C   UNL d   1       2.434   1.491   0.051  0.00  0.00     0.057 C 
ATOM      9  C   UNL d   1      -2.425   1.454   0.242  0.00  0.00     0.057 C 
ATOM     10  C   UNL d   1      -2.503  -1.489   0.093  0.00  0.00     0.040 C 
ATOM     11  C   UNL d   1       2.515  -1.483  -0.112  0.00  0.00     0.040 C 
ATOM     12  C   UNL d   1       3.738  -0.638   0.238  0.00  0.00     0.005 C 
ATOM     13  C   UNL d   1       3.657   0.722  -0.444  0.00  0.00     0.006 C 
ATOM     14  C   UNL d   1      -3.774  -0.643  -0.053  0.00  0.00     0.005 C 
ATOM     15  C   UNL d   1      -3.533   0.776  -0.557  0.00  0.00     0.006 C 
ENDROOT
TORSDOF 0
