REMARK  5 active torsions:
REMARK  status: ('A' for Active; 'I' for Inactive)
REMARK    1  A    between atoms: C_6  and  N_1 
REMARK    2  A    between atoms: C_7  and  C_6 
REMARK    3  A    between atoms: C_8  and  C_7 
REMARK    4  A    between atoms: O_10  and  C_7 
REMARK    5  A    between atoms: N_9  and  C_8 
ROOT
ATOM      1  N   UNL d   1       0.077  -1.559  -0.621  0.00  0.00    -0.343 N 
ATOM      2  C   UNL d   1       1.187  -0.728  -0.692  0.00  0.00     0.046 A 
ATOM      3  C   UNL d   1      -1.079  -0.807  -0.460  0.00  0.00     0.046 A 
ATOM      4  C   UNL d   1       0.730   0.580  -0.500  0.00  0.00     0.003 A 
ATOM      5  C   UNL d   1      -0.692   0.530  -0.403  0.00  0.00     0.003 A 
ATOM      6  C   UNL d   1       2.556  -1.009  -0.830  0.00  0.00     0.030 A 
ATOM      7  C   UNL d   1      -2.422  -1.189  -0.297  0.00  0.00     0.030 A 
ATOM      8  C   UNL d   1      -1.679   1.527  -0.214  0.00  0.00     0.014 A 
ATOM      9  C   UNL d   1       1.667   1.626  -0.390  0.00  0.00     0.014 A 
ATOM     10  C   UNL d   1      -3.019   1.156  -0.069  0.00  0.00     0.001 A 
ATOM     11  C   UNL d   1       3.468   0.044  -0.697  0.00  0.00     0.002 A 
ATOM     12  C   UNL d   1      -3.383  -0.182  -0.110  0.00  0.00     0.002 A 
ATOM     13  C   UNL d   1       3.034   1.342  -0.465  0.00  0.00     0.001 A 
ENDROOT
BRANCH   1  14
ATOM     14  C   UNL d   1       0.161  -2.992  -0.385  0.00  0.00     0.163 C 
BRANCH  14  15
ATOM     15  C   UNL d   1      -0.556  -3.941  -1.352  0.00  0.00     0.164 C 
BRANCH  15  16
ATOM     16  C   UNL d   1       0.031  -3.965  -2.788  0.00  0.00     0.304 C 
BRANCH  16  17
ATOM     17  N   UNL d   1      -0.566  -5.020  -3.643  0.00  0.00     0.082 N 
ATOM     18  C   UNL d   1      -1.990  -4.782  -3.925  0.00  0.00     0.309 C 
ATOM     19  C   UNL d   1       0.148  -5.133  -4.920  0.00  0.00     0.309 C 
ENDBRANCH  16  17
ENDBRANCH  15  16
BRANCH  15  20
ATOM     20  O   UNL d   1      -0.481  -5.250  -0.750  0.00  0.00    -0.392 OA
ATOM     21  H   UNL d   1       0.209  -5.749  -1.223  0.00  0.00     0.210 HD
ENDBRANCH  15  20
ENDBRANCH  14  15
ENDBRANCH   1  14
TORSDOF 5
