REMARK  4 active torsions:
REMARK  status: ('A' for Active; 'I' for Inactive)
REMARK    1  A    between atoms: C_4  and  C_1 
REMARK       I    between atoms: C_2  and  N_6 
REMARK       I    between atoms: N_3  and  C_2 
REMARK    2  A    between atoms: C_5  and  N_3 
REMARK    3  A    between atoms: N_6  and  C_9 
REMARK    4  A    between atoms: C_9  and  C_7 
ROOT
ATOM      1  C   UNL d   1       1.882  -3.411   0.851  0.00  0.00     0.321 C 
ATOM      2  N   UNL d   1       3.040  -3.231   1.543  0.00  0.00    -0.308 N 
ATOM      3  N   UNL d   1       1.319  -2.321   0.266  0.00  0.00    -0.339 N 
ATOM      4  O   UNL d   1       1.458  -4.553   0.698  0.00  0.00    -0.247 OA
ATOM      5  H   UNL d   1       3.533  -4.108   1.655  0.00  0.00     0.170 HD
ATOM      6  H   UNL d   1       1.762  -1.422   0.376  0.00  0.00     0.164 HD
ENDROOT
BRANCH   3   7
ATOM      7  C   UNL d   1       0.202  -2.448  -0.643  0.00  0.00     0.163 C 
BRANCH   7   8
ATOM      8  C   UNL d   1       0.582  -2.168  -2.085  0.00  0.00    -0.025 A 
ATOM      9  C   UNL d   1       0.613  -0.872  -2.647  0.00  0.00     0.055 A 
ATOM     10  C   UNL d   1       0.877  -0.730  -4.029  0.00  0.00     0.017 A 
ATOM     11  C   UNL d   1       1.141  -1.834  -4.836  0.00  0.00     0.001 A 
ATOM     12  C   UNL d   1       1.162  -3.103  -4.274  0.00  0.00     0.001 A 
ATOM     13  C   UNL d   1       0.892  -3.268  -2.913  0.00  0.00     0.009 A 
BRANCH   9  14
ATOM     14  C   UNL d   1       0.354   0.401  -1.873  0.00  0.00     0.418 C 
ATOM     15  F   UNL d   1       0.277   0.253  -0.523  0.00  0.00    -0.166 F 
ATOM     16  F   UNL d   1      -0.808   1.005  -2.248  0.00  0.00    -0.166 F 
ATOM     17  F   UNL d   1       1.333   1.329  -2.072  0.00  0.00    -0.166 F 
ENDBRANCH   9  14
ENDBRANCH   7   8
ENDBRANCH   3   7
BRANCH   2  18
ATOM     18  C   UNL d   1       3.712  -2.069   1.956  0.00  0.00     0.042 A 
ATOM     19  C   UNL d   1       5.111  -2.010   1.825  0.00  0.00    -0.035 A 
ATOM     20  C   UNL d   1       5.911  -3.046   1.078  0.00  0.00     0.050 C 
ATOM     21  C   UNL d   1       5.802  -0.915   2.367  0.00  0.00     0.009 A 
ATOM     22  C   UNL d   1       5.116   0.102   3.031  0.00  0.00     0.001 A 
ATOM     23  C   UNL d   1       3.730   0.040   3.151  0.00  0.00     0.002 A 
ATOM     24  C   UNL d   1       3.025  -1.039   2.609  0.00  0.00     0.030 A 
ENDBRANCH   2  18
TORSDOF 4
