REMARK  6 active torsions:
REMARK  status: ('A' for Active; 'I' for Inactive)
REMARK    1  A    between atoms: C_3  and  C_1 
REMARK    2  A    between atoms: S_12  and  C_6 
REMARK    3  A    between atoms: C_9  and  C_10 
REMARK    4  A    between atoms: C_17  and  S_12 
REMARK    5  A    between atoms: C_13  and  C_17 
REMARK    6  A    between atoms: C_16  and  C_13 
ROOT
ATOM      1  C   UNL d   1      -0.255  -1.024  -0.117  0.00  0.00     0.178 A 
ATOM      2  O   UNL d   1      -1.006  -0.065   0.507  0.00  0.00    -0.267 OA
ATOM      3  N   UNL d   1       0.829  -0.533  -0.678  0.00  0.00    -0.277 N 
ATOM      4  HN  UNL d   1       1.541  -1.053  -1.191  1.00  0.00     0.189 HD
ATOM      5  C   UNL d   1      -0.287   1.074   0.252  0.00  0.00     0.204 A 
ATOM      6  N   UNL d   1       0.811   0.827  -0.434  0.00  0.00    -0.272 N 
ATOM      7  HN  UNL d   1       1.512   1.507  -0.727  1.00  0.00     0.189 HD
ENDROOT
BRANCH   1   8
ATOM      8  C   UNL d   1      -0.755  -2.391  -0.071  0.00  0.00     0.054 A 
ATOM      9  C   UNL d   1       0.060  -3.465   0.350  0.00  0.00     0.065 A 
ATOM     10  C   UNL d   1      -0.462  -4.773   0.321  0.00  0.00     0.034 A 
ATOM     11  C   UNL d   1      -1.759  -4.973  -0.093  0.00  0.00     0.089 A 
ATOM     12  N   UNL d   1      -2.561  -3.970  -0.485  0.00  0.00    -0.369 N 
ATOM     13  C   UNL d   1      -2.066  -2.701  -0.485  0.00  0.00     0.020 A 
ATOM     14  HN  UNL d   1      -3.521  -4.155  -0.776  1.00  0.00     0.165 HD
ATOM     15  C   UNL d   1      -3.063  -1.691  -0.983  0.00  0.00     0.069 C 
BRANCH   9  16
ATOM     16  C   UNL d   1       1.479  -3.331   0.850  0.00  0.00     0.418 C 
ATOM     17  F   UNL d   1       1.909  -2.072   1.109  0.00  0.00    -0.166 F 
ATOM     18  F   UNL d   1       1.654  -4.008   2.024  0.00  0.00    -0.166 F 
ATOM     19  F   UNL d   1       2.377  -3.877  -0.016  0.00  0.00    -0.166 F 
ENDBRANCH   9  16
ENDBRANCH   1   8
BRANCH   5  20
ATOM     20  S   UNL d   1      -0.820   2.644   0.755  0.00  0.00    -0.077 SA
BRANCH  20  21
ATOM     21  C   UNL d   1       0.660   3.632   0.381  0.00  0.00     0.166 C 
BRANCH  21  22
ATOM     22  C   UNL d   1       0.470   5.100   0.739  0.00  0.00     0.169 C 
ATOM     23  O   UNL d   1      -0.568   5.564   1.205  0.00  0.00    -0.291 OA
BRANCH  22  24
ATOM     24  C   UNL d   1       1.616   6.038   0.491  0.00  0.00     0.011 A 
ATOM     25  C   UNL d   1       2.863   5.601   0.031  0.00  0.00     0.017 A 
ATOM     26  C   UNL d   1       3.892   6.524  -0.197  0.00  0.00     0.025 A 
ATOM     27  C   UNL d   1       3.678   7.881   0.034  0.00  0.00     0.034 A 
ATOM     28  C   UNL d   1       2.446   8.328   0.502  0.00  0.00     0.025 A 
ATOM     29 CL   UNL d   1       4.941   9.009  -0.267  0.00  0.00    -0.084 Cl
ATOM     30  C   UNL d   1       1.418   7.408   0.733  0.00  0.00     0.017 A 
ENDBRANCH  22  24
ENDBRANCH  21  22
ENDBRANCH  20  21
ENDBRANCH   5  20
TORSDOF 6
