REMARK  6 active torsions:
REMARK  status: ('A' for Active; 'I' for Inactive)
REMARK    1  A    between atoms: C_6  and  C_1 
REMARK    2  A    between atoms: N_4  and  C_2 
REMARK       I    between atoms: C_3  and  N_4 
REMARK    3  A    between atoms: C_5  and  C_3 
REMARK    4  A    between atoms: O_16  and  C_6 
REMARK    5  A    between atoms: C_9  and  C_7 
REMARK    6  A    between atoms: O_15  and  C_9 
ROOT
ATOM      1  C   UNL d   1       2.775   2.800  -0.545  0.00  0.00     0.257 C 
ATOM      2  N   UNL d   1       2.439   1.460  -0.548  0.00  0.00    -0.321 N 
ATOM      3  O   UNL d   1       3.923   3.230  -0.629  0.00  0.00    -0.267 OA
ATOM      4  H   UNL d   1       1.504   1.210  -0.843  0.00  0.00     0.169 HD
ENDROOT
BRANCH   1   5
ATOM      5  C   UNL d   1       1.669   3.816  -0.436  0.00  0.00     0.049 A 
ATOM      6  C   UNL d   1       0.334   3.679  -0.855  0.00  0.00     0.053 A 
ATOM      7  C   UNL d   1      -0.566   4.761  -0.733  0.00  0.00     0.019 A 
ATOM      8  C   UNL d   1      -0.160   5.963  -0.158  0.00  0.00     0.001 A 
ATOM      9  C   UNL d   1       1.148   6.104   0.286  0.00  0.00     0.001 A 
ATOM     10  C   UNL d   1       2.052   5.047   0.141  0.00  0.00     0.018 A 
BRANCH   6  11
ATOM     11  C   UNL d   1      -0.193   2.457  -1.494  0.00  0.00     0.177 C 
ATOM     12  O   UNL d   1       0.435   1.797  -2.302  0.00  0.00    -0.646 OA
BRANCH  11  13
ATOM     13  O   UNL d   1      -1.373   2.056  -0.986  0.00  0.00    -0.773 OA
ATOM     14  H   UNL d   1      -1.727   2.581  -0.242  0.00  0.00     0.167 HD
ENDBRANCH  11  13
ENDBRANCH   6  11
ENDBRANCH   1   5
BRANCH   2  15
ATOM     15  C   UNL d   1       3.337   0.396  -0.673  0.00  0.00     0.058 A 
ATOM     16  C   UNL d   1       4.669   0.309  -0.295  0.00  0.00     0.106 A 
ATOM     17  S   UNL d   1       5.377  -1.168  -0.838  0.00  0.00    -0.094 SA
ATOM     18  C   UNL d   1       3.892  -1.750  -1.434  0.00  0.00     0.053 A 
ATOM     19  C   UNL d   1       2.885  -0.832  -1.265  0.00  0.00     0.038 A 
BRANCH  16  20
ATOM     20  C   UNL d   1       5.521   1.191   0.475  0.00  0.00     0.302 C 
ATOM     21  O   UNL d   1       6.728   1.353   0.319  0.00  0.00    -0.259 OA
BRANCH  20  22
ATOM     22  O   UNL d   1       4.806   1.746   1.503  0.00  0.00    -0.322 OA
ATOM     23  C   UNL d   1       5.539   2.720   2.241  0.00  0.00     0.213 C 
ENDBRANCH  20  22
ENDBRANCH  16  20
ENDBRANCH   2  15
TORSDOF 6
