REMARK  3 active torsions:
REMARK  status: ('A' for Active; 'I' for Inactive)
REMARK    1  A    between atoms: C_2  and  C_1 
REMARK       I    between atoms: N_3  and  C_2 
REMARK    2  A    between atoms: C_6  and  N_3 
REMARK    3  A    between atoms: C_8  and  C_4 
ROOT
ATOM      1  C   UNL d   1       3.218  -1.326  -0.131  0.00  0.00     0.114 C 
ATOM      2  C   UNL d   1       2.582  -2.470   0.190  0.00  0.00     0.058 C 
ATOM      3  C   UNL d   1       4.619  -1.207  -0.326  0.00  0.00     0.105 C 
ATOM      4  N   UNL d   1       5.749  -1.041  -0.535  0.00  0.00    -0.191 NA
ENDROOT
BRANCH   1   5
ATOM      5  C   UNL d   1       2.367  -0.084  -0.202  0.00  0.00     0.266 C 
ATOM      6  N   UNL d   1       2.966   1.008  -0.790  0.00  0.00    -0.322 N 
ATOM      7  H   UNL d   1       3.804   0.878  -1.347  0.00  0.00     0.169 HD
ATOM      8  O   UNL d   1       1.210  -0.092   0.225  0.00  0.00    -0.267 OA
BRANCH   6   9
ATOM      9  C   UNL d   1       2.490   2.336  -0.726  0.00  0.00     0.041 A 
ATOM     10  C   UNL d   1       2.760   3.219  -1.783  0.00  0.00    -0.035 A 
ATOM     11  C   UNL d   1       2.436   4.580  -1.638  0.00  0.00     0.015 A 
ATOM     12  C   UNL d   1       3.298   2.771  -3.117  0.00  0.00     0.050 C 
ATOM     13  C   UNL d   1       1.843   5.067  -0.467  0.00  0.00    -0.061 A 
ATOM     14  C   UNL d   1       1.535   4.169   0.557  0.00  0.00     0.009 A 
ATOM     15  C   UNL d   1       1.554   6.532  -0.331  0.00  0.00     0.048 C 
ATOM     16  C   UNL d   1       1.848   2.812   0.425  0.00  0.00     0.030 A 
ENDBRANCH   6   9
ENDBRANCH   1   5
BRANCH   2  17
ATOM     17  C   UNL d   1       3.217  -3.703   0.505  0.00  0.00     0.033 A 
ATOM     18  N   UNL d   1       2.434  -4.839   0.524  0.00  0.00    -0.366 N 
ATOM     19  C   UNL d   1       3.167  -5.908   0.969  0.00  0.00     0.088 A 
ATOM     20  H   UNL d   1       1.453  -4.881   0.280  0.00  0.00     0.165 HD
ATOM     21  C   UNL d   1       4.448  -5.473   1.207  0.00  0.00     0.019 A 
ATOM     22  C   UNL d   1       4.485  -4.091   0.901  0.00  0.00     0.031 A 
ENDBRANCH   2  17
TORSDOF 3
