REMARK  5 active torsions:
REMARK  status: ('A' for Active; 'I' for Inactive)
REMARK    1  A    between atoms: C_2  and  C_1 
REMARK    2  A    between atoms: C_3  and  N_4 
REMARK       I    between atoms: N_4  and  C_7 
REMARK    3  A    between atoms: C_7  and  C_20 
REMARK    4  A    between atoms: S_12  and  C_9 
REMARK    5  A    between atoms: C_20  and  S_12 
ROOT
ATOM      1  C   UNL d   1      -1.589   1.094  -6.294  0.00  0.00     0.184 C 
ENDROOT
BRANCH   1   2
ATOM      2  C   UNL d   1      -2.193   1.887  -7.443  0.00  0.00     0.231 C 
ATOM      3  N   UNL d   1      -1.332   2.797  -8.034  0.00  0.00    -0.326 N 
ATOM      4  H   UNL d   1      -0.394   2.817  -7.656  0.00  0.00     0.169 HD
ATOM      5  O   UNL d   1      -3.323   1.611  -7.842  0.00  0.00    -0.272 OA
BRANCH   3   6
ATOM      6  C   UNL d   1      -1.625   3.678  -9.102  0.00  0.00     0.043 A 
ATOM      7  C   UNL d   1      -2.949   3.943  -9.480  0.00  0.00     0.072 A 
ATOM      8  C   UNL d   1      -3.229   4.840 -10.507  0.00  0.00     0.118 A 
ATOM      9  F   UNL d   1      -4.505   5.086 -10.839  0.00  0.00    -0.206 F 
ATOM     10  C   UNL d   1      -2.214   5.493 -11.182  0.00  0.00     0.043 A 
ATOM     11  C   UNL d   1      -0.893   5.243 -10.821  0.00  0.00     0.012 A 
ATOM     12  C   UNL d   1      -0.579   4.333  -9.789  0.00  0.00    -0.035 A 
ATOM     13  C   UNL d   1       0.887   4.124  -9.510  0.00  0.00     0.050 C 
ENDBRANCH   3   6
ENDBRANCH   1   2
BRANCH   1  14
ATOM     14  S   UNL d   1      -0.665   2.150  -5.131  0.00  0.00    -0.103 SA
BRANCH  14  15
ATOM     15  C   UNL d   1      -0.193   0.921  -3.928  0.00  0.00     0.070 A 
ATOM     16  C   UNL d   1       0.523   1.305  -2.802  0.00  0.00     0.038 A 
ATOM     17  C   UNL d   1       0.918   0.325  -1.890  0.00  0.00     0.020 A 
ATOM     18  C   UNL d   1       0.586  -1.013  -2.121  0.00  0.00     0.063 A 
ATOM     19  C   UNL d   1      -0.144  -1.297  -3.263  0.00  0.00     0.105 A 
ATOM     20  N   UNL d   1      -0.531  -0.365  -4.165  0.00  0.00    -0.360 N 
ATOM     21  HN  UNL d   1      -1.060  -0.626  -4.998  1.00  0.00     0.166 HD
BRANCH  18  22
ATOM     22  C   UNL d   1       1.010  -2.106  -1.190  0.00  0.00     0.418 C 
ATOM     23  F   UNL d   1       0.590  -3.343  -1.574  0.00  0.00    -0.166 F 
ATOM     24  F   UNL d   1       0.540  -1.928   0.075  0.00  0.00    -0.166 F 
ATOM     25  F   UNL d   1       2.364  -2.192  -1.077  0.00  0.00    -0.166 F 
ENDBRANCH  18  22
ENDBRANCH  14  15
ENDBRANCH   1  14
TORSDOF 5
