REMARK  3 active torsions:
REMARK  status: ('A' for Active; 'I' for Inactive)
REMARK    1  A    between atoms: C_10  and  C_1 
REMARK       I    between atoms: C_6  and  N_8 
REMARK    2  A    between atoms: C_9  and  C_6 
REMARK    3  A    between atoms: N_8  and  C_17 
ROOT
ATOM      1  C   UNL d   1      -3.857  -0.699   0.178  0.00  0.00    -0.002 A 
ATOM      2  C   UNL d   1      -4.621   0.050  -0.726  0.00  0.00     0.016 A 
ATOM      3  C   UNL d   1      -4.526  -1.627   0.986  0.00  0.00     0.016 A 
ATOM      4  C   UNL d   1      -6.647  -1.147  -0.087  0.00  0.00     0.035 A 
ATOM      5  C   UNL d   1      -6.003  -0.172  -0.857  0.00  0.00     0.030 A 
ATOM      6  C   UNL d   1      -5.898  -1.852   0.851  0.00  0.00     0.030 A 
ENDROOT
BRANCH   1   7
ATOM      7  C   UNL d   1      -2.396  -0.508   0.271  0.00  0.00     0.085 A 
ATOM      8  N   UNL d   1      -1.755   0.603  -0.033  0.00  0.00    -0.349 N 
ATOM      9  C   UNL d   1      -0.395   0.453   0.208  0.00  0.00     0.050 A 
ATOM     10  HN  UNL d   1      -2.194   1.450  -0.393  1.00  0.00     0.166 HD
ATOM     11  C   UNL d   1       0.595   1.442   0.047  0.00  0.00     0.031 A 
ATOM     12  C   UNL d   1      -0.004  -0.807   0.657  0.00  0.00     0.034 A 
ATOM     13  C   UNL d   1       1.932   1.147   0.349  0.00  0.00     0.009 A 
ATOM     14  C   UNL d   1       2.305  -0.121   0.805  0.00  0.00    -0.061 A 
ATOM     15  C   UNL d   1       1.333  -1.118   0.958  0.00  0.00     0.028 A 
ATOM     16  C   UNL d   1       3.743  -0.413   1.125  0.00  0.00     0.048 C 
ATOM     17  S   UNL d   1      -1.382  -1.817   0.757  0.00  0.00    -0.070 SA
ENDBRANCH   1   7
BRANCH   4  18
ATOM     18  N   UNL d   1      -8.027  -1.373  -0.301  0.00  0.00    -0.323 N 
ATOM     19  C   UNL d   1      -8.802  -2.349   0.310  0.00  0.00     0.256 C 
ATOM     20  O   UNL d   1      -8.431  -3.168   1.141  0.00  0.00    -0.267 OA
ATOM     21  H   UNL d   1      -8.478  -0.746  -0.953  0.00  0.00     0.169 HD
BRANCH  19  22
ATOM     22  C   UNL d   1     -10.240  -2.372  -0.067  0.00  0.00     0.034 A 
ATOM     23  C   UNL d   1     -10.687  -2.050  -1.352  0.00  0.00     0.041 A 
ATOM     24  C   UNL d   1     -12.055  -2.077  -1.624  0.00  0.00     0.035 A 
ATOM     25 CL   UNL d   1     -12.616  -1.659  -3.197  0.00  0.00    -0.084 Cl
ATOM     26  C   UNL d   1     -12.976  -2.436  -0.638  0.00  0.00     0.024 A 
ATOM     27  C   UNL d   1     -12.529  -2.791   0.632  0.00  0.00     0.003 A 
ATOM     28  C   UNL d   1     -11.163  -2.764   0.916  0.00  0.00     0.017 A 
ENDBRANCH  19  22
ENDBRANCH   4  18
TORSDOF 3
