REMARK  1 active torsions:
REMARK  status: ('A' for Active; 'I' for Inactive)
REMARK    1  A    between atoms: C_12  and  C_7 
ROOT
ATOM      1  C   UNL d   1       1.758  -0.803  -0.087  0.00  0.00     0.138 A 
ATOM      2  C   UNL d   1       1.043   0.365  -0.042  0.00  0.00     0.122 A 
ATOM      3  N   UNL d   1       3.094  -0.523  -0.106  0.00  0.00    -0.329 N 
ATOM      4  HN  UNL d   1       3.873  -1.179  -0.162  1.00  0.00     0.168 HD
ATOM      5  C   UNL d   1       1.082  -2.086  -0.090  0.00  0.00     0.275 A 
ATOM      6  O   UNL d   1       1.903   1.420  -0.003  0.00  0.00    -0.289 OA
ATOM      7  C   UNL d   1       3.143   0.798  -0.035  0.00  0.00     0.159 A 
ATOM      8  N   UNL d   1      -0.305  -2.012  -0.043  0.00  0.00    -0.321 N 
ATOM      9  C   UNL d   1      -0.396   0.450  -0.011  0.00  0.00     0.027 A 
ATOM     10  C   UNL d   1      -1.054  -0.807  -0.011  0.00  0.00     0.048 A 
ATOM     11  O   UNL d   1       1.655  -3.173  -0.122  0.00  0.00    -0.266 OA
ATOM     12  C   UNL d   1      -1.144   1.623   0.008  0.00  0.00     0.017 A 
ATOM     13  C   UNL d   1      -2.444  -0.878   0.014  0.00  0.00     0.030 A 
ATOM     14  C   UNL d   1      -2.540   1.543   0.027  0.00  0.00     0.001 A 
ATOM     15  C   UNL d   1      -3.187   0.300   0.031  0.00  0.00     0.002 A 
ATOM     16  H   UNL d   1      -0.780  -2.905  -0.038  0.00  0.00     0.169 HD
ENDROOT
BRANCH   7  17
ATOM     17  C   UNL d   1       4.352   1.616   0.052  0.00  0.00     0.015 A 
ATOM     18  C   UNL d   1       5.595   0.967  -0.079  0.00  0.00     0.016 A 
ATOM     19  C   UNL d   1       6.797   1.657   0.076  0.00  0.00     0.001 A 
ATOM     20  C   UNL d   1       6.775   3.019   0.360  0.00  0.00     0.000 A 
ATOM     21  C   UNL d   1       5.555   3.686   0.473  0.00  0.00     0.001 A 
ATOM     22  C   UNL d   1       4.346   2.991   0.316  0.00  0.00     0.016 A 
ENDBRANCH   7  17
TORSDOF 1
