REMARK  3 active torsions:
REMARK  status: ('A' for Active; 'I' for Inactive)
REMARK    1  A    between atoms: C_3  and  C_1 
REMARK    2  A    between atoms: O_13  and  C_2 
REMARK    3  A    between atoms: O_14  and  C_3 
ROOT
ATOM      1  C   UNL d   1       0.747   0.760   1.160  0.00  0.00     0.049 C 
ATOM      2  C   UNL d   1      -1.505   0.294   0.109  0.00  0.00     0.060 C 
ATOM      3  C   UNL d   1      -0.768   1.042   1.233  0.00  0.00     0.058 C 
ATOM      4  C   UNL d   1       0.996  -0.762   1.267  0.00  0.00     0.025 C 
ATOM      5  C   UNL d   1       1.255   1.234  -0.230  0.00  0.00     0.025 C 
ATOM      6  C   UNL d   1       0.257  -1.510   0.143  0.00  0.00    -0.010 C 
ATOM      7  C   UNL d   1       0.524   0.492  -1.363  0.00  0.00    -0.010 C 
ATOM      8  C   UNL d   1      -1.247  -1.216   0.250  0.00  0.00     0.042 C 
ATOM      9  C   UNL d   1      -0.983   0.770  -1.256  0.00  0.00     0.042 C 
ATOM     10  C   UNL d   1       0.774  -1.018  -1.218  0.00  0.00     0.009 C 
ENDROOT
BRANCH   1  11
ATOM     11  C   UNL d   1       1.488   1.510   2.265  0.00  0.00     0.148 C 
ATOM     12  O   UNL d   1       2.340   2.364   2.067  0.00  0.00    -0.649 OA
BRANCH  11  13
ATOM     13  O   UNL d   1       1.126   1.160   3.520  0.00  0.00    -0.776 OA
ATOM     14  H   UNL d   1       0.438   0.474   3.583  0.00  0.00     0.167 HD
ENDBRANCH  11  13
ENDBRANCH   1  11
BRANCH   2  15
ATOM     15  O   UNL d   1      -2.900   0.533   0.216  0.00  0.00    -0.390 OA
ATOM     16  H   UNL d   1      -3.060   1.480   0.062  0.00  0.00     0.210 HD
ENDBRANCH   2  15
TORSDOF 3
