REMARK  6 active torsions:
REMARK  status: ('A' for Active; 'I' for Inactive)
REMARK    1  A    between atoms: C_7  and  C_3 
REMARK    2  A    between atoms: C_11  and  N_4 
REMARK    3  A    between atoms: O_12  and  C_7 
REMARK    4  A    between atoms: N_8  and  O_12 
REMARK    5  A    between atoms: C_13  and  C_10 
REMARK    6  A    between atoms: N_17  and  C_10 
ROOT
ATOM      1  O   UNL d   1       0.318  -3.497   0.011  0.00  0.00    -0.192 OA
ENDROOT
BRANCH   1   2
ATOM      2  N   UNL d   1      -0.248  -4.801   0.033  0.00  0.00    -0.246 N 
ATOM      3  C   UNL d   1       0.633  -5.759   0.008  0.00  0.00     0.109 C 
ATOM      4  HN  UNL d   1      -1.253  -4.971   0.064  1.00  0.00     0.196 HD
BRANCH   3   5
ATOM      5  C   UNL d   1       0.110  -7.179   0.016  0.00  0.00     0.004 A 
ATOM      6  C   UNL d   1      -1.276  -7.405   0.013  0.00  0.00     0.015 A 
ATOM      7  C   UNL d   1      -1.792  -8.707   0.026  0.00  0.00     0.007 A 
ATOM      8  C   UNL d   1      -0.934  -9.811   0.039  0.00  0.00    -0.062 A 
ATOM      9  C   UNL d   1       0.448  -9.590   0.044  0.00  0.00     0.007 A 
ATOM     10  C   UNL d   1      -1.502 -11.200   0.063  0.00  0.00     0.048 C 
ATOM     11  C   UNL d   1       0.967  -8.286   0.038  0.00  0.00     0.015 A 
ENDBRANCH   3   5
BRANCH   3  12
ATOM     12  N   UNL d   1       1.987  -5.524  -0.032  0.00  0.00    -0.286 NA
ATOM     13  H   UNL d   1       2.199  -4.552  -0.236  0.00  0.00     0.125 HD
ATOM     14  H   UNL d   1       2.536  -6.161  -0.596  0.00  0.00     0.125 HD
ENDBRANCH   3  12
ENDBRANCH   1   2
BRANCH   1  15
ATOM     15  C   UNL d   1      -0.720  -2.579   0.008  0.00  0.00     0.333 C 
ATOM     16  O   UNL d   1      -1.915  -2.877  -0.000  0.00  0.00    -0.256 OA
BRANCH  15  17
ATOM     17  C   UNL d   1      -0.300  -1.163   0.009  0.00  0.00     0.127 A 
ATOM     18  N   UNL d   1       0.962  -0.699  -0.002  0.00  0.00    -0.292 N 
ATOM     19  N   UNL d   1       0.849   0.665   0.012  0.00  0.00    -0.287 N 
ATOM     20  HN  UNL d   1       1.822  -1.248  -0.017  1.00  0.00     0.187 HD
ATOM     21  C   UNL d   1      -0.472   1.075   0.025  0.00  0.00     0.028 A 
ATOM     22  C   UNL d   1      -1.005   2.461   0.042  0.00  0.00     0.070 C 
ATOM     23  C   UNL d   1      -1.215  -0.083   0.021  0.00  0.00     0.063 A 
BRANCH  19  24
ATOM     24  C   UNL d   1       2.077   1.496   0.021  0.00  0.00     0.043 C 
ATOM     25  C   UNL d   1       3.361   0.627  -0.030  0.00  0.00     0.039 C 
ATOM     26  C   UNL d   1       2.128   2.417  -1.217  0.00  0.00     0.039 C 
ATOM     27  C   UNL d   1       2.163   2.325   1.319  0.00  0.00     0.039 C 
ENDBRANCH  19  24
ENDBRANCH  15  17
ENDBRANCH   1  15
TORSDOF 6
