REMARK  4 active torsions:
REMARK  status: ('A' for Active; 'I' for Inactive)
REMARK    1  A    between atoms: C_8  and  C_2 
REMARK    2  A    between atoms: S_19  and  C_5 
REMARK    3  A    between atoms: C_21  and  S_19 
REMARK    4  A    between atoms: C_22  and  C_21 
ROOT
ATOM      1  N   UNL d   1       0.844   0.003   0.032  0.00  0.00    -0.315 N 
ATOM      2  C   UNL d   1       0.010   1.096  -0.109  0.00  0.00     0.134 A 
ATOM      3  N   UNL d   1      -1.235   0.650  -0.169  0.00  0.00    -0.283 N 
ATOM      4  HN  UNL d   1      -2.071   1.231  -0.227  1.00  0.00     0.188 HD
ATOM      5  C   UNL d   1       0.031  -1.098  -0.030  0.00  0.00     0.162 A 
ATOM      6  N   UNL d   1      -1.218  -0.723  -0.139  0.00  0.00    -0.278 N 
ATOM      7  HN  UNL d   1      -2.031  -1.337  -0.192  1.00  0.00     0.189 HD
ATOM      8  C   UNL d   1       2.270  -0.012   0.240  0.00  0.00     0.160 C 
ENDROOT
BRANCH   2   9
ATOM      9  C   UNL d   1       0.381   2.519  -0.156  0.00  0.00     0.012 A 
ATOM     10  C   UNL d   1       1.524   2.950  -0.866  0.00  0.00     0.049 A 
ATOM     11  C   UNL d   1       1.774   4.335  -0.826  0.00  0.00     0.086 A 
ATOM     12  N   UNL d   1       2.785   5.024  -1.369  0.00  0.00    -0.240 N 
ATOM     13  C   UNL d   1       0.899   5.270  -0.137  0.00  0.00     0.085 A 
ATOM     14  O   UNL d   1       2.559   6.349  -1.032  0.00  0.00    -0.156 OA
ATOM     15  HN  UNL d   1       3.560   4.651  -1.918  1.00  0.00     0.197 HD
ATOM     16  N   UNL d   1       1.406   6.501  -0.280  0.00  0.00    -0.240 N 
ATOM     17  HN  UNL d   1       1.022   7.371   0.090  1.00  0.00     0.197 HD
ATOM     18  C   UNL d   1      -0.261   4.853   0.535  0.00  0.00     0.035 A 
ATOM     19  C   UNL d   1      -0.482   3.458   0.498  0.00  0.00     0.018 A 
ENDBRANCH   2   9
BRANCH   5  20
ATOM     20  S   UNL d   1       0.613  -2.726   0.040  0.00  0.00    -0.088 SA
BRANCH  20  21
ATOM     21  C   UNL d   1      -0.763  -3.609  -0.753  0.00  0.00     0.121 C 
BRANCH  21  22
ATOM     22  C   UNL d   1      -0.551  -5.104  -0.736  0.00  0.00    -0.049 A 
ATOM     23  C   UNL d   1      -1.083  -5.886   0.300  0.00  0.00     0.008 A 
ATOM     24  C   UNL d   1      -0.898  -7.269   0.315  0.00  0.00     0.001 A 
ATOM     25  C   UNL d   1      -0.172  -7.888  -0.700  0.00  0.00     0.000 A 
ATOM     26  C   UNL d   1       0.376  -7.122  -1.728  0.00  0.00     0.001 A 
ATOM     27  C   UNL d   1       0.190  -5.738  -1.746  0.00  0.00     0.008 A 
ENDBRANCH  21  22
ENDBRANCH  20  21
ENDBRANCH   5  20
TORSDOF 4
