REMARK  4 active torsions:
REMARK  status: ('A' for Active; 'I' for Inactive)
REMARK    1  A    between atoms: C_3  and  C_2 
REMARK    2  A    between atoms: C_7  and  C_3 
REMARK    3  A    between atoms: C_5  and  N_8 
REMARK    4  A    between atoms: N_8  and  C_6 
ROOT
ATOM      1  C   UNL d   1      -4.930  -2.169  -0.074  0.00  0.00     0.072 C 
ATOM      2  C   UNL d   1      -3.790  -1.491   0.108  0.00  0.00     0.092 C 
ENDROOT
BRANCH   2   3
ATOM      3  N   UNL d   1      -2.502  -1.964   0.043  0.00  0.00    -0.364 N 
ATOM      4  H   UNL d   1      -2.360  -2.874  -0.386  0.00  0.00     0.165 HD
BRANCH   3   5
ATOM      5  C   UNL d   1      -1.320  -1.251   0.343  0.00  0.00     0.054 A 
ATOM      6  C   UNL d   1      -0.091  -1.605  -0.252  0.00  0.00     0.062 A 
ATOM      7  C   UNL d   1       1.074  -0.869  -0.013  0.00  0.00     0.050 A 
ATOM      8 CL   UNL d   1       0.013  -2.965  -1.319  0.00  0.00    -0.082 Cl
ATOM      9  C   UNL d   1       1.026   0.234   0.834  0.00  0.00     0.035 A 
ATOM     10 CL   UNL d   1       2.450   1.152   1.131  0.00  0.00    -0.084 Cl
ATOM     11  C   UNL d   1      -0.169   0.602   1.443  0.00  0.00     0.026 A 
ATOM     12  C   UNL d   1      -1.331  -0.134   1.193  0.00  0.00     0.033 A 
ENDBRANCH   3   5
ENDBRANCH   2   3
BRANCH   1  13
ATOM     13  C   UNL d   1      -6.212  -1.417   0.007  0.00  0.00     0.183 C 
ATOM     14  O   UNL d   1      -6.258  -0.202  -0.154  0.00  0.00    -0.288 OA
BRANCH  13  15
ATOM     15  C   UNL d   1      -7.465  -2.172   0.269  0.00  0.00     0.014 A 
ATOM     16  C   UNL d   1      -7.484  -3.351   1.024  0.00  0.00     0.017 A 
ATOM     17  C   UNL d   1      -8.701  -3.986   1.297  0.00  0.00     0.020 A 
ATOM     18  C   UNL d   1      -9.893  -3.441   0.820  0.00  0.00     0.011 A 
ATOM     19  C   UNL d   1      -9.885  -2.266   0.072  0.00  0.00     0.020 A 
ATOM     20 BR   UNL d   1     -11.536  -4.292   1.212  0.00  0.00    -0.051 Br
ATOM     21  C   UNL d   1      -8.672  -1.629  -0.198  0.00  0.00     0.017 A 
ENDBRANCH  13  15
ENDBRANCH   1  13
TORSDOF 4
