REMARK  4 active torsions:
REMARK  status: ('A' for Active; 'I' for Inactive)
REMARK    1  A    between atoms: C_5  and  C_1 
REMARK    2  A    between atoms: C_8  and  C_4 
REMARK    3  A    between atoms: S_9  and  C_5 
REMARK    4  A    between atoms: C_13  and  S_9 
ROOT
ATOM      1  C   UNL d   1       1.314   0.696   0.268  0.00  0.00     0.097 A 
ATOM      2  N   UNL d   1       1.502  -0.668  -0.019  0.00  0.00    -0.346 N 
ATOM      3  HN  UNL d   1       2.397  -1.083  -0.280  1.00  0.00     0.167 HD
ATOM      4  C   UNL d   1       0.374  -1.345   0.089  0.00  0.00     0.086 A 
ATOM      5  S   UNL d   1      -0.984  -0.395   0.558  0.00  0.00    -0.081 SA
ATOM      6  C   UNL d   1       0.014   0.988   0.652  0.00  0.00     0.086 A 
ENDROOT
BRANCH   1   7
ATOM      7  C   UNL d   1       2.442   1.653   0.186  0.00  0.00     0.240 C 
ATOM      8  O   UNL d   1       3.610   1.302   0.109  0.00  0.00    -0.278 OA
BRANCH   7   9
ATOM      9  S   UNL d   1       1.946   3.349   0.128  0.00  0.00    -0.046 SA
BRANCH   9  10
ATOM     10  C   UNL d   1       3.344   4.353   0.585  0.00  0.00     0.008 A 
ATOM     11  C   UNL d   1       4.449   3.911   1.317  0.00  0.00     0.019 A 
ATOM     12  C   UNL d   1       5.481   4.792   1.662  0.00  0.00     0.001 A 
ATOM     13  C   UNL d   1       5.413   6.135   1.300  0.00  0.00     0.000 A 
ATOM     14  C   UNL d   1       4.309   6.600   0.593  0.00  0.00     0.001 A 
ATOM     15  C   UNL d   1       3.285   5.716   0.238  0.00  0.00     0.019 A 
ENDBRANCH   9  10
ENDBRANCH   7   9
ENDBRANCH   1   7
BRANCH   4  16
ATOM     16  C   UNL d   1       0.239  -2.801  -0.022  0.00  0.00     0.013 A 
ATOM     17  C   UNL d   1      -0.889  -3.422  -0.557  0.00  0.00     0.101 A 
ATOM     18  N   UNL d   1      -1.101  -4.763  -0.564  0.00  0.00    -0.374 N 
ATOM     19  C   UNL d   1      -0.136  -5.531  -0.018  0.00  0.00     0.087 A 
ATOM     20  HN  UNL d   1      -1.948  -5.170  -0.963  1.00  0.00     0.164 HD
ATOM     21  C   UNL d   1       1.044  -5.023   0.501  0.00  0.00     0.018 A 
ATOM     22  C   UNL d   1       1.235  -3.642   0.485  0.00  0.00     0.017 A 
ENDBRANCH   4  16
TORSDOF 4
