REMARK  3 active torsions:
REMARK  status: ('A' for Active; 'I' for Inactive)
REMARK    1  A    between atoms: C_2  and  S_1 
REMARK    2  A    between atoms: N_5  and  S_1 
REMARK    3  A    between atoms: C_11  and  N_5 
ROOT
ATOM      1  S   UNL d   1       1.122   0.050  -0.042  0.00  0.00     0.265 S 
ATOM      2  O   UNL d   1       0.606  -0.981   0.833  0.00  0.00    -0.200 OA
ATOM      3  O   UNL d   1       2.548   0.183  -0.257  0.00  0.00    -0.200 OA
ENDROOT
BRANCH   1   4
ATOM      4  C   UNL d   1       0.507   1.605   0.549  0.00  0.00     0.103 A 
ATOM      5  C   UNL d   1       1.438   2.620   0.820  0.00  0.00     0.052 A 
ATOM      6  C   UNL d   1       1.007   3.864   1.287  0.00  0.00     0.057 A 
ATOM      7 CL   UNL d   1       2.206   5.067   1.597  0.00  0.00    -0.083 Cl
ATOM      8  C   UNL d   1      -0.357   4.096   1.485  0.00  0.00     0.057 A 
ATOM      9  C   UNL d   1      -1.282   3.083   1.216  0.00  0.00     0.051 A 
ATOM     10 CL   UNL d   1      -0.967   5.609   2.052  0.00  0.00    -0.082 Cl
ATOM     11  C   UNL d   1      -0.856   1.833   0.751  0.00  0.00     0.059 A 
ATOM     12 CL   UNL d   1      -2.090   0.670   0.427  0.00  0.00    -0.083 Cl
ENDBRANCH   1   4
BRANCH   1  13
ATOM     13  N   UNL d   1       0.382  -0.134  -1.532  0.00  0.00    -0.281 N 
ATOM     14  H   UNL d   1      -0.094  -1.022  -1.687  0.00  0.00     0.179 HD
BRANCH  13  15
ATOM     15  C   UNL d   1       0.748   0.682  -2.625  0.00  0.00     0.042 A 
ATOM     16  C   UNL d   1       1.855   0.364  -3.412  0.00  0.00     0.033 A 
ATOM     17  C   UNL d   1       2.172   1.164  -4.512  0.00  0.00     0.044 A 
ATOM     18  C   UNL d   1       1.380   2.269  -4.809  0.00  0.00     0.116 A 
ATOM     19  C   UNL d   1       0.273   2.588  -4.031  0.00  0.00     0.044 A 
ATOM     20  F   UNL d   1       1.682   3.034  -5.865  0.00  0.00    -0.206 F 
ATOM     21  C   UNL d   1      -0.051   1.784  -2.938  0.00  0.00     0.033 A 
ENDBRANCH  13  15
ENDBRANCH   1  13
TORSDOF 3
