REMARK  6 active torsions:
REMARK  status: ('A' for Active; 'I' for Inactive)
REMARK    1  A    between atoms: C_3  and  C_1 
REMARK    2  A    between atoms: O_6  and  C_1 
REMARK    3  A    between atoms: C_7  and  C_3 
REMARK    4  A    between atoms: C_4  and  C_7 
REMARK    5  A    between atoms: O_12  and  C_5 
REMARK    6  A    between atoms: C_13  and  O_12 
ROOT
ATOM      1  C   UNL d   1      -1.916  -1.843  -1.495  0.00  0.00    -0.058 A 
ATOM      2  C   UNL d   1      -3.209  -3.794  -3.067  0.00  0.00     0.068 A 
ATOM      3  C   UNL d   1      -1.553  -3.193  -1.407  0.00  0.00     0.010 A 
ATOM      4  C   UNL d   1      -2.972  -1.489  -2.344  0.00  0.00     0.010 A 
ATOM      5  C   UNL d   1      -3.618  -2.461  -3.117  0.00  0.00     0.037 A 
ATOM      6  C   UNL d   1      -2.188  -4.159  -2.191  0.00  0.00     0.037 A 
ENDROOT
BRANCH   1   7
ATOM      7  C   UNL d   1      -1.201  -0.801  -0.667  0.00  0.00     0.049 C 
BRANCH   7   8
ATOM      8  C   UNL d   1       0.298  -0.752  -0.970  0.00  0.00     0.114 C 
BRANCH   8   9
ATOM      9  C   UNL d   1       1.001   0.288  -0.137  0.00  0.00     0.139 C 
ATOM     10  O   UNL d   1       0.466   1.017   0.685  0.00  0.00    -0.650 OA
BRANCH   9  11
ATOM     11  O   UNL d   1       2.330   0.334  -0.386  0.00  0.00    -0.776 OA
ATOM     12  H   UNL d   1       2.627  -0.303  -1.065  0.00  0.00     0.167 HD
ENDBRANCH   9  11
ENDBRANCH   8   9
ENDBRANCH   7   8
ENDBRANCH   1   7
BRANCH   2  13
ATOM     13  O   UNL d   1      -3.896  -4.665  -3.872  0.00  0.00    -0.352 OA
BRANCH  13  14
ATOM     14  C   UNL d   1      -3.143  -5.793  -4.324  0.00  0.00     0.171 C 
ATOM     15  C   UNL d   1      -4.018  -6.632  -5.237  0.00  0.00     0.034 C 
ENDBRANCH  13  14
ENDBRANCH   2  13
TORSDOF 6
