REMARK  2 active torsions:
REMARK  status: ('A' for Active; 'I' for Inactive)
REMARK    1  A    between atoms: C_4  and  N_1 
REMARK    2  A    between atoms: C_4  and  C_12 
ROOT
ATOM      1  N   UNL d   1       1.970  -2.285   2.343  0.00  0.00    -0.339 N 
ATOM      2  C   UNL d   1       2.345  -0.945   2.864  0.00  0.00     0.092 C 
ATOM      3  C   UNL d   1       2.072  -3.388   3.207  0.00  0.00     0.220 C 
ATOM      4  C   UNL d   1       1.664  -0.665   4.225  0.00  0.00     0.016 C 
ATOM      5  C   UNL d   1       2.193   0.256   1.921  0.00  0.00     0.033 C 
ATOM      6  C   UNL d   1       2.069   0.681   4.838  0.00  0.00     0.085 C 
ATOM      7  C   UNL d   1       1.691  -3.138   4.655  0.00  0.00     0.103 C 
ATOM      8  C   UNL d   1       1.921   1.789   3.833  0.00  0.00     0.127 C 
ATOM      9  O   UNL d   1       2.220  -4.538   2.809  0.00  0.00    -0.273 OA
ATOM     10  C   UNL d   1       2.046  -1.776   5.204  0.00  0.00     0.016 C 
ATOM     11  O   UNL d   1       1.324   2.831   4.090  0.00  0.00    -0.298 OA
ATOM     12  C   UNL d   1       2.643   1.576   2.532  0.00  0.00     0.080 C 
ENDROOT
BRANCH   1  13
ATOM     13  C   UNL d   1       1.209  -2.580   1.095  0.00  0.00     0.116 C 
ATOM     14  C   UNL d   1      -0.303  -2.572   1.385  0.00  0.00     0.037 C 
BRANCH  13  15
ATOM     15  C   UNL d   1       1.571  -1.853  -0.192  0.00  0.00    -0.036 A 
ATOM     16  C   UNL d   1       0.786  -0.803  -0.707  0.00  0.00     0.009 A 
ATOM     17  C   UNL d   1       1.066  -0.225  -1.944  0.00  0.00     0.001 A 
ATOM     18  C   UNL d   1       2.119  -0.709  -2.712  0.00  0.00     0.000 A 
ATOM     19  C   UNL d   1       2.909  -1.750  -2.227  0.00  0.00     0.001 A 
ATOM     20  C   UNL d   1       2.647  -2.310  -0.971  0.00  0.00     0.009 A 
ENDBRANCH  13  15
ENDBRANCH   1  13
TORSDOF 2
