REMARK  3 active torsions:
REMARK  status: ('A' for Active; 'I' for Inactive)
REMARK       I    between atoms: N_4  and  C_1 
REMARK       I    between atoms: N_9  and  C_1 
REMARK    1  A    between atoms: C_2  and  C_3 
REMARK    2  A    between atoms: O_10  and  C_2 
REMARK    3  A    between atoms: C_7  and  N_4 
ROOT
ATOM      1  C   UNL d   1       2.695   2.140  -3.380  0.00  0.00     0.041 A 
ATOM      2  C   UNL d   1       2.082   1.239  -2.496  0.00  0.00     0.047 A 
ATOM      3  C   UNL d   1       0.968   1.624  -1.746  0.00  0.00     0.036 A 
ATOM      4  C   UNL d   1       2.169   3.428  -3.533  0.00  0.00     0.018 A 
ATOM      5  C   UNL d   1       1.046   3.814  -2.803  0.00  0.00     0.003 A 
ATOM      6  C   UNL d   1       0.452   2.917  -1.911  0.00  0.00     0.029 A 
ENDROOT
BRANCH   3   7
ATOM      7  N   UNL d   1       0.329   0.782  -0.814  0.00  0.00    -0.314 N 
ATOM      8  C   UNL d   1       0.691  -0.489  -0.454  0.00  0.00     0.296 C 
ATOM      9  O   UNL d   1       1.639  -1.153  -0.844  0.00  0.00    -0.254 OA
ATOM     10  N   UNL d   1      -0.153  -1.017   0.479  0.00  0.00    -0.254 NA
ATOM     11  H   UNL d   1      -1.138  -0.821   0.383  0.00  0.00     0.128 HD
ATOM     12  H   UNL d   1       0.060  -1.987   0.677  0.00  0.00     0.128 HD
ATOM     13  H   UNL d   1      -0.418   1.187  -0.270  0.00  0.00     0.170 HD
ENDBRANCH   3   7
BRANCH   1  14
ATOM     14  C   UNL d   1       3.914   1.777  -4.153  0.00  0.00     0.293 C 
ATOM     15  O   UNL d   1       4.462   2.531  -4.944  0.00  0.00    -0.259 OA
BRANCH  14  16
ATOM     16  O   UNL d   1       4.327   0.526  -3.833  0.00  0.00    -0.323 OA
ATOM     17  C   UNL d   1       5.529   0.112  -4.478  0.00  0.00     0.213 C 
ENDBRANCH  14  16
ENDBRANCH   1  14
TORSDOF 3
