REMARK  2 active torsions:
REMARK  status: ('A' for Active; 'I' for Inactive)
REMARK    1  A    between atoms: C_2  and  C_1 
REMARK       I    between atoms: N_6  and  C_2 
REMARK    2  A    between atoms: C_8  and  N_6 
ROOT
ATOM      1  C   UNL d   1      -2.471  -0.137  -0.283  0.00  0.00     0.102 C 
ATOM      2  N   UNL d   1      -1.651   0.973  -0.215  0.00  0.00    -0.351 N 
ATOM      3  C   UNL d   1      -1.655  -1.213   0.014  0.00  0.00     0.049 C 
ATOM      4  C   UNL d   1      -0.332   0.607  -0.131  0.00  0.00     0.044 A 
ATOM      5  C   UNL d   1      -0.298  -0.777  -0.002  0.00  0.00    -0.001 A 
ATOM      6  C   UNL d   1       0.949  -1.440   0.069  0.00  0.00    -0.049 A 
ATOM      7  C   UNL d   1       0.823   1.399  -0.172  0.00  0.00     0.037 A 
ATOM      8  C   UNL d   1       2.112  -0.645   0.004  0.00  0.00     0.014 A 
ATOM      9  C   UNL d   1       2.059   0.748  -0.105  0.00  0.00    -0.059 A 
ATOM     10  C   UNL d   1       1.094  -2.934   0.131  0.00  0.00     0.049 C 
ATOM     11  C   UNL d   1       3.335   1.535  -0.201  0.00  0.00     0.048 C 
ATOM     12  H   UNL d   1      -1.991   1.921  -0.307  0.00  0.00     0.166 HD
ENDROOT
BRANCH   1  13
ATOM     13  C   UNL d   1      -3.889   0.019  -0.558  0.00  0.00     0.274 C 
ATOM     14  N   UNL d   1      -4.619  -1.056  -1.096  0.00  0.00    -0.314 N 
ATOM     15  C   UNL d   1      -4.047  -2.334  -1.520  0.00  0.00     0.160 C 
ATOM     16  O   UNL d   1      -4.409   1.113  -0.328  0.00  0.00    -0.265 OA
BRANCH  14  17
ATOM     17  C   UNL d   1      -6.025  -0.912  -1.330  0.00  0.00     0.076 A 
ATOM     18  C   UNL d   1      -6.928  -1.910  -0.931  0.00  0.00     0.146 A 
ATOM     19  C   UNL d   1      -8.294  -1.782  -1.160  0.00  0.00     0.086 A 
ATOM     20  F   UNL d   1      -6.494  -2.995  -0.271  0.00  0.00    -0.204 F 
ATOM     21  C   UNL d   1      -8.761  -0.662  -1.831  0.00  0.00     0.119 A 
ATOM     22  C   UNL d   1      -7.888   0.331  -2.264  0.00  0.00     0.044 A 
ATOM     23  F   UNL d   1     -10.072  -0.534  -2.070  0.00  0.00    -0.206 F 
ATOM     24  C   UNL d   1      -6.522   0.212  -2.003  0.00  0.00     0.036 A 
ENDBRANCH  14  17
ENDBRANCH   1  13
TORSDOF 2
