REMARK  7 active torsions:
REMARK  status: ('A' for Active; 'I' for Inactive)
REMARK    1  A    between atoms: C_2  and  C_1 
REMARK    2  A    between atoms: C_3  and  C_9 
REMARK       I    between atoms: C_4  and  N_5 
REMARK    3  A    between atoms: C_11  and  C_4 
REMARK    4  A    between atoms: N_5  and  C_13 
REMARK    5  A    between atoms: C_18  and  C_8 
REMARK    6  A    between atoms: S_16  and  C_18 
REMARK    7  A    between atoms: C_17  and  S_16 
ROOT
ATOM      1  C   UNL d   1      -2.356   1.100  -8.394  0.00  0.00     0.051 A 
ATOM      2  C   UNL d   1      -2.246  -0.113  -7.695  0.00  0.00     0.027 A 
ATOM      3  C   UNL d   1      -2.208   1.092  -9.813  0.00  0.00     0.031 A 
ATOM      4  C   UNL d   1      -1.834  -1.241  -8.450  0.00  0.00     0.021 A 
ATOM      5  C   UNL d   1      -1.880  -0.050 -10.533  0.00  0.00     0.002 A 
ATOM      6  C   UNL d   1      -1.653  -1.213  -9.840  0.00  0.00     0.002 A 
ENDROOT
BRANCH   1   7
ATOM      7  N   UNL d   1      -2.707   2.386  -7.953  0.00  0.00    -0.322 N 
ATOM      8  C   UNL d   1      -2.302   3.152  -6.881  0.00  0.00     0.256 C 
ATOM      9  O   UNL d   1      -1.595   2.843  -5.933  0.00  0.00    -0.267 OA
ATOM     10  H   UNL d   1      -2.943   2.970  -8.744  0.00  0.00     0.169 HD
BRANCH   8  11
ATOM     11  C   UNL d   1      -2.650   4.585  -7.149  0.00  0.00     0.033 C 
ATOM     12  C   UNL d   1      -3.849   4.844  -7.836  0.00  0.00     0.033 C 
ATOM     13  C   UNL d   1      -3.924   5.919  -8.725  0.00  0.00     0.048 C 
ATOM     14  C   UNL d   1      -2.868   6.843  -8.753  0.00  0.00     0.016 C 
ATOM     15  C   UNL d   1      -1.748   6.672  -7.931  0.00  0.00     0.002 C 
ATOM     16  C   UNL d   1      -1.623   5.526  -7.142  0.00  0.00     0.017 C 
BRANCH  13  17
ATOM     17  C   UNL d   1      -5.026   5.965  -9.756  0.00  0.00     0.417 C 
ATOM     18  F   UNL d   1      -5.949   4.973  -9.597  0.00  0.00    -0.166 F 
ATOM     19  F   UNL d   1      -5.716   7.133  -9.757  0.00  0.00    -0.166 F 
ATOM     20  F   UNL d   1      -4.538   5.804 -11.018  0.00  0.00    -0.166 F 
ENDBRANCH  13  17
ENDBRANCH   8  11
ENDBRANCH   1   7
BRANCH   2  21
ATOM     21  S   UNL d   1      -3.069  -0.680  -6.185  0.00  0.00    -0.122 SA
BRANCH  21  22
ATOM     22  C   UNL d   1      -2.704   0.422  -4.804  0.00  0.00     0.138 C 
BRANCH  22  23
ATOM     23  C   UNL d   1      -3.797   1.292  -4.201  0.00  0.00     0.040 A 
ATOM     24  N   UNL d   1      -3.511   1.672  -2.909  0.00  0.00    -0.366 N 
ATOM     25  C   UNL d   1      -4.407   2.411  -2.209  0.00  0.00     0.104 A 
ATOM     26  HN  UNL d   1      -2.628   1.399  -2.480  1.00  0.00     0.165 HD
ATOM     27  C   UNL d   1      -5.630   2.802  -2.710  0.00  0.00     0.064 A 
ATOM     28  C   UNL d   1      -5.917   2.434  -4.024  0.00  0.00     0.043 A 
ATOM     29  C   UNL d   1      -5.003   1.692  -4.787  0.00  0.00     0.058 A 
ATOM     30 CL   UNL d   1      -5.525   1.368  -6.397  0.00  0.00    -0.082 Cl
BRANCH  27  31
ATOM     31  C   UNL d   1      -6.587   3.588  -1.870  0.00  0.00     0.418 C 
ATOM     32  F   UNL d   1      -7.783   3.812  -2.482  0.00  0.00    -0.166 F 
ATOM     33  F   UNL d   1      -6.105   4.817  -1.539  0.00  0.00    -0.166 F 
ATOM     34  F   UNL d   1      -6.884   2.972  -0.693  0.00  0.00    -0.166 F 
ENDBRANCH  27  31
ENDBRANCH  22  23
ENDBRANCH  21  22
ENDBRANCH   2  21
TORSDOF 7
