REMARK  4 active torsions:
REMARK  status: ('A' for Active; 'I' for Inactive)
REMARK    1  A    between atoms: C_10  and  S_1 
REMARK    2  A    between atoms: N_17  and  S_1 
REMARK    3  A    between atoms: C_2  and  C_3 
REMARK       I    between atoms: C_3  and  N_11 
REMARK    4  A    between atoms: N_11  and  C_15 
ROOT
ATOM      1  C   UNL d   1       0.239  -1.606  -0.521  0.00  0.00     0.076 A 
ATOM      2  C   UNL d   1       1.244  -2.582  -0.498  0.00  0.00     0.054 A 
ATOM      3  C   UNL d   1       0.903  -3.934  -0.511  0.00  0.00     0.036 A 
ATOM      4  C   UNL d   1      -1.105  -1.961  -0.632  0.00  0.00     0.025 A 
ATOM      5  C   UNL d   1      -1.447  -3.310  -0.687  0.00  0.00     0.004 A 
ATOM      6  C   UNL d   1      -0.450  -4.289  -0.612  0.00  0.00     0.029 A 
ENDROOT
BRANCH   3   7
ATOM      7  N   UNL d   1       1.835  -4.984  -0.360  0.00  0.00    -0.322 N 
ATOM      8  C   UNL d   1       3.213  -4.885  -0.202  0.00  0.00     0.266 C 
ATOM      9  O   UNL d   1       3.829  -3.827  -0.281  0.00  0.00    -0.267 OA
ATOM     10  H   UNL d   1       1.443  -5.914  -0.303  0.00  0.00     0.169 HD
BRANCH   8  11
ATOM     11  C   UNL d   1       3.901  -6.134   0.071  0.00  0.00     0.114 A 
ATOM     12  C   UNL d   1       5.245  -6.379   0.335  0.00  0.00     0.046 A 
ATOM     13  N   UNL d   1       5.560  -7.721   0.538  0.00  0.00    -0.298 N 
ATOM     14  C   UNL d   1       6.370  -5.410   0.419  0.00  0.00     0.071 C 
ATOM     15  N   UNL d   1       4.499  -8.500   0.450  0.00  0.00    -0.269 N 
ATOM     16  HN  UNL d   1       6.502  -8.062   0.732  1.00  0.00     0.187 HD
ATOM     17  S   UNL d   1       3.104  -7.653   0.123  0.00  0.00     0.009 SA
ATOM     18  HN  UNL d   1       4.530  -9.512   0.570  1.00  0.00     0.195 HD
ENDBRANCH   8  11
ENDBRANCH   3   7
BRANCH   1  19
ATOM     19  S   UNL d   1       0.692   0.076  -0.211  0.00  0.00     0.239 S 
ATOM     20  O   UNL d   1       1.456   0.117   1.015  0.00  0.00    -0.206 OA
ATOM     21  O   UNL d   1      -0.451   0.925  -0.439  0.00  0.00    -0.206 OA
BRANCH  19  22
ATOM     22  N   UNL d   1       1.771   0.431  -1.445  0.00  0.00    -0.225 NA
ATOM     23  H   UNL d   1       2.706   0.560  -1.055  0.00  0.00     0.136 HD
ATOM     24  H   UNL d   1       1.434   1.247  -1.958  0.00  0.00     0.136 HD
ENDBRANCH  19  22
ENDBRANCH   1  19
TORSDOF 4
