REMARK  9 active torsions:
REMARK  status: ('A' for Active; 'I' for Inactive)
REMARK    1  A    between atoms: C_8  and  C_1 
REMARK       I    between atoms: C_3  and  N_2 
REMARK       I    between atoms: N_12  and  C_3 
REMARK    2  A    between atoms: N_10  and  C_4 
REMARK    3  A    between atoms: C_5  and  C_7 
REMARK    4  A    between atoms: C_7  and  C_9 
REMARK    5  A    between atoms: O_22  and  C_8 
REMARK       I    between atoms: C_9  and  N_10 
REMARK    6  A    between atoms: C_20  and  N_12 
REMARK    7  A    between atoms: C_29  and  C_24 
REMARK    8  A    between atoms: C_31  and  C_29 
REMARK    9  A    between atoms: C_32  and  C_31 
ROOT
ATOM      1  N   UNL d   1       0.688   1.222   0.321  0.00  0.00    -0.319 N 
ATOM      2  C   UNL d   1       1.255   0.581  -0.769  0.00  0.00     0.323 C 
ATOM      3  C   UNL d   1       0.496   2.729   0.258  0.00  0.00     0.184 C 
ATOM      4  C   UNL d   1      -0.037   3.318   1.610  0.00  0.00     0.221 C 
ATOM      5  N   UNL d   1       1.455  -0.767  -0.873  0.00  0.00    -0.309 N 
ATOM      6  N   UNL d   1      -1.004   2.601   2.260  0.00  0.00    -0.260 NA
ATOM      7  O   UNL d   1       1.762   1.226  -1.694  0.00  0.00    -0.247 OA
ATOM      8  O   UNL d   1       0.269   4.405   2.097  0.00  0.00    -0.278 OA
ATOM      9  C   UNL d   1      -0.243   0.524   1.198  0.00  0.00     0.143 C 
ATOM     10  C   UNL d   1      -0.679   1.228   2.473  0.00  0.00     0.115 C 
ATOM     11  H   UNL d   1       2.215  -0.898  -1.534  0.00  0.00     0.170 HD
ATOM     12  H   UNL d   1      -1.325   3.109   3.078  0.00  0.00     0.130 HD
ENDROOT
BRANCH   3  13
ATOM     13  C   UNL d   1       1.727   3.588  -0.139  0.00  0.00     0.137 C 
BRANCH  13  14
ATOM     14  C   UNL d   1       1.327   5.066  -0.240  0.00  0.00     0.224 C 
ATOM     15  N   UNL d   1       2.168   5.895   0.482  0.00  0.00    -0.326 N 
ATOM     16  H   UNL d   1       2.961   5.442   0.919  0.00  0.00     0.169 HD
ATOM     17  O   UNL d   1       0.317   5.407  -0.854  0.00  0.00    -0.273 OA
BRANCH  15  18
ATOM     18  C   UNL d   1       1.777   7.072   1.135  0.00  0.00     0.058 A 
ATOM     19  C   UNL d   1       0.725   7.945   0.897  0.00  0.00     0.106 A 
ATOM     20  S   UNL d   1       0.584   9.126   2.160  0.00  0.00    -0.094 SA
ATOM     21  C   UNL d   1       1.935   8.519   2.987  0.00  0.00     0.053 A 
ATOM     22  C   UNL d   1       2.498   7.457   2.329  0.00  0.00     0.038 A 
BRANCH  19  23
ATOM     23  C   UNL d   1      -0.237   8.098  -0.173  0.00  0.00     0.302 C 
ATOM     24  O   UNL d   1      -1.434   8.314  -0.019  0.00  0.00    -0.259 OA
BRANCH  23  25
ATOM     25  O   UNL d   1       0.405   8.142  -1.378  0.00  0.00    -0.322 OA
ATOM     26  C   UNL d   1      -0.427   8.424  -2.509  0.00  0.00     0.213 C 
ENDBRANCH  23  25
ENDBRANCH  19  23
ENDBRANCH  15  18
ENDBRANCH  13  14
ENDBRANCH   3  13
BRANCH   5  27
ATOM     27  C   UNL d   1       1.088  -1.948  -0.203  0.00  0.00     0.036 C 
ATOM     28  C   UNL d   1      -0.195  -2.243   0.246  0.00  0.00     0.030 C 
ATOM     29  C   UNL d   1      -0.395  -3.261   1.184  0.00  0.00     0.009 C 
ATOM     30  C   UNL d   1       0.675  -4.059   1.595  0.00  0.00    -0.058 C 
ATOM     31  C   UNL d   1       1.880  -3.961   0.894  0.00  0.00     0.009 C 
ATOM     32  C   UNL d   1       2.087  -2.905   0.000  0.00  0.00     0.030 C 
BRANCH  30  33
ATOM     33  C   UNL d   1       0.561  -4.925   2.829  0.00  0.00     0.038 C 
BRANCH  33  34
ATOM     34  C   UNL d   1       1.670  -4.654   3.866  0.00  0.00     0.004 C 
BRANCH  34  35
ATOM     35  C   UNL d   1       1.789  -3.179   4.280  0.00  0.00    -0.004 C 
ATOM     36  C   UNL d   1       2.909  -2.964   5.287  0.00  0.00     0.005 C 
ENDBRANCH  34  35
ENDBRANCH  33  34
ENDBRANCH  30  33
ENDBRANCH   5  27
TORSDOF 9
