REMARK  8 active torsions:
REMARK  status: ('A' for Active; 'I' for Inactive)
REMARK    1  A    between atoms: N_14  and  C_1 
REMARK    2  A    between atoms: C_5  and  C_2 
REMARK    3  A    between atoms: C_7  and  C_11 
REMARK    4  A    between atoms: C_10  and  O_22 
REMARK    5  A    between atoms: C_12  and  C_10 
REMARK    6  A    between atoms: C_26  and  N_14 
REMARK    7  A    between atoms: O_22  and  C_24 
REMARK    8  A    between atoms: C_24  and  C_26 
ROOT
ATOM      1  N   UNL d   1      -1.267  -2.907   0.252  0.00  0.00    -0.382 N 
ATOM      2  C   UNL d   1      -0.197  -3.827  -0.150  0.00  0.00     0.150 C 
ENDROOT
BRANCH   1   3
ATOM      3  C   UNL d   1      -1.004  -1.532   0.361  0.00  0.00     0.044 A 
ATOM      4  C   UNL d   1      -1.987  -0.602  -0.016  0.00  0.00     0.064 A 
ATOM      5  C   UNL d   1      -1.738   0.769  -0.006  0.00  0.00     0.119 A 
ATOM      6  N   UNL d   1      -0.533   1.275   0.336  0.00  0.00    -0.352 N 
ATOM      7  C   UNL d   1       0.424   0.433   0.730  0.00  0.00     0.045 A 
ATOM      8  HN  UNL d   1      -0.358   2.279   0.294  1.00  0.00     0.166 HD
ATOM      9  C   UNL d   1       0.250  -0.974   0.817  0.00  0.00     0.017 A 
ATOM     10  C   UNL d   1       1.633   1.022   1.079  0.00  0.00     0.030 A 
ATOM     11  C   UNL d   1       1.342  -1.693   1.381  0.00  0.00     0.016 A 
ATOM     12  C   UNL d   1       2.554  -1.085   1.728  0.00  0.00     0.001 A 
ATOM     13  C   UNL d   1       2.706   0.279   1.559  0.00  0.00     0.002 A 
BRANCH   5  14
ATOM     14  C   UNL d   1      -2.861   1.722  -0.387  0.00  0.00     0.432 C 
ATOM     15  F   UNL d   1      -2.502   3.036  -0.428  0.00  0.00    -0.165 F 
ATOM     16  F   UNL d   1      -3.388   1.443  -1.615  0.00  0.00    -0.165 F 
ATOM     17  F   UNL d   1      -3.914   1.653   0.480  0.00  0.00    -0.165 F 
ENDBRANCH   5  14
ENDBRANCH   1   3
BRANCH   1  18
ATOM     18  C   UNL d   1      -2.629  -3.494   0.170  0.00  0.00     0.149 C 
BRANCH  18  19
ATOM     19  C   UNL d   1      -3.014  -4.215   1.468  0.00  0.00     0.199 C 
BRANCH  19  20
ATOM     20  O   UNL d   1      -4.266  -4.925   1.300  0.00  0.00    -0.316 OA
BRANCH  20  21
ATOM     21  C   UNL d   1      -4.213  -6.272   1.458  0.00  0.00     0.293 C 
ATOM     22  O   UNL d   1      -3.194  -6.926   1.634  0.00  0.00    -0.259 OA
BRANCH  21  23
ATOM     23  C   UNL d   1      -5.563  -6.904   1.407  0.00  0.00     0.040 A 
ATOM     24  C   UNL d   1      -5.641  -8.301   1.553  0.00  0.00     0.033 A 
ATOM     25  C   UNL d   1      -6.879  -8.969   1.525  0.00  0.00     0.048 A 
ATOM     26  C   UNL d   1      -8.048  -8.212   1.357  0.00  0.00     0.016 A 
ATOM     27  C   UNL d   1      -7.980  -6.825   1.215  0.00  0.00     0.002 A 
ATOM     28  C   UNL d   1      -6.744  -6.171   1.238  0.00  0.00     0.017 A 
BRANCH  25  29
ATOM     29  C   UNL d   1      -6.964 -10.469   1.681  0.00  0.00     0.417 C 
ATOM     30  F   UNL d   1      -5.750 -11.082   1.729  0.00  0.00    -0.166 F 
ATOM     31  F   UNL d   1      -7.616 -10.837   2.817  0.00  0.00    -0.166 F 
ATOM     32  F   UNL d   1      -7.639 -11.060   0.655  0.00  0.00    -0.166 F 
ENDBRANCH  25  29
ENDBRANCH  21  23
ENDBRANCH  20  21
ENDBRANCH  19  20
ENDBRANCH  18  19
ENDBRANCH   1  18
TORSDOF 8
