REMARK  4 active torsions:
REMARK  status: ('A' for Active; 'I' for Inactive)
REMARK    1  A    between atoms: N_9  and  C_1 
REMARK    2  A    between atoms: S_2  and  N_9 
REMARK    3  A    between atoms: C_6  and  S_2 
REMARK    4  A    between atoms: C_20  and  N_5 
ROOT
ATOM      1  N   UNL d   1      -0.350  -2.662  -1.163  0.00  0.00    -0.174 NA
ATOM      2  H   UNL d   1       0.357  -3.045  -1.800  0.00  0.00     0.146 HD
ENDROOT
BRANCH   1   3
ATOM      3  S   UNL d   1      -0.800  -3.862  -0.060  0.00  0.00     0.248 S 
ATOM      4  O   UNL d   1      -2.046  -3.481   0.573  0.00  0.00    -0.205 OA
ATOM      5  O   UNL d   1      -0.710  -5.081  -0.830  0.00  0.00    -0.205 OA
BRANCH   3   6
ATOM      6  C   UNL d   1       0.398  -3.926   1.228  0.00  0.00     0.105 A 
ATOM      7  C   UNL d   1       0.990  -5.130   1.664  0.00  0.00     0.108 A 
ATOM      8  C   UNL d   1       1.821  -5.181   2.869  0.00  0.00     0.086 A 
ATOM      9  N   UNL d   1       0.924  -6.377   1.180  0.00  0.00    -0.238 N 
ATOM     10  N   UNL d   1       2.226  -6.442   3.058  0.00  0.00    -0.239 N 
ATOM     11  C   UNL d   1       2.088  -4.052   3.664  0.00  0.00     0.034 A 
ATOM     12  O   UNL d   1       1.671  -7.172   2.024  0.00  0.00    -0.156 OA
ATOM     13  HN  UNL d   1       2.821  -6.792   3.809  1.00  0.00     0.197 HD
ATOM     14  C   UNL d   1       1.476  -2.870   3.222  0.00  0.00     0.004 A 
ATOM     15  C   UNL d   1       0.650  -2.814   2.069  0.00  0.00     0.027 A 
ATOM     16  HN  UNL d   1       0.419  -6.680   0.347  1.00  0.00     0.197 HD
ENDBRANCH   3   6
ENDBRANCH   1   3
BRANCH   1  17
ATOM     17  C   UNL d   1      -0.050  -1.370  -0.702  0.00  0.00     0.111 A 
ATOM     18  C   UNL d   1       1.273  -0.729  -0.880  0.00  0.00     0.286 A 
ATOM     19  N   UNL d   1       1.151   0.549  -0.340  0.00  0.00    -0.235 N 
ATOM     20  O   UNL d   1       2.222  -1.324  -1.365  0.00  0.00    -0.265 OA
ATOM     21  N   UNL d   1      -0.197   0.739   0.139  0.00  0.00    -0.193 NA
ATOM     22  C   UNL d   1      -0.888  -0.454  -0.195  0.00  0.00     0.032 A 
ATOM     23  C   UNL d   1      -0.792   2.057  -0.133  0.00  0.00     0.143 C 
ATOM     24  C   UNL d   1      -2.371  -0.590  -0.036  0.00  0.00     0.065 C 
BRANCH  19  25
ATOM     25  C   UNL d   1       2.195   1.494  -0.208  0.00  0.00     0.055 A 
ATOM     26  C   UNL d   1       3.268   1.478  -1.112  0.00  0.00     0.031 A 
ATOM     27  C   UNL d   1       4.287   2.430  -1.042  0.00  0.00     0.002 A 
ATOM     28  C   UNL d   1       4.260   3.405  -0.052  0.00  0.00     0.000 A 
ATOM     29  C   UNL d   1       3.222   3.415   0.877  0.00  0.00     0.002 A 
ATOM     30  C   UNL d   1       2.200   2.462   0.803  0.00  0.00     0.031 A 
ENDBRANCH  19  25
ENDBRANCH   1  17
TORSDOF 4
