REMARK  5 active torsions:
REMARK  status: ('A' for Active; 'I' for Inactive)
REMARK    1  A    between atoms: C_7  and  C_1 
REMARK    2  A    between atoms: C_6  and  N_11 
REMARK    3  A    between atoms: N_12  and  C_6 
REMARK    4  A    between atoms: N_8  and  C_7 
REMARK    5  A    between atoms: N_11  and  N_8 
ROOT
ATOM      1  C   UNL d   1       2.145   0.292   0.014  0.00  0.00     0.029 A 
ATOM      2  S   UNL d   1       1.443  -1.267   0.009  0.00  0.00    -0.088 SA
ATOM      3  C   UNL d   1       1.182   1.293   0.029  0.00  0.00    -0.032 A 
ATOM      4  C   UNL d   1      -0.162   0.743   0.014  0.00  0.00    -0.012 A 
ATOM      5  C   UNL d   1      -0.158  -0.652   0.009  0.00  0.00     0.016 A 
ATOM      6  C   UNL d   1       1.410   2.773   0.054  0.00  0.00     0.050 C 
ATOM      7  C   UNL d   1      -1.416   1.403   0.008  0.00  0.00     0.013 A 
ATOM      8  C   UNL d   1      -1.359  -1.391   0.005  0.00  0.00     0.019 A 
ATOM      9  C   UNL d   1      -2.609   0.677  -0.000  0.00  0.00     0.001 A 
ATOM     10  C   UNL d   1      -2.578  -0.708   0.000  0.00  0.00     0.001 A 
ENDROOT
BRANCH   1  11
ATOM     11  C   UNL d   1       3.593   0.367   0.008  0.00  0.00     0.126 C 
BRANCH  11  12
ATOM     12  N   UNL d   1       4.196   1.512  -0.007  0.00  0.00    -0.308 N 
ATOM     13  HN  UNL d   1       3.676   2.389  -0.019  1.00  0.00     0.186 HD
BRANCH  12  14
ATOM     14  N   UNL d   1       5.561   1.492  -0.006  0.00  0.00    -0.277 N 
ATOM     15  H   UNL d   1       6.075   0.617   0.005  0.00  0.00     0.189 HD
BRANCH  14  16
ATOM     16  C   UNL d   1       6.266   2.666  -0.007  0.00  0.00     0.184 C 
ATOM     17  S   UNL d   1       7.922   2.716   0.006  0.00  0.00    -0.040 SA
BRANCH  16  18
ATOM     18  N   UNL d   1       5.514   3.794  -0.018  0.00  0.00    -0.375 N 
ATOM     19  H   UNL d   1       4.510   3.675  -0.043  0.00  0.00     0.158 HD
ATOM     20  H   UNL d   1       5.925   4.715  -0.025  0.00  0.00     0.158 HD
ENDBRANCH  16  18
ENDBRANCH  14  16
ENDBRANCH  12  14
ENDBRANCH  11  12
ENDBRANCH   1  11
TORSDOF 5
