REMARK  4 active torsions:
REMARK  status: ('A' for Active; 'I' for Inactive)
REMARK    1  A    between atoms: N_7  and  C_3 
REMARK    2  A    between atoms: N_8  and  C_4 
REMARK    3  A    between atoms: N_10  and  C_12 
REMARK    4  A    between atoms: N_11  and  C_13 
ROOT
ATOM      1  C   UNL d   1      -0.749   0.855   0.019  0.00  0.00     0.025 A 
ATOM      2  C   UNL d   1       0.727   0.849   0.015  0.00  0.00     0.025 A 
ATOM      3  C   UNL d   1      -1.749   1.823  -0.060  0.00  0.00     0.117 A 
ATOM      4  C   UNL d   1       1.739   1.794   0.162  0.00  0.00     0.117 A 
ATOM      5  C   UNL d   1       1.160  -0.490  -0.123  0.00  0.00     0.031 A 
ATOM      6  C   UNL d   1      -1.197  -0.483   0.018  0.00  0.00     0.031 A 
ATOM      7  C   UNL d   1      -0.021  -1.363  -0.086  0.00  0.00     0.194 A 
ATOM      8  C   UNL d   1      -3.494   0.116   0.002  0.00  0.00     0.106 A 
ATOM      9  C   UNL d   1       3.460   0.096  -0.158  0.00  0.00     0.106 A 
ATOM     10  C   UNL d   1       3.101   1.441   0.049  0.00  0.00     0.073 A 
ATOM     11  C   UNL d   1      -3.117   1.472  -0.048  0.00  0.00     0.073 A 
ATOM     12  C   UNL d   1      -2.526  -0.889   0.021  0.00  0.00     0.052 A 
ATOM     13  C   UNL d   1       2.484  -0.899  -0.218  0.00  0.00     0.052 A 
ATOM     14  O   UNL d   1      -0.028  -2.572  -0.135  0.00  0.00    -0.287 OA
ENDROOT
BRANCH   3  15
ATOM     15  N   UNL d   1      -1.454   3.205  -0.366  0.00  0.00    -0.115 N 
ATOM     16  O   UNL d   1      -0.759   3.404  -1.370  0.00  0.00    -0.532 OA
ATOM     17  O   UNL d   1      -1.952   4.067   0.365  0.00  0.00    -0.532 OA
ENDBRANCH   3  15
BRANCH   8  18
ATOM     18  N   UNL d   1      -4.918  -0.243  -0.036  0.00  0.00    -0.116 N 
ATOM     19  O   UNL d   1      -5.736   0.681  -0.120  0.00  0.00    -0.532 OA
ATOM     20  O   UNL d   1      -5.206  -1.445   0.010  0.00  0.00    -0.532 OA
ENDBRANCH   8  18
BRANCH   4  21
ATOM     21  N   UNL d   1       1.469   3.131   0.649  0.00  0.00    -0.115 N 
ATOM     22  O   UNL d   1       0.809   3.205   1.692  0.00  0.00    -0.532 OA
ATOM     23  O   UNL d   1       1.949   4.075   0.013  0.00  0.00    -0.532 OA
ENDBRANCH   4  21
BRANCH   9  24
ATOM     24  N   UNL d   1       4.881  -0.269  -0.258  0.00  0.00    -0.116 N 
ATOM     25  O   UNL d   1       5.710   0.646  -0.168  0.00  0.00    -0.532 OA
ATOM     26  O   UNL d   1       5.155  -1.462  -0.425  0.00  0.00    -0.532 OA
ENDBRANCH   9  24
TORSDOF 4
