REMARK  9 active torsions:
REMARK  status: ('A' for Active; 'I' for Inactive)
REMARK    1  A    between atoms: N_2  and  C_1 
REMARK    2  A    between atoms: N_3  and  C_1 
REMARK    3  A    between atoms: C_4  and  N_2 
REMARK    4  A    between atoms: C_7  and  N_3 
REMARK    5  A    between atoms: C_8  and  N_3 
REMARK    6  A    between atoms: O_17  and  C_6 
REMARK    7  A    between atoms: C_11  and  C_7 
REMARK    8  A    between atoms: C_16  and  C_8 
REMARK    9  A    between atoms: O_18  and  C_9 
ROOT
ATOM      1  N   UNL d   1       0.370  -0.980   0.689  0.00  0.00    -0.350 N 
ENDROOT
BRANCH   1   2
ATOM      2  C   UNL d   1       1.095   0.044   0.074  0.00  0.00     0.175 C 
ATOM      3  S   UNL d   1       0.773   0.710  -1.439  0.00  0.00    -0.041 SA
BRANCH   2   4
ATOM      4  N   UNL d   1       2.227   0.504   0.689  0.00  0.00    -0.332 N 
ATOM      5  H   UNL d   1       2.846   1.008   0.063  0.00  0.00     0.168 HD
BRANCH   4   6
ATOM      6  C   UNL d   1       2.503   0.725   2.061  0.00  0.00     0.046 A 
ATOM      7  C   UNL d   1       3.855   0.595   2.464  0.00  0.00    -0.035 A 
ATOM      8  C   UNL d   1       4.200   0.795   3.812  0.00  0.00     0.009 A 
ATOM      9  C   UNL d   1       4.963   0.135   1.548  0.00  0.00     0.050 C 
ATOM     10  C   UNL d   1       3.232   1.116   4.753  0.00  0.00     0.001 A 
ATOM     11  C   UNL d   1       1.909   1.255   4.354  0.00  0.00     0.009 A 
ATOM     12  C   UNL d   1       1.521   1.081   3.013  0.00  0.00    -0.035 A 
ATOM     13  C   UNL d   1       0.066   1.335   2.730  0.00  0.00     0.050 C 
ENDBRANCH   4   6
ENDBRANCH   2   4
ENDBRANCH   1   2
BRANCH   1  14
ATOM     14  C   UNL d   1       1.125  -2.038   1.400  0.00  0.00     0.164 C 
BRANCH  14  15
ATOM     15  C   UNL d   1       0.466  -3.145   2.193  0.00  0.00    -0.037 A 
ATOM     16  C   UNL d   1       1.091  -4.410   2.214  0.00  0.00     0.048 A 
ATOM     17  C   UNL d   1       0.653  -5.441   3.061  0.00  0.00     0.102 A 
ATOM     18  C   UNL d   1      -0.412  -5.196   3.935  0.00  0.00     0.101 A 
ATOM     19  C   UNL d   1      -1.059  -3.957   3.894  0.00  0.00     0.040 A 
ATOM     20  C   UNL d   1      -0.602  -2.931   3.064  0.00  0.00     0.012 A 
BRANCH  17  21
ATOM     21  O   UNL d   1       1.266  -6.665   3.102  0.00  0.00    -0.353 OA
ATOM     22  C   UNL d   1       1.802  -7.141   1.873  0.00  0.00     0.210 C 
ENDBRANCH  17  21
BRANCH  18  23
ATOM     23  O   UNL d   1      -0.947  -6.058   4.857  0.00  0.00    -0.353 OA
ATOM     24  C   UNL d   1      -0.054  -6.995   5.448  0.00  0.00     0.210 C 
ENDBRANCH  18  23
ENDBRANCH  14  15
ENDBRANCH   1  14
BRANCH   1  25
ATOM     25  C   UNL d   1      -1.073  -1.109   0.430  0.00  0.00     0.164 C 
BRANCH  25  26
ATOM     26  C   UNL d   1      -1.570  -2.371  -0.218  0.00  0.00    -0.040 A 
ATOM     27  C   UNL d   1      -2.795  -2.916   0.213  0.00  0.00     0.009 A 
ATOM     28  C   UNL d   1      -3.337  -4.037  -0.407  0.00  0.00     0.001 A 
ATOM     29  C   UNL d   1      -2.672  -4.623  -1.481  0.00  0.00     0.000 A 
ATOM     30  C   UNL d   1      -1.465  -4.085  -1.928  0.00  0.00     0.001 A 
ATOM     31  C   UNL d   1      -0.919  -2.963  -1.306  0.00  0.00     0.009 A 
ENDBRANCH  25  26
ENDBRANCH   1  25
TORSDOF 9
