REMARK  5 active torsions:
REMARK  status: ('A' for Active; 'I' for Inactive)
REMARK    1  A    between atoms: C_6  and  C_1 
REMARK    2  A    between atoms: C_10  and  N_2 
REMARK       I    between atoms: N_8  and  C_6 
REMARK    3  A    between atoms: C_12  and  N_8 
REMARK    4  A    between atoms: C_15  and  N_9 
REMARK    5  A    between atoms: C_25  and  C_15 
ROOT
ATOM      1  C   UNL d   1      -0.493   2.682   0.893  0.00  0.00     0.255 C 
ATOM      2  N   UNL d   1      -0.037   3.507  -0.113  0.00  0.00    -0.352 N 
ATOM      3  O   UNL d   1       0.290   2.092   1.640  0.00  0.00    -0.268 OA
ATOM      4  H   UNL d   1      -0.683   4.129  -0.560  0.00  0.00     0.163 HD
ENDROOT
BRANCH   1   5
ATOM      5  C   UNL d   1      -1.935   2.512   1.090  0.00  0.00     0.073 A 
ATOM      6  C   UNL d   1      -3.090   3.129   0.596  0.00  0.00     0.048 A 
ATOM      7  N   UNL d   1      -4.158   2.590   1.340  0.00  0.00    -0.260 N 
ATOM      8  C   UNL d   1      -3.288   4.265  -0.344  0.00  0.00     0.071 C 
ATOM      9  N   UNL d   1      -3.744   1.627   2.191  0.00  0.00    -0.304 N 
ATOM     10  C   UNL d   1      -2.431   1.573   2.027  0.00  0.00     0.126 A 
ATOM     11  HN  UNL d   1      -4.316   1.064   2.821  1.00  0.00     0.186 HD
BRANCH   7  12
ATOM     12  C   UNL d   1      -5.513   3.032   1.432  0.00  0.00     0.056 A 
ATOM     13  C   UNL d   1      -6.216   3.537   0.333  0.00  0.00     0.034 A 
ATOM     14  C   UNL d   1      -7.465   4.135   0.516  0.00  0.00     0.044 A 
ATOM     15  C   UNL d   1      -8.017   4.204   1.789  0.00  0.00     0.116 A 
ATOM     16  C   UNL d   1      -7.374   3.629   2.877  0.00  0.00     0.044 A 
ATOM     17  F   UNL d   1      -9.185   4.833   1.967  0.00  0.00    -0.206 F 
ATOM     18  C   UNL d   1      -6.131   3.021   2.697  0.00  0.00     0.034 A 
ENDBRANCH   7  12
ENDBRANCH   1   5
BRANCH   2  19
ATOM     19  C   UNL d   1       1.396   3.788  -0.278  0.00  0.00     0.088 C 
ATOM     20  C   UNL d   1       1.665   4.841  -1.361  0.00  0.00     0.055 C 
ATOM     21  C   UNL d   1       1.511   4.290  -2.784  0.00  0.00     0.275 C 
ATOM     22  N   UNL d   1       2.253   3.038  -3.018  0.00  0.00     0.092 N 
ATOM     23  C   UNL d   1       1.907   2.026  -2.008  0.00  0.00     0.275 C 
ATOM     24  C   UNL d   1       2.217   2.539  -0.606  0.00  0.00     0.055 C 
BRANCH  22  25
ATOM     25  C   UNL d   1       1.973   2.557  -4.389  0.00  0.00     0.311 C 
BRANCH  25  26
ATOM     26  C   UNL d   1       2.634   1.245  -4.761  0.00  0.00    -0.030 A 
ATOM     27  C   UNL d   1       1.849   0.112  -5.029  0.00  0.00     0.009 A 
ATOM     28  C   UNL d   1       2.446  -1.102  -5.373  0.00  0.00     0.001 A 
ATOM     29  C   UNL d   1       3.835  -1.198  -5.455  0.00  0.00     0.000 A 
ATOM     30  C   UNL d   1       4.626  -0.081  -5.187  0.00  0.00     0.001 A 
ATOM     31  C   UNL d   1       4.030   1.136  -4.841  0.00  0.00     0.009 A 
ENDBRANCH  25  26
ENDBRANCH  22  25
ENDBRANCH   2  19
TORSDOF 5
