REMARK  6 active torsions:
REMARK  status: ('A' for Active; 'I' for Inactive)
REMARK    1  A    between atoms: N_3  and  C_1 
REMARK    2  A    between atoms: N_4  and  C_1 
REMARK    3  A    between atoms: C_2  and  N_3 
REMARK    4  A    between atoms: C_7  and  N_4 
REMARK    5  A    between atoms: N_6  and  C_5 
REMARK       I    between atoms: C_9  and  N_6 
REMARK    6  A    between atoms: O_20  and  C_16 
ROOT
ATOM      1  N   UNL d   1       0.407  -0.734  -1.065  0.00  0.00    -0.331 N 
ATOM      2  H   UNL d   1      -0.515  -0.546  -1.463  0.00  0.00     0.168 HD
ENDROOT
BRANCH   1   3
ATOM      3  C   UNL d   1       1.114  -1.824  -1.620  0.00  0.00     0.064 A 
ATOM      4  C   UNL d   1       0.692  -2.504  -2.780  0.00  0.00     0.061 A 
ATOM      5  C   UNL d   1       1.381  -3.685  -3.140  0.00  0.00     0.035 A 
ATOM      6  C   UNL d   1       2.450  -4.185  -2.391  0.00  0.00     0.039 A 
ATOM      7  C   UNL d   1       2.875  -3.502  -1.264  0.00  0.00     0.070 A 
ATOM      8  C   UNL d   1       2.212  -2.332  -0.897  0.00  0.00     0.068 A 
BRANCH   4   9
ATOM      9  N   UNL d   1      -0.316  -2.126  -3.706  0.00  0.00    -0.326 N 
ATOM     10  C   UNL d   1      -1.170  -1.044  -3.716  0.00  0.00     0.218 C 
ATOM     11  O   UNL d   1      -1.373  -0.257  -2.799  0.00  0.00    -0.274 OA
ATOM     12  C   UNL d   1      -1.931  -0.918  -5.015  0.00  0.00     0.117 C 
ATOM     13  H   UNL d   1      -0.389  -2.732  -4.514  0.00  0.00     0.169 HD
ENDBRANCH   4   9
BRANCH   7  14
ATOM     14  O   UNL d   1       3.893  -3.862  -0.427  0.00  0.00    -0.356 OA
ATOM     15  C   UNL d   1       4.552  -5.091  -0.695  0.00  0.00     0.210 C 
ENDBRANCH   7  14
ENDBRANCH   1   3
BRANCH   1  16
ATOM     16  C   UNL d   1       0.899   0.319  -0.337  0.00  0.00     0.176 C 
ATOM     17  S   UNL d   1       2.397   1.050  -0.552  0.00  0.00    -0.041 SA
BRANCH  16  18
ATOM     18  N   UNL d   1       0.028   0.937   0.517  0.00  0.00    -0.333 N 
ATOM     19  H   UNL d   1       0.273   1.907   0.680  0.00  0.00     0.168 HD
BRANCH  18  20
ATOM     20  C   UNL d   1      -1.163   0.493   1.126  0.00  0.00     0.040 A 
ATOM     21  C   UNL d   1      -1.418  -0.802   1.611  0.00  0.00    -0.035 A 
ATOM     22  C   UNL d   1      -2.666  -1.065   2.222  0.00  0.00     0.015 A 
ATOM     23  C   UNL d   1      -0.403  -1.903   1.741  0.00  0.00     0.050 C 
ATOM     24  C   UNL d   1      -3.631  -0.069   2.399  0.00  0.00    -0.061 A 
ATOM     25  C   UNL d   1      -3.341   1.222   1.969  0.00  0.00     0.009 A 
ATOM     26  C   UNL d   1      -4.915  -0.385   3.106  0.00  0.00     0.048 C 
ATOM     27  C   UNL d   1      -2.121   1.497   1.347  0.00  0.00     0.030 A 
ENDBRANCH  18  20
ENDBRANCH  16  18
ENDBRANCH   1  16
TORSDOF 6
