REMARK  6 active torsions:
REMARK  status: ('A' for Active; 'I' for Inactive)
REMARK       I    between atoms: C_3  and  N_7 
REMARK    1  A    between atoms: C_22  and  C_3 
REMARK    2  A    between atoms: N_7  and  C_13 
REMARK    3  A    between atoms: S_11  and  C_22 
REMARK    4  A    between atoms: C_23  and  S_11 
REMARK    5  A    between atoms: C_13  and  C_12 
REMARK    6  A    between atoms: C_16  and  C_23 
ROOT
ATOM      1  C   UNL d   1       5.962  -1.109   0.048  0.00  0.00     0.227 C 
ATOM      2  N   UNL d   1       4.698  -0.565   0.033  0.00  0.00    -0.356 N 
ATOM      3  O   UNL d   1       6.180  -2.318   0.020  0.00  0.00    -0.273 OA
ATOM      4  H   UNL d   1       4.600   0.436   0.153  0.00  0.00     0.162 HD
ENDROOT
BRANCH   1   5
ATOM      5  C   UNL d   1       7.091  -0.094   0.069  0.00  0.00     0.176 C 
BRANCH   5   6
ATOM      6  S   UNL d   1       6.982   1.005   1.514  0.00  0.00    -0.155 SA
BRANCH   6   7
ATOM      7  C   UNL d   1       7.129  -0.243   2.837  0.00  0.00     0.112 C 
BRANCH   7   8
ATOM      8  C   UNL d   1       7.041   0.406   4.196  0.00  0.00    -0.049 A 
ATOM      9  C   UNL d   1       5.792   0.601   4.807  0.00  0.00     0.009 A 
ATOM     10  C   UNL d   1       5.702   1.225   6.053  0.00  0.00     0.024 A 
ATOM     11  C   UNL d   1       6.859   1.663   6.693  0.00  0.00     0.034 A 
ATOM     12  C   UNL d   1       8.106   1.482   6.098  0.00  0.00     0.024 A 
ATOM     13 CL   UNL d   1       6.747   2.438   8.225  0.00  0.00    -0.084 Cl
ATOM     14  C   UNL d   1       8.197   0.858   4.851  0.00  0.00     0.009 A 
ENDBRANCH   7   8
ENDBRANCH   6   7
ENDBRANCH   5   6
ENDBRANCH   1   5
BRANCH   2  15
ATOM     15  C   UNL d   1       3.506  -1.376  -0.011  0.00  0.00     0.161 C 
BRANCH  15  16
ATOM     16  C   UNL d   1       2.628  -1.139   1.192  0.00  0.00    -0.038 A 
ATOM     17  C   UNL d   1       1.608  -0.175   1.148  0.00  0.00     0.048 A 
ATOM     18  C   UNL d   1       0.800  -0.030   2.257  0.00  0.00     0.105 A 
ATOM     19  C   UNL d   1       0.983  -0.786   3.391  0.00  0.00     0.105 A 
ATOM     20  O   UNL d   1      -0.249   0.828   2.368  0.00  0.00    -0.323 OA
ATOM     21  O   UNL d   1       0.069  -0.500   4.356  0.00  0.00    -0.323 OA
ATOM     22  C   UNL d   1       1.989  -1.721   3.484  0.00  0.00     0.040 A 
ATOM     23  C   UNL d   1      -0.734   0.493   3.685  0.00  0.00     0.352 A 
ATOM     24  C   UNL d   1       2.822  -1.894   2.372  0.00  0.00     0.012 A 
ENDBRANCH  15  16
ENDBRANCH   2  15
TORSDOF 6
