REMARK  3 active torsions:
REMARK  status: ('A' for Active; 'I' for Inactive)
REMARK       I    between atoms: N_2  and  C_1 
REMARK       I    between atoms: N_6  and  C_1 
REMARK    1  A    between atoms: C_4  and  N_2 
REMARK    2  A    between atoms: N_3  and  C_5 
REMARK    3  A    between atoms: C_9  and  N_6 
ROOT
ATOM      1  C   UNL d   1       0.815  -0.635  -2.382  0.00  0.00     0.043 A 
ATOM      2  C   UNL d   1       1.989  -1.405  -2.175  0.00  0.00     0.052 A 
ATOM      3  C   UNL d   1       0.328  -0.382  -3.677  0.00  0.00     0.026 A 
ATOM      4  C   UNL d   1       2.644  -1.860  -3.335  0.00  0.00     0.031 A 
ATOM      5  C   UNL d   1       1.019  -0.826  -4.794  0.00  0.00     0.002 A 
ATOM      6  C   UNL d   1       2.179  -1.566  -4.626  0.00  0.00     0.002 A 
ENDROOT
BRANCH   1   7
ATOM      7  N   UNL d   1       0.074  -0.045  -1.327  0.00  0.00    -0.208 NA
ATOM      8  C   UNL d   1       0.622   0.991  -0.570  0.00  0.00     0.303 C 
ATOM      9  N   UNL d   1      -0.326   1.414   0.351  0.00  0.00    -0.313 N 
ATOM     10  O   UNL d   1       1.729   1.485  -0.740  0.00  0.00    -0.253 OA
ATOM     11  H   UNL d   1      -1.027   0.727   0.579  0.00  0.00     0.170 HD
ATOM     12  H   UNL d   1      -0.876   0.189  -1.574  0.00  0.00     0.138 HD
BRANCH   9  13
ATOM     13  C   UNL d   1      -0.313   2.591   1.125  0.00  0.00     0.035 A 
ATOM     14  C   UNL d   1       0.588   3.639   0.928  0.00  0.00     0.029 A 
ATOM     15  C   UNL d   1       0.520   4.788   1.722  0.00  0.00     0.002 A 
ATOM     16  C   UNL d   1      -0.451   4.901   2.715  0.00  0.00     0.000 A 
ATOM     17  C   UNL d   1      -1.362   3.866   2.910  0.00  0.00     0.002 A 
ATOM     18  C   UNL d   1      -1.295   2.719   2.115  0.00  0.00     0.029 A 
ENDBRANCH   9  13
ENDBRANCH   1   7
BRANCH   2  19
ATOM     19  N   UNL d   1       2.495  -1.699  -0.911  0.00  0.00    -0.375 N 
ATOM     20  C   UNL d   1       3.909  -2.065  -0.724  0.00  0.00     0.149 C 
ATOM     21  C   UNL d   1       4.349  -1.661   0.696  0.00  0.00     0.187 C 
ATOM     22  O   UNL d   1       3.509  -2.252   1.703  0.00  0.00    -0.388 OA
ATOM     23  C   UNL d   1       2.141  -1.848   1.502  0.00  0.00     0.187 C 
ATOM     24  C   UNL d   1       1.628  -2.293   0.120  0.00  0.00     0.149 C 
ENDBRANCH   2  19
TORSDOF 3
