REMARK  6 active torsions:
REMARK  status: ('A' for Active; 'I' for Inactive)
REMARK    1  A    between atoms: C_8  and  C_2 
REMARK    2  A    between atoms: S_9  and  C_5 
REMARK    3  A    between atoms: C_13  and  S_9 
REMARK    4  A    between atoms: C_17  and  C_13 
REMARK    5  A    between atoms: C_18  and  C_17 
REMARK    6  A    between atoms: O_19  and  C_17 
ROOT
ATOM      1  N   UNL d   1       0.824   0.050   0.144  0.00  0.00    -0.315 N 
ATOM      2  C   UNL d   1      -0.015   1.136  -0.021  0.00  0.00     0.134 A 
ATOM      3  N   UNL d   1      -1.263   0.686  -0.014  0.00  0.00    -0.283 N 
ATOM      4  HN  UNL d   1      -2.101   1.264  -0.076  1.00  0.00     0.188 HD
ATOM      5  C   UNL d   1       0.012  -1.052   0.167  0.00  0.00     0.162 A 
ATOM      6  N   UNL d   1      -1.245  -0.684   0.089  0.00  0.00    -0.278 N 
ATOM      7  HN  UNL d   1      -2.058  -1.301   0.102  1.00  0.00     0.189 HD
ATOM      8  C   UNL d   1       2.257   0.044   0.296  0.00  0.00     0.160 C 
ENDROOT
BRANCH   5   9
ATOM      9  S   UNL d   1       0.597  -2.677   0.267  0.00  0.00    -0.089 SA
BRANCH   9  10
ATOM     10  C   UNL d   1      -0.779  -3.595  -0.512  0.00  0.00     0.119 C 
BRANCH  10  11
ATOM     11  C   UNL d   1      -0.795  -3.453  -2.047  0.00  0.00     0.160 C 
BRANCH  11  12
ATOM     12  C   UNL d   1      -1.849  -4.311  -2.717  0.00  0.00    -0.029 A 
ATOM     13  C   UNL d   1      -3.201  -4.242  -2.345  0.00  0.00     0.010 A 
ATOM     14  C   UNL d   1      -4.165  -4.989  -3.026  0.00  0.00     0.001 A 
ATOM     15  C   UNL d   1      -3.792  -5.810  -4.088  0.00  0.00     0.000 A 
ATOM     16  C   UNL d   1      -2.454  -5.891  -4.466  0.00  0.00     0.001 A 
ATOM     17  C   UNL d   1      -1.489  -5.146  -3.787  0.00  0.00     0.010 A 
ENDBRANCH  11  12
BRANCH  11  18
ATOM     18  O   UNL d   1      -1.013  -2.114  -2.494  0.00  0.00    -0.390 OA
ATOM     19  H   UNL d   1      -1.720  -1.725  -1.943  0.00  0.00     0.210 HD
ENDBRANCH  11  18
ENDBRANCH  10  11
ENDBRANCH   9  10
ENDBRANCH   5   9
BRANCH   2  20
ATOM     20  C   UNL d   1       0.359   2.554  -0.123  0.00  0.00     0.010 A 
ATOM     21  C   UNL d   1      -0.488   3.529   0.427  0.00  0.00     0.027 A 
ATOM     22  C   UNL d   1      -0.164   4.900   0.391  0.00  0.00    -0.025 A 
ATOM     23  C   UNL d   1      -1.012   5.876   0.936  0.00  0.00     0.012 A 
ATOM     24  C   UNL d   1       1.054   5.301  -0.205  0.00  0.00    -0.026 A 
ATOM     25  C   UNL d   1      -0.657   7.227   0.910  0.00  0.00     0.001 A 
ATOM     26  C   UNL d   1       0.553   7.618   0.347  0.00  0.00     0.001 A 
ATOM     27  C   UNL d   1       1.404   6.661  -0.208  0.00  0.00     0.012 A 
ATOM     28  C   UNL d   1       1.881   4.335  -0.789  0.00  0.00     0.013 A 
ATOM     29  C   UNL d   1       1.524   2.982  -0.772  0.00  0.00     0.016 A 
ENDBRANCH   2  20
TORSDOF 6
