REMARK  1 active torsions:
REMARK  status: ('A' for Active; 'I' for Inactive)
REMARK    1  A    between atoms: S_4  and  N_1 
ROOT
ATOM      1  N   UNL d   1      -0.886  -0.231   0.993  0.00  0.00    -0.181 N 
ATOM      2  C   UNL d   1      -0.177  -1.148   0.223  0.00  0.00     0.087 A 
ATOM      3  C   UNL d   1      -0.600  -2.427  -0.302  0.00  0.00     0.042 C 
ATOM      4  S   UNL d   1       0.061  -3.023  -1.786  0.00  0.00    -0.087 SA
ATOM      5  C   UNL d   1      -1.416  -3.429   0.219  0.00  0.00    -0.031 C 
ATOM      6  N   UNL d   1      -0.202   0.936   1.209  0.00  0.00    -0.295 N 
ATOM      7  HN  UNL d   1      -0.490   1.739   1.768  1.00  0.00     0.187 HD
ATOM      8  C   UNL d   1      -2.026  -4.158  -0.863  0.00  0.00    -0.012 C 
ATOM      9  C   UNL d   1      -1.164  -4.207  -1.954  0.00  0.00     0.016 C 
ATOM     10  C   UNL d   1       1.004  -0.477  -0.095  0.00  0.00     0.052 A 
ATOM     11  C   UNL d   1       0.926   0.779   0.523  0.00  0.00     0.111 A 
ATOM     12  C   UNL d   1      -1.708  -3.718   1.653  0.00  0.00     0.050 C 
ATOM     13  C   UNL d   1      -3.236  -4.884  -0.939  0.00  0.00     0.013 C 
ATOM     14  C   UNL d   1      -1.368  -5.106  -3.016  0.00  0.00     0.019 C 
ATOM     15  C   UNL d   1      -3.522  -5.662  -2.064  0.00  0.00     0.001 C 
ATOM     16  C   UNL d   1      -2.567  -5.821  -3.060  0.00  0.00     0.001 C 
ENDROOT
BRANCH   1  17
ATOM     17  S   UNL d   1      -2.449  -0.464   1.687  0.00  0.00     0.246 S 
ATOM     18  O   UNL d   1      -3.292  -1.014   0.637  0.00  0.00    -0.204 OA
ATOM     19  O   UNL d   1      -2.217  -1.155   2.941  0.00  0.00    -0.204 OA
ATOM     20  C   UNL d   1      -3.094   1.137   2.098  0.00  0.00     0.188 C 
ENDBRANCH   1  17
TORSDOF 1
