REMARK  7 active torsions:
REMARK  status: ('A' for Active; 'I' for Inactive)
REMARK    1  A    between atoms: N_6  and  S_1 
REMARK    2  A    between atoms: O_7  and  N_2 
REMARK    3  A    between atoms: C_4  and  C_10 
REMARK    4  A    between atoms: N_17  and  C_4 
REMARK    5  A    between atoms: C_5  and  O_7 
REMARK    6  A    between atoms: C_11  and  C_5 
REMARK    7  A    between atoms: C_18  and  N_6 
ROOT
ATOM      1  N   UNL d   1       1.037   7.538  -2.161  0.00  0.00    -0.246 N 
ATOM      2  HN  UNL d   1       1.310   8.515  -2.262  1.00  0.00     0.196 HD
ATOM      3  C   UNL d   1       1.849   6.598  -1.768  0.00  0.00     0.109 C 
ENDROOT
BRANCH   3   4
ATOM      4  C   UNL d   1       3.286   6.981  -1.483  0.00  0.00     0.004 A 
ATOM      5  C   UNL d   1       3.695   8.319  -1.607  0.00  0.00     0.016 A 
ATOM      6  C   UNL d   1       5.022   8.693  -1.348  0.00  0.00     0.025 A 
ATOM      7  C   UNL d   1       5.951   7.728  -0.967  0.00  0.00     0.022 A 
ATOM      8  C   UNL d   1       5.560   6.397  -0.843  0.00  0.00     0.025 A 
ATOM      9  C   UNL d   1       4.234   6.024  -1.094  0.00  0.00     0.016 A 
BRANCH   7  10
ATOM     10  N   UNL d   1       7.306   8.059  -0.676  0.00  0.00    -0.186 NA
ATOM     11  H   UNL d   1       7.429   8.800   0.017  0.00  0.00     0.145 HD
BRANCH  10  12
ATOM     12  S   UNL d   1       8.359   8.333  -1.969  0.00  0.00     0.210 S 
ATOM     13  O   UNL d   1       9.569   8.858  -1.378  0.00  0.00    -0.211 OA
ATOM     14  O   UNL d   1       7.666   9.055  -3.012  0.00  0.00    -0.211 OA
ATOM     15  C   UNL d   1       8.700   6.676  -2.532  0.00  0.00     0.180 C 
ENDBRANCH  10  12
ENDBRANCH   7  10
ENDBRANCH   3   4
BRANCH   3  16
ATOM     16  N   UNL d   1       1.448   5.290  -1.615  0.00  0.00    -0.286 NA
ATOM     17  H   UNL d   1       0.551   5.105  -2.047  0.00  0.00     0.125 HD
ATOM     18  H   UNL d   1       2.126   4.565  -1.805  0.00  0.00     0.125 HD
ENDBRANCH   3  16
BRANCH   1  19
ATOM     19  O   UNL d   1      -0.266   7.055  -2.432  0.00  0.00    -0.193 OA
BRANCH  19  20
ATOM     20  C   UNL d   1      -1.088   8.107  -2.738  0.00  0.00     0.315 C 
ATOM     21  O   UNL d   1      -0.811   9.301  -2.701  0.00  0.00    -0.257 OA
BRANCH  20  22
ATOM     22  C   UNL d   1      -2.441   7.632  -3.160  0.00  0.00     0.041 A 
ATOM     23  C   UNL d   1      -3.412   8.603  -3.462  0.00  0.00     0.019 A 
ATOM     24  C   UNL d   1      -4.692   8.230  -3.886  0.00  0.00     0.025 A 
ATOM     25  C   UNL d   1      -5.009   6.880  -4.014  0.00  0.00     0.034 A 
ATOM     26  C   UNL d   1      -4.058   5.904  -3.717  0.00  0.00     0.025 A 
ATOM     27 CL   UNL d   1      -6.578   6.415  -4.543  0.00  0.00    -0.084 Cl
ATOM     28  C   UNL d   1      -2.776   6.276  -3.289  0.00  0.00     0.019 A 
ENDBRANCH  20  22
ENDBRANCH  19  20
ENDBRANCH   1  19
TORSDOF 7
