REMARK  5 active torsions:
REMARK  status: ('A' for Active; 'I' for Inactive)
REMARK       I    between atoms: C_3  and  N_1 
REMARK    1  A    between atoms: C_9  and  C_3 
REMARK    2  A    between atoms: C_11  and  N_7 
REMARK    3  A    between atoms: C_14  and  C_9 
REMARK    4  A    between atoms: C_15  and  C_9 
REMARK    5  A    between atoms: O_19  and  C_16 
ROOT
ATOM      1  N   UNL d   1       0.969   0.212   0.416  0.00  0.00    -0.283 N 
ATOM      2  C   UNL d   1       0.732  -1.194   0.494  0.00  0.00     0.155 C 
ATOM      3  C   UNL d   1       2.277   0.750   0.431  0.00  0.00     0.235 C 
ATOM      4  S   UNL d   1      -0.951  -1.444   0.969  0.00  0.00    -0.057 SA
ATOM      5  C   UNL d   1      -0.248   0.903  -0.146  0.00  0.00     0.068 C 
ATOM      6  C   UNL d   1      -1.433  -0.044   0.099  0.00  0.00     0.005 C 
ATOM      7  N   UNL d   1       1.567  -2.140   0.194  0.00  0.00    -0.336 N 
ATOM      8  HN  UNL d   1       2.544  -1.898   0.027  1.00  0.00     0.168 HD
ATOM      9  O   UNL d   1       3.281   0.033   0.361  0.00  0.00    -0.272 OA
ATOM     10  C   UNL d   1      -2.708   0.113  -0.294  0.00  0.00     0.029 C 
ATOM     11  C   UNL d   1      -0.692   2.224   0.506  0.00  0.00     0.044 C 
ATOM     12  C   UNL d   1      -0.049   1.034  -1.673  0.00  0.00     0.044 C 
ENDROOT
BRANCH   3  13
ATOM     13  C   UNL d   1       2.482   2.295   0.659  0.00  0.00     0.115 C 
BRANCH  13  14
ATOM     14  C   UNL d   1       2.224   2.707   2.119  0.00  0.00    -0.045 A 
ATOM     15  C   UNL d   1       2.478   1.837   3.194  0.00  0.00     0.008 A 
ATOM     16  C   UNL d   1       2.354   2.275   4.515  0.00  0.00     0.001 A 
ATOM     17  C   UNL d   1       2.002   3.592   4.790  0.00  0.00     0.000 A 
ATOM     18  C   UNL d   1       1.755   4.474   3.746  0.00  0.00     0.001 A 
ATOM     19  C   UNL d   1       1.862   4.036   2.421  0.00  0.00     0.008 A 
ENDBRANCH  13  14
BRANCH  13  20
ATOM     20  C   UNL d   1       3.835   2.955   0.232  0.00  0.00     0.003 C 
ATOM     21  C   UNL d   1       4.083   2.972  -1.276  0.00  0.00     0.006 C 
ATOM     22  C   UNL d   1       5.594   2.952  -1.473  0.00  0.00     0.000 C 
ATOM     23  C   UNL d   1       6.235   2.724  -0.112  0.00  0.00     0.000 C 
ATOM     24  C   UNL d   1       5.116   2.430   0.878  0.00  0.00     0.006 C 
ENDBRANCH  13  20
ENDBRANCH   3  13
BRANCH   7  25
ATOM     25  C   UNL d   1       1.174  -3.495   0.088  0.00  0.00     0.036 A 
ATOM     26  C   UNL d   1       1.930  -4.503   0.713  0.00  0.00     0.066 A 
ATOM     27  C   UNL d   1       1.589  -5.854   0.590  0.00  0.00     0.070 A 
ATOM     28  C   UNL d   1       0.463  -6.222  -0.161  0.00  0.00     0.037 A 
ATOM     29  C   UNL d   1      -0.281  -5.251  -0.817  0.00  0.00     0.005 A 
ATOM     30  C   UNL d   1       0.102  -3.913  -0.728  0.00  0.00     0.029 A 
BRANCH  27  31
ATOM     31  O   UNL d   1       2.256  -6.926   1.119  0.00  0.00    -0.356 OA
ATOM     32  C   UNL d   1       3.521  -6.667   1.712  0.00  0.00     0.210 C 
ENDBRANCH  27  31
ENDBRANCH   7  25
TORSDOF 5
