REMARK  4 active torsions:
REMARK  status: ('A' for Active; 'I' for Inactive)
REMARK    1  A    between atoms: C_6  and  C_3 
REMARK    2  A    between atoms: C_4  and  C_9 
REMARK    3  A    between atoms: C_5  and  C_10 
REMARK    4  A    between atoms: O_23  and  C_12 
ROOT
ATOM      1  N   UNL d   1       2.222  -0.739   0.551  0.00  0.00    -0.297 N 
ATOM      2  HN  UNL d   1       2.992  -1.294   0.923  1.00  0.00     0.187 HD
ATOM      3  C   UNL d   1       1.164  -1.364  -0.035  0.00  0.00     0.069 A 
ATOM      4  N   UNL d   1       2.263   0.617   0.645  0.00  0.00    -0.279 N 
ATOM      5  HN  UNL d   1       3.041   1.082   1.113  1.00  0.00     0.189 HD
ATOM      6  C   UNL d   1       0.059  -0.626  -0.547  0.00  0.00     0.007 A 
ATOM      7  C   UNL d   1       1.262   1.333   0.110  0.00  0.00     0.166 A 
ATOM      8  C   UNL d   1       0.148   0.781  -0.512  0.00  0.00     0.029 A 
ATOM      9  C   UNL d   1      -1.139  -1.173  -1.087  0.00  0.00     0.015 A 
ATOM     10  C   UNL d   1      -0.869   1.574  -1.089  0.00  0.00     0.017 A 
ATOM     11  C   UNL d   1      -2.129  -0.382  -1.673  0.00  0.00     0.001 A 
ATOM     12  C   UNL d   1      -1.984   0.996  -1.686  0.00  0.00     0.001 A 
ENDROOT
BRANCH   3  13
ATOM     13  C   UNL d   1       1.311  -2.844  -0.101  0.00  0.00    -0.006 A 
ATOM     14  C   UNL d   1       1.953  -3.561   0.930  0.00  0.00     0.030 A 
ATOM     15  C   UNL d   1       2.056  -4.965   0.908  0.00  0.00     0.049 A 
ATOM     16  C   UNL d   1       1.460  -5.674  -0.146  0.00  0.00     0.032 A 
ATOM     17  C   UNL d   1       0.836  -4.995  -1.199  0.00  0.00     0.049 A 
ATOM     18  C   UNL d   1       0.839  -3.593  -1.193  0.00  0.00     0.030 A 
BRANCH  15  19
ATOM     19  C   UNL d   1       2.778  -5.720   2.001  0.00  0.00     0.417 C 
ATOM     20  F   UNL d   1       3.350  -4.916   2.939  0.00  0.00    -0.166 F 
ATOM     21  F   UNL d   1       1.949  -6.559   2.680  0.00  0.00    -0.166 F 
ATOM     22  F   UNL d   1       3.781  -6.501   1.513  0.00  0.00    -0.166 F 
ENDBRANCH  15  19
BRANCH  17  23
ATOM     23  C   UNL d   1       0.131  -5.756  -2.298  0.00  0.00     0.417 C 
ATOM     24  F   UNL d   1      -0.513  -4.947  -3.185  0.00  0.00    -0.166 F 
ATOM     25  F   UNL d   1       0.975  -6.528  -3.032  0.00  0.00    -0.166 F 
ATOM     26  F   UNL d   1      -0.823  -6.595  -1.807  0.00  0.00    -0.166 F 
ENDBRANCH  17  23
ENDBRANCH   3  13
BRANCH   7  27
ATOM     27  O   UNL d   1       1.407   2.682   0.246  0.00  0.00    -0.344 OA
ATOM     28  H   UNL d   1       2.240   2.735   0.746  0.00  0.00     0.219 HD
ENDBRANCH   7  27
TORSDOF 4
