REMARK  3 active torsions:
REMARK  status: ('A' for Active; 'I' for Inactive)
REMARK    1  A    between atoms: C_10  and  C_5 
REMARK    2  A    between atoms: N_12  and  C_8 
REMARK    3  A    between atoms: N_11  and  C_9 
ROOT
ATOM      1  N   UNL d   1      -1.166   1.015   0.117  0.00  0.00    -0.318 N 
ATOM      2  HN  UNL d   1      -2.046   1.524   0.197  1.00  0.00     0.170 HD
ATOM      3  N   UNL d   1       1.183   1.006  -0.119  0.00  0.00    -0.318 N 
ATOM      4  HN  UNL d   1       2.067   1.509  -0.194  1.00  0.00     0.170 HD
ATOM      5  C   UNL d   1       0.011   1.631   0.002  0.00  0.00     0.120 A 
ATOM      6  N   UNL d   1      -0.000  -1.018  -0.009  0.00  0.00    -0.309 N 
ATOM      7  HN  UNL d   1      -0.004  -2.038  -0.013  1.00  0.00     0.171 HD
ATOM      8  C   UNL d   1       1.111  -0.313  -0.134  0.00  0.00     0.158 A 
ATOM      9  C   UNL d   1      -1.106  -0.305   0.121  0.00  0.00     0.158 A 
ENDROOT
BRANCH   5  10
ATOM     10  C   UNL d   1       0.017   3.111   0.005  0.00  0.00     0.008 A 
ATOM     11  C   UNL d   1       1.212   3.844  -0.142  0.00  0.00     0.017 A 
ATOM     12  C   UNL d   1       1.219   5.244  -0.143  0.00  0.00     0.025 A 
ATOM     13  C   UNL d   1       0.025   5.941   0.005  0.00  0.00     0.034 A 
ATOM     14  C   UNL d   1      -1.173   5.252   0.154  0.00  0.00     0.025 A 
ATOM     15 CL   UNL d   1       0.030   7.661   0.003  0.00  0.00    -0.084 Cl
ATOM     16  C   UNL d   1      -1.174   3.851   0.154  0.00  0.00     0.017 A 
ENDBRANCH   5  10
BRANCH   8  17
ATOM     17  N   UNL d   1       2.297  -1.011  -0.258  0.00  0.00    -0.274 NA
ATOM     18  H   UNL d   1       2.202  -1.934   0.142  0.00  0.00     0.127 HD
ATOM     19  H   UNL d   1       3.072  -0.448   0.062  0.00  0.00     0.127 HD
ENDBRANCH   8  17
BRANCH   9  20
ATOM     20  N   UNL d   1      -2.298  -0.993   0.232  0.00  0.00    -0.274 NA
ATOM     21  H   UNL d   1      -2.207  -1.913  -0.176  0.00  0.00     0.127 HD
ATOM     22  H   UNL d   1      -3.065  -0.420  -0.091  0.00  0.00     0.127 HD
ENDBRANCH   9  20
TORSDOF 3
