REMARK  5 active torsions:
REMARK  status: ('A' for Active; 'I' for Inactive)
REMARK    1  A    between atoms: N_4  and  N_1 
REMARK       I    between atoms: C_3  and  N_4 
REMARK    2  A    between atoms: O_10  and  C_3 
REMARK    3  A    between atoms: C_6  and  C_5 
REMARK    4  A    between atoms: C_16  and  O_10 
REMARK    5  A    between atoms: O_14  and  C_11 
ROOT
ATOM      1  N   UNL d   1       1.030  -0.016   0.036  0.00  0.00    -0.300 N 
ATOM      2  HN  UNL d   1       0.581  -0.722   0.620  1.00  0.00     0.186 HD
ATOM      3  C   UNL d   1       2.329   0.019  -0.050  0.00  0.00     0.032 C 
ATOM      4  C   UNL d   1       3.122   1.015  -0.877  0.00  0.00     0.070 C 
ENDROOT
BRANCH   3   5
ATOM      5  C   UNL d   1       3.126  -1.015   0.710  0.00  0.00    -0.012 A 
ATOM      6  C   UNL d   1       2.472  -2.005   1.458  0.00  0.00     0.016 A 
ATOM      7  C   UNL d   1       3.204  -3.016   2.106  0.00  0.00     0.037 A 
ATOM      8  C   UNL d   1       4.593  -3.043   2.010  0.00  0.00     0.068 A 
ATOM      9  C   UNL d   1       5.247  -2.052   1.282  0.00  0.00     0.037 A 
ATOM     10  C   UNL d   1       4.525  -1.036   0.651  0.00  0.00     0.016 A 
BRANCH   8  11
ATOM     11  O   UNL d   1       5.416  -4.005   2.525  0.00  0.00    -0.356 OA
ATOM     12  C   UNL d   1       4.965  -4.644   3.712  0.00  0.00     0.210 C 
ENDBRANCH   8  11
ENDBRANCH   3   5
BRANCH   1  13
ATOM     13  N   UNL d   1       0.267   0.883  -0.646  0.00  0.00    -0.245 N 
ATOM     14  C   UNL d   1      -1.095   0.740  -0.726  0.00  0.00     0.379 C 
ATOM     15  O   UNL d   1      -1.779  -0.105  -0.160  0.00  0.00    -0.237 OA
ATOM     16  H   UNL d   1       0.668   1.561  -1.274  0.00  0.00     0.192 HD
BRANCH  14  17
ATOM     17  O   UNL d   1      -1.577   1.653  -1.616  0.00  0.00    -0.303 OA
BRANCH  17  18
ATOM     18  C   UNL d   1      -2.895   1.383  -2.115  0.00  0.00     0.176 C 
ATOM     19  C   UNL d   1      -2.754   0.505  -3.345  0.00  0.00     0.034 C 
ENDBRANCH  17  18
ENDBRANCH  14  17
ENDBRANCH   1  13
TORSDOF 5
