REMARK  5 active torsions:
REMARK  status: ('A' for Active; 'I' for Inactive)
REMARK    1  A    between atoms: C_8  and  N_1 
REMARK    2  A    between atoms: C_15  and  C_8 
REMARK    3  A    between atoms: O_19  and  C_15 
REMARK    4  A    between atoms: C_21  and  C_15 
REMARK    5  A    between atoms: O_20  and  C_21 
ROOT
ATOM      1  N   UNL d   1       0.160  -1.625  -0.131  0.00  0.00    -0.342 N 
ATOM      2  C   UNL d   1       1.277  -0.789  -0.128  0.00  0.00     0.064 A 
ATOM      3  C   UNL d   1       0.773   0.523  -0.041  0.00  0.00     0.006 A 
ATOM      4  C   UNL d   1      -0.649   0.465  -0.046  0.00  0.00     0.005 A 
ATOM      5  C   UNL d   1      -1.014  -0.877  -0.102  0.00  0.00     0.046 A 
ATOM      6  C   UNL d   1       2.681  -0.990  -0.178  0.00  0.00     0.040 A 
ATOM      7  C   UNL d   1       3.538   0.122  -0.111  0.00  0.00     0.040 A 
ATOM      8  C   UNL d   1      -2.368  -1.264  -0.107  0.00  0.00     0.032 A 
ATOM      9  C   UNL d   1       1.659   1.620   0.038  0.00  0.00     0.033 A 
ATOM     10  C   UNL d   1      -1.653   1.458   0.003  0.00  0.00     0.033 A 
ATOM     11  C   UNL d   1       3.031   1.404   0.009  0.00  0.00     0.013 A 
ATOM     12 BR   UNL d   1       3.541  -2.671  -0.343  0.00  0.00    -0.049 Br
ATOM     13  C   UNL d   1      -2.992   1.075  -0.005  0.00  0.00     0.011 A 
ATOM     14  C   UNL d   1      -3.349  -0.266  -0.058  0.00  0.00     0.021 A 
ATOM     15 BR   UNL d   1       4.209   2.879   0.135  0.00  0.00    -0.051 Br
ATOM     16 BR   UNL d   1      -4.335   2.406   0.057  0.00  0.00    -0.051 Br
ENDROOT
BRANCH   1  17
ATOM     17  C   UNL d   1       0.144  -3.086  -0.038  0.00  0.00     0.163 C 
BRANCH  17  18
ATOM     18  C   UNL d   1      -0.040  -3.791  -1.391  0.00  0.00     0.160 C 
BRANCH  18  19
ATOM     19  O   UNL d   1       1.152  -3.717  -2.180  0.00  0.00    -0.392 OA
ATOM     20  H   UNL d   1       1.826  -4.244  -1.706  0.00  0.00     0.210 HD
ENDBRANCH  18  19
BRANCH  18  21
ATOM     21  C   UNL d   1      -0.380  -5.279  -1.214  0.00  0.00     0.197 C 
BRANCH  21  22
ATOM     22  O   UNL d   1       0.634  -5.918  -0.439  0.00  0.00    -0.398 OA
ATOM     23  H   UNL d   1       0.444  -6.872  -0.455  0.00  0.00     0.209 HD
ENDBRANCH  21  22
ENDBRANCH  18  21
ENDBRANCH  17  18
ENDBRANCH   1  17
TORSDOF 5
