REMARK  7 active torsions:
REMARK  status: ('A' for Active; 'I' for Inactive)
REMARK    1  A    between atoms: S_9  and  C_1 
REMARK    2  A    between atoms: S_10  and  C_2 
REMARK    3  A    between atoms: S_17  and  C_8 
REMARK    4  A    between atoms: C_13  and  S_9 
REMARK    5  A    between atoms: C_14  and  S_10 
REMARK    6  A    between atoms: O_20  and  C_18 
REMARK    7  A    between atoms: O_21  and  C_19 
ROOT
ATOM      1  C   UNL d   1       0.146  -1.157  -0.027  0.00  0.00     0.100 A 
ATOM      2  C   UNL d   1       0.172   1.185   0.058  0.00  0.00     0.100 A 
ATOM      3  N   UNL d   1       1.493  -1.183  -0.026  0.00  0.00    -0.330 N 
ATOM      4  HN  UNL d   1       2.005  -2.065  -0.056  1.00  0.00     0.168 HD
ATOM      5  N   UNL d   1       1.522   1.176   0.046  0.00  0.00    -0.330 N 
ATOM      6  HN  UNL d   1       2.057   2.045   0.060  1.00  0.00     0.168 HD
ATOM      7  C   UNL d   1      -0.578   0.023   0.018  0.00  0.00     0.112 A 
ATOM      8  C   UNL d   1       2.133  -0.012   0.017  0.00  0.00     0.145 A 
ATOM      9  C   UNL d   1      -2.002   0.037  -0.001  0.00  0.00     0.105 C 
ATOM     10  N   UNL d   1      -3.164   0.052  -0.015  0.00  0.00    -0.191 NA
ENDROOT
BRANCH   2  11
ATOM     11  S   UNL d   1      -0.580   2.817   0.007  0.00  0.00    -0.071 SA
BRANCH  11  12
ATOM     12  C   UNL d   1      -0.095   3.540   1.569  0.00  0.00     0.009 A 
ATOM     13  C   UNL d   1       1.252   3.757   1.892  0.00  0.00     0.055 A 
ATOM     14  C   UNL d   1       1.607   4.320   3.120  0.00  0.00     0.069 A 
ATOM     15  C   UNL d   1       0.606   4.719   4.007  0.00  0.00     0.037 A 
ATOM     16  C   UNL d   1      -0.739   4.551   3.678  0.00  0.00     0.004 A 
ATOM     17  C   UNL d   1      -1.087   3.960   2.462  0.00  0.00     0.019 A 
BRANCH  14  18
ATOM     18  O   UNL d   1       2.883   4.532   3.567  0.00  0.00    -0.356 OA
ATOM     19  C   UNL d   1       3.939   4.035   2.754  0.00  0.00     0.210 C 
ENDBRANCH  14  18
ENDBRANCH  11  12
ENDBRANCH   2  11
BRANCH   1  20
ATOM     20  S   UNL d   1      -0.633  -2.767   0.014  0.00  0.00    -0.071 SA
BRANCH  20  21
ATOM     21  C   UNL d   1      -0.037  -3.622  -1.442  0.00  0.00     0.009 A 
ATOM     22  C   UNL d   1       0.160  -2.986  -2.675  0.00  0.00     0.055 A 
ATOM     23  C   UNL d   1       0.467  -3.732  -3.820  0.00  0.00     0.069 A 
ATOM     24  C   UNL d   1       0.608  -5.118  -3.725  0.00  0.00     0.037 A 
ATOM     25  C   UNL d   1       0.437  -5.761  -2.502  0.00  0.00     0.004 A 
ATOM     26  C   UNL d   1       0.109  -5.015  -1.368  0.00  0.00     0.019 A 
BRANCH  23  27
ATOM     27  O   UNL d   1       0.628  -3.233  -5.084  0.00  0.00    -0.356 OA
ATOM     28  C   UNL d   1       0.359  -1.850  -5.271  0.00  0.00     0.210 C 
ENDBRANCH  23  27
ENDBRANCH  20  21
ENDBRANCH   1  20
BRANCH   8  29
ATOM     29  S   UNL d   1       3.905   0.001   0.034  0.00  0.00    -0.098 SA
ATOM     30  C   UNL d   1       4.235  -1.780  -0.015  0.00  0.00     0.099 C 
ENDBRANCH   8  29
TORSDOF 7
