REMARK  2 active torsions:
REMARK  status: ('A' for Active; 'I' for Inactive)
REMARK    1  A    between atoms: C_6  and  C_1 
REMARK       I    between atoms: N_7  and  C_6 
REMARK    2  A    between atoms: C_8  and  N_7 
ROOT
ATOM      1  C   UNL d   1      -2.427  -0.102  -0.274  0.00  0.00     0.102 A 
ATOM      2  N   UNL d   1      -1.616   1.009  -0.147  0.00  0.00    -0.351 N 
ATOM      3  C   UNL d   1      -1.589  -1.196  -0.192  0.00  0.00     0.049 A 
ATOM      4  C   UNL d   1      -0.288   0.654  -0.103  0.00  0.00     0.044 A 
ATOM      5  C   UNL d   1      -0.241  -0.737  -0.112  0.00  0.00    -0.001 A 
ATOM      6  C   UNL d   1       1.012  -1.392  -0.069  0.00  0.00    -0.049 A 
ATOM      7  C   UNL d   1       0.860   1.453  -0.082  0.00  0.00     0.037 A 
ATOM      8  C   UNL d   1       2.168  -0.589  -0.071  0.00  0.00     0.014 A 
ATOM      9  C   UNL d   1       2.105   0.811  -0.090  0.00  0.00    -0.059 A 
ATOM     10  C   UNL d   1       1.171  -2.887  -0.067  0.00  0.00     0.049 C 
ATOM     11  C   UNL d   1       3.379   1.602  -0.163  0.00  0.00     0.048 C 
ATOM     12  H   UNL d   1      -1.971   1.957  -0.157  0.00  0.00     0.166 HD
ENDROOT
BRANCH   1  13
ATOM     13  C   UNL d   1      -3.859   0.036  -0.471  0.00  0.00     0.273 C 
ATOM     14  N   UNL d   1      -4.531  -1.168  -0.561  0.00  0.00    -0.308 N 
ATOM     15  H   UNL d   1      -4.006  -2.011  -0.419  0.00  0.00     0.170 HD
ATOM     16  O   UNL d   1      -4.354   1.153  -0.548  0.00  0.00    -0.266 OA
BRANCH  14  17
ATOM     17  C   UNL d   1      -5.902  -1.312  -0.803  0.00  0.00     0.108 A 
ATOM     18  N   UNL d   1      -6.671  -0.236  -1.023  0.00  0.00    -0.346 N 
ATOM     19  C   UNL d   1      -7.997  -0.405  -1.218  0.00  0.00     0.007 A 
ATOM     20  HN  UNL d   1      -6.261   0.698  -1.042  1.00  0.00     0.167 HD
ATOM     21  C   UNL d   1      -8.813   0.837  -1.409  0.00  0.00     0.068 C 
ATOM     22  C   UNL d   1      -8.598  -1.657  -1.210  0.00  0.00     0.025 A 
ATOM     23  C   UNL d   1      -7.797  -2.772  -1.000  0.00  0.00     0.006 A 
ATOM     24  C   UNL d   1      -6.429  -2.601  -0.797  0.00  0.00     0.049 A 
ENDBRANCH  14  17
ENDBRANCH   1  13
TORSDOF 2
