REMARK  4 active torsions:
REMARK  status: ('A' for Active; 'I' for Inactive)
REMARK    1  A    between atoms: C_8  and  C_1 
REMARK    2  A    between atoms: C_12  and  C_4 
REMARK       I    between atoms: C_7  and  N_10 
REMARK    3  A    between atoms: C_9  and  C_7 
REMARK    4  A    between atoms: N_10  and  C_8 
ROOT
ATOM      1  C   UNL d   1       0.005  -1.281   0.049  0.00  0.00     0.020 A 
ATOM      2  N   UNL d   1      -1.345   0.554   0.065  0.00  0.00    -0.260 N 
ATOM      3  HN  UNL d   1      -2.165   1.161   0.068  1.00  0.00     0.195 HD
ATOM      4  C   UNL d   1      -1.344  -0.790   0.072  0.00  0.00     0.075 A 
ATOM      5  O   UNL d   1      -0.031   0.953   0.054  0.00  0.00    -0.242 OA
ATOM      6  C   UNL d   1       0.775  -0.135   0.044  0.00  0.00     0.082 A 
ATOM      7  C   UNL d   1       2.227   0.129   0.012  0.00  0.00     0.079 C 
ENDROOT
BRANCH   1   8
ATOM      8  C   UNL d   1       0.493  -2.677  -0.026  0.00  0.00     0.166 C 
BRANCH   8   9
ATOM      9  N   UNL d   1       0.649  -3.217   1.301  0.00  0.00    -0.351 N 
ATOM     10  C   UNL d   1       0.987  -4.543   1.480  0.00  0.00     0.275 C 
ATOM     11  O   UNL d   1       1.218  -5.286   0.532  0.00  0.00    -0.265 OA
ATOM     12  H   UNL d   1       0.437  -2.664   2.124  0.00  0.00     0.163 HD
BRANCH  10  13
ATOM     13  C   UNL d   1       1.029  -4.974   2.862  0.00  0.00     0.142 A 
ATOM     14  O   UNL d   1       0.770  -4.076   3.865  0.00  0.00    -0.317 OA
ATOM     15  C   UNL d   1       0.889  -4.747   5.041  0.00  0.00     0.143 A 
ATOM     16  C   UNL d   1       1.212  -6.065   4.817  0.00  0.00     0.027 A 
ATOM     17  C   UNL d   1       1.298  -6.213   3.412  0.00  0.00     0.045 A 
ENDBRANCH  10  13
ENDBRANCH   8   9
ENDBRANCH   1   8
BRANCH   4  18
ATOM     18  C   UNL d   1      -2.611  -1.530   0.079  0.00  0.00    -0.007 A 
ATOM     19  C   UNL d   1      -3.739  -1.007  -0.572  0.00  0.00     0.014 A 
ATOM     20  C   UNL d   1      -4.950  -1.706  -0.580  0.00  0.00     0.001 A 
ATOM     21  C   UNL d   1      -5.049  -2.938   0.060  0.00  0.00     0.000 A 
ATOM     22  C   UNL d   1      -3.944  -3.465   0.722  0.00  0.00     0.001 A 
ATOM     23  C   UNL d   1      -2.738  -2.760   0.740  0.00  0.00     0.014 A 
ENDBRANCH   4  18
TORSDOF 4
