REMARK  3 active torsions:
REMARK  status: ('A' for Active; 'I' for Inactive)
REMARK    1  A    between atoms: C_8  and  C_2 
REMARK    2  A    between atoms: S_11  and  C_7 
REMARK    3  A    between atoms: C_9  and  C_10 
ROOT
ATOM      1  C   UNL d   1       3.008  -1.390   0.039  0.00  0.00     0.017 A 
ATOM      2  C   UNL d   1       5.300  -3.091   0.129  0.00  0.00    -0.051 A 
ATOM      3  C   UNL d   1       3.934  -1.292   1.083  0.00  0.00     0.016 A 
ATOM      4  C   UNL d   1       3.217  -2.372  -0.935  0.00  0.00     0.016 A 
ATOM      5  C   UNL d   1       5.057  -2.128   1.127  0.00  0.00     0.009 A 
ATOM      6  C   UNL d   1       4.341  -3.207  -0.891  0.00  0.00     0.009 A 
ENDROOT
BRANCH   1   7
ATOM      7  C   UNL d   1       1.870  -0.488  -0.070  0.00  0.00     0.175 A 
ATOM      8  O   UNL d   1       1.752   0.493   0.879  0.00  0.00    -0.268 OA
ATOM      9  C   UNL d   1       0.644   1.171   0.450  0.00  0.00     0.201 A 
ATOM     10  N   UNL d   1       0.126   0.656  -0.644  0.00  0.00    -0.272 N 
ATOM     11  N   UNL d   1       0.920  -0.422  -0.984  0.00  0.00    -0.277 N 
ATOM     12  HN  UNL d   1      -0.700   0.987  -1.142  1.00  0.00     0.189 HD
ATOM     13  HN  UNL d   1       0.797  -1.043  -1.783  1.00  0.00     0.189 HD
BRANCH   9  14
ATOM     14  S   UNL d   1       0.012   2.566   1.258  0.00  0.00    -0.098 SA
ATOM     15  H   UNL d   1      -0.960   2.815   0.372  0.00  0.00     0.110 HD
ENDBRANCH   9  14
ENDBRANCH   1   7
BRANCH   2  16
ATOM     16  C   UNL d   1       6.587  -3.934   0.162  0.00  0.00    -0.024 C 
ATOM     17  C   UNL d   1       6.714  -4.915  -1.025  0.00  0.00     0.019 C 
ATOM     18  C   UNL d   1       7.814  -2.996   0.110  0.00  0.00     0.019 C 
ATOM     19  C   UNL d   1       6.648  -4.770   1.458  0.00  0.00     0.019 C 
ENDBRANCH   2  16
TORSDOF 3
