REMARK  5 active torsions:
REMARK  status: ('A' for Active; 'I' for Inactive)
REMARK       I    between atoms: N_2  and  C_1 
REMARK    1  A    between atoms: C_7  and  C_1 
REMARK    2  A    between atoms: N_6  and  N_2 
REMARK    3  A    between atoms: C_3  and  C_8 
REMARK    4  A    between atoms: O_9  and  C_3 
REMARK    5  A    between atoms: C_8  and  C_7 
ROOT
ATOM      1  C   UNL d   1       1.139  -0.114   0.061  0.00  0.00     0.232 C 
ATOM      2  N   UNL d   1       0.476  -0.099   1.282  0.00  0.00    -0.290 N 
ATOM      3  O   UNL d   1       0.611  -0.024  -1.042  0.00  0.00    -0.272 OA
ATOM      4  H   UNL d   1       1.014  -0.036   2.152  0.00  0.00     0.183 HD
ENDROOT
BRANCH   1   5
ATOM      5  C   UNL d   1       2.644  -0.273   0.192  0.00  0.00     0.114 C 
BRANCH   5   6
ATOM      6  C   UNL d   1       3.342   1.024   0.581  0.00  0.00     0.119 C 
BRANCH   6   7
ATOM      7  C   UNL d   1       3.186   1.345   2.046  0.00  0.00     0.139 C 
ATOM      8  O   UNL d   1       2.529   0.686   2.838  0.00  0.00    -0.650 OA
BRANCH   7   9
ATOM      9  O   UNL d   1       3.849   2.464   2.411  0.00  0.00    -0.776 OA
ATOM     10  H   UNL d   1       4.323   2.905   1.680  0.00  0.00     0.167 HD
ENDBRANCH   7   9
ENDBRANCH   6   7
ENDBRANCH   5   6
ENDBRANCH   1   5
BRANCH   2  11
ATOM     11  N   UNL d   1      -0.922   0.068   1.318  0.00  0.00    -0.237 NA
ATOM     12  C   UNL d   1      -1.591  -1.229   1.443  0.00  0.00     0.135 C 
ATOM     13  C   UNL d   1      -1.327   0.962   2.403  0.00  0.00     0.135 C 
ENDBRANCH   2  11
TORSDOF 5
