REMARK  3 active torsions:
REMARK  status: ('A' for Active; 'I' for Inactive)
REMARK    1  A    between atoms: C_2  and  C_1 
REMARK    2  A    between atoms: N_11  and  C_1 
REMARK    3  A    between atoms: O_12  and  N_6 
ROOT
ATOM      1  C   UNL d   1       0.210  -0.576  -1.109  0.00  0.00     0.004 A 
ATOM      2  C   UNL d   1      -0.894   0.154  -1.569  0.00  0.00     0.024 A 
ATOM      3  C   UNL d   1      -1.604  -0.336  -2.653  0.00  0.00    -0.022 A 
ATOM      4  C   UNL d   1      -1.200  -1.489  -3.307  0.00  0.00     0.075 A 
ATOM      5  O   UNL d   1      -2.005  -1.829  -4.363  0.00  0.00    -0.350 OA
ATOM      6  C   UNL d   1       0.618  -1.742  -1.797  0.00  0.00     0.017 A 
ATOM      7  C   UNL d   1      -0.086  -2.199  -2.916  0.00  0.00     0.038 A 
ATOM      8  C   UNL d   1      -3.180  -1.006  -4.166  0.00  0.00     0.180 C 
ATOM      9  C   UNL d   1      -2.795   0.219  -3.333  0.00  0.00     0.068 C 
ENDROOT
BRANCH   1  10
ATOM     10  C   UNL d   1       1.014  -0.126   0.076  0.00  0.00     0.108 C 
ATOM     11  N   UNL d   1       0.555   0.446   1.160  0.00  0.00    -0.258 N 
ATOM     12  HN  UNL d   1       1.160   0.787   1.908  1.00  0.00     0.195 HD
BRANCH  11  13
ATOM     13  O   UNL d   1      -0.836   0.548   1.202  0.00  0.00    -0.289 OA
ATOM     14  H   UNL d   1      -0.986   0.955   2.074  0.00  0.00     0.244 HD
ENDBRANCH  11  13
BRANCH  10  15
ATOM     15  N   UNL d   1       2.373  -0.325   0.043  0.00  0.00    -0.287 NA
ATOM     16  H   UNL d   1       2.813  -0.224  -0.865  0.00  0.00     0.125 HD
ATOM     17  H   UNL d   1       2.846   0.197   0.773  0.00  0.00     0.125 HD
ENDBRANCH  10  15
ENDBRANCH   1  10
TORSDOF 3
