REMARK  5 active torsions:
REMARK  status: ('A' for Active; 'I' for Inactive)
REMARK    1  A    between atoms: C_2  and  S_1 
REMARK    2  A    between atoms: N_3  and  S_1 
REMARK    3  A    between atoms: C_13  and  N_3 
REMARK    4  A    between atoms: O_15  and  C_8 
REMARK    5  A    between atoms: O_20  and  C_10 
ROOT
ATOM      1  N   UNL d   1       3.053  -0.098   7.509  0.00  0.00    -0.191 NA
ATOM      2  C   UNL d   1       2.987  -0.132   6.353  0.00  0.00     0.099 C 
ATOM      3  C   UNL d   1       2.688  -0.223   2.128  0.00  0.00     0.042 A 
ATOM      4  C   UNL d   1       2.900  -0.167   4.920  0.00  0.00     0.044 A 
ATOM      5  C   UNL d   1       2.505  -1.393   2.863  0.00  0.00     0.031 A 
ATOM      6  C   UNL d   1       2.997   0.971   2.779  0.00  0.00     0.031 A 
ATOM      7  C   UNL d   1       2.617  -1.368   4.257  0.00  0.00     0.025 A 
ATOM      8  C   UNL d   1       3.090   1.002   4.175  0.00  0.00     0.025 A 
ENDROOT
BRANCH   3   9
ATOM      9  N   UNL d   1       2.579  -0.256   0.719  0.00  0.00    -0.281 N 
ATOM     10  H   UNL d   1       3.404  -0.136   0.137  0.00  0.00     0.179 HD
BRANCH   9  11
ATOM     11  S   UNL d   1       1.100  -0.019  -0.042  0.00  0.00     0.263 S 
ATOM     12  O   UNL d   1       1.386   0.079  -1.457  0.00  0.00    -0.200 OA
ATOM     13  O   UNL d   1       0.152  -0.987   0.469  0.00  0.00    -0.200 OA
BRANCH  11  14
ATOM     14  C   UNL d   1       0.593   1.592   0.516  0.00  0.00     0.082 A 
ATOM     15  C   UNL d   1      -0.244   1.696   1.634  0.00  0.00     0.065 A 
ATOM     16  C   UNL d   1      -0.622   2.951   2.132  0.00  0.00     0.102 A 
ATOM     17  C   UNL d   1      -0.185   4.109   1.459  0.00  0.00     0.101 A 
ATOM     18  C   UNL d   1       0.620   3.982   0.313  0.00  0.00     0.041 A 
ATOM     19  C   UNL d   1       1.013   2.732  -0.164  0.00  0.00     0.028 A 
BRANCH  16  20
ATOM     20  O   UNL d   1      -1.389   3.100   3.255  0.00  0.00    -0.353 OA
ATOM     21  C   UNL d   1      -1.810   1.934   3.951  0.00  0.00     0.210 C 
ENDBRANCH  16  20
BRANCH  17  22
ATOM     22  O   UNL d   1      -0.438   5.422   1.762  0.00  0.00    -0.353 OA
ATOM     23  C   UNL d   1      -1.218   5.732   2.907  0.00  0.00     0.210 C 
ENDBRANCH  17  22
ENDBRANCH  11  14
ENDBRANCH   9  11
ENDBRANCH   3   9
TORSDOF 5
