REMARK  7 active torsions:
REMARK  status: ('A' for Active; 'I' for Inactive)
REMARK    1  A    between atoms: C_2  and  S_1 
REMARK    2  A    between atoms: N_5  and  S_1 
REMARK    3  A    between atoms: N_4  and  C_3 
REMARK    4  A    between atoms: C_9  and  N_5 
REMARK    5  A    between atoms: C_13  and  N_5 
REMARK    6  A    between atoms: C_16  and  C_9 
REMARK    7  A    between atoms: N_12  and  C_11 
ROOT
ATOM      1  N   UNL d   1       0.527  -1.325   0.775  0.00  0.00    -0.198 NA
ENDROOT
BRANCH   1   2
ATOM      2  S   UNL d   1       1.354  -0.249  -0.283  0.00  0.00     0.246 S 
ATOM      3  O   UNL d   1       2.663  -0.802  -0.579  0.00  0.00    -0.206 OA
ATOM      4  O   UNL d   1       0.447   0.092  -1.355  0.00  0.00    -0.206 OA
BRANCH   2   5
ATOM      5  C   UNL d   1       1.736   1.221   0.619  0.00  0.00     0.107 A 
ATOM      6  C   UNL d   1       2.577   1.204   1.732  0.00  0.00     0.125 A 
ATOM      7  C   UNL d   1       2.948   2.391   2.384  0.00  0.00     0.038 A 
ATOM      8  C   UNL d   1       2.458   3.610   1.917  0.00  0.00     0.003 A 
ATOM      9  C   UNL d   1       1.613   3.641   0.805  0.00  0.00     0.002 A 
ATOM     10  C   UNL d   1       1.270   2.456   0.142  0.00  0.00     0.027 A 
BRANCH   6  11
ATOM     11  N   UNL d   1       3.009  -0.033   2.342  0.00  0.00    -0.114 N 
ATOM     12  O   UNL d   1       2.182  -0.629   3.038  0.00  0.00    -0.532 OA
ATOM     13  O   UNL d   1       4.208  -0.329   2.228  0.00  0.00    -0.532 OA
ENDBRANCH   6  11
ENDBRANCH   2   5
ENDBRANCH   1   2
BRANCH   1  14
ATOM     14  C   UNL d   1      -0.969  -1.227   0.875  0.00  0.00     0.146 C 
BRANCH  14  15
ATOM     15  C   UNL d   1      -1.701   0.008   1.359  0.00  0.00    -0.044 C 
ATOM     16  C   UNL d   1      -1.130   1.129   1.937  0.00  0.00     0.011 C 
ATOM     17  C   UNL d   1      -1.876   2.300   2.173  0.00  0.00     0.030 C 
ATOM     18  C   UNL d   1      -3.259   2.354   1.981  0.00  0.00     0.029 C 
ATOM     19  C   UNL d   1      -3.856   1.144   1.609  0.00  0.00     0.030 C 
ATOM     20  C   UNL d   1      -3.101   0.006   1.285  0.00  0.00     0.011 C 
BRANCH  18  21
ATOM     21  N   UNL d   1      -3.996   3.512   2.150  0.00  0.00    -0.390 N 
ATOM     22  C   UNL d   1      -3.559   4.616   2.994  0.00  0.00     0.149 C 
ATOM     23  C   UNL d   1      -5.269   3.709   1.463  0.00  0.00     0.149 C 
ENDBRANCH  18  21
ENDBRANCH  14  15
ENDBRANCH   1  14
BRANCH   1  24
ATOM     24  C   UNL d   1       1.032  -2.770   0.639  0.00  0.00     0.066 C 
ATOM     25  C   UNL d   1       0.371  -3.744   1.617  0.00  0.00     0.027 C 
ATOM     26  C   UNL d   1       0.895  -3.335  -0.781  0.00  0.00     0.027 C 
ENDBRANCH   1  24
TORSDOF 7
