REMARK  4 active torsions:
REMARK  status: ('A' for Active; 'I' for Inactive)
REMARK    1  A    between atoms: S_13  and  C_5 
REMARK    2  A    between atoms: C_9  and  C_7 
REMARK    3  A    between atoms: O_16  and  C_8 
REMARK    4  A    between atoms: O_17  and  C_12 
ROOT
ATOM      1  N   UNL d   1       2.134   4.264   1.391  0.00  0.00    -0.302 N 
ATOM      2  N   UNL d   1       2.159   2.315   0.274  0.00  0.00    -0.332 N 
ATOM      3  HN  UNL d   1       2.509   1.472  -0.181  1.00  0.00     0.168 HD
ATOM      4  C   UNL d   1       0.847   2.723   0.426  0.00  0.00     0.103 A 
ATOM      5  C   UNL d   1       2.838   3.255   0.847  0.00  0.00     0.147 A 
ATOM      6  C   UNL d   1       0.815   4.016   1.186  0.00  0.00     0.274 A 
ATOM      7  C   UNL d   1      -0.196   2.043  -0.061  0.00  0.00     0.046 C 
ATOM      8  O   UNL d   1      -0.129   4.682   1.552  0.00  0.00    -0.266 OA
ATOM      9  H   UNL d   1       2.501   5.062   1.876  0.00  0.00     0.171 HD
ENDROOT
BRANCH   7  10
ATOM     10  C   UNL d   1      -1.598   2.437   0.043  0.00  0.00    -0.031 A 
ATOM     11  C   UNL d   1      -2.362   2.028   1.143  0.00  0.00     0.051 A 
ATOM     12  C   UNL d   1      -3.734   2.317   1.222  0.00  0.00     0.102 A 
ATOM     13  C   UNL d   1      -4.327   3.073   0.194  0.00  0.00     0.101 A 
ATOM     14  C   UNL d   1      -3.550   3.490  -0.897  0.00  0.00     0.040 A 
ATOM     15  C   UNL d   1      -2.195   3.176  -0.976  0.00  0.00     0.014 A 
BRANCH  12  16
ATOM     16  O   UNL d   1      -4.537   1.854   2.231  0.00  0.00    -0.353 OA
ATOM     17  C   UNL d   1      -3.941   1.049   3.241  0.00  0.00     0.210 C 
ENDBRANCH  12  16
BRANCH  13  18
ATOM     18  O   UNL d   1      -5.647   3.424   0.070  0.00  0.00    -0.353 OA
ATOM     19  C   UNL d   1      -6.373   3.646   1.271  0.00  0.00     0.210 C 
ENDBRANCH  13  18
ENDBRANCH   7  10
BRANCH   5  20
ATOM     20  S   UNL d   1       4.548   3.355   0.985  0.00  0.00    -0.098 SA
ATOM     21  C   UNL d   1       5.033   1.839   0.130  0.00  0.00     0.099 C 
ENDBRANCH   5  20
TORSDOF 4
