REMARK  5 active torsions:
REMARK  status: ('A' for Active; 'I' for Inactive)
REMARK    1  A    between atoms: C_2  and  S_1 
REMARK    2  A    between atoms: N_3  and  S_1 
REMARK    3  A    between atoms: C_8  and  N_3 
REMARK    4  A    between atoms: O_12  and  C_7 
REMARK    5  A    between atoms: O_13  and  C_10 
ROOT
ATOM      1  C   UNL d   1       0.250  -1.669   0.025  0.00  0.00     0.115 A 
ATOM      2  C   UNL d   1       1.131  -2.684  -0.398  0.00  0.00     0.065 A 
ATOM      3  C   UNL d   1      -0.998  -1.991   0.584  0.00  0.00     0.091 A 
ATOM      4  C   UNL d   1      -1.349  -3.344   0.687  0.00  0.00     0.041 A 
ATOM      5  C   UNL d   1       0.772  -4.025  -0.275  0.00  0.00     0.069 A 
ATOM      6  C   UNL d   1      -0.469  -4.345   0.269  0.00  0.00     0.039 A 
ENDROOT
BRANCH   1   7
ATOM      7  S   UNL d   1       0.833   0.009  -0.059  0.00  0.00     0.262 S 
ATOM      8  O   UNL d   1       2.182  -0.011  -0.587  0.00  0.00    -0.200 OA
ATOM      9  O   UNL d   1       0.581   0.632   1.226  0.00  0.00    -0.200 OA
BRANCH   7  10
ATOM     10  N   UNL d   1      -0.136   0.801  -1.163  0.00  0.00    -0.306 N 
ATOM     11  H   UNL d   1      -0.774   1.458  -0.717  0.00  0.00     0.173 HD
BRANCH  10  12
ATOM     12  C   UNL d   1      -0.289   0.526  -2.602  0.00  0.00     0.029 C 
ATOM     13  C   UNL d   1      -1.232  -0.662  -2.806  0.00  0.00     0.038 C 
ATOM     14  C   UNL d   1      -0.943   1.776  -3.223  0.00  0.00     0.038 C 
ATOM     15  C   UNL d   1       1.044   0.286  -3.312  0.00  0.00     0.038 C 
ENDBRANCH  10  12
ENDBRANCH   7  10
ENDBRANCH   1   7
BRANCH   3  16
ATOM     16  O   UNL d   1      -1.831  -0.973   0.956  0.00  0.00    -0.354 OA
ATOM     17  C   UNL d   1      -2.885  -1.312   1.856  0.00  0.00     0.210 C 
ENDBRANCH   3  16
BRANCH   5  18
ATOM     18  O   UNL d   1       1.533  -5.099  -0.639  0.00  0.00    -0.356 OA
ATOM     19  C   UNL d   1       2.819  -4.822  -1.181  0.00  0.00     0.210 C 
ENDBRANCH   5  18
TORSDOF 5
