REMARK  0 active torsions:
REMARK  status: ('A' for Active; 'I' for Inactive)
ROOT
ATOM      1  N   UNL d   1       1.474  -0.688  -0.001  0.00  0.00    -0.145 N 
ATOM      2  C   UNL d   1       1.518   0.686   0.000  0.00  0.00     0.685 A 
ATOM      3  C   UNL d   1       0.331  -1.450   0.002  0.00  0.00     0.274 A 
ATOM      4  C   UNL d   1      -0.941  -0.683   0.003  0.00  0.00     0.062 A 
ATOM      5  N   UNL d   1       0.342   1.398   0.003  0.00  0.00    -0.186 N 
ATOM      6  C   UNL d   1      -0.899   0.729   0.003  0.00  0.00     0.067 A 
ATOM      7  N   UNL d   1       2.718   1.185  -0.003  0.00  0.00    -0.224 N 
ATOM      8  HN  UNL d   1       2.967   2.174  -0.002  1.00  0.00     0.177 HD
ATOM      9  C   UNL d   1      -2.155  -1.387   0.002  0.00  0.00     0.043 A 
ATOM     10  C   UNL d   1      -2.133   1.404   0.002  0.00  0.00     0.033 A 
ATOM     11  O   UNL d   1       0.327  -2.677   0.002  0.00  0.00    -0.266 OA
ATOM     12  C   UNL d   1       2.800  -1.216  -0.008  0.00  0.00     0.171 A 
ATOM     13  C   UNL d   1      -3.352  -0.684   0.002  0.00  0.00     0.035 A 
ATOM     14  C   UNL d   1       3.654   0.035  -0.008  0.00  0.00     0.159 A 
ATOM     15  C   UNL d   1       0.365   2.856  -0.001  0.00  0.00     0.175 C 
ATOM     16  C   UNL d   1      -3.347   0.707   0.001  0.00  0.00     0.026 A 
ATOM     17 CL   UNL d   1      -4.849  -1.529   0.001  0.00  0.00    -0.084 Cl
ENDROOT
TORSDOF 0
