REMARK  4 active torsions:
REMARK  status: ('A' for Active; 'I' for Inactive)
REMARK    1  A    between atoms: C_2  and  C_1 
REMARK       I    between atoms: N_3  and  C_1 
REMARK    2  A    between atoms: C_5  and  N_3 
REMARK    3  A    between atoms: C_4  and  C_6 
REMARK    4  A    between atoms: C_9  and  C_5 
ROOT
ATOM      1  C   UNL d   1       0.975  -0.126  -0.078  0.00  0.00     0.259 C 
ATOM      2  N   UNL d   1       0.043   0.392  -0.959  0.00  0.00    -0.307 N 
ATOM      3  O   UNL d   1       2.181   0.086  -0.110  0.00  0.00    -0.267 OA
ATOM      4  H   UNL d   1      -0.919   0.065  -0.917  0.00  0.00     0.170 HD
ENDROOT
BRANCH   1   5
ATOM      5  C   UNL d   1       0.432  -0.991   0.978  0.00  0.00     0.062 A 
ATOM      6  C   UNL d   1       0.907  -2.282   1.240  0.00  0.00     0.066 A 
ATOM      7  C   UNL d   1       0.397  -2.954   2.366  0.00  0.00     0.034 A 
ATOM      8  C   UNL d   1      -0.569  -2.338   3.145  0.00  0.00     0.088 A 
ATOM      9  N   UNL d   1      -1.060  -1.109   2.884  0.00  0.00    -0.374 N 
ATOM     10  C   UNL d   1      -0.539  -0.458   1.819  0.00  0.00     0.105 A 
ATOM     11  HN  UNL d   1      -1.790  -0.691   3.461  1.00  0.00     0.164 HD
BRANCH   6  12
ATOM     12  C   UNL d   1       1.924  -2.983   0.384  0.00  0.00     0.418 C 
ATOM     13  F   UNL d   1       2.049  -2.495  -0.878  0.00  0.00    -0.166 F 
ATOM     14  F   UNL d   1       3.164  -2.991   0.936  0.00  0.00    -0.166 F 
ATOM     15  F   UNL d   1       1.595  -4.300   0.214  0.00  0.00    -0.166 F 
ENDBRANCH   6  12
ENDBRANCH   1   5
BRANCH   2  16
ATOM     16  C   UNL d   1       0.255   1.325  -1.955  0.00  0.00     0.129 C 
ATOM     17  N   UNL d   1       1.394   1.899  -2.150  0.00  0.00    -0.384 N 
ATOM     18  H   UNL d   1       2.072   1.518  -1.467  0.00  0.00     0.157 HD
ATOM     19  HN  UNL d   1       1.592   2.608  -2.856  1.00  0.00     0.157 HD
BRANCH  16  20
ATOM     20  C   UNL d   1      -0.956   1.605  -2.782  0.00  0.00     0.076 A 
ATOM     21  N   UNL d   1      -2.068   0.901  -2.419  0.00  0.00    -0.363 N 
ATOM     22  C   UNL d   1      -3.158   1.074  -3.199  0.00  0.00     0.088 A 
ATOM     23  HN  UNL d   1      -2.076   0.283  -1.608  1.00  0.00     0.165 HD
ATOM     24  C   UNL d   1      -3.191   1.905  -4.309  0.00  0.00     0.017 A 
ATOM     25  C   UNL d   1      -2.043   2.621  -4.639  0.00  0.00     0.004 A 
ATOM     26  C   UNL d   1      -0.899   2.475  -3.861  0.00  0.00     0.033 A 
ENDBRANCH  16  20
ENDBRANCH   2  16
TORSDOF 4
