REMARK  5 active torsions:
REMARK  status: ('A' for Active; 'I' for Inactive)
REMARK    1  A    between atoms: S_12  and  C_2 
REMARK    2  A    between atoms: N_13  and  C_3 
REMARK    3  A    between atoms: C_14  and  C_8 
REMARK    4  A    between atoms: S_11  and  C_14 
REMARK    5  A    between atoms: C_15  and  S_11 
ROOT
ATOM      1  C   UNL d   1      -0.487  -0.148  -0.004  0.00  0.00     0.116 A 
ATOM      2  C   UNL d   1       0.264  -0.178  -1.165  0.00  0.00     0.095 A 
ATOM      3  C   UNL d   1       0.234  -0.122   1.181  0.00  0.00     0.103 A 
ATOM      4  N   UNL d   1       1.613  -0.171  -1.155  0.00  0.00    -0.339 N 
ATOM      5  HN  UNL d   1       2.147  -0.188  -2.023  1.00  0.00     0.168 HD
ATOM      6  N   UNL d   1       1.577  -0.114   1.215  0.00  0.00    -0.335 N 
ATOM      7  HN  UNL d   1       2.084  -0.088   2.100  1.00  0.00     0.168 HD
ATOM      8  C   UNL d   1       2.230  -0.142   0.039  0.00  0.00     0.093 A 
ATOM      9  C   UNL d   1      -1.914  -0.155   0.005  0.00  0.00     0.105 C 
ATOM     10  N   UNL d   1      -3.073  -0.188   0.054  0.00  0.00    -0.191 NA
ENDROOT
BRANCH   2  11
ATOM     11  S   UNL d   1      -0.495  -0.210  -2.792  0.00  0.00    -0.115 SA
ATOM     12  C   UNL d   1       0.977  -0.229  -3.855  0.00  0.00     0.097 C 
ENDBRANCH   2  11
BRANCH   3  13
ATOM     13  N   UNL d   1      -0.379   0.006   2.428  0.00  0.00    -0.287 NA
ATOM     14  H   UNL d   1      -1.168  -0.613   2.587  0.00  0.00     0.125 HD
ATOM     15  H   UNL d   1       0.328  -0.071   3.155  0.00  0.00     0.125 HD
ENDBRANCH   3  13
BRANCH   8  16
ATOM     16  C   UNL d   1       3.744  -0.100   0.038  0.00  0.00     0.156 C 
BRANCH  16  17
ATOM     17  S   UNL d   1       4.469  -1.777  -0.018  0.00  0.00    -0.122 SA
BRANCH  17  18
ATOM     18  C   UNL d   1       6.229  -1.459   0.049  0.00  0.00     0.001 A 
ATOM     19  C   UNL d   1       7.029  -2.425   0.672  0.00  0.00     0.019 A 
ATOM     20  C   UNL d   1       8.420  -2.288   0.720  0.00  0.00     0.008 A 
ATOM     21  C   UNL d   1       9.044  -1.183   0.136  0.00  0.00    -0.062 A 
ATOM     22  C   UNL d   1       8.251  -0.219  -0.493  0.00  0.00     0.008 A 
ATOM     23  C   UNL d   1      10.539  -1.060   0.180  0.00  0.00     0.048 C 
ATOM     24  C   UNL d   1       6.856  -0.357  -0.541  0.00  0.00     0.019 A 
ENDBRANCH  17  18
ENDBRANCH  16  17
ENDBRANCH   8  16
TORSDOF 5
