REMARK  3 active torsions:
REMARK  status: ('A' for Active; 'I' for Inactive)
REMARK    1  A    between atoms: C_2  and  C_1 
REMARK    2  A    between atoms: N_7  and  C_4 
REMARK       I    between atoms: C_12  and  N_7 
REMARK    3  A    between atoms: C_16  and  C_12 
ROOT
ATOM      1  C   UNL d   1       3.867   0.077  -0.044  0.00  0.00     0.041 A 
ATOM      2  C   UNL d   1       6.203  -0.181  -0.609  0.00  0.00     0.152 A 
ATOM      3  S   UNL d   1       4.744  -0.597  -1.371  0.00  0.00    -0.051 SA
ATOM      4  N   UNL d   1       6.115   0.449   0.529  0.00  0.00    -0.345 N 
ATOM      5  HN  UNL d   1       6.903   0.764   1.096  1.00  0.00     0.167 HD
ATOM      6  C   UNL d   1       4.781   0.621   0.843  0.00  0.00     0.110 A 
ENDROOT
BRANCH   1   7
ATOM      7  C   UNL d   1       2.424   0.032   0.031  0.00  0.00     0.031 A 
ATOM      8  S   UNL d   1       1.502   0.124  -1.415  0.00  0.00    -0.088 SA
ATOM      9  C   UNL d   1       0.013  -0.052  -0.604  0.00  0.00     0.016 A 
ATOM     10  C   UNL d   1      -1.261  -0.109  -1.201  0.00  0.00     0.021 A 
ATOM     11  C   UNL d   1       0.194  -0.134   0.775  0.00  0.00    -0.010 A 
ATOM     12  C   UNL d   1      -2.383  -0.243  -0.384  0.00  0.00     0.025 A 
ATOM     13  C   UNL d   1      -2.235  -0.315   0.993  0.00  0.00     0.035 A 
ATOM     14  C   UNL d   1      -0.968  -0.263   1.581  0.00  0.00     0.037 A 
ATOM     15 CL   UNL d   1      -3.628  -0.472   1.991  0.00  0.00    -0.084 Cl
ATOM     16  C   UNL d   1       1.602  -0.082   1.148  0.00  0.00    -0.032 A 
ATOM     17  C   UNL d   1       2.032  -0.189   2.582  0.00  0.00     0.050 C 
ENDBRANCH   1   7
BRANCH   2  18
ATOM     18  N   UNL d   1       7.301  -0.575  -1.312  0.00  0.00    -0.303 N 
ATOM     19  C   UNL d   1       8.556  -0.599  -0.758  0.00  0.00     0.257 C 
ATOM     20  O   UNL d   1       8.861  -0.328   0.399  0.00  0.00    -0.267 OA
ATOM     21  H   UNL d   1       7.123  -1.001  -2.208  0.00  0.00     0.171 HD
BRANCH  19  22
ATOM     22  C   UNL d   1       9.613  -1.100  -1.675  0.00  0.00     0.032 A 
ATOM     23  C   UNL d   1       9.575  -0.851  -3.054  0.00  0.00     0.017 A 
ATOM     24  C   UNL d   1      10.571  -1.370  -3.881  0.00  0.00     0.001 A 
ATOM     25  C   UNL d   1      11.610  -2.126  -3.333  0.00  0.00     0.000 A 
ATOM     26  C   UNL d   1      11.659  -2.360  -1.960  0.00  0.00     0.001 A 
ATOM     27  C   UNL d   1      10.664  -1.845  -1.128  0.00  0.00     0.017 A 
ENDBRANCH  19  22
ENDBRANCH   2  18
TORSDOF 3
