REMARK  1 active torsions:
REMARK  status: ('A' for Active; 'I' for Inactive)
REMARK    1  A    between atoms: O_15  and  N_4 
ROOT
ATOM      1  C   UNL d   1      -0.064   0.203  -0.039  0.00  0.00     0.032 A 
ATOM      2  C   UNL d   1       0.084   1.581   0.032  0.00  0.00     0.076 A 
ATOM      3  C   UNL d   1       1.166  -0.454  -0.030  0.00  0.00    -0.018 A 
ATOM      4  N   UNL d   1       1.450   1.769   0.114  0.00  0.00    -0.226 N 
ATOM      5  C   UNL d   1      -1.383  -0.324  -0.084  0.00  0.00     0.098 A 
ATOM      6  C   UNL d   1       2.105   0.561   0.081  0.00  0.00     0.048 A 
ATOM      7  C   UNL d   1      -1.004   2.482   0.043  0.00  0.00     0.035 A 
ATOM      8  C   UNL d   1      -2.462   0.589  -0.063  0.00  0.00     0.086 A 
ATOM      9  N   UNL d   1      -1.747  -1.590  -0.122  0.00  0.00    -0.239 N 
ATOM     10  HN  UNL d   1      -1.161  -2.425  -0.141  1.00  0.00     0.197 HD
ATOM     11  O   UNL d   1      -3.147  -1.494  -0.131  0.00  0.00    -0.156 OA
ATOM     12  N   UNL d   1      -3.577  -0.164  -0.101  0.00  0.00    -0.240 N 
ATOM     13  HN  UNL d   1      -4.541   0.169  -0.107  1.00  0.00     0.197 HD
ATOM     14  C   UNL d   1      -2.328   1.989  -0.012  0.00  0.00     0.036 A 
ATOM     15  C   UNL d   1       1.532  -1.897  -0.065  0.00  0.00     0.042 C 
ATOM     16  C   UNL d   1       3.581   0.368   0.134  0.00  0.00     0.060 C 
ATOM     17  C   UNL d   1       3.028  -2.075  -0.386  0.00  0.00     0.005 C 
ATOM     18  C   UNL d   1       3.913  -1.106   0.422  0.00  0.00     0.006 C 
ENDROOT
BRANCH   4  19
ATOM     19  O   UNL d   1       2.042   3.011   0.379  0.00  0.00    -0.278 OA
ATOM     20  C   UNL d   1       2.821   3.429  -0.735  0.00  0.00     0.238 C 
ENDBRANCH   4  19
TORSDOF 1
