REMARK  3 active torsions:
REMARK  status: ('A' for Active; 'I' for Inactive)
REMARK    1  A    between atoms: C_2  and  C_1 
REMARK       I    between atoms: N_3  and  C_1 
REMARK    2  A    between atoms: C_4  and  N_3 
REMARK    3  A    between atoms: O_9  and  C_6 
ROOT
ATOM      1  C   UNL d   1       0.899   0.026   0.012  0.00  0.00     0.259 C 
ATOM      2  N   UNL d   1       0.198  -0.598  -1.004  0.00  0.00    -0.322 N 
ATOM      3  O   UNL d   1       0.421   0.644   0.960  0.00  0.00    -0.267 OA
ATOM      4  H   UNL d   1       0.686  -1.338  -1.488  0.00  0.00     0.169 HD
ENDROOT
BRANCH   2   5
ATOM      5  C   UNL d   1      -1.216  -0.598  -1.093  0.00  0.00     0.046 A 
ATOM      6  C   UNL d   1      -1.907  -1.780  -1.489  0.00  0.00     0.001 A 
ATOM      7  C   UNL d   1      -3.326  -1.746  -1.523  0.00  0.00    -0.024 A 
ATOM      8  C   UNL d   1      -1.278  -3.014  -1.794  0.00  0.00     0.014 A 
ATOM      9  C   UNL d   1      -4.050  -2.909  -1.833  0.00  0.00     0.012 A 
ATOM     10  C   UNL d   1      -4.008  -0.559  -1.224  0.00  0.00     0.012 A 
ATOM     11  C   UNL d   1      -3.401  -4.109  -2.113  0.00  0.00     0.001 A 
ATOM     12  C   UNL d   1      -2.015  -4.160  -2.101  0.00  0.00     0.001 A 
ATOM     13  C   UNL d   1      -3.316   0.595  -0.869  0.00  0.00     0.003 A 
ATOM     14  C   UNL d   1      -1.927   0.571  -0.792  0.00  0.00     0.030 A 
ENDBRANCH   2   5
BRANCH   1  15
ATOM     15  C   UNL d   1       2.360  -0.221   0.014  0.00  0.00     0.065 A 
ATOM     16  C   UNL d   1       3.018  -0.462   1.228  0.00  0.00     0.081 A 
ATOM     17  C   UNL d   1       4.384  -0.731   1.246  0.00  0.00     0.037 A 
ATOM     18  C   UNL d   1       5.106  -0.733   0.052  0.00  0.00     0.003 A 
ATOM     19  C   UNL d   1       4.463  -0.469  -1.159  0.00  0.00     0.001 A 
ATOM     20  C   UNL d   1       3.090  -0.215  -1.182  0.00  0.00     0.020 A 
BRANCH  16  21
ATOM     21  O   UNL d   1       2.375  -0.463   2.437  0.00  0.00    -0.360 OA
ATOM     22  H   UNL d   1       1.488  -0.059   2.307  0.00  0.00     0.217 HD
ENDBRANCH  16  21
ENDBRANCH   1  15
TORSDOF 3
