REMARK  7 active torsions:
REMARK  status: ('A' for Active; 'I' for Inactive)
REMARK       I    between atoms: N_2  and  C_1 
REMARK       I    between atoms: N_11  and  C_1 
REMARK    1  A    between atoms: C_6  and  N_2 
REMARK    2  A    between atoms: C_3  and  C_14 
REMARK    3  A    between atoms: C_18  and  N_11 
REMARK    4  A    between atoms: O_15  and  C_12 
REMARK    5  A    between atoms: S_13  and  C_20 
REMARK    6  A    between atoms: C_14  and  S_13 
REMARK    7  A    between atoms: C_20  and  C_18 
ROOT
ATOM      1  C   UNL d   1       1.112   0.127   0.054  0.00  0.00     0.320 C 
ATOM      2  N   UNL d   1       0.395  -0.044  -1.108  0.00  0.00    -0.309 N 
ATOM      3  O   UNL d   1       0.666   0.298   1.180  0.00  0.00    -0.247 OA
ATOM      4  N   UNL d   1       2.471   0.123  -0.186  0.00  0.00    -0.342 N 
ATOM      5  H   UNL d   1       0.935  -0.115  -1.957  0.00  0.00     0.170 HD
ATOM      6  H   UNL d   1       2.799  -0.453  -0.951  0.00  0.00     0.164 HD
ENDROOT
BRANCH   2   7
ATOM      7  C   UNL d   1      -1.011  -0.106  -1.242  0.00  0.00     0.039 A 
ATOM      8  C   UNL d   1      -1.892   0.040  -0.166  0.00  0.00     0.066 A 
ATOM      9  C   UNL d   1      -3.271  -0.109  -0.336  0.00  0.00     0.070 A 
ATOM     10  C   UNL d   1      -3.780  -0.367  -1.608  0.00  0.00     0.037 A 
ATOM     11  C   UNL d   1      -2.918  -0.477  -2.699  0.00  0.00     0.005 A 
ATOM     12  C   UNL d   1      -1.539  -0.349  -2.516  0.00  0.00     0.030 A 
BRANCH   9  13
ATOM     13  O   UNL d   1      -4.207  -0.033   0.661  0.00  0.00    -0.356 OA
ATOM     14  C   UNL d   1      -3.709   0.133   1.985  0.00  0.00     0.210 C 
ENDBRANCH   9  13
ENDBRANCH   2   7
BRANCH   4  15
ATOM     15  C   UNL d   1       3.420   0.310   0.904  0.00  0.00     0.134 C 
BRANCH  15  16
ATOM     16  C   UNL d   1       3.829  -0.995   1.597  0.00  0.00     0.094 C 
BRANCH  16  17
ATOM     17  S   UNL d   1       4.632  -2.104   0.390  0.00  0.00    -0.161 SA
BRANCH  17  18
ATOM     18  C   UNL d   1       5.269  -3.384   1.526  0.00  0.00     0.139 C 
BRANCH  18  19
ATOM     19  C   UNL d   1       6.000  -4.401   0.728  0.00  0.00     0.061 A 
ATOM     20  O   UNL d   1       7.349  -4.229   0.600  0.00  0.00    -0.326 OA
ATOM     21  C   UNL d   1       7.794  -5.203  -0.235  0.00  0.00     0.142 A 
ATOM     22  C   UNL d   1       6.756  -6.013  -0.629  0.00  0.00     0.027 A 
ATOM     23  C   UNL d   1       5.597  -5.507   0.007  0.00  0.00     0.035 A 
ENDBRANCH  18  19
ENDBRANCH  17  18
ENDBRANCH  16  17
ENDBRANCH  15  16
ENDBRANCH   4  15
TORSDOF 7
