REMARK  3 active torsions:
REMARK  status: ('A' for Active; 'I' for Inactive)
REMARK    1  A    between atoms: C_2  and  N_1 
REMARK    2  A    between atoms: N_4  and  C_5 
REMARK       I    between atoms: C_7  and  N_4 
REMARK    3  A    between atoms: O_13  and  C_6 
ROOT
ATOM      1  C   UNL d   1       0.331   1.292  -0.233  0.00  0.00     0.105 A 
ATOM      2  C   UNL d   1       0.800   2.140  -1.245  0.00  0.00     0.075 A 
ATOM      3  C   UNL d   1      -1.003   3.708  -0.727  0.00  0.00     0.068 A 
ATOM      4  C   UNL d   1       0.125   3.339  -1.482  0.00  0.00     0.094 A 
ATOM      5  C   UNL d   1      -0.792   1.639   0.526  0.00  0.00     0.038 A 
ATOM      6  C   UNL d   1      -1.452   2.846   0.275  0.00  0.00     0.035 A 
ENDROOT
BRANCH   3   7
ATOM      7  N   UNL d   1      -1.618   4.943  -1.032  0.00  0.00    -0.325 N 
ATOM      8  C   UNL d   1      -2.743   5.485  -0.445  0.00  0.00     0.218 C 
ATOM      9  O   UNL d   1      -3.419   4.975   0.444  0.00  0.00    -0.274 OA
ATOM     10  C   UNL d   1      -3.134   6.830  -1.002  0.00  0.00     0.117 C 
ATOM     11  H   UNL d   1      -1.160   5.455  -1.780  0.00  0.00     0.169 HD
ENDBRANCH   3   7
BRANCH   4  12
ATOM     12  O   UNL d   1       0.554   4.189  -2.472  0.00  0.00    -0.358 OA
ATOM     13  H   UNL d   1       1.307   3.783  -2.935  0.00  0.00     0.217 HD
ENDBRANCH   4  12
BRANCH   1  14
ATOM     14  N   UNL d   1       1.020   0.023   0.036  0.00  0.00    -0.116 N 
ATOM     15  O   UNL d   1       2.004  -0.252  -0.665  0.00  0.00    -0.532 OA
ATOM     16  O   UNL d   1       0.580  -0.694   0.944  0.00  0.00    -0.532 OA
ENDBRANCH   1  14
TORSDOF 3
