REMARK  2 active torsions:
REMARK  status: ('A' for Active; 'I' for Inactive)
REMARK    1  A    between atoms: C_6  and  C_1 
REMARK    2  A    between atoms: O_9  and  N_7 
ROOT
ATOM      1  C   UNL d   1       2.165   0.203   0.004  0.00  0.00     0.029 A 
ATOM      2  S   UNL d   1       1.399  -1.327  -0.002  0.00  0.00    -0.088 SA
ATOM      3  C   UNL d   1       1.244   1.242   0.019  0.00  0.00    -0.032 A 
ATOM      4  C   UNL d   1      -0.122   0.746   0.007  0.00  0.00    -0.012 A 
ATOM      5  C   UNL d   1      -0.175  -0.648   0.005  0.00  0.00     0.016 A 
ATOM      6  C   UNL d   1       1.544   2.710   0.047  0.00  0.00     0.050 C 
ATOM      7  C   UNL d   1      -1.354   1.452   0.001  0.00  0.00     0.013 A 
ATOM      8  C   UNL d   1      -1.400  -1.343   0.006  0.00  0.00     0.019 A 
ATOM      9  C   UNL d   1      -2.573   0.769  -0.002  0.00  0.00     0.001 A 
ATOM     10  C   UNL d   1      -2.594  -0.618   0.004  0.00  0.00     0.001 A 
ENDROOT
BRANCH   1  11
ATOM     11  C   UNL d   1       3.613   0.204  -0.005  0.00  0.00     0.133 C 
ATOM     12  N   UNL d   1       4.304   1.301  -0.008  0.00  0.00    -0.279 N 
ATOM     13  HN  UNL d   1       3.913   2.243  -0.003  1.00  0.00     0.193 HD
BRANCH  12  14
ATOM     14  O   UNL d   1       5.670   0.995  -0.019  0.00  0.00    -0.290 OA
ATOM     15  H   UNL d   1       6.081   1.880  -0.020  0.00  0.00     0.244 HD
ENDBRANCH  12  14
ENDBRANCH   1  11
TORSDOF 2
