REMARK  6 active torsions:
REMARK  status: ('A' for Active; 'I' for Inactive)
REMARK    1  A    between atoms: C_7  and  C_1 
REMARK    2  A    between atoms: C_14  and  C_4 
REMARK    3  A    between atoms: C_5  and  C_10 
REMARK       I    between atoms: N_11  and  C_7 
REMARK    4  A    between atoms: S_12  and  C_9 
REMARK    5  A    between atoms: C_10  and  N_11 
REMARK    6  A    between atoms: C_16  and  S_12 
ROOT
ATOM      1  C   UNL d   1      -0.324  -1.892  -1.595  0.00  0.00     0.256 C 
ATOM      2  N   UNL d   1      -0.884  -3.151  -1.548  0.00  0.00    -0.352 N 
ATOM      3  O   UNL d   1      -0.816  -0.933  -1.011  0.00  0.00    -0.267 OA
ATOM      4  H   UNL d   1      -0.262  -3.919  -1.756  0.00  0.00     0.163 HD
ENDROOT
BRANCH   2   5
ATOM      5  C   UNL d   1      -2.049  -3.465  -0.735  0.00  0.00     0.164 C 
BRANCH   5   6
ATOM      6  C   UNL d   1      -2.513  -4.895  -0.950  0.00  0.00    -0.002 A 
ATOM      7  C   UNL d   1      -3.852  -5.217  -1.274  0.00  0.00     0.015 A 
ATOM      8  C   UNL d   1      -4.212  -6.554  -1.538  0.00  0.00     0.019 A 
ATOM      9  C   UNL d   1      -3.279  -7.583  -1.457  0.00  0.00     0.003 A 
ATOM     10  C   UNL d   1      -1.982  -7.294  -1.059  0.00  0.00     0.024 A 
ATOM     11  C   UNL d   1      -1.608  -5.973  -0.796  0.00  0.00     0.043 A 
ATOM     12 CL   UNL d   1       0.018  -5.741  -0.238  0.00  0.00    -0.084 Cl
BRANCH   7  13
ATOM     13  S   UNL d   1      -5.214  -4.055  -1.174  0.00  0.00    -0.090 SA
BRANCH  13  14
ATOM     14  C   UNL d   1      -5.299  -3.352  -2.807  0.00  0.00     0.005 A 
ATOM     15  C   UNL d   1      -5.412  -4.132  -3.963  0.00  0.00     0.020 A 
ATOM     16  C   UNL d   1      -5.533  -3.524  -5.217  0.00  0.00     0.025 A 
ATOM     17  C   UNL d   1      -5.552  -2.134  -5.316  0.00  0.00     0.034 A 
ATOM     18  C   UNL d   1      -5.461  -1.347  -4.171  0.00  0.00     0.025 A 
ATOM     19 CL   UNL d   1      -5.698  -1.386  -6.857  0.00  0.00    -0.084 Cl
ATOM     20  C   UNL d   1      -5.340  -1.957  -2.920  0.00  0.00     0.020 A 
ENDBRANCH  13  14
ENDBRANCH   7  13
ENDBRANCH   5   6
ENDBRANCH   2   5
BRANCH   1  21
ATOM     21  C   UNL d   1       0.905  -1.805  -2.368  0.00  0.00     0.092 A 
ATOM     22  C   UNL d   1       2.028  -0.914  -2.227  0.00  0.00     0.083 A 
ATOM     23  N   UNL d   1       2.931  -1.153  -3.192  0.00  0.00    -0.259 N 
ATOM     24  O   UNL d   1       2.442  -2.175  -3.954  0.00  0.00    -0.241 OA
ATOM     25  HN  UNL d   1       3.815  -0.663  -3.331  1.00  0.00     0.195 HD
ATOM     26  C   UNL d   1       1.237  -2.569  -3.479  0.00  0.00     0.090 A 
ATOM     27  C   UNL d   1       0.613  -3.659  -4.254  0.00  0.00     0.080 C 
BRANCH  22  28
ATOM     28  C   UNL d   1       2.342   0.112  -1.223  0.00  0.00    -0.006 A 
ATOM     29  C   UNL d   1       3.103   1.236  -1.598  0.00  0.00     0.014 A 
ATOM     30  C   UNL d   1       3.524   2.171  -0.650  0.00  0.00     0.001 A 
ATOM     31  C   UNL d   1       3.190   2.000   0.689  0.00  0.00     0.000 A 
ATOM     32  C   UNL d   1       2.426   0.899   1.076  0.00  0.00     0.001 A 
ATOM     33  C   UNL d   1       2.005  -0.041   0.127  0.00  0.00     0.014 A 
ENDBRANCH  22  28
ENDBRANCH   1  21
TORSDOF 6
