REMARK  4 active torsions:
REMARK  status: ('A' for Active; 'I' for Inactive)
REMARK    1  A    between atoms: C_5  and  N_1 
REMARK    2  A    between atoms: S_2  and  C_8 
REMARK    3  A    between atoms: N_6  and  S_2 
REMARK    4  A    between atoms: C_9  and  N_6 
ROOT
ATOM      1  C   UNL d   1       2.945  -1.524   0.017  0.00  0.00     0.067 A 
ATOM      2  C   UNL d   1       5.164  -3.241   0.216  0.00  0.00     0.076 A 
ATOM      3  C   UNL d   1       3.207  -2.476  -0.985  0.00  0.00     0.062 A 
ATOM      4  C   UNL d   1       4.316  -3.324  -0.892  0.00  0.00     0.051 A 
ATOM      5  C   UNL d   1       3.838  -1.415   1.096  0.00  0.00     0.033 A 
ATOM      6  C   UNL d   1       4.930  -2.286   1.210  0.00  0.00     0.027 A 
ATOM      7 CL   UNL d   1       2.246  -2.579  -2.421  0.00  0.00    -0.082 Cl
ENDROOT
BRANCH   2   8
ATOM      8  S   UNL d   1       6.400  -4.507   0.458  0.00  0.00     0.246 S 
ATOM      9  O   UNL d   1       6.692  -4.543   1.876  0.00  0.00    -0.206 OA
ATOM     10  O   UNL d   1       5.970  -5.686  -0.249  0.00  0.00    -0.206 OA
BRANCH   8  11
ATOM     11  N   UNL d   1       7.788  -3.875  -0.277  0.00  0.00    -0.180 NA
ATOM     12  H   UNL d   1       8.585  -4.039   0.343  0.00  0.00     0.146 HD
BRANCH  11  13
ATOM     13  C   UNL d   1       8.017  -4.178  -1.660  0.00  0.00     0.044 A 
ATOM     14  C   UNL d   1       8.734  -5.313  -2.081  0.00  0.00     0.057 A 
ATOM     15  C   UNL d   1       8.989  -5.527  -3.439  0.00  0.00     0.049 A 
ATOM     16 CL   UNL d   1       9.317  -6.483  -0.951  0.00  0.00    -0.082 Cl
ATOM     17  C   UNL d   1       8.459  -4.649  -4.381  0.00  0.00     0.035 A 
ATOM     18  C   UNL d   1       7.696  -3.554  -3.977  0.00  0.00     0.026 A 
ATOM     19 CL   UNL d   1       8.729  -4.925  -6.058  0.00  0.00    -0.084 Cl
ATOM     20  C   UNL d   1       7.487  -3.311  -2.617  0.00  0.00     0.028 A 
ENDBRANCH  11  13
ENDBRANCH   8  11
ENDBRANCH   2   8
BRANCH   1  21
ATOM     21  N   UNL d   1       1.803  -0.690  -0.024  0.00  0.00    -0.250 N 
ATOM     22  C   UNL d   1       1.866   0.678   0.007  0.00  0.00     0.232 C 
ATOM     23  C   UNL d   1       0.472   1.232  -0.106  0.00  0.00     0.123 C 
ATOM     24  O   UNL d   1       2.866   1.378   0.063  0.00  0.00    -0.273 OA
ATOM     25  C   UNL d   1      -0.439   0.010   0.028  0.00  0.00     0.050 C 
ATOM     26  C   UNL d   1       0.515  -1.171   0.032  0.00  0.00     0.240 C 
ATOM     27  C   UNL d   1      -1.480  -0.114  -1.087  0.00  0.00     0.020 C 
ATOM     28  C   UNL d   1      -1.308   0.066   1.289  0.00  0.00     0.020 C 
ATOM     29  O   UNL d   1       0.166  -2.337   0.155  0.00  0.00    -0.272 OA
ATOM     30  C   UNL d   1      -2.657   0.744  -0.636  0.00  0.00     0.001 C 
ATOM     31  C   UNL d   1      -2.553   0.853   0.882  0.00  0.00     0.001 C 
ENDBRANCH   1  21
TORSDOF 4
