REMARK  5 active torsions:
REMARK  status: ('A' for Active; 'I' for Inactive)
REMARK       I    between atoms: C_2  and  N_1 
REMARK    1  A    between atoms: C_8  and  C_2 
REMARK    2  A    between atoms: C_5  and  C_3 
REMARK    3  A    between atoms: C_6  and  C_5 
REMARK       I    between atoms: N_9  and  C_6 
REMARK    4  A    between atoms: C_16  and  N_9 
REMARK    5  A    between atoms: O_27  and  C_19 
ROOT
ATOM      1  N   UNL d   1      -1.466  -1.175   0.316  0.00  0.00    -0.333 N 
ATOM      2  C   UNL d   1      -2.282  -2.090   0.985  0.00  0.00     0.254 C 
ATOM      3  C   UNL d   1       0.029  -1.222   0.404  0.00  0.00     0.188 C 
ATOM      4  C   UNL d   1       0.576   0.045   1.132  0.00  0.00     0.241 C 
ATOM      5  N   UNL d   1      -0.079   1.228   0.913  0.00  0.00    -0.358 N 
ATOM      6  O   UNL d   1      -1.841  -2.998   1.693  0.00  0.00    -0.267 OA
ATOM      7  O   UNL d   1       1.647   0.081   1.734  0.00  0.00    -0.271 OA
ATOM      8  C   UNL d   1      -1.946   0.100  -0.254  0.00  0.00     0.147 C 
ATOM      9  C   UNL d   1      -1.481   1.286   0.588  0.00  0.00     0.142 C 
ATOM     10  H   UNL d   1       0.336   2.007   1.415  0.00  0.00     0.162 HD
ENDROOT
BRANCH   3  11
ATOM     11  C   UNL d   1       0.748  -2.460   0.958  0.00  0.00     0.138 C 
BRANCH  11  12
ATOM     12  C   UNL d   1       0.755  -3.619  -0.011  0.00  0.00     0.224 C 
ATOM     13  N   UNL d   1      -0.133  -4.628   0.312  0.00  0.00    -0.327 N 
ATOM     14  H   UNL d   1      -0.878  -4.370   0.962  0.00  0.00     0.169 HD
ATOM     15  O   UNL d   1       1.498  -3.598  -0.990  0.00  0.00    -0.273 OA
BRANCH  13  16
ATOM     16  C   UNL d   1      -0.251  -5.861  -0.363  0.00  0.00     0.034 A 
ATOM     17  C   UNL d   1       0.786  -6.402  -1.128  0.00  0.00     0.032 A 
ATOM     18  C   UNL d   1       0.597  -7.577  -1.861  0.00  0.00     0.039 A 
ATOM     19  C   UNL d   1      -0.638  -8.218  -1.843  0.00  0.00     0.068 A 
ATOM     20  C   UNL d   1      -1.644  -7.741  -1.002  0.00  0.00     0.039 A 
ATOM     21  C   UNL d   1      -1.450  -6.570  -0.257  0.00  0.00     0.032 A 
BRANCH  19  22
ATOM     22  O   UNL d   1      -0.935  -9.331  -2.584  0.00  0.00    -0.356 OA
ATOM     23  C   UNL d   1      -0.370  -9.319  -3.896  0.00  0.00     0.210 C 
ENDBRANCH  19  22
ENDBRANCH  13  16
ENDBRANCH  11  12
ENDBRANCH   3  11
BRANCH   2  24
ATOM     24  C   UNL d   1      -3.767  -2.049   0.854  0.00  0.00     0.032 A 
ATOM     25  C   UNL d   1      -4.406  -1.768  -0.361  0.00  0.00     0.020 A 
ATOM     26  C   UNL d   1      -5.800  -1.684  -0.421  0.00  0.00     0.043 A 
ATOM     27  C   UNL d   1      -6.554  -1.978   0.708  0.00  0.00     0.116 A 
ATOM     28  C   UNL d   1      -5.942  -2.359   1.895  0.00  0.00     0.043 A 
ATOM     29  F   UNL d   1      -7.889  -1.908   0.643  0.00  0.00    -0.206 F 
ATOM     30  C   UNL d   1      -4.547  -2.389   1.973  0.00  0.00     0.020 A 
ENDBRANCH   2  24
TORSDOF 5
