REMARK  3 active torsions:
REMARK  status: ('A' for Active; 'I' for Inactive)
REMARK    1  A    between atoms: C_4  and  C_1 
REMARK       I    between atoms: N_7  and  C_4 
REMARK    2  A    between atoms: C_9  and  C_16 
REMARK    3  A    between atoms: C_11  and  C_9 
ROOT
ATOM      1  C   UNL d   1      -3.960   0.032  -0.575  0.00  0.00     0.270 C 
ATOM      2  N   UNL d   1      -4.654  -1.117  -0.944  0.00  0.00    -0.347 N 
ATOM      3  O   UNL d   1      -3.901   1.008  -1.323  0.00  0.00    -0.266 OA
ATOM      4  C   UNL d   1      -4.973  -1.319  -2.353  0.00  0.00     0.127 C 
ATOM      5  C   UNL d   1      -5.027  -2.202  -0.042  0.00  0.00     0.127 C 
ATOM      6  C   UNL d   1      -6.900  -2.810  -1.673  0.00  0.00     0.064 C 
ATOM      7  C   UNL d   1      -6.451  -1.640  -2.551  0.00  0.00     0.032 C 
ATOM      8  C   UNL d   1      -6.491  -2.588  -0.215  0.00  0.00     0.032 C 
ENDROOT
BRANCH   1   9
ATOM      9  C   UNL d   1      -3.296   0.078   0.712  0.00  0.00     0.102 A 
ATOM     10  N   UNL d   1      -3.124   1.265   1.388  0.00  0.00    -0.351 N 
ATOM     11  C   UNL d   1      -2.269   1.107   2.452  0.00  0.00     0.044 A 
ATOM     12  H   UNL d   1      -3.494   2.148   1.065  0.00  0.00     0.166 HD
ATOM     13  C   UNL d   1      -1.733   2.067   3.315  0.00  0.00     0.037 A 
ATOM     14  C   UNL d   1      -1.940  -0.245   2.521  0.00  0.00    -0.001 A 
ATOM     15  C   UNL d   1      -0.793   1.638   4.259  0.00  0.00    -0.059 A 
ATOM     16  C   UNL d   1      -0.089   2.630   5.139  0.00  0.00     0.048 C 
ATOM     17  C   UNL d   1      -0.462   0.279   4.354  0.00  0.00     0.014 A 
ATOM     18  C   UNL d   1      -1.033  -0.692   3.507  0.00  0.00    -0.049 A 
ATOM     19  C   UNL d   1      -0.588  -2.121   3.647  0.00  0.00     0.049 C 
ATOM     20  C   UNL d   1      -2.619  -0.882   1.443  0.00  0.00     0.049 A 
ENDBRANCH   1   9
BRANCH   6  21
ATOM     21  C   UNL d   1      -6.381  -4.131  -2.238  0.00  0.00     0.163 C 
ATOM     22  O   UNL d   1      -5.297  -4.608  -1.892  0.00  0.00    -0.292 OA
BRANCH  21  23
ATOM     23  C   UNL d   1      -7.204  -4.876  -3.245  0.00  0.00     0.010 A 
ATOM     24  C   UNL d   1      -8.429  -4.388  -3.724  0.00  0.00     0.018 A 
ATOM     25  C   UNL d   1      -9.217  -5.170  -4.570  0.00  0.00     0.043 A 
ATOM     26  C   UNL d   1      -8.771  -6.426  -4.959  0.00  0.00     0.116 A 
ATOM     27  C   UNL d   1      -7.535  -6.904  -4.543  0.00  0.00     0.043 A 
ATOM     28  F   UNL d   1      -9.548  -7.186  -5.741  0.00  0.00    -0.206 F 
ATOM     29  C   UNL d   1      -6.748  -6.129  -3.688  0.00  0.00     0.018 A 
ENDBRANCH  21  23
ENDBRANCH   6  21
TORSDOF 3
