REMARK  2 active torsions:
REMARK  status: ('A' for Active; 'I' for Inactive)
REMARK       I    between atoms: C_7  and  N_12 
REMARK       I    between atoms: N_14  and  C_7 
REMARK    1  A    between atoms: N_12  and  C_10 
REMARK    2  A    between atoms: C_16  and  N_14 
ROOT
ATOM      1  C   UNL d   1      -4.721  -0.482  -0.191  0.00  0.00     0.325 C 
ATOM      2  N   UNL d   1      -3.526  -1.174  -0.098  0.00  0.00    -0.309 N 
ATOM      3  N   UNL d   1      -4.550   0.880  -0.009  0.00  0.00    -0.309 N 
ATOM      4  O   UNL d   1      -5.807  -1.005  -0.415  0.00  0.00    -0.247 OA
ATOM      5  H   UNL d   1      -2.698  -0.628   0.088  0.00  0.00     0.170 HD
ATOM      6  H   UNL d   1      -3.636   1.255  -0.207  0.00  0.00     0.170 HD
ENDROOT
BRANCH   2   7
ATOM      7  C   UNL d   1      -3.349  -2.572  -0.272  0.00  0.00     0.038 A 
ATOM      8  C   UNL d   1      -4.438  -3.453  -0.443  0.00  0.00     0.063 A 
ATOM      9  C   UNL d   1      -4.100  -4.795  -0.697  0.00  0.00     0.087 A 
ATOM     10  C   UNL d   1      -2.724  -5.254  -0.745  0.00  0.00     0.085 A 
ATOM     11  N   UNL d   1      -4.902  -5.840  -0.929  0.00  0.00    -0.239 N 
ATOM     12  N   UNL d   1      -2.725  -6.564  -1.022  0.00  0.00    -0.240 N 
ATOM     13  C   UNL d   1      -1.639  -4.388  -0.527  0.00  0.00     0.036 A 
ATOM     14  O   UNL d   1      -4.059  -6.919  -1.140  0.00  0.00    -0.156 OA
ATOM     15  HN  UNL d   1      -1.914  -7.173  -1.125  1.00  0.00     0.197 HD
ATOM     16  C   UNL d   1      -2.001  -3.043  -0.288  0.00  0.00     0.032 A 
ATOM     17  HN  UNL d   1      -5.921  -5.842  -0.948  1.00  0.00     0.197 HD
ENDBRANCH   2   7
BRANCH   3  18
ATOM     18  C   UNL d   1      -5.598   1.816   0.147  0.00  0.00     0.036 A 
ATOM     19  C   UNL d   1      -6.905   1.445   0.494  0.00  0.00     0.031 A 
ATOM     20  C   UNL d   1      -7.903   2.407   0.659  0.00  0.00     0.026 A 
ATOM     21  C   UNL d   1      -7.603   3.751   0.481  0.00  0.00     0.034 A 
ATOM     22  C   UNL d   1      -6.309   4.141   0.140  0.00  0.00     0.026 A 
ATOM     23 CL   UNL d   1      -8.827   4.938   0.696  0.00  0.00    -0.084 Cl
ATOM     24  C   UNL d   1      -5.306   3.174  -0.022  0.00  0.00     0.031 A 
ENDBRANCH   3  18
TORSDOF 2
