REMARK  4 active torsions:
REMARK  status: ('A' for Active; 'I' for Inactive)
REMARK    1  A    between atoms: C_2  and  C_1 
REMARK       I    between atoms: N_6  and  C_1 
REMARK    2  A    between atoms: N_3  and  N_6 
REMARK    3  A    between atoms: N_7  and  C_5 
REMARK    4  A    between atoms: C_14  and  C_13 
ROOT
ATOM      1  N   UNL d   1      -1.094   1.915  -2.756  0.00  0.00    -0.308 N 
ATOM      2  HN  UNL d   1      -1.555   2.051  -3.655  1.00  0.00     0.186 HD
ATOM      3  C   UNL d   1      -1.761   1.830  -1.649  0.00  0.00     0.118 C 
ENDROOT
BRANCH   1   4
ATOM      4  N   UNL d   1       0.260   1.811  -2.650  0.00  0.00    -0.266 N 
ATOM      5  C   UNL d   1       1.040   1.873  -3.797  0.00  0.00     0.271 C 
ATOM      6  O   UNL d   1       0.620   1.947  -4.946  0.00  0.00    -0.266 OA
ATOM      7  H   UNL d   1       0.668   1.623  -1.744  0.00  0.00     0.190 HD
BRANCH   5   8
ATOM      8  C   UNL d   1       2.502   1.821  -3.571  0.00  0.00     0.049 A 
ATOM      9  C   UNL d   1       3.315   1.276  -4.556  0.00  0.00     0.104 A 
ATOM     10  N   UNL d   1       4.663   1.169  -4.449  0.00  0.00    -0.374 N 
ATOM     11  C   UNL d   1       5.224   1.652  -3.318  0.00  0.00     0.087 A 
ATOM     12  HN  UNL d   1       5.226   0.745  -5.186  1.00  0.00     0.164 HD
ATOM     13  C   UNL d   1       4.500   2.239  -2.292  0.00  0.00     0.018 A 
ATOM     14  C   UNL d   1       3.117   2.327  -2.422  0.00  0.00     0.020 A 
ENDBRANCH   5   8
ENDBRANCH   1   4
BRANCH   3  15
ATOM     15  C   UNL d   1      -3.233   1.946  -1.633  0.00  0.00    -0.019 A 
ATOM     16  C   UNL d   1      -3.946   2.134  -2.815  0.00  0.00     0.015 A 
ATOM     17  C   UNL d   1      -5.342   2.233  -2.784  0.00  0.00     0.030 A 
ATOM     18  C   UNL d   1      -6.074   2.139  -1.587  0.00  0.00     0.029 A 
ATOM     19  C   UNL d   1      -5.319   1.950  -0.413  0.00  0.00     0.030 A 
ATOM     20  C   UNL d   1      -3.918   1.860  -0.426  0.00  0.00     0.015 A 
BRANCH  18  21
ATOM     21  N   UNL d   1      -7.463   2.157  -1.554  0.00  0.00    -0.390 N 
ATOM     22  C   UNL d   1      -8.172   2.790  -0.443  0.00  0.00     0.149 C 
ATOM     23  C   UNL d   1      -8.258   2.006  -2.771  0.00  0.00     0.149 C 
ENDBRANCH  18  21
ENDBRANCH   3  15
TORSDOF 4
