REMARK  6 active torsions:
REMARK  status: ('A' for Active; 'I' for Inactive)
REMARK       I    between atoms: N_3  and  C_1 
REMARK       I    between atoms: N_15  and  C_1 
REMARK    1  A    between atoms: C_2  and  N_3 
REMARK    2  A    between atoms: C_4  and  C_19 
REMARK    3  A    between atoms: C_20  and  N_15 
REMARK    4  A    between atoms: S_18  and  C_21 
REMARK    5  A    between atoms: C_19  and  S_18 
REMARK    6  A    between atoms: C_21  and  C_20 
ROOT
ATOM      1  C   UNL d   1       1.055  -0.180   0.057  0.00  0.00     0.320 C 
ATOM      2  N   UNL d   1       0.435  -1.174  -0.650  0.00  0.00    -0.309 N 
ATOM      3  O   UNL d   1       0.503   0.678   0.742  0.00  0.00    -0.247 OA
ATOM      4  N   UNL d   1       2.408  -0.139  -0.032  0.00  0.00    -0.342 N 
ATOM      5  H   UNL d   1       1.025  -1.931  -0.956  0.00  0.00     0.170 HD
ATOM      6  H   UNL d   1       2.801   0.582   0.566  0.00  0.00     0.164 HD
ENDROOT
BRANCH   2   7
ATOM      7  C   UNL d   1      -0.949  -1.294  -0.909  0.00  0.00     0.039 A 
ATOM      8  C   UNL d   1      -1.883  -0.306  -0.584  0.00  0.00     0.053 A 
ATOM      9  C   UNL d   1      -3.220  -0.446  -0.963  0.00  0.00     0.037 A 
ATOM     10 CL   UNL d   1      -4.348   0.800  -0.587  0.00  0.00    -0.084 Cl
ATOM     11  C   UNL d   1      -3.648  -1.570  -1.660  0.00  0.00     0.048 A 
ATOM     12  C   UNL d   1      -2.727  -2.568  -1.958  0.00  0.00     0.037 A 
ATOM     13  C   UNL d   1      -1.386  -2.440  -1.584  0.00  0.00     0.053 A 
ATOM     14 CL   UNL d   1      -3.240  -3.966  -2.822  0.00  0.00    -0.084 Cl
ENDBRANCH   2   7
BRANCH   4  15
ATOM     15  C   UNL d   1       3.337  -0.963  -0.789  0.00  0.00     0.134 C 
BRANCH  15  16
ATOM     16  C   UNL d   1       4.800  -0.549  -0.571  0.00  0.00     0.094 C 
BRANCH  16  17
ATOM     17  S   UNL d   1       5.231  -0.742   1.190  0.00  0.00    -0.161 SA
BRANCH  17  18
ATOM     18  C   UNL d   1       7.003  -0.316   1.131  0.00  0.00     0.139 C 
BRANCH  18  19
ATOM     19  C   UNL d   1       7.576  -0.385   2.501  0.00  0.00     0.061 A 
ATOM     20  O   UNL d   1       8.602  -1.265   2.695  0.00  0.00    -0.326 OA
ATOM     21  C   UNL d   1       8.940  -1.196   4.010  0.00  0.00     0.142 A 
ATOM     22  C   UNL d   1       8.157  -0.275   4.662  0.00  0.00     0.027 A 
ATOM     23  C   UNL d   1       7.283   0.261   3.687  0.00  0.00     0.035 A 
ENDBRANCH  18  19
ENDBRANCH  17  18
ENDBRANCH  16  17
ENDBRANCH  15  16
ENDBRANCH   4  15
TORSDOF 6
