REMARK  3 active torsions:
REMARK  status: ('A' for Active; 'I' for Inactive)
REMARK       I    between atoms: N_2  and  C_1 
REMARK    1  A    between atoms: O_4  and  C_1 
REMARK    2  A    between atoms: C_5  and  N_2 
REMARK    3  A    between atoms: C_12  and  O_4 
ROOT
ATOM      1  C   UNL d   1       0.939  -0.037  -0.188  0.00  0.00     0.365 C 
ATOM      2  N   UNL d   1       0.305  -0.548  -1.292  0.00  0.00    -0.303 N 
ATOM      3  O   UNL d   1       0.285   0.495   0.701  0.00  0.00    -0.238 OA
ATOM      4  H   UNL d   1      -0.681  -0.319  -1.281  0.00  0.00     0.171 HD
ENDROOT
BRANCH   2   5
ATOM      5  C   UNL d   1       0.764  -1.341  -2.359  0.00  0.00     0.036 A 
ATOM      6  C   UNL d   1       2.027  -1.933  -2.423  0.00  0.00     0.031 A 
ATOM      7  C   UNL d   1       2.364  -2.781  -3.486  0.00  0.00     0.026 A 
ATOM      8  C   UNL d   1       1.440  -3.037  -4.494  0.00  0.00     0.034 A 
ATOM      9  C   UNL d   1       0.187  -2.436  -4.460  0.00  0.00     0.026 A 
ATOM     10 CL   UNL d   1       1.842  -4.115  -5.772  0.00  0.00    -0.084 Cl
ATOM     11  C   UNL d   1      -0.149  -1.593  -3.395  0.00  0.00     0.031 A 
ENDBRANCH   2   5
BRANCH   1  12
ATOM     12  O   UNL d   1       2.287  -0.126  -0.208  0.00  0.00    -0.299 OA
BRANCH  12  13
ATOM     13  C   UNL d   1       3.076   0.445   0.860  0.00  0.00     0.125 C 
ATOM     14  C   UNL d   1       2.823   1.936   1.057  0.00  0.00     0.040 C 
ATOM     15  C   UNL d   1       2.941  -0.356   2.149  0.00  0.00     0.040 C 
ENDBRANCH  12  13
ENDBRANCH   1  12
TORSDOF 3
