REMARK  3 active torsions:
REMARK  status: ('A' for Active; 'I' for Inactive)
REMARK    1  A    between atoms: C_12  and  C_3 
REMARK    2  A    between atoms: C_13  and  C_4 
REMARK    3  A    between atoms: C_14  and  C_10 
ROOT
ATOM      1  C   UNL d   1       0.003  -0.857  -0.050  0.00  0.00     0.141 A 
ATOM      2  N   UNL d   1      -0.281   0.508  -0.036  0.00  0.00    -0.242 N 
ATOM      3  C   UNL d   1      -2.192  -0.501   0.022  0.00  0.00     0.147 A 
ATOM      4  C   UNL d   1      -1.205  -1.532  -0.025  0.00  0.00     0.053 A 
ATOM      5  N   UNL d   1      -1.620   0.722  -0.014  0.00  0.00    -0.287 N 
ATOM      6  HN  UNL d   1      -2.098   1.623  -0.024  1.00  0.00     0.187 HD
ATOM      7  N   UNL d   1       1.289  -1.322  -0.062  0.00  0.00    -0.343 N 
ATOM      8  HN  UNL d   1       1.491  -2.321  -0.101  1.00  0.00     0.167 HD
ATOM      9  C   UNL d   1       0.750   1.469  -0.033  0.00  0.00     0.045 A 
ATOM     10  C   UNL d   1       2.039   1.054  -0.025  0.00  0.00     0.021 A 
ATOM     11  C   UNL d   1       2.243  -0.442  -0.023  0.00  0.00     0.020 A 
ATOM     12  C   UNL d   1       0.360   2.924  -0.038  0.00  0.00     0.071 C 
ATOM     13  C   UNL d   1       3.644  -1.016   0.024  0.00  0.00     0.069 C 
ENDROOT
BRANCH   4  14
ATOM     14  C   UNL d   1      -1.298  -2.993  -0.012  0.00  0.00    -0.020 A 
ATOM     15  C   UNL d   1      -2.318  -3.667  -0.693  0.00  0.00     0.012 A 
ATOM     16  C   UNL d   1      -2.421  -5.061  -0.633  0.00  0.00     0.001 A 
ATOM     17  C   UNL d   1      -1.472  -5.808   0.060  0.00  0.00     0.000 A 
ATOM     18  C   UNL d   1      -0.424  -5.160   0.704  0.00  0.00     0.001 A 
ATOM     19  C   UNL d   1      -0.350  -3.766   0.683  0.00  0.00     0.012 A 
ENDBRANCH   4  14
BRANCH   3  20
ATOM     20  C   UNL d   1      -3.693  -0.626   0.119  0.00  0.00     0.434 C 
ATOM     21  F   UNL d   1      -4.134  -1.892   0.349  0.00  0.00    -0.165 F 
ATOM     22  F   UNL d   1      -4.213   0.128   1.128  0.00  0.00    -0.165 F 
ATOM     23  F   UNL d   1      -4.309  -0.218  -1.026  0.00  0.00    -0.165 F 
ENDBRANCH   3  20
BRANCH  10  24
ATOM     24  C   UNL d   1       3.172   1.989  -0.015  0.00  0.00    -0.022 A 
ATOM     25  C   UNL d   1       3.725   2.419   1.199  0.00  0.00     0.012 A 
ATOM     26  C   UNL d   1       4.803   3.306   1.204  0.00  0.00     0.001 A 
ATOM     27  C   UNL d   1       5.330   3.770  -0.001  0.00  0.00     0.000 A 
ATOM     28  C   UNL d   1       4.784   3.348  -1.212  0.00  0.00     0.001 A 
ATOM     29  C   UNL d   1       3.708   2.458  -1.221  0.00  0.00     0.012 A 
ENDBRANCH  10  24
TORSDOF 3
