REMARK  5 active torsions:
REMARK  status: ('A' for Active; 'I' for Inactive)
REMARK    1  A    between atoms: N_2  and  S_1 
REMARK    2  A    between atoms: C_9  and  S_1 
REMARK    3  A    between atoms: C_3  and  N_2 
REMARK       I    between atoms: C_4  and  N_15 
REMARK       I    between atoms: N_12  and  C_4 
REMARK    4  A    between atoms: C_16  and  N_12 
REMARK    5  A    between atoms: N_15  and  C_25 
ROOT
ATOM      1  C   UNL d   1       0.203  -1.388  -1.034  0.00  0.00     0.075 A 
ATOM      2  C   UNL d   1       1.119  -2.353  -1.461  0.00  0.00     0.027 A 
ATOM      3  C   UNL d   1      -1.129  -1.737  -0.820  0.00  0.00     0.027 A 
ATOM      4  C   UNL d   1      -0.598  -4.072  -1.270  0.00  0.00     0.036 A 
ATOM      5  C   UNL d   1       0.714  -3.690  -1.586  0.00  0.00     0.031 A 
ATOM      6  C   UNL d   1      -1.524  -3.071  -0.954  0.00  0.00     0.031 A 
ENDROOT
BRANCH   1   7
ATOM      7  S   UNL d   1       0.784   0.192  -0.452  0.00  0.00     0.248 S 
ATOM      8  O   UNL d   1      -0.143   0.671   0.550  0.00  0.00    -0.205 OA
ATOM      9  O   UNL d   1       2.184   0.008  -0.114  0.00  0.00    -0.205 OA
BRANCH   7  10
ATOM     10  N   UNL d   1       0.784   1.170  -1.807  0.00  0.00    -0.151 NA
ATOM     11  H   UNL d   1       1.612   1.758  -1.775  0.00  0.00     0.149 HD
BRANCH  10  12
ATOM     12  C   UNL d   1      -0.364   1.948  -1.914  0.00  0.00     0.171 A 
ATOM     13  N   UNL d   1      -0.266   3.165  -1.373  0.00  0.00    -0.336 N 
ATOM     14  C   UNL d   1      -1.401   3.889  -1.368  0.00  0.00     0.009 A 
ATOM     15  HN  UNL d   1       0.609   3.522  -0.991  1.00  0.00     0.168 HD
ATOM     16  C   UNL d   1      -1.366   5.225  -0.686  0.00  0.00     0.068 C 
ATOM     17  C   UNL d   1      -2.572   3.429  -1.944  0.00  0.00     0.049 A 
ATOM     18  C   UNL d   1      -2.537   2.164  -2.506  0.00  0.00     0.009 A 
ATOM     19  N   UNL d   1      -1.436   1.389  -2.474  0.00  0.00    -0.336 N 
ATOM     20  C   UNL d   1      -3.750   1.609  -3.190  0.00  0.00     0.068 C 
ATOM     21  HN  UNL d   1      -1.423   0.441  -2.851  1.00  0.00     0.168 HD
ENDBRANCH  10  12
ENDBRANCH   7  10
ENDBRANCH   1   7
BRANCH   4  22
ATOM     22  N   UNL d   1      -0.886  -5.461  -1.205  0.00  0.00    -0.309 N 
ATOM     23  C   UNL d   1      -2.062  -6.027  -0.721  0.00  0.00     0.325 C 
ATOM     24  N   UNL d   1      -1.957  -7.403  -0.591  0.00  0.00    -0.309 N 
ATOM     25  O   UNL d   1      -3.062  -5.391  -0.424  0.00  0.00    -0.247 OA
ATOM     26  H   UNL d   1      -1.187  -7.856  -1.057  0.00  0.00     0.170 HD
ATOM     27  H   UNL d   1      -0.106  -6.081  -1.354  0.00  0.00     0.170 HD
BRANCH  24  28
ATOM     28  C   UNL d   1      -2.882  -8.248   0.074  0.00  0.00     0.038 A 
ATOM     29  C   UNL d   1      -3.941  -7.778   0.857  0.00  0.00     0.054 A 
ATOM     30  C   UNL d   1      -4.763  -8.662   1.566  0.00  0.00     0.042 A 
ATOM     31 CL   UNL d   1      -6.047  -7.990   2.510  0.00  0.00    -0.084 Cl
ATOM     32  C   UNL d   1      -4.535 -10.043   1.520  0.00  0.00    -0.040 A 
ATOM     33  C   UNL d   1      -3.516 -10.518   0.684  0.00  0.00     0.011 A 
ATOM     34  C   UNL d   1      -5.348 -11.011   2.332  0.00  0.00     0.050 C 
ATOM     35  C   UNL d   1      -2.692  -9.630  -0.023  0.00  0.00     0.030 A 
ENDBRANCH  24  28
ENDBRANCH   4  22
TORSDOF 5
