REMARK  5 active torsions:
REMARK  status: ('A' for Active; 'I' for Inactive)
REMARK    1  A    between atoms: C_4  and  C_1 
REMARK    2  A    between atoms: C_6  and  C_4 
REMARK    3  A    between atoms: N_12  and  N_8 
REMARK    4  A    between atoms: C_20  and  N_12 
REMARK    5  A    between atoms: C_22  and  C_15 
ROOT
ATOM      1  C   UNL d   1       4.771  -1.147  -0.056  0.00  0.00     0.180 C 
ATOM      2  N   UNL d   1       6.046  -1.175  -0.334  0.00  0.00    -0.287 N 
ATOM      3  HN  UNL d   1       6.499  -2.056  -0.576  1.00  0.00     0.188 HD
ATOM      4  C   UNL d   1       4.154   0.138   0.187  0.00  0.00     0.123 C 
ATOM      5  N   UNL d   1       3.725   1.196   0.397  0.00  0.00    -0.190 NA
ENDROOT
BRANCH   1   6
ATOM      6  C   UNL d   1       3.947  -2.409  -0.052  0.00  0.00     0.228 C 
ATOM      7  O   UNL d   1       2.842  -2.326  -0.584  0.00  0.00    -0.284 OA
BRANCH   6   8
ATOM      8  C   UNL d   1       4.479  -3.622   0.563  0.00  0.00     0.065 A 
ATOM      9  S   UNL d   1       5.658  -3.522   1.800  0.00  0.00    -0.085 SA
ATOM     10  C   UNL d   1       5.763  -5.221   1.991  0.00  0.00     0.016 A 
ATOM     11  C   UNL d   1       6.606  -5.928   2.873  0.00  0.00     0.021 A 
ATOM     12  C   UNL d   1       4.874  -5.878   1.142  0.00  0.00    -0.010 A 
ATOM     13  C   UNL d   1       6.549  -7.325   2.896  0.00  0.00     0.025 A 
ATOM     14  C   UNL d   1       5.675  -8.000   2.059  0.00  0.00     0.035 A 
ATOM     15  C   UNL d   1       4.841  -7.298   1.187  0.00  0.00     0.037 A 
ATOM     16 CL   UNL d   1       5.612  -9.720   2.093  0.00  0.00    -0.084 Cl
ATOM     17  C   UNL d   1       4.108  -4.947   0.333  0.00  0.00    -0.029 A 
ATOM     18  C   UNL d   1       3.072  -5.433  -0.639  0.00  0.00     0.050 C 
ENDBRANCH   6   8
ENDBRANCH   1   6
BRANCH   2  19
ATOM     19  N   UNL d   1       6.775  -0.011  -0.298  0.00  0.00    -0.300 N 
ATOM     20  H   UNL d   1       6.544   0.713   0.386  0.00  0.00     0.187 HD
BRANCH  19  21
ATOM     21  C   UNL d   1       8.172  -0.123  -0.484  0.00  0.00     0.048 A 
ATOM     22  C   UNL d   1       8.736  -1.158  -1.235  0.00  0.00     0.031 A 
ATOM     23  C   UNL d   1      10.117  -1.239  -1.421  0.00  0.00     0.010 A 
ATOM     24  C   UNL d   1      10.976  -0.286  -0.857  0.00  0.00    -0.055 A 
ATOM     25  C   UNL d   1      10.411   0.777  -0.140  0.00  0.00     0.010 A 
ATOM     26  C   UNL d   1       9.024   0.863   0.031  0.00  0.00     0.031 A 
BRANCH  24  27
ATOM     27  C   UNL d   1      12.483  -0.404  -0.997  0.00  0.00     0.010 C 
ATOM     28  C   UNL d   1      12.985  -1.726  -0.409  0.00  0.00     0.015 C 
ATOM     29  C   UNL d   1      12.928  -0.248  -2.453  0.00  0.00     0.015 C 
ENDBRANCH  24  27
ENDBRANCH  19  21
ENDBRANCH   2  19
TORSDOF 5
