REMARK  4 active torsions:
REMARK  status: ('A' for Active; 'I' for Inactive)
REMARK    1  A    between atoms: C_6  and  C_1 
REMARK    2  A    between atoms: N_7  and  C_6 
REMARK    3  A    between atoms: C_8  and  C_9 
REMARK    4  A    between atoms: O_16  and  C_10 
ROOT
ATOM      1  N   UNL d   1      -3.167  -3.057  -0.304  0.00  0.00     0.092 N 
ATOM      2  C   UNL d   1      -5.748  -1.556   0.058  0.00  0.00     0.025 C 
ATOM      3  C   UNL d   1      -5.177  -2.451   1.160  0.00  0.00     0.040 C 
ATOM      4  C   UNL d   1      -5.375  -2.202  -1.285  0.00  0.00     0.040 C 
ATOM      5  C   UNL d   1      -3.894  -2.556  -1.465  0.00  0.00     0.273 C 
ATOM      6  C   UNL d   1      -3.702  -2.796   1.024  0.00  0.00     0.273 C 
ENDROOT
BRANCH   1   7
ATOM      7  C   UNL d   1      -1.735  -2.723  -0.349  0.00  0.00     0.313 C 
BRANCH   7   8
ATOM      8  C   UNL d   1      -0.972  -3.720  -1.158  0.00  0.00     0.005 A 
ATOM      9  C   UNL d   1      -0.529  -3.611  -2.471  0.00  0.00     0.014 A 
ATOM     10  N   UNL d   1       0.244  -4.713  -2.747  0.00  0.00    -0.359 N 
ATOM     11  C   UNL d   1      -0.747  -2.570  -3.506  0.00  0.00     0.068 C 
ATOM     12  C   UNL d   1       0.306  -5.554  -1.659  0.00  0.00     0.043 A 
ATOM     13  H   UNL d   1       0.708  -4.887  -3.628  0.00  0.00     0.166 HD
ATOM     14  C   UNL d   1      -0.471  -4.976  -0.663  0.00  0.00     0.001 A 
ATOM     15  C   UNL d   1       0.980  -6.768  -1.492  0.00  0.00     0.030 A 
ATOM     16  C   UNL d   1      -0.601  -5.665   0.569  0.00  0.00     0.014 A 
ATOM     17  C   UNL d   1       0.052  -6.889   0.751  0.00  0.00     0.001 A 
ATOM     18  C   UNL d   1       0.841  -7.423  -0.268  0.00  0.00     0.002 A 
ENDBRANCH   7   8
ENDBRANCH   1   7
BRANCH   2  19
ATOM     19  C   UNL d   1      -5.493  -0.058   0.237  0.00  0.00    -0.021 A 
ATOM     20  C   UNL d   1      -6.315   0.743   1.062  0.00  0.00     0.074 A 
ATOM     21  C   UNL d   1      -6.111   2.128   1.173  0.00  0.00     0.037 A 
ATOM     22  C   UNL d   1      -5.105   2.758   0.450  0.00  0.00     0.003 A 
ATOM     23  C   UNL d   1      -4.305   2.000  -0.395  0.00  0.00     0.001 A 
ATOM     24  C   UNL d   1      -4.488   0.614  -0.484  0.00  0.00     0.010 A 
BRANCH  20  25
ATOM     25  O   UNL d   1      -7.488   0.290   1.614  0.00  0.00    -0.355 OA
ATOM     26  C   UNL d   1      -7.317  -0.498   2.785  0.00  0.00     0.210 C 
ENDBRANCH  20  25
ENDBRANCH   2  19
TORSDOF 4
