REMARK  4 active torsions:
REMARK  status: ('A' for Active; 'I' for Inactive)
REMARK    1  A    between atoms: N_7  and  C_1 
REMARK    2  A    between atoms: N_8  and  C_2 
REMARK    3  A    between atoms: S_6  and  C_3 
REMARK    4  A    between atoms: N_13  and  S_6 
ROOT
ATOM      1  C   UNL d   1       1.398   0.797  -0.017  0.00  0.00     0.138 A 
ATOM      2  C   UNL d   1       0.095   1.288  -0.082  0.00  0.00     0.107 A 
ATOM      3  C   UNL d   1       0.232  -1.226  -0.043  0.00  0.00     0.119 A 
ATOM      4  C   UNL d   1       1.472  -0.637   0.015  0.00  0.00     0.071 A 
ATOM      5  S   UNL d   1      -1.001  -0.067  -0.143  0.00  0.00    -0.057 SA
ENDROOT
BRANCH   3   6
ATOM      6  S   UNL d   1      -0.299  -2.919  -0.013  0.00  0.00     0.246 S 
ATOM      7  O   UNL d   1      -1.169  -3.085  -1.149  0.00  0.00    -0.206 OA
ATOM      8  O   UNL d   1       0.916  -3.675   0.178  0.00  0.00    -0.206 OA
BRANCH   6   9
ATOM      9  N   UNL d   1      -1.220  -3.111   1.375  0.00  0.00    -0.225 NA
ATOM     10  H   UNL d   1      -2.085  -2.573   1.357  0.00  0.00     0.136 HD
ATOM     11  H   UNL d   1      -0.670  -3.048   2.230  0.00  0.00     0.136 HD
ENDBRANCH   6   9
ENDBRANCH   3   6
BRANCH   1  12
ATOM     12  N   UNL d   1       2.583   1.608   0.023  0.00  0.00    -0.113 N 
ATOM     13  O   UNL d   1       2.751   2.426  -0.889  0.00  0.00    -0.532 OA
ATOM     14  O   UNL d   1       3.366   1.383   0.958  0.00  0.00    -0.532 OA
ENDBRANCH   1  12
BRANCH   2  15
ATOM     15  N   UNL d   1      -0.404   2.567  -0.082  0.00  0.00    -0.373 N 
ATOM     16  C   UNL d   1       0.303   3.747   0.408  0.00  0.00     0.123 C 
ATOM     17  C   UNL d   1      -0.820   4.615   0.968  0.00  0.00     0.021 C 
ATOM     18  C   UNL d   1      -1.960   4.363  -0.002  0.00  0.00     0.021 C 
ATOM     19  C   UNL d   1      -1.810   2.886  -0.357  0.00  0.00     0.123 C 
ENDBRANCH   2  15
TORSDOF 4
