REMARK  7 active torsions:
REMARK  status: ('A' for Active; 'I' for Inactive)
REMARK    1  A    between atoms: S_11  and  C_2 
REMARK    2  A    between atoms: C_13  and  C_3 
REMARK    3  A    between atoms: C_8  and  C_14 
REMARK       I    between atoms: N_9  and  C_8 
REMARK       I    between atoms: C_10  and  N_12 
REMARK    4  A    between atoms: O_15  and  C_10 
REMARK    5  A    between atoms: C_14  and  S_11 
REMARK    6  A    between atoms: N_12  and  C_13 
REMARK    7  A    between atoms: C_18  and  O_15 
ROOT
ATOM      1  N   UNL d   1       0.978   0.214  -0.108  0.00  0.00    -0.318 N 
ATOM      2  C   UNL d   1       0.182   1.316  -0.262  0.00  0.00     0.162 C 
ATOM      3  C   UNL d   1       0.112  -0.856  -0.027  0.00  0.00     0.117 C 
ATOM      4  N   UNL d   1      -1.073   0.981  -0.081  0.00  0.00    -0.278 N 
ATOM      5  HN  UNL d   1      -1.870   1.617  -0.056  1.00  0.00     0.189 HD
ATOM      6  N   UNL d   1      -1.119  -0.386   0.069  0.00  0.00    -0.285 N 
ATOM      7  HN  UNL d   1      -1.960  -0.941   0.227  1.00  0.00     0.188 HD
ATOM      8  C   UNL d   1       2.415   0.166  -0.026  0.00  0.00     0.160 C 
ENDROOT
BRANCH   2   9
ATOM      9  S   UNL d   1       0.777   2.868  -0.729  0.00  0.00    -0.083 SA
BRANCH   9  10
ATOM     10  C   UNL d   1      -0.761   3.839  -0.808  0.00  0.00     0.185 C 
BRANCH  10  11
ATOM     11  C   UNL d   1      -0.562   5.154  -1.565  0.00  0.00     0.229 C 
ATOM     12  N   UNL d   1      -1.648   6.021  -1.622  0.00  0.00    -0.347 N 
ATOM     13  C   UNL d   1      -2.980   5.804  -1.045  0.00  0.00     0.152 C 
ATOM     14  C   UNL d   1      -1.563   7.233  -2.442  0.00  0.00     0.152 C 
ATOM     15  C   UNL d   1      -4.056   5.872  -2.140  0.00  0.00     0.187 C 
ATOM     16  O   UNL d   1      -3.956   7.086  -2.905  0.00  0.00    -0.388 OA
ATOM     17  C   UNL d   1      -2.657   7.205  -3.513  0.00  0.00     0.187 C 
ATOM     18  O   UNL d   1       0.495   5.439  -2.132  0.00  0.00    -0.273 OA
ENDBRANCH  10  11
ENDBRANCH   9  10
ENDBRANCH   2   9
BRANCH   3  19
ATOM     19  C   UNL d   1       0.502  -2.295  -0.044  0.00  0.00     0.203 C 
BRANCH  19  20
ATOM     20  N   UNL d   1       0.919  -2.688  -1.375  0.00  0.00    -0.330 N 
ATOM     21  C   UNL d   1       2.227  -2.865  -1.720  0.00  0.00     0.361 C 
ATOM     22  O   UNL d   1       3.157  -2.723  -0.954  0.00  0.00    -0.238 OA
ATOM     23  H   UNL d   1       0.225  -2.884  -2.080  0.00  0.00     0.165 HD
BRANCH  21  24
ATOM     24  O   UNL d   1       2.321  -3.213  -3.032  0.00  0.00    -0.294 OA
BRANCH  24  25
ATOM     25  C   UNL d   1       3.623  -3.497  -3.620  0.00  0.00     0.061 C 
ATOM     26  C   UNL d   1       4.314  -4.660  -2.893  0.00  0.00     0.046 C 
ATOM     27  C   UNL d   1       3.345  -3.896  -5.082  0.00  0.00     0.046 C 
ATOM     28  C   UNL d   1       4.516  -2.248  -3.636  0.00  0.00     0.046 C 
ENDBRANCH  24  25
ENDBRANCH  21  24
ENDBRANCH  19  20
ENDBRANCH   3  19
TORSDOF 7
