REMARK  9 active torsions:
REMARK  status: ('A' for Active; 'I' for Inactive)
REMARK    1  A    between atoms: C_5  and  C_1 
REMARK    2  A    between atoms: C_9  and  C_2 
REMARK    3  A    between atoms: C_10  and  C_8 
REMARK    4  A    between atoms: O_22  and  C_9 
REMARK    5  A    between atoms: O_23  and  C_10 
REMARK    6  A    between atoms: C_20  and  C_11 
REMARK    7  A    between atoms: C_12  and  C_26 
REMARK    8  A    between atoms: C_26  and  O_22 
REMARK    9  A    between atoms: C_32  and  O_23 
ROOT
ATOM      1  C   UNL d   1       0.517  -2.279   0.181  0.00  0.00     0.299 C 
ATOM      2  O   UNL d   1       0.174  -2.622   1.305  0.00  0.00    -0.259 OA
ENDROOT
BRANCH   1   3
ATOM      3  C   UNL d   1      -0.077  -1.172  -0.519  0.00  0.00     0.100 A 
ATOM      4  C   UNL d   1      -1.446  -0.768  -0.542  0.00  0.00     0.087 A 
ATOM      5  N   UNL d   1      -1.600   0.284  -1.364  0.00  0.00    -0.259 N 
ATOM      6  O   UNL d   1      -0.344   0.616  -1.819  0.00  0.00    -0.241 OA
ATOM      7  HN  UNL d   1      -2.477   0.746  -1.604  1.00  0.00     0.195 HD
ATOM      8  C   UNL d   1       0.570  -0.250  -1.314  0.00  0.00     0.091 A 
ATOM      9  C   UNL d   1       1.974   0.010  -1.689  0.00  0.00     0.080 C 
BRANCH   4  10
ATOM     10  C   UNL d   1      -2.596  -1.357   0.152  0.00  0.00     0.037 A 
ATOM     11  C   UNL d   1      -3.442  -0.564   0.956  0.00  0.00     0.048 A 
ATOM     12 CL   UNL d   1      -3.193   1.134   1.210  0.00  0.00    -0.083 Cl
ATOM     13  C   UNL d   1      -4.535  -1.127   1.630  0.00  0.00     0.025 A 
ATOM     14  C   UNL d   1      -4.788  -2.492   1.548  0.00  0.00     0.003 A 
ATOM     15  C   UNL d   1      -3.966  -3.293   0.764  0.00  0.00     0.025 A 
ATOM     16  C   UNL d   1      -2.898  -2.732   0.050  0.00  0.00     0.048 A 
ATOM     17 CL   UNL d   1      -2.039  -3.820  -0.996  0.00  0.00    -0.083 Cl
ENDBRANCH   4  10
ENDBRANCH   1   3
BRANCH   1  18
ATOM     18  O   UNL d   1       1.445  -2.921  -0.585  0.00  0.00    -0.305 OA
BRANCH  18  19
ATOM     19  C   UNL d   1       2.081  -4.039   0.045  0.00  0.00     0.273 C 
BRANCH  19  20
ATOM     20  C   UNL d   1       3.078  -3.533   0.986  0.00  0.00    -0.074 C 
ATOM     21  C   UNL d   1       3.796  -2.950   1.750  0.00  0.00    -0.063 C 
BRANCH  21  22
ATOM     22  C   UNL d   1       4.549  -2.122   2.630  0.00  0.00     0.034 A 
ATOM     23  C   UNL d   1       3.933  -1.054   3.282  0.00  0.00     0.041 A 
ATOM     24  C   UNL d   1       4.694  -0.235   4.118  0.00  0.00     0.056 A 
ATOM     25  C   UNL d   1       6.050  -0.525   4.255  0.00  0.00     0.105 A 
ATOM     26  N   UNL d   1       6.670  -1.559   3.636  0.00  0.00    -0.373 N 
ATOM     27  C   UNL d   1       5.902  -2.339   2.838  0.00  0.00     0.108 A 
ATOM     28  HN  UNL d   1       7.666  -1.740   3.764  1.00  0.00     0.164 HD
BRANCH  24  29
ATOM     29  C   UNL d   1       4.138   0.886   4.903  0.00  0.00     0.294 C 
ATOM     30  O   UNL d   1       4.816   1.596   5.627  0.00  0.00    -0.259 OA
BRANCH  29  31
ATOM     31  O   UNL d   1       2.791   0.940   4.758  0.00  0.00    -0.318 OA
BRANCH  31  32
ATOM     32  C   UNL d   1       2.100   1.782   5.693  0.00  0.00     0.174 C 
ATOM     33  C   UNL d   1       1.694   0.939   6.888  0.00  0.00     0.034 C 
ENDBRANCH  31  32
ENDBRANCH  29  31
ENDBRANCH  24  29
ENDBRANCH  21  22
ENDBRANCH  19  20
ENDBRANCH  18  19
ENDBRANCH   1  18
TORSDOF 9
