REMARK  5 active torsions:
REMARK  status: ('A' for Active; 'I' for Inactive)
REMARK    1  A    between atoms: C_3  and  C_1 
REMARK    2  A    between atoms: N_2  and  C_6 
REMARK       I    between atoms: N_7  and  C_3 
REMARK    3  A    between atoms: S_8  and  C_4 
REMARK    4  A    between atoms: C_16  and  N_7 
REMARK    5  A    between atoms: C_19  and  S_8 
ROOT
ATOM      1  C   UNL d   1       1.309  -0.108  -0.308  0.00  0.00     0.051 A 
ATOM      2  C   UNL d   1       0.587  -1.296  -0.081  0.00  0.00     0.016 A 
ATOM      3  C   UNL d   1       0.656   1.139  -0.300  0.00  0.00     0.054 A 
ATOM      4  C   UNL d   1      -0.723   1.198  -0.077  0.00  0.00     0.103 A 
ATOM      5  C   UNL d   1      -0.800  -1.203   0.137  0.00  0.00     0.022 A 
ATOM      6  C   UNL d   1      -1.458   0.029   0.139  0.00  0.00     0.037 A 
ENDROOT
BRANCH   1   7
ATOM      7  C   UNL d   1       2.734  -0.095  -0.711  0.00  0.00     0.257 C 
ATOM      8  N   UNL d   1       3.554   0.713   0.062  0.00  0.00    -0.323 N 
ATOM      9  H   UNL d   1       3.201   1.028   0.957  0.00  0.00     0.169 HD
ATOM     10  O   UNL d   1       3.078  -0.769  -1.674  0.00  0.00    -0.267 OA
BRANCH   8  11
ATOM     11  C   UNL d   1       4.926   0.927  -0.196  0.00  0.00     0.037 A 
ATOM     12  C   UNL d   1       5.475   0.827  -1.472  0.00  0.00     0.046 A 
ATOM     13  C   UNL d   1       6.841   0.992  -1.618  0.00  0.00     0.090 A 
ATOM     14  N   UNL d   1       7.679   1.242  -0.590  0.00  0.00    -0.375 N 
ATOM     15  C   UNL d   1       7.119   1.359   0.631  0.00  0.00     0.090 A 
ATOM     16  HN  UNL d   1       8.685   1.338  -0.730  1.00  0.00     0.164 HD
ATOM     17  C   UNL d   1       5.759   1.243   0.874  0.00  0.00     0.046 A 
ENDBRANCH   8  11
ENDBRANCH   1   7
BRANCH   2  18
ATOM     18  S   UNL d   1       1.232  -2.964  -0.113  0.00  0.00    -0.125 SA
BRANCH  18  19
ATOM     19  C   UNL d   1       2.318  -3.032   1.370  0.00  0.00     0.044 C 
ATOM     20  C   UNL d   1       1.591  -2.634   2.652  0.00  0.00     0.021 C 
ATOM     21  C   UNL d   1       2.824  -4.473   1.498  0.00  0.00     0.021 C 
ENDBRANCH  18  19
ENDBRANCH   2  18
BRANCH   4  22
ATOM     22  N   UNL d   1      -1.412   2.496  -0.100  0.00  0.00    -0.116 N 
ATOM     23  O   UNL d   1      -0.715   3.508  -0.274  0.00  0.00    -0.532 OA
ATOM     24  O   UNL d   1      -2.637   2.502   0.065  0.00  0.00    -0.532 OA
ENDBRANCH   4  22
TORSDOF 5
