REMARK  6 active torsions:
REMARK  status: ('A' for Active; 'I' for Inactive)
REMARK    1  A    between atoms: C_2  and  C_5 
REMARK       I    between atoms: N_6  and  C_2 
REMARK    2  A    between atoms: C_3  and  C_4 
REMARK       I    between atoms: N_7  and  C_3 
REMARK    3  A    between atoms: C_12  and  N_6 
REMARK    4  A    between atoms: C_13  and  N_7 
REMARK    5  A    between atoms: C_14  and  C_12 
REMARK    6  A    between atoms: C_15  and  C_13 
ROOT
ATOM      1  N   UNL d   1      -0.973   0.550   0.210  0.00  0.00     0.110 N 
ATOM      2  C   UNL d   1      -0.761  -0.883  -0.148  0.00  0.00     0.312 C 
ATOM      3  C   UNL d   1       0.335   1.216  -0.115  0.00  0.00     0.312 C 
ATOM      4  C   UNL d   1       0.687  -1.150   0.217  0.00  0.00     0.048 C 
ATOM      5  C   UNL d   1       1.397   0.122  -0.198  0.00  0.00     0.048 C 
ATOM      6  H   UNL d   1      -1.047   0.580   1.233  0.00  0.00     0.318 HD
ENDROOT
BRANCH   2   7
ATOM      7  C   UNL d   1      -1.718  -1.840   0.583  0.00  0.00     0.251 C 
ATOM      8  N   UNL d   1      -2.930  -1.291   0.940  0.00  0.00    -0.355 N 
ATOM      9  H   UNL d   1      -3.084  -0.311   0.734  0.00  0.00     0.162 HD
ATOM     10  O   UNL d   1      -1.440  -3.023   0.761  0.00  0.00    -0.271 OA
BRANCH   8  11
ATOM     11  C   UNL d   1      -4.046  -2.113   1.356  0.00  0.00     0.161 C 
BRANCH  11  12
ATOM     12  C   UNL d   1      -4.540  -1.804   2.747  0.00  0.00    -0.041 A 
ATOM     13  C   UNL d   1      -5.868  -1.403   2.959  0.00  0.00     0.009 A 
ATOM     14  C   UNL d   1      -6.358  -1.218   4.254  0.00  0.00     0.001 A 
ATOM     15  C   UNL d   1      -5.528  -1.431   5.352  0.00  0.00     0.000 A 
ATOM     16  C   UNL d   1      -4.205  -1.824   5.156  0.00  0.00     0.001 A 
ATOM     17  C   UNL d   1      -3.713  -2.011   3.861  0.00  0.00     0.009 A 
ENDBRANCH  11  12
ENDBRANCH   8  11
ENDBRANCH   2   7
BRANCH   3  18
ATOM     18  C   UNL d   1       0.296   2.036  -1.418  0.00  0.00     0.251 C 
ATOM     19  N   UNL d   1      -0.905   2.041  -2.084  0.00  0.00    -0.355 N 
ATOM     20  H   UNL d   1      -1.675   1.559  -1.632  0.00  0.00     0.162 HD
ATOM     21  O   UNL d   1       1.287   2.648  -1.813  0.00  0.00    -0.271 OA
BRANCH  19  22
ATOM     22  C   UNL d   1      -1.152   2.908  -3.216  0.00  0.00     0.161 C 
BRANCH  22  23
ATOM     23  C   UNL d   1      -1.594   2.192  -4.469  0.00  0.00    -0.041 A 
ATOM     24  C   UNL d   1      -2.433   2.853  -5.381  0.00  0.00     0.009 A 
ATOM     25  C   UNL d   1      -2.785   2.261  -6.595  0.00  0.00     0.001 A 
ATOM     26  C   UNL d   1      -2.295   0.997  -6.919  0.00  0.00     0.000 A 
ATOM     27  C   UNL d   1      -1.452   0.334  -6.032  0.00  0.00     0.001 A 
ATOM     28  C   UNL d   1      -1.095   0.928  -4.819  0.00  0.00     0.009 A 
ENDBRANCH  22  23
ENDBRANCH  19  22
ENDBRANCH   3  18
TORSDOF 6
