REMARK  5 active torsions:
REMARK  status: ('A' for Active; 'I' for Inactive)
REMARK    1  A    between atoms: S_2  and  C_1 
REMARK    2  A    between atoms: C_12  and  S_2 
REMARK    3  A    between atoms: N_7  and  C_3 
REMARK    4  A    between atoms: S_16  and  C_4 
REMARK       I    between atoms: C_6  and  N_7 
REMARK       I    between atoms: N_11  and  C_6 
REMARK    5  A    between atoms: C_14  and  N_11 
ROOT
ATOM      1  C   UNL d   1       1.533   0.977  -0.279  0.00  0.00     0.110 C 
ATOM      2  C   UNL d   1       1.525  -0.489  -0.214  0.00  0.00     0.066 C 
ATOM      3  C   UNL d   1       0.425   1.447  -0.999  0.00  0.00     0.064 C 
ATOM      4  S   UNL d   1      -0.674   0.136  -1.335  0.00  0.00    -0.091 SA
ATOM      5  C   UNL d   1       0.336  -1.022  -0.648  0.00  0.00     0.082 C 
ENDROOT
BRANCH   2   6
ATOM      6  N   UNL d   1       2.485  -1.373   0.282  0.00  0.00    -0.307 N 
ATOM      7  C   UNL d   1       3.773  -1.391  -0.244  0.00  0.00     0.325 C 
ATOM      8  N   UNL d   1       4.584  -2.217   0.507  0.00  0.00    -0.309 N 
ATOM      9  O   UNL d   1       4.098  -0.745  -1.227  0.00  0.00    -0.247 OA
ATOM     10  H   UNL d   1       4.148  -2.632   1.317  0.00  0.00     0.170 HD
ATOM     11  H   UNL d   1       2.151  -2.304   0.484  0.00  0.00     0.170 HD
BRANCH   8  12
ATOM     12  C   UNL d   1       5.987  -2.342   0.430  0.00  0.00     0.037 A 
ATOM     13  C   UNL d   1       6.782  -1.700  -0.521  0.00  0.00     0.053 A 
ATOM     14  C   UNL d   1       8.174  -1.786  -0.438  0.00  0.00     0.036 A 
ATOM     15 CL   UNL d   1       9.151  -0.944  -1.579  0.00  0.00    -0.084 Cl
ATOM     16  C   UNL d   1       8.785  -2.527   0.572  0.00  0.00     0.024 A 
ATOM     17  C   UNL d   1       7.998  -3.207   1.497  0.00  0.00     0.004 A 
ATOM     18  C   UNL d   1       6.606  -3.118   1.422  0.00  0.00     0.029 A 
ENDBRANCH   8  12
ENDBRANCH   2   6
BRANCH   1  19
ATOM     19  S   UNL d   1       2.696   1.896   0.654  0.00  0.00     0.183 S 
ATOM     20  O   UNL d   1       2.130   3.217   0.809  0.00  0.00    -0.222 OA
ATOM     21  O   UNL d   1       2.901   1.085   1.842  0.00  0.00    -0.222 OA
BRANCH  19  22
ATOM     22  C   UNL d   1       4.263   2.048  -0.181  0.00  0.00     0.105 C 
ATOM     23  C   UNL d   1       4.147   2.449  -1.642  0.00  0.00     0.026 C 
ATOM     24  C   UNL d   1       5.160   3.034   0.574  0.00  0.00     0.026 C 
ENDBRANCH  19  22
ENDBRANCH   1  19
BRANCH   3  25
ATOM     25  S   UNL d   1      -0.185   2.942  -1.706  0.00  0.00    -0.126 SA
ATOM     26  C   UNL d   1       0.476   4.405  -0.944  0.00  0.00     0.096 C 
ENDBRANCH   3  25
TORSDOF 5
