REMARK  1 active torsions:
REMARK  status: ('A' for Active; 'I' for Inactive)
REMARK    1  A    between atoms: N_11  and  C_2 
ROOT
ATOM      1  C   UNL d   1       1.365  -1.600   0.040  0.00  0.00     0.085 A 
ATOM      2  C   UNL d   1       2.488  -0.793   0.044  0.00  0.00     0.089 A 
ATOM      3  C   UNL d   1       0.152  -0.845  -0.008  0.00  0.00    -0.018 A 
ATOM      4  C   UNL d   1       0.400   0.515  -0.003  0.00  0.00     0.021 A 
ATOM      5  S   UNL d   1       2.060   0.870   0.000  0.00  0.00    -0.074 SA
ATOM      6  C   UNL d   1       1.424  -3.029   0.089  0.00  0.00     0.103 C 
ATOM      7  N   UNL d   1       1.460  -4.190   0.129  0.00  0.00    -0.191 NA
ATOM      8  N   UNL d   1      -1.996   1.052   0.344  0.00  0.00     0.089 N 
ATOM      9  C   UNL d   1      -0.660   1.582  -0.025  0.00  0.00     0.318 C 
ATOM     10  C   UNL d   1      -1.257  -1.363  -0.012  0.00  0.00     0.071 C 
ATOM     11  C   UNL d   1      -2.258  -0.232  -0.346  0.00  0.00     0.277 C 
ATOM     12  C   UNL d   1      -2.138   0.928   1.796  0.00  0.00     0.310 C 
ENDROOT
BRANCH   2  13
ATOM     13  N   UNL d   1       3.787  -1.158   0.081  0.00  0.00    -0.392 N 
ATOM     14  H   UNL d   1       4.096  -2.125   0.054  0.00  0.00     0.156 HD
ATOM     15  H   UNL d   1       4.525  -0.465   0.013  0.00  0.00     0.156 HD
ENDBRANCH   2  13
TORSDOF 1
