REMARK  2 active torsions:
REMARK  status: ('A' for Active; 'I' for Inactive)
REMARK    1  A    between atoms: C_2  and  C_1 
REMARK    2  A    between atoms: C_4  and  C_2 
ROOT
ATOM      1  C   UNL d   1       1.097  -0.002   0.045  0.00  0.00     0.118 C 
ATOM      2  C   UNL d   1       2.244  -0.502  -0.476  0.00  0.00     0.061 C 
ATOM      3  C   UNL d   1       0.534  -0.564   1.234  0.00  0.00     0.105 C 
ATOM      4  N   UNL d   1       0.039  -1.009   2.183  0.00  0.00    -0.191 NA
ATOM      5  S   UNL d   1       3.084   0.145  -1.870  0.00  0.00    -0.120 SA
ATOM      6  S   UNL d   1       3.027  -1.930   0.202  0.00  0.00    -0.120 SA
ATOM      7  C   UNL d   1       4.376  -1.119  -1.991  0.00  0.00     0.090 C 
ATOM      8  C   UNL d   1       4.629  -1.691  -0.611  0.00  0.00     0.090 C 
ENDROOT
BRANCH   1   9
ATOM      9  C   UNL d   1       0.359   1.172  -0.552  0.00  0.00     0.206 C 
ATOM     10  O   UNL d   1       0.903   2.022  -1.246  0.00  0.00    -0.286 OA
BRANCH   9  11
ATOM     11  C   UNL d   1      -1.107   1.306  -0.304  0.00  0.00     0.037 A 
ATOM     12  C   UNL d   1      -1.683   2.545   0.021  0.00  0.00     0.048 A 
ATOM     13 CL   UNL d   1      -0.763   3.988   0.263  0.00  0.00    -0.083 Cl
ATOM     14  C   UNL d   1      -3.067   2.645   0.213  0.00  0.00     0.025 A 
ATOM     15  C   UNL d   1      -3.880   1.518   0.097  0.00  0.00     0.002 A 
ATOM     16  C   UNL d   1      -3.317   0.288  -0.231  0.00  0.00     0.001 A 
ATOM     17  C   UNL d   1      -1.942   0.183  -0.453  0.00  0.00     0.017 A 
ENDBRANCH   9  11
ENDBRANCH   1   9
TORSDOF 2
