REMARK  8 active torsions:
REMARK  status: ('A' for Active; 'I' for Inactive)
REMARK    1  A    between atoms: C_3  and  C_1 
REMARK    2  A    between atoms: O_14  and  C_2 
REMARK    3  A    between atoms: O_15  and  C_3 
REMARK       I    between atoms: C_6  and  N_7 
REMARK    4  A    between atoms: C_16  and  C_6 
REMARK    5  A    between atoms: N_7  and  C_9 
REMARK    6  A    between atoms: C_8  and  C_17 
REMARK    7  A    between atoms: O_18  and  C_8 
REMARK    8  A    between atoms: C_17  and  C_16 
ROOT
ATOM      1  C   UNL d   1       0.304   1.271   0.005  0.00  0.00     0.070 A 
ATOM      2  C   UNL d   1       0.838  -0.019   0.054  0.00  0.00     0.084 A 
ATOM      3  C   UNL d   1       0.002  -1.134   0.137  0.00  0.00     0.067 A 
ATOM      4  C   UNL d   1      -1.083   1.433  -0.005  0.00  0.00     0.023 A 
ATOM      5  C   UNL d   1      -1.389  -0.975   0.119  0.00  0.00     0.037 A 
ATOM      6  C   UNL d   1      -1.923   0.315   0.053  0.00  0.00     0.030 A 
ENDROOT
BRANCH   5   7
ATOM      7  N   UNL d   1      -2.178  -2.146   0.153  0.00  0.00    -0.327 N 
ATOM      8  C   UNL d   1      -3.526  -2.234  -0.124  0.00  0.00     0.222 C 
ATOM      9  O   UNL d   1      -4.271  -1.308  -0.443  0.00  0.00    -0.273 OA
ATOM     10  H   UNL d   1      -1.668  -3.018   0.241  0.00  0.00     0.169 HD
BRANCH   8  11
ATOM     11  C   UNL d   1      -4.059  -3.653  -0.113  0.00  0.00     0.113 C 
BRANCH  11  12
ATOM     12  C   UNL d   1      -5.031  -3.832  -1.273  0.00  0.00     0.119 C 
BRANCH  12  13
ATOM     13  C   UNL d   1      -4.307  -3.644  -2.582  0.00  0.00     0.139 C 
ATOM     14  O   UNL d   1      -3.760  -4.557  -3.183  0.00  0.00    -0.650 OA
BRANCH  13  15
ATOM     15  O   UNL d   1      -4.247  -2.360  -2.994  0.00  0.00    -0.776 OA
ATOM     16  H   UNL d   1      -4.608  -1.710  -2.347  0.00  0.00     0.167 HD
ENDBRANCH  13  15
ENDBRANCH  12  13
ENDBRANCH  11  12
ENDBRANCH   8  11
ENDBRANCH   5   7
BRANCH   2  17
ATOM     17  O   UNL d   1       2.185  -0.258   0.020  0.00  0.00    -0.360 OA
ATOM     18  H   UNL d   1       2.590   0.346  -0.636  0.00  0.00     0.217 HD
ENDBRANCH   2  17
BRANCH   1  19
ATOM     19  C   UNL d   1       1.146   2.487  -0.035  0.00  0.00     0.178 C 
ATOM     20  O   UNL d   1       0.822   3.506  -0.616  0.00  0.00    -0.646 OA
BRANCH  19  21
ATOM     21  O   UNL d   1       2.306   2.355   0.647  0.00  0.00    -0.773 OA
ATOM     22  H   UNL d   1       2.365   1.537   1.187  0.00  0.00     0.167 HD
ENDBRANCH  19  21
ENDBRANCH   1  19
TORSDOF 8
