REMARK  2 active torsions:
REMARK  status: ('A' for Active; 'I' for Inactive)
REMARK    1  A    between atoms: O_9  and  C_5 
REMARK    2  A    between atoms: O_10  and  C_6 
ROOT
ATOM      1  C   UNL d   1       0.549  -1.134   0.005  0.00  0.00     0.060 A 
ATOM      2  C   UNL d   1      -0.739   1.312   0.011  0.00  0.00     0.060 A 
ATOM      3  C   UNL d   1      -1.500   0.126   0.009  0.00  0.00     0.047 A 
ATOM      4  C   UNL d   1       1.296   0.048   0.005  0.00  0.00     0.047 A 
ATOM      5  C   UNL d   1      -0.857  -1.117   0.007  0.00  0.00     0.087 A 
ATOM      6  C   UNL d   1       0.658   1.288   0.009  0.00  0.00     0.087 A 
ATOM      7 BR   UNL d   1      -3.380   0.433   0.008  0.00  0.00    -0.048 Br
ATOM      8 BR   UNL d   1       3.192  -0.100   0.000  0.00  0.00    -0.048 Br
ENDROOT
BRANCH   5   9
ATOM      9  O   UNL d   1      -1.352  -2.389   0.006  0.00  0.00    -0.355 OA
ATOM     10  C   UNL d   1      -2.745  -2.637   0.007  0.00  0.00     0.210 C 
ENDBRANCH   5   9
BRANCH   6  11
ATOM     11  O   UNL d   1       1.449   2.407   0.008  0.00  0.00    -0.355 OA
ATOM     12  C   UNL d   1       0.799   3.672   0.010  0.00  0.00     0.210 C 
ENDBRANCH   6  11
TORSDOF 2
