REMARK  4 active torsions:
REMARK  status: ('A' for Active; 'I' for Inactive)
REMARK    1  A    between atoms: C_5  and  C_1 
REMARK    2  A    between atoms: O_11  and  C_1 
REMARK    3  A    between atoms: C_7  and  C_5 
REMARK    4  A    between atoms: C_10  and  C_7 
ROOT
ATOM      1  C   UNL d   1      -1.879   0.955   0.006  0.00  0.00     0.174 A 
ATOM      2  C   UNL d   1      -2.451  -0.501  -0.046  0.00  0.00     0.262 A 
ATOM      3  N   UNL d   1      -1.366  -1.367   0.045  0.00  0.00    -0.324 N 
ATOM      4  C   UNL d   1      -0.395   0.704   0.048  0.00  0.00     0.013 A 
ATOM      5  C   UNL d   1      -0.164  -0.673   0.063  0.00  0.00     0.044 A 
ATOM      6  O   UNL d   1      -3.626  -0.833  -0.089  0.00  0.00    -0.269 OA
ATOM      7  C   UNL d   1       0.662   1.597   0.046  0.00  0.00     0.013 A 
ATOM      8  C   UNL d   1       1.105  -1.209   0.062  0.00  0.00     0.030 A 
ATOM      9  C   UNL d   1       1.959   1.076   0.044  0.00  0.00     0.001 A 
ATOM     10  C   UNL d   1       2.178  -0.315   0.049  0.00  0.00     0.002 A 
ATOM     11  H   UNL d   1      -1.466  -2.369  -0.002  0.00  0.00     0.169 HD
ENDROOT
BRANCH   1  12
ATOM     12  C   UNL d   1      -2.393   1.803  -1.151  0.00  0.00     0.137 C 
BRANCH  12  13
ATOM     13  C   UNL d   1      -2.070   1.276  -2.536  0.00  0.00     0.163 C 
ATOM     14  O   UNL d   1      -1.391   0.268  -2.731  0.00  0.00    -0.292 OA
BRANCH  13  15
ATOM     15  C   UNL d   1      -2.609   2.018  -3.715  0.00  0.00     0.010 A 
ATOM     16  C   UNL d   1      -3.411   3.158  -3.575  0.00  0.00     0.015 A 
ATOM     17  C   UNL d   1      -3.949   3.779  -4.702  0.00  0.00     0.001 A 
ATOM     18  C   UNL d   1      -3.683   3.275  -5.974  0.00  0.00     0.000 A 
ATOM     19  C   UNL d   1      -2.862   2.158  -6.124  0.00  0.00     0.001 A 
ATOM     20  C   UNL d   1      -2.325   1.533  -4.998  0.00  0.00     0.015 A 
ENDBRANCH  13  15
ENDBRANCH  12  13
ENDBRANCH   1  12
BRANCH   1  21
ATOM     21  O   UNL d   1      -2.260   1.609   1.221  0.00  0.00    -0.375 OA
ATOM     22  H   UNL d   1      -1.911   1.066   1.950  0.00  0.00     0.211 HD
ENDBRANCH   1  21
TORSDOF 4
