REMARK  7 active torsions:
REMARK  status: ('A' for Active; 'I' for Inactive)
REMARK    1  A    between atoms: C_10  and  C_1 
REMARK    2  A    between atoms: C_17  and  C_4 
REMARK       I    between atoms: C_5  and  N_7 
REMARK    3  A    between atoms: O_12  and  C_5 
REMARK       I    between atoms: C_9  and  N_11 
REMARK       I    between atoms: N_13  and  C_9 
REMARK    4  A    between atoms: N_11  and  C_10 
REMARK    5  A    between atoms: C_22  and  O_12 
REMARK    6  A    between atoms: C_21  and  N_13 
REMARK    7  A    between atoms: C_23  and  C_22 
ROOT
ATOM      1  C   UNL d   1       2.268  -5.483   1.057  0.00  0.00     0.316 C 
ATOM      2  N   UNL d   1       3.612  -5.199   1.049  0.00  0.00    -0.339 N 
ATOM      3  N   UNL d   1       1.681  -5.198  -0.153  0.00  0.00    -0.338 N 
ATOM      4  O   UNL d   1       1.665  -5.931   2.021  0.00  0.00    -0.247 OA
ATOM      5  H   UNL d   1       4.061  -5.179   0.146  0.00  0.00     0.164 HD
ATOM      6  H   UNL d   1       2.120  -4.420  -0.622  0.00  0.00     0.164 HD
ENDROOT
BRANCH   2   7
ATOM      7  C   UNL d   1       4.431  -5.598   2.174  0.00  0.00     0.168 C 
BRANCH   7   8
ATOM      8  C   UNL d   1       5.231  -4.484   2.750  0.00  0.00     0.020 A 
ATOM      9  C   UNL d   1       6.235  -4.590   3.786  0.00  0.00     0.075 A 
ATOM     10  N   UNL d   1       6.764  -3.381   4.036  0.00  0.00    -0.260 N 
ATOM     11  O   UNL d   1       6.107  -2.486   3.235  0.00  0.00    -0.242 OA
ATOM     12  HN  UNL d   1       7.512  -3.170   4.696  1.00  0.00     0.195 HD
ATOM     13  C   UNL d   1       5.190  -3.129   2.477  0.00  0.00     0.082 A 
ATOM     14  C   UNL d   1       4.386  -2.269   1.587  0.00  0.00     0.079 C 
BRANCH   9  15
ATOM     15  C   UNL d   1       6.714  -5.771   4.527  0.00  0.00    -0.007 A 
ATOM     16  C   UNL d   1       5.899  -6.890   4.755  0.00  0.00     0.014 A 
ATOM     17  C   UNL d   1       6.381  -8.014   5.434  0.00  0.00     0.001 A 
ATOM     18  C   UNL d   1       7.680  -8.024   5.930  0.00  0.00     0.000 A 
ATOM     19  C   UNL d   1       8.494  -6.910   5.752  0.00  0.00     0.001 A 
ATOM     20  C   UNL d   1       8.017  -5.795   5.053  0.00  0.00     0.014 A 
ENDBRANCH   9  15
ENDBRANCH   7   8
ENDBRANCH   2   7
BRANCH   3  21
ATOM     21  C   UNL d   1       0.224  -5.309  -0.305  0.00  0.00     0.089 C 
ATOM     22  C   UNL d   1      -0.283  -6.770  -0.272  0.00  0.00     0.045 C 
ATOM     23  C   UNL d   1       0.009  -7.524  -1.573  0.00  0.00     0.130 C 
ATOM     24  N   UNL d   1      -0.485  -6.765  -2.718  0.00  0.00    -0.328 N 
ATOM     25  C   UNL d   1      -1.652  -7.059  -3.414  0.00  0.00     0.363 C 
ATOM     26  C   UNL d   1       0.077  -5.427  -2.836  0.00  0.00     0.130 C 
ATOM     27  O   UNL d   1      -2.177  -6.265  -4.192  0.00  0.00    -0.238 OA
ATOM     28  C   UNL d   1      -0.247  -4.607  -1.588  0.00  0.00     0.045 C 
BRANCH  25  29
ATOM     29  O   UNL d   1      -2.187  -8.277  -3.122  0.00  0.00    -0.299 OA
BRANCH  29  30
ATOM     30  C   UNL d   1      -3.589  -8.401  -3.419  0.00  0.00     0.219 C 
BRANCH  30  31
ATOM     31  C   UNL d   1      -3.971  -9.275  -4.597  0.00  0.00    -0.034 A 
ATOM     32  C   UNL d   1      -5.192  -9.976  -4.544  0.00  0.00     0.009 A 
ATOM     33  C   UNL d   1      -5.671 -10.681  -5.651  0.00  0.00     0.001 A 
ATOM     34  C   UNL d   1      -4.941 -10.693  -6.834  0.00  0.00     0.000 A 
ATOM     35  C   UNL d   1      -3.728 -10.006  -6.903  0.00  0.00     0.001 A 
ATOM     36  C   UNL d   1      -3.248  -9.298  -5.793  0.00  0.00     0.009 A 
ENDBRANCH  30  31
ENDBRANCH  29  30
ENDBRANCH  25  29
ENDBRANCH   3  21
TORSDOF 7
