REMARK  1 active torsions:
REMARK  status: ('A' for Active; 'I' for Inactive)
REMARK    1  A    between atoms: C_9  and  C_4 
ROOT
ATOM      1  C   UNL d   1       0.272   0.881   0.074  0.00  0.00     0.069 A 
ATOM      2  C   UNL d   1       0.302  -0.488   0.015  0.00  0.00     0.060 A 
ATOM      3  S   UNL d   1       1.832   1.556   0.044  0.00  0.00    -0.077 SA
ATOM      4  C   UNL d   1       2.588   0.012  -0.011  0.00  0.00     0.053 A 
ATOM      5  C   UNL d   1       1.636  -0.993  -0.028  0.00  0.00     0.054 A 
ATOM      6  N   UNL d   1      -0.826  -1.281   0.030  0.00  0.00    -0.325 N 
ATOM      7  S   UNL d   1      -1.163   1.854   0.222  0.00  0.00    -0.111 SA
ATOM      8  C   UNL d   1      -2.114  -0.835   0.056  0.00  0.00     0.231 C 
ATOM      9  C   UNL d   1      -2.464   0.637  -0.045  0.00  0.00     0.183 C 
ATOM     10  O   UNL d   1      -3.015  -1.681   0.102  0.00  0.00    -0.272 OA
ATOM     11  H   UNL d   1      -0.721  -2.288   0.047  0.00  0.00     0.169 HD
ENDROOT
BRANCH   4  12
ATOM     12  C   UNL d   1       4.048  -0.050  -0.025  0.00  0.00     0.162 C 
ATOM     13  O   UNL d   1       4.771   0.951  -0.035  0.00  0.00    -0.292 OA
ATOM     14  C   UNL d   1       4.718  -1.404  -0.022  0.00  0.00     0.097 C 
ENDBRANCH   4  12
TORSDOF 1
