REMARK  1 active torsions:
REMARK  status: ('A' for Active; 'I' for Inactive)
REMARK    1  A    between atoms: O_13  and  N_3 
ROOT
ATOM      1  C   UNL d   1      -0.152   0.710   0.006  0.00  0.00     0.129 C 
ATOM      2  C   UNL d   1      -0.336  -0.798   0.207  0.00  0.00     0.129 C 
ATOM      3  N   UNL d   1      -2.274   0.111  -0.389  0.00  0.00    -0.156 N 
ATOM      4  C   UNL d   1      -1.536  -1.040  -0.635  0.00  0.00     0.258 C 
ATOM      5  C   UNL d   1      -1.563   1.131   0.228  0.00  0.00     0.258 C 
ATOM      6  C   UNL d   1       1.165   0.926   0.730  0.00  0.00     0.159 C 
ATOM      7  C   UNL d   1       1.093  -1.253   0.315  0.00  0.00     0.159 C 
ATOM      8  O   UNL d   1       1.363  -0.330   1.458  0.00  0.00    -0.371 OA
ATOM      9  C   UNL d   1       2.213   0.653  -0.321  0.00  0.00     0.004 C 
ATOM     10  C   UNL d   1       2.106  -0.655  -0.625  0.00  0.00     0.004 C 
ATOM     11  O   UNL d   1      -1.982   2.183   0.671  0.00  0.00    -0.270 OA
ATOM     12  O   UNL d   1      -1.823  -2.064  -1.226  0.00  0.00    -0.270 OA
ENDROOT
BRANCH   3  13
ATOM     13  O   UNL d   1      -3.627   0.224  -0.678  0.00  0.00    -0.277 OA
ATOM     14  H   UNL d   1      -3.858   1.083  -0.272  0.00  0.00     0.245 HD
ENDBRANCH   3  13
TORSDOF 1
