REMARK  8 active torsions:
REMARK  status: ('A' for Active; 'I' for Inactive)
REMARK    1  A    between atoms: C_13  and  N_1 
REMARK    2  A    between atoms: C_14  and  N_2 
REMARK    3  A    between atoms: C_12  and  C_13 
REMARK    4  A    between atoms: C_23  and  C_14 
REMARK    5  A    between atoms: C_17  and  O_18 
REMARK    6  A    between atoms: O_18  and  C_25 
REMARK    7  A    between atoms: C_25  and  C_23 
REMARK    8  A    between atoms: O_27  and  C_23 
ROOT
ATOM      1  N   UNL d   1      -1.531   0.352   0.230  0.00  0.00     0.096 N 
ATOM      2  N   UNL d   1       1.471   0.279  -0.390  0.00  0.00     0.094 N 
ATOM      3  C   UNL d   1       0.706  -0.868   0.163  0.00  0.00     0.302 C 
ATOM      4  C   UNL d   1      -0.806  -0.865  -0.197  0.00  0.00     0.303 C 
ATOM      5  C   UNL d   1       0.759   1.525  -0.022  0.00  0.00     0.302 C 
ATOM      6  C   UNL d   1      -0.779   1.538  -0.239  0.00  0.00     0.303 C 
ENDROOT
BRANCH   2   7
ATOM      7  C   UNL d   1       1.652   0.086  -1.840  0.00  0.00     0.306 C 
BRANCH   7   8
ATOM      8  C   UNL d   1       2.490   1.088  -2.666  0.00  0.00     0.170 C 
BRANCH   8   9
ATOM      9  C   UNL d   1       3.926   1.310  -2.160  0.00  0.00     0.209 C 
BRANCH   9  10
ATOM     10  O   UNL d   1       4.579   2.191  -3.090  0.00  0.00    -0.349 OA
BRANCH  10  11
ATOM     11  C   UNL d   1       5.859   2.588  -2.816  0.00  0.00     0.069 A 
ATOM     12  C   UNL d   1       6.607   3.014  -3.918  0.00  0.00     0.044 A 
ATOM     13  C   UNL d   1       7.925   3.495  -3.775  0.00  0.00    -0.053 A 
ATOM     14  C   UNL d   1       8.684   3.962  -4.987  0.00  0.00     0.049 C 
ATOM     15  C   UNL d   1       8.487   3.558  -2.489  0.00  0.00    -0.056 A 
ATOM     16  C   UNL d   1       7.722   3.149  -1.386  0.00  0.00     0.010 A 
ATOM     17  C   UNL d   1       9.880   4.088  -2.261  0.00  0.00     0.049 C 
ATOM     18  C   UNL d   1       6.421   2.665  -1.547  0.00  0.00     0.037 A 
ENDBRANCH  10  11
ENDBRANCH   9  10
ENDBRANCH   8   9
BRANCH   8  19
ATOM     19  O   UNL d   1       2.517   0.575  -4.018  0.00  0.00    -0.392 OA
ATOM     20  H   UNL d   1       3.184  -0.129  -4.054  0.00  0.00     0.210 HD
ENDBRANCH   8  19
ENDBRANCH   7   8
ENDBRANCH   2   7
BRANCH   1  21
ATOM     21  C   UNL d   1      -1.738   0.305   1.689  0.00  0.00     0.311 C 
BRANCH  21  22
ATOM     22  C   UNL d   1      -2.621   1.376   2.299  0.00  0.00    -0.027 A 
ATOM     23  C   UNL d   1      -2.392   1.728   3.642  0.00  0.00     0.048 A 
ATOM     24  C   UNL d   1      -3.209   2.671   4.226  0.00  0.00     0.105 A 
ATOM     25  O   UNL d   1      -3.104   3.124   5.503  0.00  0.00    -0.323 OA
ATOM     26  C   UNL d   1      -4.244   3.255   3.539  0.00  0.00     0.105 A 
ATOM     27  C   UNL d   1      -4.157   4.110   5.522  0.00  0.00     0.352 A 
ATOM     28  O   UNL d   1      -4.917   4.162   4.297  0.00  0.00    -0.323 OA
ATOM     29  C   UNL d   1      -4.529   2.914   2.234  0.00  0.00     0.040 A 
ATOM     30  C   UNL d   1      -3.712   1.957   1.613  0.00  0.00     0.012 A 
ENDBRANCH  21  22
ENDBRANCH   1  21
TORSDOF 8
