REMARK  7 active torsions:
REMARK  status: ('A' for Active; 'I' for Inactive)
REMARK    1  A    between atoms: N_3  and  C_1 
REMARK       I    between atoms: C_7  and  N_3 
REMARK    2  A    between atoms: C_11  and  C_7 
REMARK    3  A    between atoms: C_8  and  C_11 
REMARK    4  A    between atoms: C_12  and  C_8 
REMARK    5  A    between atoms: C_15  and  C_8 
REMARK    6  A    between atoms: C_10  and  C_12 
REMARK    7  A    between atoms: O_16  and  C_10 
ROOT
ATOM      1  C   UNL d   1      -2.609  -0.880  -0.374  0.00  0.00     0.037 C 
ENDROOT
BRANCH   1   2
ATOM      2  C   UNL d   1      -2.853  -2.282   0.263  0.00  0.00     0.113 C 
BRANCH   2   3
ATOM      3  C   UNL d   1      -1.561  -2.824   0.847  0.00  0.00     0.223 C 
ATOM      4  N   UNL d   1      -1.221  -4.131   0.925  0.00  0.00    -0.312 N 
ATOM      5  H   UNL d   1      -0.254  -4.194   1.234  0.00  0.00     0.170 HD
ATOM      6  O   UNL d   1      -0.702  -2.042   1.276  0.00  0.00    -0.273 OA
BRANCH   4   7
ATOM      7  C   UNL d   1      -1.790  -5.347   0.610  0.00  0.00     0.125 A 
ATOM      8  N   UNL d   1      -3.090  -5.750   0.392  0.00  0.00    -0.281 N 
ATOM      9  N   UNL d   1      -3.186  -7.062   0.062  0.00  0.00    -0.308 N 
ATOM     10  C   UNL d   1      -4.335  -5.076   0.661  0.00  0.00     0.179 C 
ATOM     11  C   UNL d   1      -1.944  -7.524   0.169  0.00  0.00     0.111 A 
ATOM     12  HN  UNL d   1      -4.023  -7.579  -0.208  1.00  0.00     0.186 HD
ATOM     13  C   UNL d   1      -1.046  -6.513   0.525  0.00  0.00     0.068 A 
ENDBRANCH   4   7
ENDBRANCH   2   3
ENDBRANCH   1   2
BRANCH   1  14
ATOM     14  C   UNL d   1      -1.943  -0.972  -1.763  0.00  0.00     0.119 C 
BRANCH  14  15
ATOM     15  C   UNL d   1      -2.768  -1.647  -2.839  0.00  0.00     0.140 C 
ATOM     16  O   UNL d   1      -3.825  -2.233  -2.673  0.00  0.00    -0.650 OA
BRANCH  15  17
ATOM     17  O   UNL d   1      -2.167  -1.585  -4.051  0.00  0.00    -0.776 OA
ATOM     18  H   UNL d   1      -1.319  -1.103  -4.049  0.00  0.00     0.167 HD
ENDBRANCH  15  17
ENDBRANCH  14  15
ENDBRANCH   1  14
BRANCH   1  19
ATOM     19  C   UNL d   1      -3.771   0.110  -0.382  0.00  0.00    -0.053 A 
ATOM     20  C   UNL d   1      -3.467   1.487  -0.313  0.00  0.00     0.007 A 
ATOM     21  C   UNL d   1      -4.472   2.454  -0.339  0.00  0.00     0.001 A 
ATOM     22  C   UNL d   1      -5.802   2.064  -0.432  0.00  0.00     0.000 A 
ATOM     23  C   UNL d   1      -6.120   0.706  -0.504  0.00  0.00     0.001 A 
ATOM     24  C   UNL d   1      -5.111  -0.265  -0.484  0.00  0.00     0.007 A 
ENDBRANCH   1  19
TORSDOF 7
