REMARK  7 active torsions:
REMARK  status: ('A' for Active; 'I' for Inactive)
REMARK    1  A    between atoms: C_4  and  C_1 
REMARK    2  A    between atoms: O_11  and  C_4 
REMARK    3  A    between atoms: C_14  and  C_7 
REMARK    4  A    between atoms: N_15  and  C_7 
REMARK    5  A    between atoms: N_8  and  O_11 
REMARK    6  A    between atoms: O_16  and  C_14 
REMARK    7  A    between atoms: C_17  and  O_16 
ROOT
ATOM      1  C   UNL d   1      -5.207   1.067  -0.098  0.00  0.00     0.120 C 
ATOM      2  N   UNL d   1      -3.997   0.638   0.118  0.00  0.00    -0.243 N 
ATOM      3  HN  UNL d   1      -3.772  -0.298   0.454  1.00  0.00     0.196 HD
ENDROOT
BRANCH   1   4
ATOM      4  C   UNL d   1      -6.353   0.071   0.083  0.00  0.00     0.253 C 
BRANCH   4   5
ATOM      5  O   UNL d   1      -6.859  -0.138  -1.234  0.00  0.00    -0.344 OA
BRANCH   5   6
ATOM      6  C   UNL d   1      -8.003  -0.868  -1.369  0.00  0.00     0.070 A 
ATOM      7  C   UNL d   1      -8.747  -1.424  -0.332  0.00  0.00     0.060 A 
ATOM      8  C   UNL d   1      -9.918  -2.127  -0.626  0.00  0.00     0.036 A 
ATOM      9 CL   UNL d   1     -10.852  -2.795   0.656  0.00  0.00    -0.084 Cl
ATOM     10  C   UNL d   1     -10.344  -2.287  -1.944  0.00  0.00     0.024 A 
ATOM     11  C   UNL d   1      -9.594  -1.741  -2.982  0.00  0.00     0.004 A 
ATOM     12  C   UNL d   1      -8.427  -1.033  -2.692  0.00  0.00     0.037 A 
ENDBRANCH   5   6
ENDBRANCH   4   5
ENDBRANCH   1   4
BRANCH   1  13
ATOM     13  N   UNL d   1      -5.556   2.340  -0.490  0.00  0.00    -0.386 N 
ATOM     14  H   UNL d   1      -4.856   3.062  -0.561  0.00  0.00     0.157 HD
ATOM     15  H   UNL d   1      -6.516   2.646  -0.386  0.00  0.00     0.157 HD
ENDBRANCH   1  13
BRANCH   2  16
ATOM     16  O   UNL d   1      -3.034   1.632  -0.169  0.00  0.00    -0.192 OA
BRANCH  16  17
ATOM     17  C   UNL d   1      -2.836   2.482   0.900  0.00  0.00     0.333 C 
ATOM     18  O   UNL d   1      -3.293   2.337   2.028  0.00  0.00    -0.256 OA
BRANCH  17  19
ATOM     19  C   UNL d   1      -2.196   3.720   0.464  0.00  0.00     0.134 A 
ATOM     20  N   UNL d   1      -1.445   3.804  -0.647  0.00  0.00    -0.255 N 
ATOM     21  O   UNL d   1      -1.095   5.136  -0.771  0.00  0.00    -0.242 OA
ATOM     22  HN  UNL d   1      -1.185   3.041  -1.272  1.00  0.00     0.195 HD
ATOM     23  C   UNL d   1      -1.654   5.848   0.242  0.00  0.00     0.075 A 
ATOM     24  C   UNL d   1      -2.350   4.997   1.061  0.00  0.00     0.072 A 
ATOM     25  C   UNL d   1      -1.424   7.302   0.228  0.00  0.00     0.079 C 
ENDBRANCH  17  19
ENDBRANCH  16  17
ENDBRANCH   2  16
TORSDOF 7
