REMARK  3 active torsions:
REMARK  status: ('A' for Active; 'I' for Inactive)
REMARK    1  A    between atoms: C_11  and  N_1 
REMARK    2  A    between atoms: S_10  and  C_8 
REMARK    3  A    between atoms: C_15  and  S_10 
ROOT
ATOM      1  N   UNL d   1       2.341  -0.032   0.141  0.00  0.00    -0.244 N 
ATOM      2  C   UNL d   1       1.679   1.202   0.067  0.00  0.00     0.266 A 
ATOM      3  C   UNL d   1       1.697  -1.272   0.097  0.00  0.00     0.266 A 
ATOM      4  C   UNL d   1       0.197   1.167  -0.029  0.00  0.00     0.045 A 
ATOM      5  C   UNL d   1       0.219  -1.264  -0.015  0.00  0.00     0.045 A 
ATOM      6  C   UNL d   1      -0.483  -0.051  -0.072  0.00  0.00     0.007 A 
ATOM      7  C   UNL d   1      -1.906  -0.065  -0.155  0.00  0.00    -0.007 A 
ATOM      8  C   UNL d   1      -2.607   1.175  -0.152  0.00  0.00     0.016 A 
ATOM      9  C   UNL d   1      -0.507   2.378  -0.050  0.00  0.00     0.019 A 
ATOM     10  O   UNL d   1       2.261  -2.367   0.094  0.00  0.00    -0.267 OA
ATOM     11  O   UNL d   1       2.220   2.305   0.121  0.00  0.00    -0.267 OA
ATOM     12  C   UNL d   1      -1.898   2.381  -0.100  0.00  0.00     0.021 A 
ATOM     13  C   UNL d   1      -0.456  -2.490  -0.065  0.00  0.00     0.018 A 
ATOM     14  C   UNL d   1      -2.550  -1.323  -0.228  0.00  0.00     0.014 A 
ATOM     15  C   UNL d   1      -1.836  -2.519  -0.182  0.00  0.00     0.002 A 
ENDROOT
BRANCH   8  16
ATOM     16  S   UNL d   1      -4.396   1.278  -0.051  0.00  0.00    -0.090 SA
BRANCH  16  17
ATOM     17  C   UNL d   1      -4.959   1.611  -1.712  0.00  0.00     0.005 A 
ATOM     18  C   UNL d   1      -4.157   1.527  -2.854  0.00  0.00     0.019 A 
ATOM     19  C   UNL d   1      -4.690   1.791  -4.120  0.00  0.00     0.001 A 
ATOM     20  C   UNL d   1      -6.033   2.134  -4.258  0.00  0.00     0.000 A 
ATOM     21  C   UNL d   1      -6.847   2.212  -3.133  0.00  0.00     0.001 A 
ATOM     22  C   UNL d   1      -6.312   1.951  -1.868  0.00  0.00     0.019 A 
ENDBRANCH  16  17
ENDBRANCH   8  16
BRANCH   1  23
ATOM     23  C   UNL d   1       3.771  -0.026   0.256  0.00  0.00     0.045 A 
ATOM     24  C   UNL d   1       4.558   0.728  -0.625  0.00  0.00     0.030 A 
ATOM     25  C   UNL d   1       5.952   0.708  -0.525  0.00  0.00     0.002 A 
ATOM     26  C   UNL d   1       6.571  -0.037   0.477  0.00  0.00     0.000 A 
ATOM     27  C   UNL d   1       5.799  -0.778   1.369  0.00  0.00     0.002 A 
ATOM     28  C   UNL d   1       4.407  -0.787   1.248  0.00  0.00     0.030 A 
ENDBRANCH   1  23
TORSDOF 3
