REMARK  4 active torsions:
REMARK  status: ('A' for Active; 'I' for Inactive)
REMARK    1  A    between atoms: C_16  and  N_1 
REMARK    2  A    between atoms: C_8  and  C_2 
REMARK    3  A    between atoms: S_15  and  C_5 
REMARK    4  A    between atoms: C_18  and  C_16 
ROOT
ATOM      1  N   UNL d   1      -0.213  -1.214  -0.027  0.00  0.00    -0.307 N 
ATOM      2  C   UNL d   1       1.032  -0.606  -0.109  0.00  0.00     0.135 A 
ATOM      3  N   UNL d   1       0.839   0.705  -0.096  0.00  0.00    -0.283 N 
ATOM      4  HN  UNL d   1       1.575   1.410  -0.115  1.00  0.00     0.188 HD
ATOM      5  C   UNL d   1      -1.127  -0.189  -0.015  0.00  0.00     0.162 A 
ATOM      6  N   UNL d   1      -0.505   0.963  -0.052  0.00  0.00    -0.278 N 
ATOM      7  HN  UNL d   1      -0.943   1.885  -0.049  1.00  0.00     0.189 HD
ENDROOT
BRANCH   2   8
ATOM      8  C   UNL d   1       2.364  -1.225  -0.187  0.00  0.00     0.011 A 
ATOM      9  C   UNL d   1       2.613  -2.456  -0.800  0.00  0.00     0.029 A 
ATOM     10  C   UNL d   1       3.916  -2.976  -0.912  0.00  0.00    -0.009 A 
ATOM     11  C   UNL d   1       4.158  -4.213  -1.526  0.00  0.00     0.015 A 
ATOM     12  C   UNL d   1       5.019  -2.252  -0.423  0.00  0.00     0.042 A 
ATOM     13  C   UNL d   1       5.458  -4.681  -1.648  0.00  0.00     0.018 A 
ATOM     14  C   UNL d   1       6.477  -3.894  -1.148  0.00  0.00     0.088 A 
ATOM     15  N   UNL d   1       6.281  -2.703  -0.537  0.00  0.00    -0.365 N 
ATOM     16  HN  UNL d   1       7.067  -2.163  -0.174  1.00  0.00     0.165 HD
ATOM     17  C   UNL d   1       4.771  -1.029   0.182  0.00  0.00     0.031 A 
ATOM     18  C   UNL d   1       3.470  -0.517   0.301  0.00  0.00     0.017 A 
ENDBRANCH   2   8
BRANCH   1  19
ATOM     19  C   UNL d   1      -0.509  -2.624   0.152  0.00  0.00     0.159 C 
BRANCH  19  20
ATOM     20  C   UNL d   1      -0.770  -3.406  -1.111  0.00  0.00    -0.017 C 
ATOM     21  C   UNL d   1      -0.716  -2.975  -2.382  0.00  0.00     0.008 C 
ENDBRANCH  19  20
ENDBRANCH   1  19
BRANCH   5  22
ATOM     22  S   UNL d   1      -2.841  -0.413   0.046  0.00  0.00    -0.097 SA
ATOM     23  C   UNL d   1      -3.405   1.305   0.044  0.00  0.00     0.099 C 
ENDBRANCH   5  22
TORSDOF 4
