REMARK  2 active torsions:
REMARK  status: ('A' for Active; 'I' for Inactive)
REMARK       I    between atoms: C_2  and  N_5 
REMARK       I    between atoms: N_6  and  C_2 
REMARK    1  A    between atoms: N_5  and  C_9 
REMARK    2  A    between atoms: C_14  and  N_6 
ROOT
ATOM      1  C   UNL d   1      -2.842   3.440   0.242  0.00  0.00     0.325 C 
ATOM      2  N   UNL d   1      -3.024   2.088   0.219  0.00  0.00    -0.309 N 
ATOM      3  N   UNL d   1      -1.565   3.919   0.229  0.00  0.00    -0.309 N 
ATOM      4  O   UNL d   1      -3.865   4.125   0.213  0.00  0.00    -0.247 OA
ATOM      5  H   UNL d   1      -4.000   1.889   0.029  0.00  0.00     0.170 HD
ATOM      6  H   UNL d   1      -0.851   3.262  -0.037  0.00  0.00     0.170 HD
ENDROOT
BRANCH   2   7
ATOM      7  C   UNL d   1      -2.178   0.977   0.359  0.00  0.00     0.037 A 
ATOM      8  C   UNL d   1      -0.899   1.013   0.911  0.00  0.00     0.048 A 
ATOM      9  C   UNL d   1      -0.148  -0.152   0.870  0.00  0.00     0.050 A 
ATOM     10  C   UNL d   1       1.227  -0.353   1.301  0.00  0.00     0.294 A 
ATOM     11  C   UNL d   1      -0.625  -1.339   0.355  0.00  0.00    -0.018 A 
ATOM     12  O   UNL d   1       1.543  -1.651   1.018  0.00  0.00    -0.313 OA
ATOM     13  O   UNL d   1       1.954   0.487   1.793  0.00  0.00    -0.259 OA
ATOM     14  C   UNL d   1       0.444  -2.354   0.398  0.00  0.00     0.218 A 
ATOM     15  C   UNL d   1      -1.920  -1.421  -0.111  0.00  0.00     0.012 A 
ATOM     16  C   UNL d   1      -2.696  -0.256  -0.099  0.00  0.00     0.030 A 
ENDBRANCH   2   7
BRANCH   3  17
ATOM     17  C   UNL d   1      -1.150   5.264   0.338  0.00  0.00     0.036 A 
ATOM     18  C   UNL d   1      -2.026   6.336   0.534  0.00  0.00     0.031 A 
ATOM     19  C   UNL d   1      -1.541   7.644   0.644  0.00  0.00     0.026 A 
ATOM     20  C   UNL d   1      -0.174   7.886   0.572  0.00  0.00     0.034 A 
ATOM     21  C   UNL d   1       0.713   6.831   0.382  0.00  0.00     0.026 A 
ATOM     22 CL   UNL d   1       0.420   9.493   0.727  0.00  0.00    -0.084 Cl
ATOM     23  C   UNL d   1       0.226   5.524   0.260  0.00  0.00     0.031 A 
ENDBRANCH   3  17
TORSDOF 2
