REMARK  4 active torsions:
REMARK  status: ('A' for Active; 'I' for Inactive)
REMARK    1  A    between atoms: C_6  and  C_1 
REMARK    2  A    between atoms: N_4  and  C_2 
REMARK       I    between atoms: C_3  and  N_4 
REMARK    3  A    between atoms: C_5  and  C_3 
REMARK    4  A    between atoms: O_14  and  C_6 
ROOT
ATOM      1  C   UNL d   1       0.753  -0.129   0.350  0.00  0.00     0.070 A 
ATOM      2  C   UNL d   1       0.357   1.213   0.153  0.00  0.00     0.052 A 
ATOM      3  C   UNL d   1      -0.160  -1.187   0.160  0.00  0.00    -0.043 A 
ATOM      4  C   UNL d   1      -0.981   1.483  -0.148  0.00  0.00     0.030 A 
ATOM      5  C   UNL d   1      -1.908   0.445  -0.264  0.00  0.00     0.003 A 
ATOM      6  C   UNL d   1      -1.498  -0.879  -0.122  0.00  0.00     0.008 A 
ATOM      7  C   UNL d   1       0.244  -2.633   0.252  0.00  0.00     0.049 C 
ENDROOT
BRANCH   2   8
ATOM      8  N   UNL d   1       1.308   2.256   0.240  0.00  0.00    -0.320 N 
ATOM      9  C   UNL d   1       1.316   3.392  -0.554  0.00  0.00     0.279 C 
ATOM     10  O   UNL d   1       0.443   3.684  -1.369  0.00  0.00    -0.265 OA
ATOM     11  H   UNL d   1       2.189   2.070   0.716  0.00  0.00     0.169 HD
BRANCH   9  12
ATOM     12  C   UNL d   1       2.550   4.146  -0.440  0.00  0.00     0.142 A 
ATOM     13  O   UNL d   1       3.401   3.887   0.603  0.00  0.00    -0.317 OA
ATOM     14  C   UNL d   1       4.476   4.702   0.454  0.00  0.00     0.143 A 
ATOM     15  C   UNL d   1       4.350   5.464  -0.684  0.00  0.00     0.027 A 
ATOM     16  C   UNL d   1       3.106   5.113  -1.256  0.00  0.00     0.045 A 
ENDBRANCH   9  12
ENDBRANCH   2   8
BRANCH   1  17
ATOM     17  C   UNL d   1       2.155  -0.445   0.709  0.00  0.00     0.179 C 
ATOM     18  O   UNL d   1       2.473  -1.108   1.678  0.00  0.00    -0.646 OA
BRANCH  17  19
ATOM     19  O   UNL d   1       3.041   0.085  -0.164  0.00  0.00    -0.773 OA
ATOM     20  H   UNL d   1       2.627   0.488  -0.954  0.00  0.00     0.167 HD
ENDBRANCH  17  19
ENDBRANCH   1  17
TORSDOF 4
