REMARK  3 active torsions:
REMARK  status: ('A' for Active; 'I' for Inactive)
REMARK    1  A    between atoms: C_7  and  C_1 
REMARK    2  A    between atoms: C_12  and  C_2 
REMARK    3  A    between atoms: N_5  and  C_7 
ROOT
ATOM      1  C   UNL d   1       0.817   0.749   0.220  0.00  0.00     0.016 A 
ATOM      2  C   UNL d   1       0.275   0.016  -0.891  0.00  0.00     0.067 A 
ATOM      3  N   UNL d   1      -0.857  -0.617  -0.531  0.00  0.00    -0.300 N 
ATOM      4  HN  UNL d   1      -1.439  -1.224  -1.108  1.00  0.00     0.187 HD
ATOM      5  N   UNL d   1      -1.050  -0.278   0.746  0.00  0.00    -0.311 N 
ATOM      6  C   UNL d   1      -0.095   0.550   1.240  0.00  0.00     0.118 A 
ATOM      7  H   UNL d   1      -1.859  -0.659   1.224  0.00  0.00     0.186 HD
ENDROOT
BRANCH   1   8
ATOM      8  C   UNL d   1       2.085   1.536   0.335  0.00  0.00     0.315 C 
BRANCH   8   9
ATOM      9  N   UNL d   1       3.262   0.766  -0.078  0.00  0.00     0.097 N 
ATOM     10  C   UNL d   1       4.457   1.633  -0.131  0.00  0.00     0.311 C 
ATOM     11  C   UNL d   1       5.749   1.061   0.414  0.00  0.00    -0.024 A 
ATOM     12  C   UNL d   1       6.985   1.573   0.001  0.00  0.00     0.009 A 
ATOM     13  C   UNL d   1       5.719   0.079   1.416  0.00  0.00    -0.049 A 
ATOM     14  C   UNL d   1       8.171   1.101   0.565  0.00  0.00     0.001 A 
ATOM     15  C   UNL d   1       8.133   0.123   1.558  0.00  0.00     0.001 A 
ATOM     16  C   UNL d   1       6.908  -0.385   1.989  0.00  0.00     0.007 A 
ATOM     17  C   UNL d   1       4.381  -0.447   1.847  0.00  0.00     0.069 C 
ATOM     18  C   UNL d   1       3.457  -0.507   0.630  0.00  0.00     0.277 C 
ENDBRANCH   8   9
ENDBRANCH   1   8
BRANCH   2  19
ATOM     19  C   UNL d   1       0.797  -0.136  -2.252  0.00  0.00    -0.007 A 
ATOM     20  C   UNL d   1       0.734  -1.384  -2.891  0.00  0.00     0.014 A 
ATOM     21  C   UNL d   1       1.220  -1.548  -4.190  0.00  0.00     0.001 A 
ATOM     22  C   UNL d   1       1.772  -0.463  -4.868  0.00  0.00     0.000 A 
ATOM     23  C   UNL d   1       1.830   0.785  -4.250  0.00  0.00     0.001 A 
ATOM     24  C   UNL d   1       1.342   0.948  -2.951  0.00  0.00     0.014 A 
ENDBRANCH   2  19
TORSDOF 3
