REMARK  2 active torsions:
REMARK  status: ('A' for Active; 'I' for Inactive)
REMARK    1  A    between atoms: C_9  and  C_3 
REMARK    2  A    between atoms: O_6  and  C_9 
ROOT
ATOM      1  C   UNL d   1       1.259   0.166  -0.028  0.00  0.00    -0.001 A 
ATOM      2  C   UNL d   1       0.065  -0.643  -0.112  0.00  0.00     0.018 A 
ATOM      3  C   UNL d   1       1.415   1.611   0.046  0.00  0.00    -0.022 A 
ATOM      4  C   UNL d   1       2.478  -0.584  -0.009  0.00  0.00    -0.024 A 
ATOM      5  I   UNL d   1      -1.902   0.075  -0.492  0.00  0.00    -0.044 I 
ATOM      6  C   UNL d   1       1.309  -2.720   0.023  0.00  0.00     0.002 A 
ATOM      7  C   UNL d   1       3.847   1.422  -0.060  0.00  0.00     0.002 A 
ATOM      8  C   UNL d   1       0.101  -2.050  -0.062  0.00  0.00     0.019 A 
ATOM      9  C   UNL d   1       2.701   2.194  -0.019  0.00  0.00     0.010 A 
ATOM     10  C   UNL d   1       2.484  -1.988   0.025  0.00  0.00     0.012 A 
ATOM     11  C   UNL d   1       3.731   0.044  -0.030  0.00  0.00     0.012 A 
ENDROOT
BRANCH   3  12
ATOM     12  C   UNL d   1       0.259   2.572   0.215  0.00  0.00     0.203 C 
BRANCH  12  13
ATOM     13  O   UNL d   1       0.662   3.771   0.886  0.00  0.00    -0.396 OA
ATOM     14  H   UNL d   1      -0.111   4.086   1.381  0.00  0.00     0.209 HD
ENDBRANCH  12  13
ENDBRANCH   3  12
TORSDOF 2
