REMARK  3 active torsions:
REMARK  status: ('A' for Active; 'I' for Inactive)
REMARK    1  A    between atoms: S_7  and  C_1 
REMARK    2  A    between atoms: C_8  and  S_7 
REMARK    3  A    between atoms: C_9  and  C_8 
ROOT
ATOM      1  C   UNL d   1      -2.083  -0.722  -0.074  0.00  0.00     0.113 A 
ATOM      2  N   UNL d   1      -2.033   0.482   0.445  0.00  0.00    -0.344 N 
ATOM      3  HN  UNL d   1      -2.826   0.984   0.843  1.00  0.00     0.167 HD
ATOM      4  S   UNL d   1      -0.610  -1.340  -0.689  0.00  0.00    -0.063 SA
ATOM      5  C   UNL d   1      -0.736   0.969   0.369  0.00  0.00     0.050 A 
ATOM      6  C   UNL d   1       0.191   0.116  -0.235  0.00  0.00     0.034 A 
ATOM      7  C   UNL d   1      -0.293   2.223   0.839  0.00  0.00     0.031 A 
ATOM      8  C   UNL d   1       1.539   0.477  -0.397  0.00  0.00     0.021 A 
ATOM      9  C   UNL d   1       1.951   1.728   0.074  0.00  0.00     0.002 A 
ATOM     10  C   UNL d   1       1.049   2.592   0.688  0.00  0.00     0.002 A 
ENDROOT
BRANCH   1  11
ATOM     11  S   UNL d   1      -3.567  -1.653  -0.118  0.00  0.00    -0.100 SA
BRANCH  11  12
ATOM     12  C   UNL d   1      -4.793  -0.315  -0.090  0.00  0.00     0.120 C 
BRANCH  12  13
ATOM     13  C   UNL d   1      -6.209  -0.842  -0.116  0.00  0.00    -0.049 A 
ATOM     14  C   UNL d   1      -6.913  -1.054   1.078  0.00  0.00     0.008 A 
ATOM     15  C   UNL d   1      -8.229  -1.522   1.055  0.00  0.00     0.001 A 
ATOM     16  C   UNL d   1      -8.852  -1.793  -0.161  0.00  0.00     0.000 A 
ATOM     17  C   UNL d   1      -8.159  -1.603  -1.356  0.00  0.00     0.001 A 
ATOM     18  C   UNL d   1      -6.844  -1.132  -1.334  0.00  0.00     0.008 A 
ENDBRANCH  12  13
ENDBRANCH  11  12
ENDBRANCH   1  11
TORSDOF 3
