REMARK  4 active torsions:
REMARK  status: ('A' for Active; 'I' for Inactive)
REMARK    1  A    between atoms: O_5  and  C_1 
REMARK       I    between atoms: N_6  and  C_1 
REMARK    2  A    between atoms: N_2  and  C_3 
REMARK    3  A    between atoms: C_4  and  O_5 
REMARK    4  A    between atoms: C_9  and  N_6 
ROOT
ATOM      1  C   UNL d   1      -1.394   1.146   0.538  0.00  0.00     0.064 A 
ATOM      2  C   UNL d   1      -0.930   0.797  -0.752  0.00  0.00     0.107 A 
ATOM      3  C   UNL d   1      -1.739   0.894  -1.900  0.00  0.00     0.040 A 
ATOM      4  C   UNL d   1      -2.749   1.534   0.596  0.00  0.00     0.032 A 
ATOM      5  C   UNL d   1      -3.057   1.315  -1.792  0.00  0.00     0.003 A 
ATOM      6  C   UNL d   1      -3.571   1.607  -0.538  0.00  0.00     0.002 A 
ENDROOT
BRANCH   2   7
ATOM      7  O   UNL d   1       0.307   0.111  -0.888  0.00  0.00    -0.259 OA
BRANCH   7   8
ATOM      8  C   UNL d   1       1.139   0.410  -1.956  0.00  0.00     0.370 C 
ATOM      9  N   UNL d   1       2.047  -0.567  -2.293  0.00  0.00    -0.302 N 
ATOM     10  H   UNL d   1       2.629  -0.261  -3.062  0.00  0.00     0.171 HD
ATOM     11  O   UNL d   1       1.112   1.458  -2.591  0.00  0.00    -0.238 OA
BRANCH   9  12
ATOM     12  C   UNL d   1       2.291  -1.854  -1.784  0.00  0.00     0.036 A 
ATOM     13  C   UNL d   1       1.566  -2.466  -0.760  0.00  0.00     0.029 A 
ATOM     14  C   UNL d   1       1.936  -3.730  -0.284  0.00  0.00     0.002 A 
ATOM     15  C   UNL d   1       3.026  -4.400  -0.834  0.00  0.00     0.000 A 
ATOM     16  C   UNL d   1       3.730  -3.820  -1.883  0.00  0.00     0.002 A 
ATOM     17  C   UNL d   1       3.360  -2.559  -2.358  0.00  0.00     0.029 A 
ENDBRANCH   9  12
ENDBRANCH   7   8
ENDBRANCH   2   7
BRANCH   1  18
ATOM     18  N   UNL d   1      -0.613   1.193   1.684  0.00  0.00    -0.375 N 
ATOM     19  C   UNL d   1      -1.150   0.868   3.021  0.00  0.00     0.149 C 
ATOM     20  C   UNL d   1      -0.540   1.818   4.065  0.00  0.00     0.187 C 
ATOM     21  O   UNL d   1       0.893   1.724   4.069  0.00  0.00    -0.388 OA
ATOM     22  C   UNL d   1       1.409   2.102   2.783  0.00  0.00     0.187 C 
ATOM     23  C   UNL d   1       0.859   1.221   1.643  0.00  0.00     0.149 C 
ENDBRANCH   1  18
TORSDOF 4
