REMARK  2 active torsions:
REMARK  status: ('A' for Active; 'I' for Inactive)
REMARK    1  A    between atoms: C_3  and  C_4 
REMARK    2  A    between atoms: C_15  and  C_10 
ROOT
ATOM      1  C   UNL d   1      -1.237  -0.649   0.180  0.00  0.00     0.047 A 
ATOM      2  C   UNL d   1      -1.800   0.745   0.312  0.00  0.00     0.257 A 
ATOM      3  C   UNL d   1      -1.909  -1.799   0.031  0.00  0.00     0.049 C 
ATOM      4  N   UNL d   1      -0.694   1.581   0.258  0.00  0.00    -0.322 N 
ATOM      5  C   UNL d   1       0.226  -0.517   0.140  0.00  0.00     0.006 A 
ATOM      6  C   UNL d   1       0.489   0.856   0.165  0.00  0.00     0.046 A 
ATOM      7  O   UNL d   1      -2.953   1.087   0.480  0.00  0.00    -0.267 OA
ATOM      8  C   UNL d   1       1.265  -1.428   0.067  0.00  0.00     0.015 A 
ATOM      9  C   UNL d   1       1.769   1.369   0.107  0.00  0.00     0.030 A 
ATOM     10  C   UNL d   1       2.573  -0.930   0.013  0.00  0.00     0.001 A 
ATOM     11  C   UNL d   1       2.822   0.456   0.029  0.00  0.00     0.002 A 
ATOM     12  H   UNL d   1      -0.772   2.584   0.316  0.00  0.00     0.169 HD
ENDROOT
BRANCH   3  13
ATOM     13  C   UNL d   1      -3.311  -1.855  -0.120  0.00  0.00     0.057 A 
ATOM     14  N   UNL d   1      -4.142  -1.743   0.964  0.00  0.00    -0.344 N 
ATOM     15  C   UNL d   1      -5.436  -1.851   0.515  0.00  0.00     0.081 A 
ATOM     16  H   UNL d   1      -3.863  -1.565   1.918  0.00  0.00     0.167 HD
ATOM     17  N   UNL d   1      -5.466  -2.035  -0.788  0.00  0.00    -0.348 N 
ATOM     18  C   UNL d   1      -4.155  -2.007  -1.202  0.00  0.00     0.033 A 
ATOM     19  HN  UNL d   1      -6.292  -2.171  -1.371  1.00  0.00     0.167 HD
ATOM     20  C   UNL d   1      -3.811  -2.100  -2.637  0.00  0.00     0.070 C 
BRANCH  15  21
ATOM     21  C   UNL d   1      -6.611  -1.741   1.421  0.00  0.00     0.072 C 
ATOM     22  C   UNL d   1      -7.037  -0.293   1.605  0.00  0.00     0.013 C 
ENDBRANCH  15  21
ENDBRANCH   3  13
TORSDOF 2
