REMARK  3 active torsions:
REMARK  status: ('A' for Active; 'I' for Inactive)
REMARK    1  A    between atoms: C_14  and  N_2 
REMARK    2  A    between atoms: C_7  and  C_8 
REMARK       I    between atoms: N_9  and  C_7 
REMARK    3  A    between atoms: C_15  and  N_9 
ROOT
ATOM      1  N   UNL d   1       2.340   0.181  -0.365  0.00  0.00    -0.019 NA
ATOM      2  N   UNL d   1       1.497   1.211  -0.124  0.00  0.00    -0.270 N 
ATOM      3  N   UNL d   1       1.611  -0.909  -0.534  0.00  0.00    -0.282 N 
ATOM      4  HN  UNL d   1       1.968  -1.841  -0.744  1.00  0.00     0.184 HD
ATOM      5  C   UNL d   1       0.191   0.787  -0.093  0.00  0.00     0.077 A 
ATOM      6  C   UNL d   1       0.296  -0.570  -0.378  0.00  0.00     0.075 A 
ATOM      7  C   UNL d   1      -2.104  -0.778  -0.231  0.00  0.00     0.034 A 
ATOM      8  C   UNL d   1      -0.855  -1.370  -0.465  0.00  0.00     0.050 A 
ATOM      9  C   UNL d   1      -1.033   1.416   0.123  0.00  0.00     0.034 A 
ATOM     10  C   UNL d   1      -2.174   0.603   0.056  0.00  0.00     0.019 A 
ENDROOT
BRANCH   7  11
ATOM     11  C   UNL d   1      -3.399  -1.538  -0.254  0.00  0.00     0.256 C 
ATOM     12  N   UNL d   1      -3.327  -2.924  -0.311  0.00  0.00    -0.323 N 
ATOM     13  H   UNL d   1      -2.418  -3.359  -0.271  0.00  0.00     0.169 HD
ATOM     14  O   UNL d   1      -4.435  -0.887  -0.168  0.00  0.00    -0.267 OA
BRANCH  12  15
ATOM     15  C   UNL d   1      -4.420  -3.814  -0.172  0.00  0.00     0.035 A 
ATOM     16  C   UNL d   1      -5.758  -3.415  -0.234  0.00  0.00     0.031 A 
ATOM     17  C   UNL d   1      -6.786  -4.315   0.062  0.00  0.00     0.026 A 
ATOM     18  C   UNL d   1      -6.480  -5.627   0.404  0.00  0.00     0.034 A 
ATOM     19  C   UNL d   1      -5.157  -6.062   0.399  0.00  0.00     0.026 A 
ATOM     20 CL   UNL d   1      -7.737  -6.709   0.856  0.00  0.00    -0.084 Cl
ATOM     21  C   UNL d   1      -4.130  -5.159   0.098  0.00  0.00     0.031 A 
ENDBRANCH  12  15
ENDBRANCH   7  11
BRANCH   2  22
ATOM     22  C   UNL d   1       2.022   2.563  -0.012  0.00  0.00     0.098 C 
ATOM     23  C   UNL d   1       2.922   2.722   1.214  0.00  0.00     0.033 C 
ATOM     24  C   UNL d   1       2.756   2.973  -1.291  0.00  0.00     0.033 C 
ENDBRANCH   2  22
TORSDOF 3
