REMARK  4 active torsions:
REMARK  status: ('A' for Active; 'I' for Inactive)
REMARK    1  A    between atoms: N_2  and  C_1 
REMARK    2  A    between atoms: N_4  and  N_2 
REMARK       I    between atoms: C_3  and  N_4 
REMARK    3  A    between atoms: C_5  and  C_3 
REMARK    4  A    between atoms: C_8  and  C_9 
ROOT
ATOM      1  C   UNL d   1      -1.315   4.300  -0.024  0.00  0.00     0.266 C 
ATOM      2  N   UNL d   1      -1.887   4.149   1.235  0.00  0.00    -0.283 N 
ATOM      3  O   UNL d   1      -1.786   3.845  -1.059  0.00  0.00    -0.266 OA
ATOM      4  H   UNL d   1      -1.278   4.203   2.050  0.00  0.00     0.184 HD
ENDROOT
BRANCH   1   5
ATOM      5  C   UNL d   1      -0.041   5.070  -0.042  0.00  0.00     0.033 A 
ATOM      6  C   UNL d   1       0.970   4.727  -0.941  0.00  0.00     0.017 A 
ATOM      7  C   UNL d   1       2.169   5.457  -0.959  0.00  0.00     0.009 A 
ATOM      8  C   UNL d   1       2.380   6.551  -0.094  0.00  0.00    -0.051 A 
ATOM      9  C   UNL d   1       1.334   6.888   0.781  0.00  0.00     0.009 A 
ATOM     10  C   UNL d   1       0.140   6.159   0.811  0.00  0.00     0.017 A 
BRANCH   8  11
ATOM     11  C   UNL d   1       3.712   7.324  -0.113  0.00  0.00    -0.024 C 
ATOM     12  C   UNL d   1       3.756   8.506   0.887  0.00  0.00     0.019 C 
ATOM     13  C   UNL d   1       4.866   6.369   0.262  0.00  0.00     0.019 C 
ATOM     14  C   UNL d   1       3.978   7.911  -1.515  0.00  0.00     0.019 C 
ENDBRANCH   8  11
ENDBRANCH   1   5
BRANCH   2  15
ATOM     15  N   UNL d   1      -2.953   3.236   1.333  0.00  0.00    -0.200 NA
ATOM     16  H   UNL d   1      -3.605   3.368   0.548  0.00  0.00     0.153 HD
BRANCH  15  17
ATOM     17  C   UNL d   1      -3.638   3.214   2.586  0.00  0.00     0.071 A 
ATOM     18  C   UNL d   1      -5.045   3.061   2.591  0.00  0.00     0.058 A 
ATOM     19 CL   UNL d   1      -5.944   3.094   1.109  0.00  0.00    -0.082 Cl
ATOM     20  C   UNL d   1      -5.769   2.892   3.779  0.00  0.00     0.026 A 
ATOM     21  C   UNL d   1      -5.105   2.857   5.000  0.00  0.00     0.003 A 
ATOM     22  C   UNL d   1      -3.721   3.000   5.031  0.00  0.00     0.026 A 
ATOM     23  C   UNL d   1      -2.992   3.169   3.842  0.00  0.00     0.058 A 
ATOM     24 CL   UNL d   1      -1.269   3.266   4.021  0.00  0.00    -0.082 Cl
ENDBRANCH  15  17
ENDBRANCH   2  15
TORSDOF 4
