REMARK  7 active torsions:
REMARK  status: ('A' for Active; 'I' for Inactive)
REMARK    1  A    between atoms: S_16  and  C_2 
REMARK    2  A    between atoms: C_18  and  C_3 
REMARK    3  A    between atoms: C_10  and  C_11 
REMARK    4  A    between atoms: C_12  and  S_17 
REMARK    5  A    between atoms: C_23  and  S_16 
REMARK    6  A    between atoms: S_17  and  C_18 
REMARK    7  A    between atoms: C_24  and  C_23 
ROOT
ATOM      1  C   UNL d   1       0.667  -2.419  -0.056  0.00  0.00     0.157 C 
ENDROOT
BRANCH   1   2
ATOM      2  S   UNL d   1       1.217  -2.979   1.597  0.00  0.00    -0.121 SA
BRANCH   2   3
ATOM      3  C   UNL d   1       1.865  -4.612   1.206  0.00  0.00     0.015 A 
ATOM      4  C   UNL d   1       3.256  -4.748   1.259  0.00  0.00     0.053 A 
ATOM      5  C   UNL d   1       3.826  -5.998   1.044  0.00  0.00     0.118 A 
ATOM      6  N   UNL d   1       3.064  -7.088   0.768  0.00  0.00    -0.352 N 
ATOM      7  C   UNL d   1       1.728  -6.970   0.736  0.00  0.00     0.044 A 
ATOM      8  HN  UNL d   1       3.504  -7.990   0.587  1.00  0.00     0.166 HD
ATOM      9  C   UNL d   1       1.056  -5.747   0.955  0.00  0.00     0.007 A 
ATOM     10  C   UNL d   1       0.988  -8.119   0.497  0.00  0.00     0.030 A 
ATOM     11  C   UNL d   1      -0.362  -5.748   0.932  0.00  0.00     0.015 A 
ATOM     12  C   UNL d   1      -1.083  -6.917   0.688  0.00  0.00     0.001 A 
ATOM     13  C   UNL d   1      -0.406  -8.107   0.469  0.00  0.00     0.002 A 
BRANCH   5  14
ATOM     14  C   UNL d   1       5.338  -6.146   1.142  0.00  0.00     0.432 C 
ATOM     15  F   UNL d   1       5.796  -7.416   0.961  0.00  0.00    -0.165 F 
ATOM     16  F   UNL d   1       5.993  -5.379   0.221  0.00  0.00    -0.165 F 
ATOM     17  F   UNL d   1       5.821  -5.745   2.355  0.00  0.00    -0.165 F 
ENDBRANCH   5  14
ENDBRANCH   2   3
ENDBRANCH   1   2
BRANCH   1  18
ATOM     18  C   UNL d   1       0.136  -1.025   0.012  0.00  0.00     0.109 A 
ATOM     19  N   UNL d   1       0.898   0.126   0.082  0.00  0.00    -0.319 N 
ATOM     20  C   UNL d   1       0.002   1.158   0.152  0.00  0.00     0.162 A 
ATOM     21  C   UNL d   1       2.336   0.183   0.092  0.00  0.00     0.159 C 
ATOM     22  N   UNL d   1      -1.220   0.683   0.092  0.00  0.00    -0.278 N 
ATOM     23  N   UNL d   1      -1.138  -0.684   0.001  0.00  0.00    -0.286 N 
ATOM     24  HN  UNL d   1      -2.079   1.233   0.110  1.00  0.00     0.189 HD
ATOM     25  HN  UNL d   1      -1.928  -1.327  -0.064  1.00  0.00     0.188 HD
BRANCH  20  26
ATOM     26  S   UNL d   1       0.431   2.829   0.303  0.00  0.00    -0.088 SA
BRANCH  26  27
ATOM     27  C   UNL d   1      -1.151   3.508   0.889  0.00  0.00     0.121 C 
BRANCH  27  28
ATOM     28  C   UNL d   1      -1.097   4.999   1.137  0.00  0.00    -0.049 A 
ATOM     29  C   UNL d   1      -1.599   5.897   0.183  0.00  0.00     0.008 A 
ATOM     30  C   UNL d   1      -1.613   7.270   0.438  0.00  0.00     0.001 A 
ATOM     31  C   UNL d   1      -1.114   7.763   1.643  0.00  0.00     0.000 A 
ATOM     32  C   UNL d   1      -0.591   6.883   2.588  0.00  0.00     0.001 A 
ATOM     33  C   UNL d   1      -0.579   5.510   2.337  0.00  0.00     0.008 A 
ENDBRANCH  27  28
ENDBRANCH  26  27
ENDBRANCH  20  26
ENDBRANCH   1  18
TORSDOF 7
