REMARK  6 active torsions:
REMARK  status: ('A' for Active; 'I' for Inactive)
REMARK    1  A    between atoms: C_3  and  C_1 
REMARK    2  A    between atoms: C_13  and  N_2 
REMARK    3  A    between atoms: C_6  and  C_11 
REMARK    4  A    between atoms: C_7  and  C_12 
REMARK       I    between atoms: N_10  and  C_7 
REMARK    5  A    between atoms: C_14  and  N_10 
REMARK    6  A    between atoms: C_19  and  C_13 
ROOT
ATOM      1  C   UNL d   1      -4.075   3.206  -1.355  0.00  0.00     0.032 A 
ATOM      2  C   UNL d   1      -3.301   2.034  -1.270  0.00  0.00     0.026 A 
ATOM      3  C   UNL d   1      -3.464   1.122  -0.221  0.00  0.00    -0.039 A 
ATOM      4  C   UNL d   1      -5.036   3.456  -0.369  0.00  0.00     0.017 A 
ATOM      5  C   UNL d   1      -5.198   2.558   0.690  0.00  0.00     0.002 A 
ATOM      6  C   UNL d   1      -4.419   1.401   0.762  0.00  0.00     0.009 A 
ENDROOT
BRANCH   1   7
ATOM      7  C   UNL d   1      -3.825   4.097  -2.528  0.00  0.00     0.256 C 
ATOM      8  N   UNL d   1      -4.374   5.370  -2.509  0.00  0.00    -0.323 N 
ATOM      9  H   UNL d   1      -4.842   5.674  -1.668  0.00  0.00     0.169 HD
ATOM     10  O   UNL d   1      -3.108   3.651  -3.421  0.00  0.00    -0.267 OA
BRANCH   8  11
ATOM     11  C   UNL d   1      -4.171   6.372  -3.489  0.00  0.00     0.035 A 
ATOM     12  C   UNL d   1      -3.575   6.125  -4.729  0.00  0.00     0.045 A 
ATOM     13  C   UNL d   1      -3.293   7.168  -5.626  0.00  0.00     0.050 A 
ATOM     14  C   UNL d   1      -3.651   8.477  -5.276  0.00  0.00     0.016 A 
ATOM     15  C   UNL d   1      -4.293   8.728  -4.064  0.00  0.00     0.003 A 
ATOM     16  C   UNL d   1      -4.558   7.679  -3.178  0.00  0.00     0.029 A 
BRANCH  13  17
ATOM     17  C   UNL d   1      -2.587   6.890  -6.928  0.00  0.00     0.417 C 
ATOM     18  F   UNL d   1      -2.362   5.569  -7.170  0.00  0.00    -0.166 F 
ATOM     19  F   UNL d   1      -3.283   7.351  -8.005  0.00  0.00    -0.166 F 
ATOM     20  F   UNL d   1      -1.365   7.493  -6.993  0.00  0.00    -0.166 F 
ENDBRANCH  13  17
ENDBRANCH   8  11
ENDBRANCH   1   7
BRANCH   3  21
ATOM     21  C   UNL d   1      -2.676  -0.169  -0.197  0.00  0.00     0.170 C 
BRANCH  21  22
ATOM     22  N   UNL d   1      -3.400  -1.258  -0.854  0.00  0.00    -0.320 N 
ATOM     23  C   UNL d   1      -3.243  -1.462  -2.218  0.00  0.00     0.110 A 
ATOM     24  C   UNL d   1      -3.930  -2.412  -2.880  0.00  0.00     0.063 A 
ATOM     25  C   UNL d   1      -4.876  -3.225  -2.137  0.00  0.00     0.023 A 
ATOM     26  C   UNL d   1      -5.055  -3.050  -0.822  0.00  0.00     0.075 A 
ATOM     27  C   UNL d   1      -4.280  -2.016  -0.085  0.00  0.00     0.247 A 
ATOM     28  O   UNL d   1      -4.457  -1.888   1.123  0.00  0.00    -0.268 OA
BRANCH  24  29
ATOM     29  C   UNL d   1      -3.766  -2.631  -4.358  0.00  0.00     0.418 C 
ATOM     30  F   UNL d   1      -4.670  -3.507  -4.868  0.00  0.00    -0.166 F 
ATOM     31  F   UNL d   1      -3.905  -1.476  -5.058  0.00  0.00    -0.166 F 
ATOM     32  F   UNL d   1      -2.536  -3.124  -4.654  0.00  0.00    -0.166 F 
ENDBRANCH  24  29
ENDBRANCH  21  22
ENDBRANCH   3  21
TORSDOF 6
