REMARK  7 active torsions:
REMARK  status: ('A' for Active; 'I' for Inactive)
REMARK    1  A    between atoms: C_8  and  C_2 
REMARK    2  A    between atoms: S_13  and  C_5 
REMARK    3  A    between atoms: C_9  and  C_17 
REMARK    4  A    between atoms: O_16  and  C_12 
REMARK    5  A    between atoms: C_22  and  S_13 
REMARK    6  A    between atoms: C_17  and  O_16 
REMARK    7  A    between atoms: C_23  and  C_22 
ROOT
ATOM      1  O   UNL d   1      -1.171   0.028  -0.009  0.00  0.00    -0.267 OA
ATOM      2  C   UNL d   1      -0.309  -1.038   0.107  0.00  0.00     0.176 A 
ATOM      3  N   UNL d   1       0.939  -0.660   0.286  0.00  0.00    -0.277 N 
ATOM      4  HN  UNL d   1       1.748  -1.268   0.415  1.00  0.00     0.189 HD
ATOM      5  C   UNL d   1      -0.310   1.096   0.087  0.00  0.00     0.204 A 
ATOM      6  N   UNL d   1       0.938   0.716   0.265  0.00  0.00    -0.272 N 
ATOM      7  HN  UNL d   1       1.750   1.325   0.366  1.00  0.00     0.189 HD
ENDROOT
BRANCH   2   8
ATOM      8  C   UNL d   1      -0.849  -2.381  -0.017  0.00  0.00     0.032 A 
ATOM      9  C   UNL d   1       0.001  -3.480   0.071  0.00  0.00     0.106 A 
ATOM     10  N   UNL d   1      -0.388  -4.772  -0.083  0.00  0.00    -0.346 N 
ATOM     11  C   UNL d   1      -1.688  -5.005  -0.335  0.00  0.00     0.142 A 
ATOM     12  HN  UNL d   1       0.282  -5.538  -0.009  1.00  0.00     0.167 HD
ATOM     13  C   UNL d   1      -2.622  -3.982  -0.429  0.00  0.00     0.057 A 
ATOM     14  C   UNL d   1      -2.194  -2.658  -0.263  0.00  0.00     0.021 A 
BRANCH  11  15
ATOM     15  O   UNL d   1      -1.967  -6.316  -0.593  0.00  0.00    -0.327 OA
BRANCH  15  16
ATOM     16  C   UNL d   1      -3.200  -6.799  -0.050  0.00  0.00     0.294 C 
BRANCH  16  17
ATOM     17  C   UNL d   1      -3.321  -8.314  -0.207  0.00  0.00     0.408 C 
ATOM     18  F   UNL d   1      -2.168  -8.909  -0.577  0.00  0.00    -0.169 F 
ATOM     19  F   UNL d   1      -3.717  -8.884   0.956  0.00  0.00    -0.169 F 
ATOM     20  F   UNL d   1      -4.256  -8.623  -1.138  0.00  0.00    -0.169 F 
ENDBRANCH  16  17
ENDBRANCH  15  16
ENDBRANCH  11  15
ENDBRANCH   2   8
BRANCH   5  21
ATOM     21  S   UNL d   1      -0.774   2.759  -0.077  0.00  0.00    -0.080 SA
BRANCH  21  22
ATOM     22  C   UNL d   1      -2.375   2.771   0.767  0.00  0.00     0.121 C 
BRANCH  22  23
ATOM     23  C   UNL d   1      -2.927   4.174   0.867  0.00  0.00    -0.049 A 
ATOM     24  C   UNL d   1      -3.667   4.728  -0.191  0.00  0.00     0.008 A 
ATOM     25  C   UNL d   1      -4.155   6.034  -0.112  0.00  0.00     0.001 A 
ATOM     26  C   UNL d   1      -3.909   6.803   1.025  0.00  0.00     0.000 A 
ATOM     27  C   UNL d   1      -3.173   6.268   2.080  0.00  0.00     0.001 A 
ATOM     28  C   UNL d   1      -2.680   4.964   2.000  0.00  0.00     0.008 A 
ENDBRANCH  22  23
ENDBRANCH  21  22
ENDBRANCH   5  21
TORSDOF 7
