REMARK  3 active torsions:
REMARK  status: ('A' for Active; 'I' for Inactive)
REMARK    1  A    between atoms: C_5  and  N_1 
REMARK    2  A    between atoms: C_7  and  C_5 
REMARK    3  A    between atoms: C_9  and  C_7 
ROOT
ATOM      1  N   UNL d   1       1.411  -0.960   0.297  0.00  0.00    -0.284 N 
ATOM      2  C   UNL d   1       1.844   0.095   1.085  0.00  0.00     0.373 A 
ATOM      3  C   UNL d   1       0.246  -0.565  -0.317  0.00  0.00     0.074 A 
ATOM      4  O   UNL d   1       1.055   1.230   0.881  0.00  0.00    -0.259 OA
ATOM      5  C   UNL d   1       0.063   0.757   0.038  0.00  0.00     0.107 A 
ATOM      6  O   UNL d   1       2.754   0.047   1.902  0.00  0.00    -0.237 OA
ATOM      7  C   UNL d   1      -0.676  -1.251  -1.081  0.00  0.00     0.039 A 
ATOM      8  C   UNL d   1      -1.040   1.474  -0.371  0.00  0.00     0.040 A 
ATOM      9  C   UNL d   1      -1.830  -0.559  -1.485  0.00  0.00    -0.060 A 
ATOM     10  C   UNL d   1      -1.996   0.803  -1.139  0.00  0.00     0.009 A 
ATOM     11  C   UNL d   1      -2.920  -1.262  -2.244  0.00  0.00     0.048 C 
ENDROOT
BRANCH   1  12
ATOM     12  C   UNL d   1       1.934  -2.296   0.387  0.00  0.00     0.213 C 
BRANCH  12  13
ATOM     13  C   UNL d   1       3.365  -2.414  -0.156  0.00  0.00     0.152 C 
ATOM     14  O   UNL d   1       3.935  -1.464  -0.702  0.00  0.00    -0.295 OA
BRANCH  13  15
ATOM     15  C   UNL d   1       4.031  -3.809  -0.126  0.00  0.00     0.011 C 
ATOM     16  C   UNL d   1       3.818  -4.440  -1.508  0.00  0.00     0.022 C 
ATOM     17  C   UNL d   1       5.536  -3.652   0.143  0.00  0.00     0.022 C 
ATOM     18  C   UNL d   1       3.444  -4.727   0.955  0.00  0.00     0.022 C 
ENDBRANCH  13  15
ENDBRANCH  12  13
ENDBRANCH   1  12
TORSDOF 3
