REMARK  7 active torsions:
REMARK  status: ('A' for Active; 'I' for Inactive)
REMARK    1  A    between atoms: C_9  and  C_1 
REMARK       I    between atoms: C_3  and  N_2 
REMARK       I    between atoms: N_13  and  C_3 
REMARK    2  A    between atoms: N_11  and  C_4 
REMARK    3  A    between atoms: C_5  and  C_8 
REMARK    4  A    between atoms: C_6  and  C_17 
REMARK    5  A    between atoms: C_8  and  C_10 
REMARK    6  A    between atoms: O_29  and  C_9 
REMARK       I    between atoms: C_10  and  N_11 
REMARK    7  A    between atoms: C_25  and  N_13 
ROOT
ATOM      1  N   UNL d   1       0.521   1.069   0.197  0.00  0.00    -0.318 N 
ATOM      2  C   UNL d   1       1.457   0.483  -0.609  0.00  0.00     0.323 C 
ATOM      3  C   UNL d   1       0.366   2.581   0.262  0.00  0.00     0.189 C 
ATOM      4  C   UNL d   1      -0.042   3.072   1.695  0.00  0.00     0.241 C 
ATOM      5  N   UNL d   1       1.508  -0.834  -0.912  0.00  0.00    -0.309 N 
ATOM      6  N   UNL d   1      -0.886   2.268   2.416  0.00  0.00    -0.358 N 
ATOM      7  O   UNL d   1       2.425   1.114  -1.046  0.00  0.00    -0.247 OA
ATOM      8  O   UNL d   1       0.225   4.170   2.173  0.00  0.00    -0.271 OA
ATOM      9  C   UNL d   1      -0.451   0.317   0.997  0.00  0.00     0.148 C 
ATOM     10  C   UNL d   1      -0.625   0.859   2.409  0.00  0.00     0.142 C 
ATOM     11  H   UNL d   1       2.443  -1.001  -1.270  0.00  0.00     0.170 HD
ATOM     12  H   UNL d   1      -1.129   2.697   3.302  0.00  0.00     0.162 HD
ENDROOT
BRANCH   3  13
ATOM     13  C   UNL d   1       1.540   3.466  -0.227  0.00  0.00     0.138 C 
BRANCH  13  14
ATOM     14  C   UNL d   1       1.155   4.944  -0.216  0.00  0.00     0.224 C 
ATOM     15  N   UNL d   1       2.027   5.726   0.521  0.00  0.00    -0.326 N 
ATOM     16  H   UNL d   1       2.814   5.247   0.941  0.00  0.00     0.169 HD
ATOM     17  O   UNL d   1       0.137   5.320  -0.789  0.00  0.00    -0.273 OA
BRANCH  15  18
ATOM     18  C   UNL d   1       1.702   6.934   1.149  0.00  0.00     0.058 A 
ATOM     19  C   UNL d   1       0.672   7.829   0.902  0.00  0.00     0.106 A 
ATOM     20  S   UNL d   1       0.569   9.040   2.126  0.00  0.00    -0.094 SA
ATOM     21  C   UNL d   1       1.955   8.459   2.921  0.00  0.00     0.053 A 
ATOM     22  C   UNL d   1       2.476   7.357   2.288  0.00  0.00     0.038 A 
BRANCH  19  23
ATOM     23  C   UNL d   1      -0.282   7.951  -0.174  0.00  0.00     0.302 C 
ATOM     24  O   UNL d   1      -1.499   8.065  -0.045  0.00  0.00    -0.259 OA
BRANCH  23  25
ATOM     25  O   UNL d   1       0.394   8.100  -1.352  0.00  0.00    -0.322 OA
ATOM     26  C   UNL d   1      -0.430   8.367  -2.488  0.00  0.00     0.213 C 
ENDBRANCH  23  25
ENDBRANCH  19  23
ENDBRANCH  15  18
ENDBRANCH  13  14
ENDBRANCH   3  13
BRANCH   5  27
ATOM     27  C   UNL d   1       0.655  -1.937  -1.102  0.00  0.00     0.036 A 
ATOM     28  C   UNL d   1      -0.734  -1.912  -1.159  0.00  0.00     0.030 A 
ATOM     29  C   UNL d   1      -1.466  -3.093  -1.384  0.00  0.00     0.018 A 
ATOM     30  C   UNL d   1      -0.818  -4.314  -1.621  0.00  0.00     0.048 A 
ATOM     31  C   UNL d   1       0.578  -4.332  -1.614  0.00  0.00     0.018 A 
ATOM     32  C   UNL d   1       1.300  -3.161  -1.353  0.00  0.00     0.030 A 
BRANCH  30  33
ATOM     33  C   UNL d   1      -1.585  -5.577  -1.935  0.00  0.00     0.417 C 
ATOM     34  F   UNL d   1      -2.929  -5.461  -1.744  0.00  0.00    -0.166 F 
ATOM     35  F   UNL d   1      -1.423  -5.971  -3.229  0.00  0.00    -0.166 F 
ATOM     36  F   UNL d   1      -1.190  -6.634  -1.172  0.00  0.00    -0.166 F 
ENDBRANCH  30  33
ENDBRANCH   5  27
TORSDOF 7
