REMARK  4 active torsions:
REMARK  status: ('A' for Active; 'I' for Inactive)
REMARK    1  A    between atoms: S_2  and  C_3 
REMARK    2  A    between atoms: O_14  and  S_2 
REMARK    3  A    between atoms: C_9  and  C_5 
REMARK    4  A    between atoms: N_19  and  C_18 
ROOT
ATOM      1  C   UNL d   1      -0.212   0.479  -0.016  0.00  0.00     0.057 A 
ATOM      2  C   UNL d   1       1.046   1.138   0.013  0.00  0.00     0.097 A 
ATOM      3  S   UNL d   1      -1.816   1.119  -0.109  0.00  0.00    -0.068 SA
ATOM      4  C   UNL d   1      -2.491  -0.450  -0.030  0.00  0.00     0.085 A 
ATOM      5  N   UNL d   1      -1.607  -1.424  -0.008  0.00  0.00    -0.349 N 
ATOM      6  HN  UNL d   1      -1.838  -2.418  -0.002  1.00  0.00     0.166 HD
ATOM      7  C   UNL d   1      -0.322  -0.913   0.005  0.00  0.00     0.051 A 
ATOM      8  C   UNL d   1       2.218   0.338   0.041  0.00  0.00    -0.037 A 
ATOM      9  C   UNL d   1       0.847  -1.688   0.035  0.00  0.00     0.031 A 
ATOM     10  C   UNL d   1       2.092  -1.062   0.046  0.00  0.00     0.011 A 
ATOM     11  C   UNL d   1       3.639   0.840   0.013  0.00  0.00     0.050 C 
ENDROOT
BRANCH   4  12
ATOM     12  C   UNL d   1      -3.948  -0.646  -0.042  0.00  0.00    -0.002 A 
ATOM     13  C   UNL d   1      -4.478  -1.817  -0.599  0.00  0.00     0.016 A 
ATOM     14  C   UNL d   1      -5.859  -2.043  -0.613  0.00  0.00     0.024 A 
ATOM     15  C   UNL d   1      -6.744  -1.094  -0.100  0.00  0.00     0.005 A 
ATOM     16  C   UNL d   1      -6.219   0.048   0.505  0.00  0.00     0.024 A 
ATOM     17  C   UNL d   1      -4.840   0.280   0.519  0.00  0.00     0.016 A 
BRANCH  15  18
ATOM     18  N   UNL d   1      -8.105  -1.392   0.025  0.00  0.00    -0.303 NA
ATOM     19  H   UNL d   1      -8.700  -0.576   0.117  0.00  0.00     0.124 HD
ATOM     20  H   UNL d   1      -8.448  -2.046  -0.671  0.00  0.00     0.124 HD
ENDBRANCH  15  18
ENDBRANCH   4  12
BRANCH   2  21
ATOM     21  S   UNL d   1       1.113   2.924   0.002  0.00  0.00     0.131 S 
ATOM     22  O   UNL d   1       2.242   3.368   0.791  0.00  0.00    -0.598 OA
ATOM     23  O   UNL d   1       0.899   3.354  -1.360  0.00  0.00    -0.598 OA
BRANCH  21  24
ATOM     24  O   UNL d   1      -0.143   3.402   0.893  0.00  0.00    -0.292 OA
ATOM     25  H   UNL d   1       0.197   3.619   1.787  0.00  0.00     0.232 HD
ENDBRANCH  21  24
ENDBRANCH   2  21
TORSDOF 4
