REMARK  6 active torsions:
REMARK  status: ('A' for Active; 'I' for Inactive)
REMARK    1  A    between atoms: S_9  and  C_1 
REMARK    2  A    between atoms: C_10  and  C_4 
REMARK    3  A    between atoms: C_11  and  C_5 
REMARK    4  A    between atoms: C_14  and  S_9 
REMARK    5  A    between atoms: C_17  and  C_14 
REMARK    6  A    between atoms: O_18  and  C_15 
ROOT
ATOM      1  C   UNL d   1       0.942  -1.274  -0.075  0.00  0.00     0.087 A 
ATOM      2  N   UNL d   1       1.612  -0.092  -0.073  0.00  0.00    -0.336 N 
ATOM      3  HN  UNL d   1       2.631  -0.067  -0.098  1.00  0.00     0.168 HD
ATOM      4  C   UNL d   1       0.893   1.039  -0.038  0.00  0.00     0.116 A 
ATOM      5  C   UNL d   1      -0.447  -1.349  -0.040  0.00  0.00     0.065 A 
ATOM      6  N   UNL d   1      -0.444   1.058   0.020  0.00  0.00    -0.345 N 
ATOM      7  HN  UNL d   1      -0.952   1.942   0.069  1.00  0.00     0.167 HD
ATOM      8  C   UNL d   1      -1.106  -0.121   0.012  0.00  0.00     0.023 A 
ATOM      9  C   UNL d   1      -2.600   0.026   0.066  0.00  0.00     0.069 C 
ENDROOT
BRANCH   1  10
ATOM     10  S   UNL d   1       2.079  -2.650  -0.092  0.00  0.00    -0.107 SA
BRANCH  10  11
ATOM     11  C   UNL d   1       1.802  -3.306  -1.763  0.00  0.00     0.119 C 
BRANCH  11  12
ATOM     12  C   UNL d   1       2.726  -4.429  -2.196  0.00  0.00    -0.049 A 
ATOM     13  C   UNL d   1       3.473  -5.231  -1.321  0.00  0.00     0.008 A 
ATOM     14  C   UNL d   1       4.267  -6.278  -1.803  0.00  0.00     0.001 A 
ATOM     15  C   UNL d   1       4.313  -6.553  -3.166  0.00  0.00     0.000 A 
ATOM     16  C   UNL d   1       3.567  -5.782  -4.050  0.00  0.00     0.001 A 
ATOM     17  C   UNL d   1       2.781  -4.734  -3.573  0.00  0.00     0.008 A 
ENDBRANCH  11  12
ENDBRANCH  10  11
ENDBRANCH   1  10
BRANCH   5  18
ATOM     18  C   UNL d   1      -1.246  -2.597  -0.134  0.00  0.00     0.160 C 
ATOM     19  O   UNL d   1      -2.220  -2.614  -0.887  0.00  0.00    -0.293 OA
ATOM     20  C   UNL d   1      -0.911  -3.819   0.678  0.00  0.00     0.097 C 
ENDBRANCH   5  18
BRANCH   4  21
ATOM     21  C   UNL d   1       1.588   2.339  -0.140  0.00  0.00     0.011 A 
ATOM     22  C   UNL d   1       2.984   2.421  -0.331  0.00  0.00     0.052 A 
ATOM     23  C   UNL d   1       3.623   3.654  -0.494  0.00  0.00     0.069 A 
ATOM     24  C   UNL d   1       2.876   4.832  -0.449  0.00  0.00     0.037 A 
ATOM     25  C   UNL d   1       1.501   4.785  -0.238  0.00  0.00     0.004 A 
ATOM     26  C   UNL d   1       0.871   3.552  -0.085  0.00  0.00     0.015 A 
BRANCH  23  27
ATOM     27  O   UNL d   1       4.962   3.845  -0.717  0.00  0.00    -0.356 OA
ATOM     28  C   UNL d   1       5.773   2.682  -0.804  0.00  0.00     0.210 C 
ENDBRANCH  23  27
ENDBRANCH   4  21
TORSDOF 6
