REMARK  3 active torsions:
REMARK  status: ('A' for Active; 'I' for Inactive)
REMARK    1  A    between atoms: C_2  and  S_1 
REMARK    2  A    between atoms: N_7  and  S_1 
REMARK    3  A    between atoms: C_12  and  N_7 
ROOT
ATOM      1  S   UNL d   1       0.999  -0.140   0.076  0.00  0.00     0.253 S 
ATOM      2  O   UNL d   1       1.980   0.894   0.333  0.00  0.00    -0.205 OA
ATOM      3  O   UNL d   1       1.374  -1.535   0.039  0.00  0.00    -0.205 OA
ENDROOT
BRANCH   1   4
ATOM      4  C   UNL d   1       0.324   0.217  -1.556  0.00  0.00     0.122 A 
ATOM      5  S   UNL d   1       0.287   1.873  -1.975  0.00  0.00    -0.076 SA
ATOM      6  C   UNL d   1      -0.270   1.554  -3.566  0.00  0.00     0.017 A 
ATOM      7  C   UNL d   1      -0.476   2.497  -4.595  0.00  0.00     0.021 A 
ATOM      8  C   UNL d   1      -0.515   0.193  -3.753  0.00  0.00    -0.009 A 
ATOM      9  C   UNL d   1      -0.928   2.054  -5.841  0.00  0.00     0.025 A 
ATOM     10  C   UNL d   1      -1.181   0.708  -6.050  0.00  0.00     0.035 A 
ATOM     11  C   UNL d   1      -0.988  -0.224  -5.027  0.00  0.00     0.037 A 
ATOM     12 CL   UNL d   1      -1.731   0.173  -7.591  0.00  0.00    -0.084 Cl
ATOM     13  C   UNL d   1      -0.210  -0.580  -2.562  0.00  0.00    -0.021 A 
ATOM     14  C   UNL d   1      -0.405  -2.062  -2.481  0.00  0.00     0.051 C 
ENDBRANCH   1   4
BRANCH   1  15
ATOM     15  N   UNL d   1      -0.247   0.090   1.213  0.00  0.00    -0.181 NA
ATOM     16  H   UNL d   1      -0.484   1.078   1.277  0.00  0.00     0.146 HD
BRANCH  15  17
ATOM     17  C   UNL d   1      -1.344  -0.812   1.131  0.00  0.00     0.022 A 
ATOM     18  C   UNL d   1      -1.251  -2.061   1.746  0.00  0.00     0.026 A 
ATOM     19  C   UNL d   1      -2.270  -3.001   1.575  0.00  0.00     0.026 A 
ATOM     20  C   UNL d   1      -3.367  -2.689   0.774  0.00  0.00     0.034 A 
ATOM     21  C   UNL d   1      -3.463  -1.438   0.163  0.00  0.00     0.026 A 
ATOM     22 CL   UNL d   1      -4.598  -3.861   0.514  0.00  0.00    -0.084 Cl
ATOM     23  C   UNL d   1      -2.453  -0.493   0.346  0.00  0.00     0.026 A 
ENDBRANCH  15  17
ENDBRANCH   1  15
TORSDOF 3
