REMARK  5 active torsions:
REMARK  status: ('A' for Active; 'I' for Inactive)
REMARK    1  A    between atoms: C_6  and  N_1 
REMARK    2  A    between atoms: C_12  and  C_6 
REMARK    3  A    between atoms: N_9  and  C_13 
REMARK    4  A    between atoms: C_13  and  C_12 
REMARK    5  A    between atoms: O_21  and  C_12 
ROOT
ATOM      1  N   UNL d   1       0.277  -1.573  -0.756  0.00  0.00    -0.343 N 
ATOM      2  C   UNL d   1       0.460   0.649  -0.688  0.00  0.00     0.005 A 
ATOM      3  C   UNL d   1       1.042   0.178  -1.907  0.00  0.00     0.005 A 
ATOM      4  C   UNL d   1      -0.051  -0.457  -0.008  0.00  0.00     0.046 A 
ATOM      5  C   UNL d   1       0.870  -1.207  -1.949  0.00  0.00     0.046 A 
ATOM      6  C   UNL d   1      -0.712  -0.331   1.227  0.00  0.00     0.032 A 
ATOM      7  C   UNL d   1       1.299  -1.977  -3.043  0.00  0.00     0.032 A 
ATOM      8  C   UNL d   1       0.328   1.929  -0.106  0.00  0.00     0.033 A 
ATOM      9  C   UNL d   1       1.701   0.817  -2.978  0.00  0.00     0.033 A 
ATOM     10  C   UNL d   1       2.143   0.052  -4.061  0.00  0.00     0.011 A 
ATOM     11  C   UNL d   1      -0.318   2.055   1.127  0.00  0.00     0.011 A 
ATOM     12  C   UNL d   1       1.935  -1.322  -4.102  0.00  0.00     0.021 A 
ATOM     13  C   UNL d   1      -0.838   0.944   1.782  0.00  0.00     0.021 A 
ATOM     14 BR   UNL d   1      -0.484   3.764   1.918  0.00  0.00    -0.051 Br
ATOM     15 BR   UNL d   1       3.045   0.903  -5.491  0.00  0.00    -0.051 Br
ENDROOT
BRANCH   1  16
ATOM     16  C   UNL d   1       0.146  -2.943  -0.287  0.00  0.00     0.163 C 
BRANCH  16  17
ATOM     17  C   UNL d   1       1.459  -3.526   0.255  0.00  0.00     0.164 C 
BRANCH  17  18
ATOM     18  C   UNL d   1       2.123  -2.653   1.347  0.00  0.00     0.305 C 
BRANCH  18  19
ATOM     19  N   UNL d   1       3.323  -3.297   1.942  0.00  0.00     0.095 N 
ATOM     20  C   UNL d   1       4.447  -3.337   0.972  0.00  0.00     0.298 C 
ATOM     21  C   UNL d   1       5.749  -3.844   1.616  0.00  0.00     0.198 C 
ATOM     22  O   UNL d   1       6.125  -3.034   2.735  0.00  0.00    -0.388 OA
ATOM     23  C   UNL d   1       5.078  -3.035   3.713  0.00  0.00     0.198 C 
ATOM     24  C   UNL d   1       3.767  -2.500   3.117  0.00  0.00     0.298 C 
ENDBRANCH  18  19
ENDBRANCH  17  18
BRANCH  17  25
ATOM     25  O   UNL d   1       1.185  -4.822   0.812  0.00  0.00    -0.392 OA
ATOM     26  H   UNL d   1       1.903  -4.974   1.462  0.00  0.00     0.210 HD
ENDBRANCH  17  25
ENDBRANCH  16  17
ENDBRANCH   1  16
TORSDOF 5
