REMARK  4 active torsions:
REMARK  status: ('A' for Active; 'I' for Inactive)
REMARK    1  A    between atoms: C_2  and  N_1 
REMARK    2  A    between atoms: N_3  and  C_9 
REMARK    3  A    between atoms: N_8  and  C_4 
REMARK       I    between atoms: C_6  and  N_7 
REMARK    4  A    between atoms: C_23  and  C_6 
ROOT
ATOM      1  O   UNL d   1       2.206   1.736  -2.588  0.00  0.00    -0.406 OA
ATOM      2  C   UNL d   1       3.546   1.616  -2.144  0.00  0.00     0.197 C 
ATOM      3  H   UNL d   1       1.626   1.515  -1.839  0.00  0.00     0.208 HD
ENDROOT
TORSDOF 4
