REMARK  5 active torsions:
REMARK  status: ('A' for Active; 'I' for Inactive)
REMARK    1  A    between atoms: C_2  and  C_1 
REMARK       I    between atoms: N_3  and  C_1 
REMARK       I    between atoms: N_4  and  C_2 
REMARK    2  A    between atoms: C_7  and  N_3 
REMARK    3  A    between atoms: C_14  and  N_4 
REMARK    4  A    between atoms: C_5  and  C_14 
REMARK    5  A    between atoms: S_16  and  C_15 
ROOT
ATOM      1  C   UNL d   1       0.886   0.022  -0.238  0.00  0.00     0.313 C 
ATOM      2  N   UNL d   1       0.214   1.145   0.203  0.00  0.00    -0.319 N 
ATOM      3  O   UNL d   1       2.024  -0.076  -0.675  0.00  0.00    -0.262 OA
ATOM      4  H   UNL d   1      -0.723   0.968   0.558  0.00  0.00     0.169 HD
ENDROOT
BRANCH   1   5
ATOM      5  C   UNL d   1       0.050  -1.265  -0.074  0.00  0.00     0.310 C 
ATOM      6  N   UNL d   1       0.737  -2.410  -0.390  0.00  0.00    -0.347 N 
ATOM      7  H   UNL d   1       1.730  -2.310  -0.594  0.00  0.00     0.163 HD
ATOM      8  O   UNL d   1      -1.095  -1.202   0.350  0.00  0.00    -0.262 OA
BRANCH   6   9
ATOM      9  C   UNL d   1       0.227  -3.716  -0.070  0.00  0.00     0.188 C 
BRANCH   9  10
ATOM     10  C   UNL d   1       1.131  -4.753  -0.625  0.00  0.00     0.070 A 
ATOM     11  O   UNL d   1       2.476  -4.548  -0.481  0.00  0.00    -0.325 OA
ATOM     12  C   UNL d   1       3.105  -5.610  -1.047  0.00  0.00     0.142 A 
ATOM     13  C   UNL d   1       2.186  -6.502  -1.546  0.00  0.00     0.027 A 
ATOM     14  C   UNL d   1       0.910  -5.950  -1.275  0.00  0.00     0.036 A 
ENDBRANCH   9  10
ENDBRANCH   6   9
ENDBRANCH   1   5
BRANCH   2  15
ATOM     15  C   UNL d   1       0.734   2.447   0.331  0.00  0.00     0.036 A 
ATOM     16  C   UNL d   1       2.010   2.807  -0.112  0.00  0.00     0.048 A 
ATOM     17  C   UNL d   1       2.529   4.083   0.133  0.00  0.00     0.002 A 
ATOM     18  C   UNL d   1       1.726   5.029   0.776  0.00  0.00     0.018 A 
ATOM     19  C   UNL d   1       0.434   4.696   1.185  0.00  0.00     0.004 A 
ATOM     20  C   UNL d   1      -0.058   3.408   0.967  0.00  0.00     0.029 A 
BRANCH  17  21
ATOM     21  S   UNL d   1       4.187   4.559  -0.341  0.00  0.00    -0.134 SA
ATOM     22  C   UNL d   1       5.080   2.988  -0.152  0.00  0.00     0.095 C 
ENDBRANCH  17  21
ENDBRANCH   2  15
TORSDOF 5
