REMARK  4 active torsions:
REMARK  status: ('A' for Active; 'I' for Inactive)
REMARK    1  A    between atoms: C_2  and  C_1 
REMARK       I    between atoms: N_5  and  C_2 
REMARK    2  A    between atoms: C_10  and  N_5 
REMARK    3  A    between atoms: C_7  and  C_9 
REMARK    4  A    between atoms: O_15  and  C_7 
ROOT
ATOM      1  C   UNL d   1       2.804   2.712  -0.911  0.00  0.00     0.039 A 
ATOM      2  C   UNL d   1       0.637   3.442  -0.093  0.00  0.00     0.036 A 
ATOM      3  C   UNL d   1       1.408   2.687  -0.979  0.00  0.00     0.048 A 
ATOM      4  C   UNL d   1       3.442   3.572  -0.015  0.00  0.00     0.018 A 
ATOM      5  C   UNL d   1       2.680   4.386   0.823  0.00  0.00     0.003 A 
ATOM      6  C   UNL d   1       1.281   4.320   0.786  0.00  0.00     0.029 A 
ENDROOT
BRANCH   2   7
ATOM      7  N   UNL d   1      -0.769   3.336  -0.032  0.00  0.00    -0.321 N 
ATOM      8  C   UNL d   1      -1.523   2.292  -0.558  0.00  0.00     0.281 C 
ATOM      9  O   UNL d   1      -1.045   1.322  -1.143  0.00  0.00    -0.265 OA
ATOM     10  H   UNL d   1      -1.264   3.998   0.557  0.00  0.00     0.169 HD
BRANCH   8  11
ATOM     11  C   UNL d   1      -2.943   2.386  -0.327  0.00  0.00     0.167 A 
ATOM     12  O   UNL d   1      -3.468   3.460   0.328  0.00  0.00    -0.233 OA
ATOM     13  N   UNL d   1      -4.843   3.310   0.429  0.00  0.00    -0.272 N 
ATOM     14  C   UNL d   1      -5.119   2.150  -0.169  0.00  0.00     0.117 A 
ATOM     15  HN  UNL d   1      -5.504   3.951   0.868  1.00  0.00     0.194 HD
ATOM     16  C   UNL d   1      -3.964   1.524  -0.661  0.00  0.00     0.064 A 
ENDBRANCH   8  11
ENDBRANCH   2   7
BRANCH   1  17
ATOM     17  C   UNL d   1       3.627   1.845  -1.787  0.00  0.00     0.176 C 
ATOM     18  O   UNL d   1       4.731   2.172  -2.187  0.00  0.00    -0.646 OA
BRANCH  17  19
ATOM     19  O   UNL d   1       3.068   0.643  -2.048  0.00  0.00    -0.773 OA
ATOM     20  H   UNL d   1       2.243   0.444  -1.563  0.00  0.00     0.167 HD
ENDBRANCH  17  19
ENDBRANCH   1  17
TORSDOF 4
