REMARK  3 active torsions:
REMARK  status: ('A' for Active; 'I' for Inactive)
REMARK    1  A    between atoms: S_10  and  C_2 
REMARK    2  A    between atoms: C_7  and  C_5 
REMARK    3  A    between atoms: N_9  and  C_8 
ROOT
ATOM      1  N   UNL d   1      -0.322   1.312  -0.031  0.00  0.00    -0.348 N 
ATOM      2  C   UNL d   1       0.973   0.846   0.244  0.00  0.00     0.151 C 
ATOM      3  N   UNL d   1       1.050  -0.440   0.381  0.00  0.00    -0.299 N 
ATOM      4  HN  UNL d   1       1.891  -0.996   0.530  1.00  0.00     0.183 HD
ATOM      5  C   UNL d   1      -1.179   0.150  -0.143  0.00  0.00     0.209 C 
ATOM      6  N   UNL d   1      -0.246  -0.895   0.282  0.00  0.00    -0.211 NA
ATOM      7  H   UNL d   1      -0.542   2.277  -0.211  0.00  0.00     0.163 HD
ATOM      8  H   UNL d   1      -0.338  -1.749  -0.272  0.00  0.00     0.149 HD
ENDROOT
BRANCH   5   9
ATOM      9  C   UNL d   1      -1.649   0.026  -1.571  0.00  0.00    -0.020 A 
ATOM     10  C   UNL d   1      -0.754  -0.065  -2.646  0.00  0.00     0.013 A 
ATOM     11  C   UNL d   1      -1.215  -0.186  -3.965  0.00  0.00     0.030 A 
ATOM     12  C   UNL d   1      -2.581  -0.228  -4.277  0.00  0.00     0.029 A 
ATOM     13  C   UNL d   1      -3.462  -0.134  -3.187  0.00  0.00     0.030 A 
ATOM     14  C   UNL d   1      -3.015  -0.003  -1.863  0.00  0.00     0.013 A 
BRANCH  12  15
ATOM     15  N   UNL d   1      -3.053  -0.432  -5.569  0.00  0.00    -0.390 N 
ATOM     16  C   UNL d   1      -4.257   0.264  -6.027  0.00  0.00     0.149 C 
ATOM     17  C   UNL d   1      -2.145  -0.824  -6.646  0.00  0.00     0.149 C 
ENDBRANCH  12  15
ENDBRANCH   5   9
BRANCH   2  18
ATOM     18  S   UNL d   1       2.221   2.012   0.265  0.00  0.00    -0.098 SA
ATOM     19  C   UNL d   1       3.659   0.923   0.346  0.00  0.00     0.099 C 
ENDBRANCH   2  18
TORSDOF 3
