REMARK  2 active torsions:
REMARK  status: ('A' for Active; 'I' for Inactive)
REMARK    1  A    between atoms: C_11  and  C_1 
REMARK    2  A    between atoms: C_12  and  C_9 
ROOT
ATOM      1  C   UNL d   1      -1.649  -0.925  -0.009  0.00  0.00     0.177 A 
ATOM      2  C   UNL d   1       0.252   0.538   0.053  0.00  0.00     0.172 A 
ATOM      3  S   UNL d   1      -1.428   0.852   0.074  0.00  0.00    -0.028 SA
ATOM      4  N   UNL d   1       0.473  -0.796   0.001  0.00  0.00    -0.242 N 
ATOM      5  N   UNL d   1      -0.563  -1.664  -0.034  0.00  0.00    -0.282 N 
ATOM      6  HN  UNL d   1      -0.513  -2.682  -0.072  1.00  0.00     0.188 HD
ATOM      7  N   UNL d   1       1.338   1.255   0.042  0.00  0.00    -0.333 N 
ATOM      8  HN  UNL d   1       1.427   2.270   0.075  1.00  0.00     0.168 HD
ATOM      9  C   UNL d   1       2.349   0.299  -0.025  0.00  0.00     0.062 A 
ATOM     10  C   UNL d   1       1.817  -0.985  -0.037  0.00  0.00     0.149 A 
ENDROOT
BRANCH   9  11
ATOM     11  C   UNL d   1       3.762   0.647  -0.100  0.00  0.00    -0.008 A 
ATOM     12  C   UNL d   1       4.765  -0.327  -0.209  0.00  0.00     0.014 A 
ATOM     13  C   UNL d   1       6.111   0.041  -0.306  0.00  0.00     0.001 A 
ATOM     14  C   UNL d   1       6.471   1.386  -0.294  0.00  0.00     0.000 A 
ATOM     15  C   UNL d   1       5.487   2.365  -0.180  0.00  0.00     0.001 A 
ATOM     16  C   UNL d   1       4.142   1.997  -0.084  0.00  0.00     0.014 A 
ENDBRANCH   9  11
BRANCH   1  17
ATOM     17  C   UNL d   1      -3.063  -1.463  -0.056  0.00  0.00     0.440 C 
ATOM     18  F   UNL d   1      -4.023  -0.498  -0.015  0.00  0.00    -0.164 F 
ATOM     19  F   UNL d   1      -3.296  -2.179  -1.191  0.00  0.00    -0.164 F 
ATOM     20  F   UNL d   1      -3.325  -2.301   0.985  0.00  0.00    -0.164 F 
ENDBRANCH   1  17
TORSDOF 2
