REMARK  3 active torsions:
REMARK  status: ('A' for Active; 'I' for Inactive)
REMARK    1  A    between atoms: C_7  and  C_1 
REMARK    2  A    between atoms: N_4  and  C_3 
REMARK    3  A    between atoms: S_16  and  C_8 
ROOT
ATOM      1  C   UNL d   1       2.165  -0.123  -0.009  0.00  0.00     0.125 A 
ATOM      2  S   UNL d   1       1.104  -0.689  -1.233  0.00  0.00    -0.042 SA
ATOM      3  N   UNL d   1       1.582   0.624   0.907  0.00  0.00    -0.290 N 
ATOM      4  HN  UNL d   1       2.073   1.041   1.698  1.00  0.00     0.187 HD
ATOM      5  C   UNL d   1      -0.152   0.137  -0.412  0.00  0.00     0.126 A 
ATOM      6  N   UNL d   1       0.230   0.776   0.671  0.00  0.00    -0.287 N 
ATOM      7  HN  UNL d   1      -0.397   1.318   1.265  1.00  0.00     0.188 HD
ENDROOT
BRANCH   1   8
ATOM      8  C   UNL d   1       3.566  -0.432   0.030  0.00  0.00     0.113 A 
ATOM      9  O   UNL d   1       4.211  -1.215  -0.902  0.00  0.00    -0.286 OA
ATOM     10  C   UNL d   1       5.516  -1.282  -0.527  0.00  0.00     0.215 A 
ATOM     11  C   UNL d   1       5.753  -0.568   0.620  0.00  0.00     0.066 A 
ATOM     12  C   UNL d   1       4.497  -0.021   0.979  0.00  0.00     0.045 A 
BRANCH  10  13
ATOM     13  N   UNL d   1       6.385  -2.053  -1.359  0.00  0.00    -0.090 N 
ATOM     14  O   UNL d   1       7.574  -2.097  -1.017  0.00  0.00    -0.530 OA
ATOM     15  O   UNL d   1       5.891  -2.614  -2.346  0.00  0.00    -0.530 OA
ENDBRANCH  10  13
ENDBRANCH   1   8
BRANCH   5  16
ATOM     16  S   UNL d   1      -1.813   0.141  -0.943  0.00  0.00    -0.117 SA
ATOM     17  H   UNL d   1      -1.668  -0.707  -1.969  0.00  0.00     0.109 HD
ENDBRANCH   5  16
TORSDOF 3
