REMARK  3 active torsions:
REMARK  status: ('A' for Active; 'I' for Inactive)
REMARK    1  A    between atoms: C_2  and  S_1 
REMARK    2  A    between atoms: C_9  and  S_1 
REMARK    3  A    between atoms: C_7  and  C_3 
ROOT
ATOM      1  C   UNL d   1       0.316   0.557  -1.693  0.00  0.00     0.146 C 
ATOM      2  C   UNL d   1       0.240   0.312  -0.370  0.00  0.00     0.066 C 
ATOM      3  C   UNL d   1       0.045  -0.406  -2.702  0.00  0.00     0.112 C 
ATOM      4  N   UNL d   1      -0.214  -1.158  -3.546  0.00  0.00    -0.191 NA
ENDROOT
BRANCH   1   5
ATOM      5  S   UNL d   1       0.796   2.144  -2.181  0.00  0.00     0.216 S 
ATOM      6  O   UNL d   1       2.231   2.165  -2.401  0.00  0.00    -0.216 OA
ATOM      7  O   UNL d   1       0.199   3.129  -1.292  0.00  0.00    -0.216 OA
BRANCH   5   8
ATOM      8  C   UNL d   1       0.032   2.405  -3.775  0.00  0.00     0.065 A 
ATOM      9  C   UNL d   1      -1.242   2.978  -3.844  0.00  0.00     0.025 A 
ATOM     10  C   UNL d   1      -1.818   3.221  -5.093  0.00  0.00     0.025 A 
ATOM     11  C   UNL d   1      -1.116   2.902  -6.257  0.00  0.00     0.034 A 
ATOM     12  C   UNL d   1       0.161   2.345  -6.186  0.00  0.00     0.025 A 
ATOM     13 CL   UNL d   1      -1.826   3.215  -7.793  0.00  0.00    -0.084 Cl
ATOM     14  C   UNL d   1       0.746   2.103  -4.941  0.00  0.00     0.025 A 
ENDBRANCH   5   8
ENDBRANCH   1   5
BRANCH   2  15
ATOM     15  C   UNL d   1      -0.075  -0.951   0.193  0.00  0.00     0.050 A 
ATOM     16  N   UNL d   1       0.285  -2.095  -0.456  0.00  0.00    -0.351 N 
ATOM     17  C   UNL d   1      -0.206  -3.072   0.263  0.00  0.00     0.180 A 
ATOM     18  HN  UNL d   1       0.824  -2.172  -1.319  1.00  0.00     0.166 HD
ATOM     19  N   UNL d   1      -0.842  -2.599   1.376  0.00  0.00    -0.360 N 
ATOM     20  C   UNL d   1      -0.746  -1.229   1.357  0.00  0.00     0.118 A 
ATOM     21  H   UNL d   1      -1.312  -3.164   2.068  0.00  0.00     0.166 HD
ENDBRANCH   2  15
TORSDOF 3
