REMARK  6 active torsions:
REMARK  status: ('A' for Active; 'I' for Inactive)
REMARK       I    between atoms: N_2  and  C_1 
REMARK    1  A    between atoms: O_9  and  C_1 
REMARK       I    between atoms: C_3  and  N_8 
REMARK       I    between atoms: N_4  and  C_3 
REMARK    2  A    between atoms: C_6  and  N_4 
REMARK    3  A    between atoms: N_5  and  C_7 
REMARK    4  A    between atoms: N_8  and  C_17 
REMARK    5  A    between atoms: C_18  and  O_9 
REMARK    6  A    between atoms: C_21  and  C_18 
ROOT
ATOM      1  C   UNL d   1      -1.997   5.003   2.098  0.00  0.00     0.299 C 
ATOM      2  N   UNL d   1      -2.138   5.979   1.138  0.00  0.00    -0.208 NA
ATOM      3  N   UNL d   1      -1.518   3.787   1.685  0.00  0.00    -0.343 N 
ATOM      4  O   UNL d   1      -2.303   5.123   3.282  0.00  0.00    -0.254 OA
ATOM      5  H   UNL d   1      -1.369   5.939   0.482  0.00  0.00     0.138 HD
ATOM      6  H   UNL d   1      -1.585   3.142   2.465  0.00  0.00     0.164 HD
ENDROOT
BRANCH   3   7
ATOM      7  C   UNL d   1      -1.491   3.193   0.339  0.00  0.00     0.088 C 
ATOM      8  C   UNL d   1      -1.680   1.665   0.407  0.00  0.00     0.045 C 
ATOM      9  C   UNL d   1      -0.384   0.901   0.652  0.00  0.00     0.130 C 
ATOM     10  N   UNL d   1       0.615   1.254  -0.349  0.00  0.00    -0.328 N 
ATOM     11  C   UNL d   1       1.425   0.232  -0.871  0.00  0.00     0.363 C 
ATOM     12  C   UNL d   1       0.969   2.665  -0.364  0.00  0.00     0.130 C 
ATOM     13  O   UNL d   1       1.259  -0.946  -0.583  0.00  0.00    -0.238 OA
ATOM     14  C   UNL d   1      -0.253   3.582  -0.494  0.00  0.00     0.045 C 
BRANCH  11  15
ATOM     15  O   UNL d   1       2.432   0.685  -1.669  0.00  0.00    -0.299 OA
BRANCH  15  16
ATOM     16  C   UNL d   1       3.510  -0.253  -1.873  0.00  0.00     0.219 C 
BRANCH  16  17
ATOM     17  C   UNL d   1       3.667  -0.825  -3.269  0.00  0.00    -0.034 A 
ATOM     18  C   UNL d   1       3.226  -0.165  -4.423  0.00  0.00     0.009 A 
ATOM     19  C   UNL d   1       3.504  -0.693  -5.691  0.00  0.00     0.001 A 
ATOM     20  C   UNL d   1       4.230  -1.877  -5.824  0.00  0.00     0.000 A 
ATOM     21  C   UNL d   1       4.674  -2.542  -4.689  0.00  0.00     0.001 A 
ATOM     22  C   UNL d   1       4.400  -2.019  -3.424  0.00  0.00     0.009 A 
ENDBRANCH  16  17
ENDBRANCH  15  16
ENDBRANCH  11  15
ENDBRANCH   3   7
BRANCH   2  23
ATOM     23  C   UNL d   1      -2.435   7.327   1.512  0.00  0.00     0.043 A 
ATOM     24  C   UNL d   1      -3.564   8.051   1.016  0.00  0.00     0.052 A 
ATOM     25  C   UNL d   1      -3.614   9.410   1.425  0.00  0.00     0.031 A 
ATOM     26  C   UNL d   1      -2.653  10.020   2.244  0.00  0.00     0.002 A 
ATOM     27  C   UNL d   1      -1.584   9.286   2.711  0.00  0.00     0.002 A 
ATOM     28  C   UNL d   1      -1.472   7.952   2.342  0.00  0.00     0.026 A 
BRANCH  24  29
ATOM     29  N   UNL d   1      -4.626   7.516   0.264  0.00  0.00    -0.375 N 
ATOM     30  C   UNL d   1      -4.530   6.201  -0.405  0.00  0.00     0.149 C 
ATOM     31  C   UNL d   1      -5.923   5.604  -0.655  0.00  0.00     0.187 C 
ATOM     32  O   UNL d   1      -6.755   6.483  -1.417  0.00  0.00    -0.388 OA
ATOM     33  C   UNL d   1      -6.925   7.706  -0.694  0.00  0.00     0.187 C 
ATOM     34  C   UNL d   1      -5.580   8.412  -0.446  0.00  0.00     0.149 C 
ENDBRANCH  24  29
ENDBRANCH   2  23
TORSDOF 6
