REMARK  9 active torsions:
REMARK  status: ('A' for Active; 'I' for Inactive)
REMARK    1  A    between atoms: C_3  and  C_1 
REMARK    2  A    between atoms: C_2  and  C_4 
REMARK    3  A    between atoms: C_5  and  N_9 
REMARK    4  A    between atoms: N_20  and  C_5 
REMARK    5  A    between atoms: N_6  and  C_21 
REMARK    6  A    between atoms: N_9  and  C_8 
REMARK    7  A    between atoms: C_24  and  N_20 
REMARK    8  A    between atoms: C_21  and  C_23 
REMARK    9  A    between atoms: C_23  and  C_24 
ROOT
ATOM      1  N   UNL d   1       1.355   2.924   4.686  0.00  0.00    -0.333 N 
ATOM      2  H   UNL d   1       0.933   3.700   4.193  0.00  0.00     0.168 HD
ENDROOT
BRANCH   1   3
ATOM      3  C   UNL d   1       0.738   2.619   5.893  0.00  0.00     0.172 C 
ATOM      4  S   UNL d   1       0.581   1.106   6.591  0.00  0.00    -0.041 SA
BRANCH   3   5
ATOM      5  N   UNL d   1       0.229   3.780   6.461  0.00  0.00    -0.367 N 
ATOM      6  H   UNL d   1       0.379   4.641   5.955  0.00  0.00     0.161 HD
BRANCH   5   7
ATOM      7  C   UNL d   1      -0.133   3.918   7.868  0.00  0.00     0.123 C 
BRANCH   7   8
ATOM      8  C   UNL d   1      -0.207   5.388   8.277  0.00  0.00     0.050 C 
BRANCH   8   9
ATOM      9  C   UNL d   1      -0.257   5.508   9.803  0.00  0.00     0.274 C 
BRANCH   9  10
ATOM     10  N   UNL d   1      -0.374   6.891  10.306  0.00  0.00     0.092 N 
ATOM     11  C   UNL d   1       0.772   7.761   9.958  0.00  0.00     0.219 C 
ATOM     12  C   UNL d   1       0.418   9.243  10.163  0.00  0.00     0.043 C 
ATOM     13  C   UNL d   1       2.059   7.381  10.711  0.00  0.00     0.035 C 
ATOM     14  C   UNL d   1       1.855   7.293  12.222  0.00  0.00     0.004 C 
ATOM     15  C   UNL d   1       0.623   6.470  12.583  0.00  0.00     0.030 C 
ATOM     16  C   UNL d   1      -0.605   6.877  11.767  0.00  0.00     0.273 C 
ENDBRANCH   9  10
ENDBRANCH   8   9
ENDBRANCH   7   8
ENDBRANCH   5   7
ENDBRANCH   3   5
ENDBRANCH   1   3
BRANCH   1  17
ATOM     17  C   UNL d   1       2.362   2.232   3.978  0.00  0.00     0.035 A 
ATOM     18  C   UNL d   1       3.223   1.300   4.559  0.00  0.00     0.045 A 
ATOM     19  C   UNL d   1       4.210   0.644   3.804  0.00  0.00     0.050 A 
ATOM     20  C   UNL d   1       4.351   0.963   2.447  0.00  0.00     0.032 A 
ATOM     21  C   UNL d   1       3.524   1.927   1.849  0.00  0.00     0.050 A 
ATOM     22  C   UNL d   1       2.544   2.564   2.631  0.00  0.00     0.045 A 
BRANCH  19  23
ATOM     23  C   UNL d   1       5.095  -0.381   4.473  0.00  0.00     0.417 C 
ATOM     24  F   UNL d   1       5.973  -0.974   3.619  0.00  0.00    -0.166 F 
ATOM     25  F   UNL d   1       4.386  -1.393   5.042  0.00  0.00    -0.166 F 
ATOM     26  F   UNL d   1       5.851   0.157   5.470  0.00  0.00    -0.166 F 
ENDBRANCH  19  23
BRANCH  21  27
ATOM     27  C   UNL d   1       3.676   2.296   0.396  0.00  0.00     0.417 C 
ATOM     28  F   UNL d   1       4.501   1.461  -0.295  0.00  0.00    -0.166 F 
ATOM     29  F   UNL d   1       2.490   2.286  -0.274  0.00  0.00    -0.166 F 
ATOM     30  F   UNL d   1       4.187   3.548   0.230  0.00  0.00    -0.166 F 
ENDBRANCH  21  27
ENDBRANCH   1  17
TORSDOF 9
