REMARK  6 active torsions:
REMARK  status: ('A' for Active; 'I' for Inactive)
REMARK    1  A    between atoms: C_7  and  C_1 
REMARK    2  A    between atoms: N_6  and  C_7 
REMARK    3  A    between atoms: C_10  and  N_6 
REMARK    4  A    between atoms: C_12  and  C_7 
REMARK    5  A    between atoms: C_8  and  C_12 
REMARK    6  A    between atoms: C_11  and  C_10 
ROOT
ATOM      1  C   UNL d   1       2.164  -0.126  -0.006  0.00  0.00     0.280 C 
ENDROOT
BRANCH   1   2
ATOM      2  N   UNL d   1       2.552   0.633   1.211  0.00  0.00     0.098 N 
ATOM      3  H   UNL d   1       2.325   0.061   2.025  0.00  0.00     0.317 HD
BRANCH   2   4
ATOM      4  C   UNL d   1       3.991   0.913   1.232  0.00  0.00     0.309 C 
BRANCH   4   5
ATOM      5  C   UNL d   1       4.461   1.665   2.458  0.00  0.00    -0.030 A 
ATOM      6  C   UNL d   1       5.714   1.355   3.016  0.00  0.00     0.009 A 
ATOM      7  C   UNL d   1       6.226   2.090   4.086  0.00  0.00     0.001 A 
ATOM      8  C   UNL d   1       5.494   3.150   4.613  0.00  0.00     0.000 A 
ATOM      9  C   UNL d   1       4.249   3.471   4.072  0.00  0.00     0.001 A 
ATOM     10  C   UNL d   1       3.738   2.737   2.997  0.00  0.00     0.009 A 
ENDBRANCH   4   5
ENDBRANCH   2   4
ENDBRANCH   1   2
BRANCH   1  11
ATOM     11  C   UNL d   1       0.660  -0.211  -0.128  0.00  0.00     0.086 A 
ATOM     12  O   UNL d   1       0.172  -1.212  -0.923  0.00  0.00    -0.318 OA
ATOM     13  C   UNL d   1      -1.184  -1.129  -0.911  0.00  0.00     0.049 A 
ATOM     14  C   UNL d   1      -1.908  -2.152  -1.692  0.00  0.00     0.076 C 
ATOM     15  C   UNL d   1      -1.581  -0.061  -0.138  0.00  0.00     0.035 A 
ATOM     16  C   UNL d   1      -0.395   0.533   0.362  0.00  0.00     0.037 A 
ENDBRANCH   1  11
BRANCH   1  17
ATOM     17  C   UNL d   1       2.816  -1.540  -0.098  0.00  0.00     0.069 C 
BRANCH  17  18
ATOM     18  C   UNL d   1       2.543  -2.436   1.087  0.00  0.00    -0.034 C 
ATOM     19  C   UNL d   1       3.482  -2.886   1.928  0.00  0.00     0.007 C 
ENDBRANCH  17  18
ENDBRANCH   1  17
TORSDOF 6
