REMARK  1 active torsions:
REMARK  status: ('A' for Active; 'I' for Inactive)
REMARK    1  A    between atoms: O_10  and  C_4 
ROOT
ATOM      1  C   UNL d   1       2.498  -0.669  -0.004  0.00  0.00     0.081 A 
ATOM      2  C   UNL d   1       2.454   0.728  -0.001  0.00  0.00     0.091 A 
ATOM      3  C   UNL d   1       1.292  -1.398   0.003  0.00  0.00     0.068 A 
ATOM      4  C   UNL d   1       1.219   1.387   0.004  0.00  0.00     0.100 A 
ATOM      5  C   UNL d   1       0.027  -0.740   0.003  0.00  0.00     0.000 A 
ATOM      6  C   UNL d   1       0.002   0.677  -0.001  0.00  0.00     0.011 A 
ATOM      7 CL   UNL d   1       3.895   1.699  -0.004  0.00  0.00    -0.079 Cl
ATOM      8 CL   UNL d   1       4.034  -1.488  -0.021  0.00  0.00    -0.081 Cl
ATOM      9 CL   UNL d   1       1.347  -3.145   0.010  0.00  0.00    -0.082 Cl
ATOM     10  C   UNL d   1      -1.240   1.349  -0.011  0.00  0.00     0.015 A 
ATOM     11  C   UNL d   1      -1.220  -1.417   0.003  0.00  0.00     0.014 A 
ATOM     12  C   UNL d   1      -2.447   0.653  -0.019  0.00  0.00     0.001 A 
ATOM     13  C   UNL d   1      -2.437  -0.732  -0.010  0.00  0.00     0.001 A 
ENDROOT
BRANCH   4  14
ATOM     14  O   UNL d   1       1.172   2.764   0.013  0.00  0.00    -0.358 OA
ATOM     15  H   UNL d   1       2.090   3.096   0.025  0.00  0.00     0.217 HD
ENDBRANCH   4  14
TORSDOF 1
