REMARK  8 active torsions:
REMARK  status: ('A' for Active; 'I' for Inactive)
REMARK    1  A    between atoms: C_9  and  C_1 
REMARK    2  A    between atoms: C_5  and  C_2 
REMARK       I    between atoms: C_3  and  N_13 
REMARK    3  A    between atoms: C_4  and  C_3 
REMARK    4  A    between atoms: N_14  and  C_8 
REMARK    5  A    between atoms: O_15  and  C_9 
REMARK    6  A    between atoms: N_13  and  N_14 
REMARK    7  A    between atoms: C_24  and  O_15 
REMARK    8  A    between atoms: C_26  and  C_24 
ROOT
ATOM      1  C   UNL d   1      -0.026  -1.404  -0.085  0.00  0.00     0.086 A 
ATOM      2  C   UNL d   1       1.205  -0.794   0.029  0.00  0.00     0.136 A 
ATOM      3  N   UNL d   1       1.309   0.572   0.055  0.00  0.00    -0.327 N 
ATOM      4  HN  UNL d   1       2.219   1.016   0.181  1.00  0.00     0.168 HD
ATOM      5  C   UNL d   1       0.203   1.322  -0.086  0.00  0.00     0.176 A 
ATOM      6  N   UNL d   1      -1.009   0.790  -0.268  0.00  0.00    -0.340 N 
ATOM      7  HN  UNL d   1      -1.826   1.376  -0.439  1.00  0.00     0.167 HD
ATOM      8  C   UNL d   1      -1.107  -0.556  -0.217  0.00  0.00     0.110 A 
ENDROOT
BRANCH   1   9
ATOM      9  C   UNL d   1      -0.302  -2.831   0.060  0.00  0.00     0.297 C 
ATOM     10  O   UNL d   1      -1.125  -3.244   0.859  0.00  0.00    -0.259 OA
BRANCH   9  11
ATOM     11  O   UNL d   1       0.427  -3.552  -0.816  0.00  0.00    -0.313 OA
BRANCH  11  12
ATOM     12  C   UNL d   1       0.314  -4.980  -0.666  0.00  0.00     0.217 C 
BRANCH  12  13
ATOM     13  C   UNL d   1       0.243  -5.655  -2.015  0.00  0.00    -0.034 A 
ATOM     14  C   UNL d   1       0.954  -5.163  -3.118  0.00  0.00     0.011 A 
ATOM     15  C   UNL d   1       0.892  -5.819  -4.349  0.00  0.00     0.024 A 
ATOM     16  C   UNL d   1       0.138  -6.983  -4.479  0.00  0.00     0.034 A 
ATOM     17  C   UNL d   1      -0.550  -7.504  -3.387  0.00  0.00     0.024 A 
ATOM     18 CL   UNL d   1       0.061  -7.783  -5.999  0.00  0.00    -0.084 Cl
ATOM     19  C   UNL d   1      -0.494  -6.844  -2.155  0.00  0.00     0.011 A 
ENDBRANCH  12  13
ENDBRANCH  11  12
ENDBRANCH   9  11
ENDBRANCH   1   9
BRANCH   2  20
ATOM     20  C   UNL d   1       2.508  -1.558   0.123  0.00  0.00     0.433 C 
ATOM     21  F   UNL d   1       2.398  -2.848   0.546  0.00  0.00    -0.165 F 
ATOM     22  F   UNL d   1       3.162  -1.610  -1.073  0.00  0.00    -0.165 F 
ATOM     23  F   UNL d   1       3.386  -0.983   0.997  0.00  0.00    -0.165 F 
ENDBRANCH   2  20
BRANCH   5  24
ATOM     24  N   UNL d   1       0.283   2.718   0.042  0.00  0.00    -0.172 NA
ATOM     25  H   UNL d   1      -0.071   3.141  -0.821  0.00  0.00     0.156 HD
BRANCH  24  26
ATOM     26  N   UNL d   1       1.549   3.183   0.438  0.00  0.00    -0.277 N 
ATOM     27  C   UNL d   1       2.033   4.360  -0.121  0.00  0.00     0.340 C 
ATOM     28  O   UNL d   1       1.522   4.860  -1.127  0.00  0.00    -0.262 OA
ATOM     29  H   UNL d   1       1.868   2.864   1.354  0.00  0.00     0.184 HD
BRANCH  27  30
ATOM     30  C   UNL d   1       3.231   4.942   0.639  0.00  0.00     0.473 C 
ATOM     31  F   UNL d   1       3.501   4.239   1.782  0.00  0.00    -0.162 F 
ATOM     32  F   UNL d   1       4.381   4.929  -0.091  0.00  0.00    -0.162 F 
ATOM     33  F   UNL d   1       3.030   6.230   1.032  0.00  0.00    -0.162 F 
ENDBRANCH  27  30
ENDBRANCH  24  26
ENDBRANCH   5  24
TORSDOF 8
