REMARK  4 active torsions:
REMARK  status: ('A' for Active; 'I' for Inactive)
REMARK    1  A    between atoms: C_6  and  C_1 
REMARK    2  A    between atoms: C_11  and  C_4 
REMARK    3  A    between atoms: C_5  and  C_9 
REMARK       I    between atoms: N_12  and  C_6 
REMARK       I    between atoms: C_9  and  N_13 
REMARK    4  A    between atoms: N_13  and  N_12 
ROOT
ATOM      1  C   UNL d   1       2.387   1.723   0.025  0.00  0.00     0.287 C 
ATOM      2  N   UNL d   1       2.162   3.070   0.215  0.00  0.00    -0.262 N 
ATOM      3  O   UNL d   1       3.518   1.262  -0.137  0.00  0.00    -0.264 OA
ATOM      4  H   UNL d   1       1.234   3.445   0.410  0.00  0.00     0.190 HD
ENDROOT
BRANCH   1   5
ATOM      5  C   UNL d   1       1.184   0.886   0.035  0.00  0.00     0.110 A 
ATOM      6  N   UNL d   1      -0.114   1.402   0.155  0.00  0.00    -0.345 N 
ATOM      7  C   UNL d   1      -1.003   0.422   0.136  0.00  0.00     0.086 A 
ATOM      8  HN  UNL d   1      -0.341   2.392   0.244  1.00  0.00     0.167 HD
ATOM      9  S   UNL d   1      -0.328  -1.158  -0.049  0.00  0.00    -0.081 SA
ATOM     10  C   UNL d   1       1.238  -0.489  -0.088  0.00  0.00     0.087 A 
BRANCH   7  11
ATOM     11  C   UNL d   1      -2.462   0.595   0.188  0.00  0.00     0.013 A 
ATOM     12  C   UNL d   1      -3.320  -0.351   0.752  0.00  0.00     0.101 A 
ATOM     13  N   UNL d   1      -4.673  -0.252   0.782  0.00  0.00    -0.374 N 
ATOM     14  C   UNL d   1      -5.210   0.853   0.226  0.00  0.00     0.087 A 
ATOM     15  HN  UNL d   1      -5.254  -0.976   1.204  1.00  0.00     0.164 HD
ATOM     16  C   UNL d   1      -4.457   1.864  -0.344  0.00  0.00     0.018 A 
ATOM     17  C   UNL d   1      -3.067   1.733  -0.355  0.00  0.00     0.017 A 
ENDBRANCH   7  11
ENDBRANCH   1   5
BRANCH   2  18
ATOM     18  N   UNL d   1       3.263   3.938   0.255  0.00  0.00    -0.263 N 
ATOM     19  C   UNL d   1       3.065   5.271   0.531  0.00  0.00     0.271 C 
ATOM     20  O   UNL d   1       1.939   5.729   0.734  0.00  0.00    -0.266 OA
ATOM     21  H   UNL d   1       4.175   3.526   0.056  0.00  0.00     0.190 HD
BRANCH  19  22
ATOM     22  C   UNL d   1       4.264   6.161   0.643  0.00  0.00     0.055 A 
ATOM     23  C   UNL d   1       5.545   5.902   0.125  0.00  0.00     0.051 A 
ATOM     24  C   UNL d   1       6.595   6.809   0.340  0.00  0.00     0.048 A 
ATOM     25 CL   UNL d   1       5.937   4.514  -0.828  0.00  0.00    -0.083 Cl
ATOM     26  C   UNL d   1       6.376   7.982   1.059  0.00  0.00     0.035 A 
ATOM     27  C   UNL d   1       5.111   8.269   1.558  0.00  0.00     0.025 A 
ATOM     28 CL   UNL d   1       7.671   9.080   1.327  0.00  0.00    -0.084 Cl
ATOM     29  C   UNL d   1       4.065   7.365   1.349  0.00  0.00     0.020 A 
ENDBRANCH  19  22
ENDBRANCH   2  18
TORSDOF 4
