REMARK  9 active torsions:
REMARK  status: ('A' for Active; 'I' for Inactive)
REMARK    1  A    between atoms: C_3  and  C_1 
REMARK    2  A    between atoms: C_4  and  C_1 
REMARK    3  A    between atoms: C_8  and  C_1 
REMARK    4  A    between atoms: O_27  and  C_1 
REMARK    5  A    between atoms: C_2  and  C_7 
REMARK    6  A    between atoms: C_5  and  C_2 
REMARK    7  A    between atoms: C_6  and  C_2 
REMARK    8  A    between atoms: O_28  and  C_2 
REMARK    9  A    between atoms: C_10  and  C_9 
ROOT
ATOM      1  C   UNL d   1       0.706  -0.769  -1.168  0.00  0.00    -0.006 A 
ATOM      2  C   UNL d   1      -0.199  -2.358  -3.371  0.00  0.00    -0.026 A 
ATOM      3  C   UNL d   1       0.783  -2.172  -1.133  0.00  0.00     0.012 A 
ATOM      4  C   UNL d   1       0.147  -0.183  -2.315  0.00  0.00     0.012 A 
ATOM      5  C   UNL d   1      -0.296  -0.960  -3.389  0.00  0.00     0.013 A 
ATOM      6  C   UNL d   1       0.344  -2.946  -2.220  0.00  0.00     0.013 A 
ENDROOT
BRANCH   2   7
ATOM      7  C   UNL d   1      -0.648  -3.159  -4.527  0.00  0.00    -0.026 A 
ATOM      8  C   UNL d   1      -0.357  -2.754  -5.845  0.00  0.00     0.013 A 
ATOM      9  C   UNL d   1      -0.799  -3.486  -6.951  0.00  0.00     0.012 A 
ATOM     10  C   UNL d   1      -1.554  -4.657  -6.798  0.00  0.00    -0.006 A 
ATOM     11  C   UNL d   1      -1.849  -5.065  -5.484  0.00  0.00     0.012 A 
ATOM     12  C   UNL d   1      -1.403  -4.329  -4.377  0.00  0.00     0.013 A 
BRANCH  10  13
ATOM     13  C   UNL d   1      -2.035  -5.458  -8.021  0.00  0.00     0.281 C 
BRANCH  13  14
ATOM     14  C   UNL d   1      -3.116  -4.707  -8.815  0.00  0.00     0.431 C 
ATOM     15  F   UNL d   1      -3.324  -5.235 -10.042  0.00  0.00    -0.167 F 
ATOM     16  F   UNL d   1      -4.308  -4.806  -8.164  0.00  0.00    -0.167 F 
ATOM     17  F   UNL d   1      -2.861  -3.393  -8.980  0.00  0.00    -0.167 F 
ENDBRANCH  13  14
BRANCH  13  18
ATOM     18  C   UNL d   1      -0.908  -5.705  -9.033  0.00  0.00     0.431 C 
ATOM     19  F   UNL d   1      -0.541  -4.584  -9.695  0.00  0.00    -0.167 F 
ATOM     20  F   UNL d   1       0.206  -6.197  -8.439  0.00  0.00    -0.167 F 
ATOM     21  F   UNL d   1      -1.271  -6.613  -9.973  0.00  0.00    -0.167 F 
ENDBRANCH  13  18
BRANCH  13  22
ATOM     22  O   UNL d   1      -2.552  -6.747  -7.539  0.00  0.00    -0.370 OA
ATOM     23  H   UNL d   1      -3.510  -6.774  -7.729  0.00  0.00     0.211 HD
ENDBRANCH  13  22
ENDBRANCH  10  13
ENDBRANCH   2   7
BRANCH   1  24
ATOM     24  C   UNL d   1       1.189   0.100  -0.002  0.00  0.00     0.281 C 
BRANCH  24  25
ATOM     25  C   UNL d   1       2.634  -0.192   0.418  0.00  0.00     0.431 C 
ATOM     26  F   UNL d   1       2.817  -1.436   0.912  0.00  0.00    -0.167 F 
ATOM     27  F   UNL d   1       3.495  -0.055  -0.621  0.00  0.00    -0.167 F 
ATOM     28  F   UNL d   1       3.039   0.685   1.373  0.00  0.00    -0.167 F 
ENDBRANCH  24  25
BRANCH  24  29
ATOM     29  C   UNL d   1       0.344  -0.071   1.272  0.00  0.00     0.431 C 
ATOM     30  F   UNL d   1       0.843  -0.959   2.156  0.00  0.00    -0.167 F 
ATOM     31  F   UNL d   1       0.260   1.123   1.923  0.00  0.00    -0.167 F 
ATOM     32  F   UNL d   1      -0.929  -0.446   1.009  0.00  0.00    -0.167 F 
ENDBRANCH  24  29
BRANCH  24  33
ATOM     33  O   UNL d   1       1.114   1.509  -0.439  0.00  0.00    -0.370 OA
ATOM     34  H   UNL d   1       1.252   2.062   0.356  0.00  0.00     0.211 HD
ENDBRANCH  24  33
ENDBRANCH   1  24
TORSDOF 9
