REMARK  5 active torsions:
REMARK  status: ('A' for Active; 'I' for Inactive)
REMARK    1  A    between atoms: C_2  and  C_1 
REMARK       I    between atoms: N_3  and  C_2 
REMARK    2  A    between atoms: C_6  and  N_3 
REMARK    3  A    between atoms: C_7  and  C_4 
REMARK    4  A    between atoms: N_5  and  C_8 
REMARK    5  A    between atoms: O_12  and  C_7 
ROOT
ATOM      1  C   UNL d   1       3.217  -0.916  -1.193  0.00  0.00     0.252 C 
ATOM      2  N   UNL d   1       3.282  -0.061  -0.143  0.00  0.00    -0.321 N 
ATOM      3  O   UNL d   1       3.549  -2.089  -0.995  0.00  0.00    -0.268 OA
ATOM      4  H   UNL d   1       3.453  -0.557   0.718  0.00  0.00     0.169 HD
ENDROOT
BRANCH   2   5
ATOM      5  C   UNL d   1       3.517   1.322  -0.042  0.00  0.00     0.061 A 
ATOM      6  C   UNL d   1       3.164   2.017   1.145  0.00  0.00     0.057 A 
ATOM      7  C   UNL d   1       3.441   3.401   1.189  0.00  0.00     0.031 A 
ATOM      8  C   UNL d   1       4.070   4.067   0.139  0.00  0.00     0.002 A 
ATOM      9  C   UNL d   1       4.446   3.360  -0.996  0.00  0.00     0.002 A 
ATOM     10  C   UNL d   1       4.168   1.995  -1.088  0.00  0.00     0.032 A 
BRANCH   6  11
ATOM     11  N   UNL d   1       2.480   1.506   2.259  0.00  0.00    -0.379 N 
ATOM     12  C   UNL d   1       2.835   0.230   2.876  0.00  0.00     0.123 C 
ATOM     13  C   UNL d   1       2.320   0.208   4.317  0.00  0.00     0.020 C 
ATOM     14  C   UNL d   1       0.813   0.463   4.362  0.00  0.00     0.003 C 
ATOM     15  C   UNL d   1       0.461   1.758   3.631  0.00  0.00     0.020 C 
ATOM     16  C   UNL d   1       1.027   1.769   2.208  0.00  0.00     0.123 C 
ENDBRANCH   6  11
ENDBRANCH   2   5
BRANCH   1  17
ATOM     17  C   UNL d   1       2.514  -0.561  -2.477  0.00  0.00     0.020 C 
ATOM     18  C   UNL d   1       1.475   0.539  -2.568  0.00  0.00     0.121 C 
ATOM     19  C   UNL d   1       0.525   0.401  -3.782  0.00  0.00     0.020 C 
ATOM     20  C   UNL d   1       1.217  -0.103  -5.040  0.00  0.00     0.005 C 
ATOM     21  C   UNL d   1       1.950  -1.414  -4.787  0.00  0.00     0.028 C 
ATOM     22  C   UNL d   1       2.698  -1.435  -3.487  0.00  0.00    -0.013 C 
BRANCH  18  23
ATOM     23  C   UNL d   1       0.556   0.627  -1.351  0.00  0.00     0.148 C 
ATOM     24  O   UNL d   1       0.128   1.688  -0.915  0.00  0.00    -0.649 OA
BRANCH  23  25
ATOM     25  O   UNL d   1       0.143  -0.561  -0.850  0.00  0.00    -0.776 OA
ATOM     26  H   UNL d   1       0.499  -1.344  -1.314  0.00  0.00     0.167 HD
ENDBRANCH  23  25
ENDBRANCH  18  23
ENDBRANCH   1  17
TORSDOF 5
