REMARK  6 active torsions:
REMARK  status: ('A' for Active; 'I' for Inactive)
REMARK    1  A    between atoms: C_9  and  C_1 
REMARK       I    between atoms: C_2  and  N_3 
REMARK       I    between atoms: N_6  and  C_2 
REMARK    2  A    between atoms: N_11  and  C_4 
REMARK    3  A    between atoms: C_5  and  C_8 
REMARK    4  A    between atoms: C_13  and  N_6 
REMARK    5  A    between atoms: C_8  and  C_10 
REMARK    6  A    between atoms: O_27  and  C_9 
REMARK       I    between atoms: C_10  and  N_11 
ROOT
ATOM      1  C   UNL d   1       1.224   0.557  -0.731  0.00  0.00     0.323 C 
ATOM      2  N   UNL d   1       0.680   1.207   0.362  0.00  0.00    -0.319 N 
ATOM      3  C   UNL d   1       0.475   2.711   0.282  0.00  0.00     0.184 C 
ATOM      4  N   UNL d   1       1.478  -0.781  -0.795  0.00  0.00    -0.306 N 
ATOM      5  C   UNL d   1      -0.004   3.305   1.654  0.00  0.00     0.221 C 
ATOM      6  N   UNL d   1      -0.963   2.598   2.327  0.00  0.00    -0.260 NA
ATOM      7  O   UNL d   1       1.700   1.190  -1.681  0.00  0.00    -0.247 OA
ATOM      8  O   UNL d   1       0.338   4.379   2.135  0.00  0.00    -0.278 OA
ATOM      9  C   UNL d   1      -0.274   0.522   1.227  0.00  0.00     0.143 C 
ATOM     10  C   UNL d   1      -0.661   1.216   2.520  0.00  0.00     0.115 C 
ATOM     11  H   UNL d   1       2.208  -0.901  -1.490  0.00  0.00     0.171 HD
ATOM     12  H   UNL d   1      -1.250   3.104   3.160  0.00  0.00     0.130 HD
ENDROOT
BRANCH   3  13
ATOM     13  C   UNL d   1       1.677   3.581  -0.176  0.00  0.00     0.137 C 
BRANCH  13  14
ATOM     14  C   UNL d   1       1.237   5.050  -0.272  0.00  0.00     0.224 C 
ATOM     15  N   UNL d   1       2.086   5.905   0.415  0.00  0.00    -0.326 N 
ATOM     16  H   UNL d   1       2.900   5.470   0.829  0.00  0.00     0.169 HD
ATOM     17  O   UNL d   1       0.192   5.359  -0.840  0.00  0.00    -0.273 OA
BRANCH  15  18
ATOM     18  C   UNL d   1       1.664   7.050   1.106  0.00  0.00     0.058 A 
ATOM     19  C   UNL d   1       0.597   7.913   0.889  0.00  0.00     0.106 A 
ATOM     20  S   UNL d   1       0.412   9.030   2.204  0.00  0.00    -0.094 SA
ATOM     21  C   UNL d   1       1.771   8.423   3.019  0.00  0.00     0.053 A 
ATOM     22  C   UNL d   1       2.369   7.405   2.314  0.00  0.00     0.038 A 
BRANCH  19  23
ATOM     23  C   UNL d   1      -0.361   8.084  -0.185  0.00  0.00     0.302 C 
ATOM     24  O   UNL d   1      -1.548   8.364  -0.036  0.00  0.00    -0.259 OA
BRANCH  23  25
ATOM     25  O   UNL d   1       0.277   8.068  -1.392  0.00  0.00    -0.322 OA
ATOM     26  C   UNL d   1      -0.549   8.326  -2.532  0.00  0.00     0.213 C 
ENDBRANCH  23  25
ENDBRANCH  19  23
ENDBRANCH  15  18
ENDBRANCH  13  14
ENDBRANCH   3  13
BRANCH   4  27
ATOM     27  C   UNL d   1       1.112  -1.987  -0.163  0.00  0.00     0.075 C 
ATOM     28  C   UNL d   1      -0.173  -2.348   0.260  0.00  0.00     0.146 C 
ATOM     29  C   UNL d   1      -0.405  -3.505   1.003  0.00  0.00     0.086 C 
ATOM     30  F   UNL d   1      -1.239  -1.609  -0.073  0.00  0.00    -0.204 F 
ATOM     31  C   UNL d   1       0.646  -4.376   1.236  0.00  0.00     0.119 C 
ATOM     32  C   UNL d   1       1.900  -4.131   0.695  0.00  0.00     0.044 C 
ATOM     33  F   UNL d   1       0.444  -5.477   1.970  0.00  0.00    -0.206 F 
ATOM     34  C   UNL d   1       2.128  -2.946  -0.016  0.00  0.00     0.036 C 
ENDBRANCH   4  27
TORSDOF 6
