REMARK  5 active torsions:
REMARK  status: ('A' for Active; 'I' for Inactive)
REMARK    1  A    between atoms: C_6  and  C_1 
REMARK    2  A    between atoms: S_2  and  C_11 
REMARK    3  A    between atoms: N_5  and  S_2 
REMARK    4  A    between atoms: C_9  and  N_5 
REMARK       I    between atoms: N_10  and  C_6 
REMARK    5  A    between atoms: C_22  and  N_10 
ROOT
ATOM      1  C   UNL d   1       2.595  -5.014   0.046  0.00  0.00     0.075 A 
ATOM      2  C   UNL d   1       2.272  -4.100  -0.954  0.00  0.00     0.027 A 
ATOM      3  C   UNL d   1       3.646  -4.745   0.929  0.00  0.00     0.027 A 
ATOM      4  C   UNL d   1       3.951  -2.563  -0.096  0.00  0.00     0.035 A 
ATOM      5  C   UNL d   1       2.959  -2.888  -1.029  0.00  0.00     0.031 A 
ATOM      6  C   UNL d   1       4.337  -3.529   0.841  0.00  0.00     0.031 A 
ENDROOT
BRANCH   4   7
ATOM      7  N   UNL d   1       4.543  -1.281  -0.010  0.00  0.00    -0.322 N 
ATOM      8  C   UNL d   1       4.015  -0.109  -0.547  0.00  0.00     0.264 C 
ATOM      9  O   UNL d   1       2.976  -0.089  -1.200  0.00  0.00    -0.267 OA
ATOM     10  H   UNL d   1       5.319  -1.170   0.630  0.00  0.00     0.169 HD
BRANCH   8  11
ATOM     11  C   UNL d   1       4.759   1.120  -0.281  0.00  0.00     0.096 C 
ATOM     12  S   UNL d   1       6.273   1.118   0.518  0.00  0.00    -0.082 SA
ATOM     13  C   UNL d   1       6.516   2.803   0.260  0.00  0.00     0.017 A 
ATOM     14  C   UNL d   1       7.633   3.574   0.642  0.00  0.00     0.020 A 
ATOM     15  C   UNL d   1       5.438   3.371  -0.419  0.00  0.00     0.004 A 
ATOM     16  C   UNL d   1       7.686   4.922   0.272  0.00  0.00     0.001 A 
ATOM     17  C   UNL d   1       6.654   5.495  -0.456  0.00  0.00     0.001 A 
ATOM     18  C   UNL d   1       5.528   4.740  -0.785  0.00  0.00     0.014 A 
ATOM     19  C   UNL d   1       4.390   2.409  -0.620  0.00  0.00     0.068 C 
ATOM     20 CL   UNL d   1       2.869   2.890  -1.275  0.00  0.00    -0.082 Cl
ENDBRANCH   8  11
ENDBRANCH   4   7
BRANCH   1  21
ATOM     21  S   UNL d   1       1.500  -6.382   0.346  0.00  0.00     0.248 S 
ATOM     22  O   UNL d   1       1.629  -6.707   1.759  0.00  0.00    -0.205 OA
ATOM     23  O   UNL d   1       0.199  -6.060  -0.197  0.00  0.00    -0.205 OA
BRANCH  21  24
ATOM     24  N   UNL d   1       2.177  -7.667  -0.466  0.00  0.00    -0.151 NA
ATOM     25  H   UNL d   1       2.015  -8.515   0.064  0.00  0.00     0.149 HD
BRANCH  24  26
ATOM     26  C   UNL d   1       1.736  -7.816  -1.778  0.00  0.00     0.170 A 
ATOM     27  N   UNL d   1       2.284  -7.040  -2.715  0.00  0.00    -0.342 N 
ATOM     28  C   UNL d   1       1.906  -7.326  -3.976  0.00  0.00     0.092 A 
ATOM     29  HN  UNL d   1       2.938  -6.289  -2.494  1.00  0.00     0.167 HD
ATOM     30  C   UNL d   1       1.003  -8.316  -4.297  0.00  0.00     0.034 A 
ATOM     31  C   UNL d   1       0.493  -9.024  -3.233  0.00  0.00     0.092 A 
ATOM     32  N   UNL d   1       0.864  -8.812  -1.957  0.00  0.00    -0.342 N 
ATOM     33  HN  UNL d   1       0.504  -9.370  -1.183  1.00  0.00     0.167 HD
ENDBRANCH  24  26
ENDBRANCH  21  24
ENDBRANCH   1  21
TORSDOF 5
