REMARK  0 active torsions:
REMARK  status: ('A' for Active; 'I' for Inactive)
ROOT
ATOM      1  C   UNL d   1      -1.186   0.891  -0.001  0.00  0.00     0.028 A 
ATOM      2  C   UNL d   1       1.188   0.891  -0.000  0.00  0.00     0.028 A 
ATOM      3  C   UNL d   1       0.001   1.778  -0.001  0.00  0.00     0.194 A 
ATOM      4  C   UNL d   1       0.724  -0.436  -0.001  0.00  0.00    -0.011 A 
ATOM      5  C   UNL d   1      -0.722  -0.435  -0.001  0.00  0.00    -0.011 A 
ATOM      6  C   UNL d   1       1.630  -1.482  -0.001  0.00  0.00     0.015 A 
ATOM      7  C   UNL d   1      -1.628  -1.481   0.000  0.00  0.00     0.015 A 
ATOM      8  C   UNL d   1      -2.526   1.226  -0.001  0.00  0.00     0.040 A 
ATOM      9  C   UNL d   1       2.528   1.226   0.001  0.00  0.00     0.040 A 
ATOM     10  O   UNL d   1       0.001   2.989  -0.001  0.00  0.00    -0.287 OA
ATOM     11  C   UNL d   1      -3.433   0.167  -0.000  0.00  0.00     0.035 A 
ATOM     12  C   UNL d   1       3.434   0.167   0.001  0.00  0.00     0.035 A 
ATOM     13  C   UNL d   1       2.996  -1.172  -0.000  0.00  0.00     0.024 A 
ATOM     14  C   UNL d   1      -2.995  -1.171   0.000  0.00  0.00     0.024 A 
ATOM     15 CL   UNL d   1      -5.123   0.495  -0.001  0.00  0.00    -0.084 Cl
ATOM     16 CL   UNL d   1       5.124   0.494   0.002  0.00  0.00    -0.084 Cl
ENDROOT
TORSDOF 0
