REMARK  2 active torsions:
REMARK  status: ('A' for Active; 'I' for Inactive)
REMARK    1  A    between atoms: C_2  and  C_1 
REMARK       I    between atoms: N_5  and  C_2 
REMARK    2  A    between atoms: N_6  and  N_5 
ROOT
ATOM      1  C   UNL d   1      -0.036   1.321   0.556  0.00  0.00     0.042 C 
ATOM      2  C   UNL d   1      -0.010   0.095   1.487  0.00  0.00     0.024 C 
ATOM      3  C   UNL d   1      -1.329   1.282  -0.294  0.00  0.00     0.019 C 
ATOM      4  C   UNL d   1       1.254   1.315  -0.294  0.00  0.00     0.019 C 
ATOM      5  C   UNL d   1      -0.011  -1.188   0.662  0.00  0.00    -0.013 C 
ATOM      6  C   UNL d   1      -1.647  -0.050  -0.970  0.00  0.00     0.002 C 
ATOM      7  C   UNL d   1       1.562  -0.001  -1.010  0.00  0.00     0.002 C 
ATOM      8  C   UNL d   1      -1.313  -1.285  -0.141  0.00  0.00     0.005 C 
ATOM      9  C   UNL d   1       1.255  -1.260  -0.202  0.00  0.00     0.005 C 
ENDROOT
BRANCH   1  10
ATOM     10  C   UNL d   1      -0.072   2.603   1.413  0.00  0.00     0.240 C 
ATOM     11  O   UNL d   1      -0.109   2.599   2.647  0.00  0.00    -0.271 OA
ATOM     12  N   UNL d   1      -0.100   3.793   0.690  0.00  0.00    -0.293 N 
ATOM     13  H   UNL d   1       0.058   3.800  -0.316  0.00  0.00     0.183 HD
BRANCH  12  14
ATOM     14  N   UNL d   1      -0.129   5.022   1.379  0.00  0.00    -0.247 NA
ATOM     15  H   UNL d   1       0.133   4.818   2.355  0.00  0.00     0.143 HD
ATOM     16  H   UNL d   1      -1.107   5.313   1.453  0.00  0.00     0.143 HD
ENDBRANCH  12  14
ENDBRANCH   1  10
TORSDOF 2
