REMARK  4 active torsions:
REMARK  status: ('A' for Active; 'I' for Inactive)
REMARK    1  A    between atoms: N_6  and  C_1 
REMARK    2  A    between atoms: C_10  and  C_1 
REMARK    3  A    between atoms: C_9  and  C_3 
REMARK    4  A    between atoms: C_13  and  N_6 
ROOT
ATOM      1  C   UNL d   1       3.409  -3.570  -0.803  0.00  0.00     0.124 C 
ATOM      2  N   UNL d   1       5.992  -3.468  -0.863  0.00  0.00    -0.191 NA
ATOM      3  N   UNL d   1       2.246  -5.797  -1.407  0.00  0.00    -0.191 NA
ATOM      4  C   UNL d   1       4.832  -3.527  -0.838  0.00  0.00     0.110 C 
ATOM      5  C   UNL d   1       2.775  -4.801  -1.131  0.00  0.00     0.110 C 
ATOM      6  C   UNL d   1       2.651  -2.494  -0.493  0.00  0.00     0.036 C 
ENDROOT
BRANCH   6   7
ATOM      7  C   UNL d   1       3.159  -1.169  -0.181  0.00  0.00     0.027 C 
ATOM      8  C   UNL d   1       2.442  -0.059   0.100  0.00  0.00     0.023 C 
BRANCH   8   9
ATOM      9  N   UNL d   1       1.053   0.054   0.154  0.00  0.00    -0.259 NA
ATOM     10  H   UNL d   1       0.636  -0.527  -0.574  0.00  0.00     0.134 HD
BRANCH   9  11
ATOM     11  C   UNL d   1       0.286  -0.221   1.327  0.00  0.00     0.012 A 
ATOM     12  C   UNL d   1      -0.975   0.389   1.435  0.00  0.00     0.025 A 
ATOM     13  C   UNL d   1      -1.844   0.069   2.483  0.00  0.00     0.025 A 
ATOM     14  C   UNL d   1      -1.471  -0.890   3.418  0.00  0.00     0.034 A 
ATOM     15  C   UNL d   1      -0.227  -1.509   3.329  0.00  0.00     0.025 A 
ATOM     16 CL   UNL d   1      -2.560  -1.330   4.676  0.00  0.00    -0.084 Cl
ATOM     17  C   UNL d   1       0.651  -1.171   2.289  0.00  0.00     0.025 A 
ENDBRANCH   9  11
ENDBRANCH   8   9
BRANCH   8  18
ATOM     18  C   UNL d   1       3.192   1.238   0.207  0.00  0.00    -0.015 A 
ATOM     19  C   UNL d   1       4.303   1.506  -0.617  0.00  0.00     0.014 A 
ATOM     20  C   UNL d   1       4.998   2.717  -0.540  0.00  0.00     0.007 A 
ATOM     21  C   UNL d   1       4.580   3.714   0.342  0.00  0.00    -0.062 A 
ATOM     22  C   UNL d   1       3.456   3.480   1.138  0.00  0.00     0.007 A 
ATOM     23  C   UNL d   1       5.334   5.008   0.413  0.00  0.00     0.048 C 
ATOM     24  C   UNL d   1       2.772   2.258   1.071  0.00  0.00     0.014 A 
ENDBRANCH   8  18
ENDBRANCH   6   7
TORSDOF 4
