REMARK  2 active torsions:
REMARK  status: ('A' for Active; 'I' for Inactive)
REMARK    1  A    between atoms: C_4  and  C_1 
REMARK    2  A    between atoms: C_11  and  C_5 
ROOT
ATOM      1  N   UNL d   1      -1.721  -3.532   1.055  0.00  0.00    -0.349 N 
ATOM      2  HN  UNL d   1      -1.164  -3.282   1.872  1.00  0.00     0.166 HD
ATOM      3  C   UNL d   1      -2.040  -2.665   0.022  0.00  0.00     0.052 A 
ATOM      4  C   UNL d   1      -2.239  -4.726   0.834  0.00  0.00     0.085 A 
ATOM      5  S   UNL d   1      -3.182  -4.841  -0.610  0.00  0.00    -0.081 SA
ATOM      6  C   UNL d   1      -2.833  -3.208  -0.968  0.00  0.00     0.082 A 
ENDROOT
BRANCH   4   7
ATOM      7  C   UNL d   1      -2.106  -5.885   1.735  0.00  0.00     0.001 A 
ATOM      8  C   UNL d   1      -1.975  -5.678   3.119  0.00  0.00     0.054 A 
ATOM      9  C   UNL d   1      -1.883  -6.763   3.996  0.00  0.00     0.103 A 
ATOM     10  O   UNL d   1      -1.767  -6.473   5.332  0.00  0.00    -0.346 OA
ATOM     11  C   UNL d   1      -1.931  -8.070   3.503  0.00  0.00     0.102 A 
ATOM     12  C   UNL d   1      -1.375  -7.624   6.090  0.00  0.00     0.202 C 
ATOM     13  C   UNL d   1      -2.171  -8.848   5.668  0.00  0.00     0.202 C 
ATOM     14  O   UNL d   1      -1.892  -9.182   4.304  0.00  0.00    -0.346 OA
ATOM     15  C   UNL d   1      -2.017  -8.293   2.134  0.00  0.00     0.040 A 
ATOM     16  C   UNL d   1      -2.103  -7.208   1.256  0.00  0.00     0.017 A 
ENDBRANCH   4   7
BRANCH   3  17
ATOM     17  C   UNL d   1      -1.538  -1.290   0.043  0.00  0.00     0.026 A 
ATOM     18  C   UNL d   1      -1.806  -0.299  -0.879  0.00  0.00     0.157 A 
ATOM     19  O   UNL d   1      -1.166   0.852  -0.555  0.00  0.00    -0.321 OA
ATOM     20  C   UNL d   1      -0.472   0.607   0.590  0.00  0.00     0.086 A 
ATOM     21  C   UNL d   1      -0.667  -0.707   1.010  0.00  0.00     0.012 A 
ATOM     22  C   UNL d   1       0.326   1.537   1.253  0.00  0.00     0.038 A 
ATOM     23  C   UNL d   1      -0.012  -1.123   2.186  0.00  0.00     0.015 A 
ATOM     24  C   UNL d   1       0.800  -0.211   2.876  0.00  0.00     0.001 A 
ATOM     25  C   UNL d   1       0.965   1.097   2.416  0.00  0.00     0.003 A 
ENDBRANCH   3  17
TORSDOF 2
