REMARK  6 active torsions:
REMARK  status: ('A' for Active; 'I' for Inactive)
REMARK    1  A    between atoms: N_2  and  S_1 
REMARK    2  A    between atoms: C_3  and  S_1 
REMARK    3  A    between atoms: C_6  and  N_2 
REMARK    4  A    between atoms: C_5  and  C_10 
REMARK    5  A    between atoms: O_16  and  C_5 
REMARK    6  A    between atoms: C_19  and  O_16 
ROOT
ATOM      1  C   UNL d   1       0.807  -0.179  -2.523  0.00  0.00    -0.085 C 
ATOM      2  C   UNL d   1       1.139   1.070  -1.810  0.00  0.00     0.103 C 
ATOM      3  C   UNL d   1       0.589  -1.216  -3.091  0.00  0.00     0.015 C 
ATOM      4  C   UNL d   1       2.669   1.233  -1.742  0.00  0.00     0.045 C 
ATOM      5  C   UNL d   1       0.567   2.281  -2.599  0.00  0.00     0.045 C 
ATOM      6  C   UNL d   1       3.118   2.568  -1.146  0.00  0.00     0.004 C 
ATOM      7  C   UNL d   1       0.974   3.623  -1.976  0.00  0.00     0.004 C 
ATOM      8  C   UNL d   1       2.489   3.756  -1.865  0.00  0.00     0.000 C 
ENDROOT
BRANCH   2   9
ATOM      9  N   UNL d   1       0.476   1.085  -0.501  0.00  0.00    -0.294 N 
ATOM     10  H   UNL d   1      -0.418   1.565  -0.427  0.00  0.00     0.174 HD
BRANCH   9  11
ATOM     11  S   UNL d   1       0.841   0.176   0.835  0.00  0.00     0.260 S 
ATOM     12  O   UNL d   1      -0.032   0.668   1.881  0.00  0.00    -0.200 OA
ATOM     13  O   UNL d   1       2.271   0.139   1.029  0.00  0.00    -0.200 OA
BRANCH  11  14
ATOM     14  C   UNL d   1       0.283  -1.465   0.446  0.00  0.00     0.079 A 
ATOM     15  C   UNL d   1       1.212  -2.488   0.244  0.00  0.00     0.026 A 
ATOM     16  C   UNL d   1       0.767  -3.807   0.106  0.00  0.00     0.019 A 
ATOM     17  C   UNL d   1      -0.602  -4.104   0.181  0.00  0.00     0.039 A 
ATOM     18  C   UNL d   1      -1.528  -3.068   0.366  0.00  0.00     0.019 A 
ATOM     19  C   UNL d   1      -1.087  -1.748   0.501  0.00  0.00     0.026 A 
BRANCH  17  20
ATOM     20  C   UNL d   1      -1.108  -5.506   0.160  0.00  0.00     0.293 C 
ATOM     21  O   UNL d   1      -2.243  -5.817   0.477  0.00  0.00    -0.259 OA
BRANCH  20  22
ATOM     22  O   UNL d   1      -0.115  -6.347  -0.219  0.00  0.00    -0.318 OA
BRANCH  22  23
ATOM     23  C   UNL d   1      -0.364  -7.751  -0.068  0.00  0.00     0.174 C 
ATOM     24  C   UNL d   1       0.503  -8.253   1.071  0.00  0.00     0.034 C 
ENDBRANCH  22  23
ENDBRANCH  20  22
ENDBRANCH  17  20
ENDBRANCH  11  14
ENDBRANCH   9  11
ENDBRANCH   2   9
TORSDOF 6
