REMARK  6 active torsions:
REMARK  status: ('A' for Active; 'I' for Inactive)
REMARK    1  A    between atoms: C_5  and  C_1 
REMARK    2  A    between atoms: C_8  and  C_1 
REMARK    3  A    between atoms: C_3  and  C_2 
REMARK    4  A    between atoms: C_6  and  C_3 
REMARK    5  A    between atoms: C_4  and  C_5 
REMARK    6  A    between atoms: C_7  and  C_4 
ROOT
ATOM      1  C   UNL d   1       2.338   0.034   0.092  0.00  0.00    -0.037 C 
ATOM      2  C   UNL d   1       2.776  -1.133  -0.420  0.00  0.00     0.064 C 
ENDROOT
BRANCH   1   3
ATOM      3  C   UNL d   1       3.316   1.167   0.284  0.00  0.00     0.123 C 
BRANCH   3   4
ATOM      4  C   UNL d   1       4.160   1.327   1.559  0.00  0.00     0.163 C 
ATOM      5  O   UNL d   1       4.704   2.422   1.754  0.00  0.00    -0.292 OA
BRANCH   4   6
ATOM      6  C   UNL d   1       4.495   0.225   2.524  0.00  0.00     0.010 A 
ATOM      7  C   UNL d   1       3.743  -0.935   2.726  0.00  0.00     0.016 A 
ATOM      8  C   UNL d   1       4.163  -1.917   3.637  0.00  0.00     0.019 A 
ATOM      9  C   UNL d   1       5.319  -1.726   4.389  0.00  0.00     0.006 A 
ATOM     10  C   UNL d   1       6.057  -0.557   4.242  0.00  0.00     0.019 A 
ATOM     11  I   UNL d   1       5.931  -3.180   5.737  0.00  0.00    -0.045 I 
ATOM     12  C   UNL d   1       5.648   0.406   3.313  0.00  0.00     0.016 A 
ENDBRANCH   4   6
ENDBRANCH   3   4
ENDBRANCH   1   3
BRANCH   1  13
ATOM     13  C   UNL d   1       0.918   0.356   0.380  0.00  0.00    -0.029 A 
ATOM     14  C   UNL d   1       0.550   1.020   1.560  0.00  0.00     0.012 A 
ATOM     15  C   UNL d   1      -0.766   1.449   1.761  0.00  0.00     0.001 A 
ATOM     16  C   UNL d   1      -1.732   1.223   0.785  0.00  0.00     0.000 A 
ATOM     17  C   UNL d   1      -1.388   0.555  -0.387  0.00  0.00     0.001 A 
ATOM     18  C   UNL d   1      -0.072   0.129  -0.589  0.00  0.00     0.012 A 
ENDBRANCH   1  13
BRANCH   2  19
ATOM     19  C   UNL d   1       1.995  -2.394  -0.567  0.00  0.00     0.182 C 
ATOM     20  O   UNL d   1       1.161  -2.756   0.249  0.00  0.00    -0.288 OA
BRANCH  19  21
ATOM     21  C   UNL d   1       2.415  -3.273  -1.686  0.00  0.00     0.014 A 
ATOM     22  C   UNL d   1       2.511  -4.649  -1.467  0.00  0.00     0.016 A 
ATOM     23  C   UNL d   1       2.978  -5.481  -2.487  0.00  0.00     0.007 A 
ATOM     24  C   UNL d   1       3.327  -4.950  -3.736  0.00  0.00    -0.062 A 
ATOM     25  C   UNL d   1       3.193  -3.572  -3.956  0.00  0.00     0.007 A 
ATOM     26  C   UNL d   1       3.867  -5.846  -4.811  0.00  0.00     0.048 C 
ATOM     27  C   UNL d   1       2.734  -2.736  -2.937  0.00  0.00     0.016 A 
ENDBRANCH  19  21
ENDBRANCH   2  19
TORSDOF 6
