REMARK  8 active torsions:
REMARK  status: ('A' for Active; 'I' for Inactive)
REMARK    1  A    between atoms: N_2  and  C_1 
REMARK    2  A    between atoms: C_3  and  C_1 
REMARK    3  A    between atoms: C_5  and  C_1 
REMARK    4  A    between atoms: N_6  and  C_1 
REMARK       I    between atoms: C_4  and  N_2 
REMARK    5  A    between atoms: C_7  and  C_4 
REMARK    6  A    between atoms: O_16  and  C_5 
REMARK    7  A    between atoms: C_15  and  N_6 
REMARK    8  A    between atoms: C_20  and  O_16 
ROOT
ATOM      1  C   UNL d   1       0.952   0.011   0.096  0.00  0.00     0.297 C 
ENDROOT
BRANCH   1   2
ATOM      2  N   UNL d   1       0.509  -1.228  -0.570  0.00  0.00    -0.315 N 
ATOM      3  C   UNL d   1       0.279  -2.412   0.078  0.00  0.00     0.255 C 
ATOM      4  O   UNL d   1       0.473  -2.584   1.271  0.00  0.00    -0.268 OA
ATOM      5  H   UNL d   1       0.143  -1.105  -1.507  0.00  0.00     0.166 HD
BRANCH   3   6
ATOM      6  C   UNL d   1      -0.301  -3.480  -0.771  0.00  0.00     0.047 A 
ATOM      7  C   UNL d   1      -1.305  -4.293  -0.265  0.00  0.00     0.104 A 
ATOM      8  N   UNL d   1      -1.937  -5.250  -0.996  0.00  0.00    -0.374 N 
ATOM      9  C   UNL d   1      -1.528  -5.415  -2.273  0.00  0.00     0.087 A 
ATOM     10  HN  UNL d   1      -2.685  -5.817  -0.598  1.00  0.00     0.164 HD
ATOM     11  C   UNL d   1      -0.514  -4.668  -2.856  0.00  0.00     0.018 A 
ATOM     12  C   UNL d   1       0.110  -3.685  -2.090  0.00  0.00     0.020 A 
ENDBRANCH   3   6
ENDBRANCH   1   2
BRANCH   1  13
ATOM     13  C   UNL d   1       0.232   0.384   1.447  0.00  0.00     0.442 C 
ATOM     14  F   UNL d   1      -0.905  -0.324   1.659  0.00  0.00    -0.166 F 
ATOM     15  F   UNL d   1       1.051   0.170   2.514  0.00  0.00    -0.166 F 
ATOM     16  F   UNL d   1      -0.131   1.691   1.516  0.00  0.00    -0.166 F 
ENDBRANCH   1  13
BRANCH   1  17
ATOM     17  C   UNL d   1       0.535   1.170  -0.830  0.00  0.00     0.318 C 
ATOM     18  O   UNL d   1      -0.389   1.086  -1.646  0.00  0.00    -0.260 OA
BRANCH  17  19
ATOM     19  O   UNL d   1       1.316   2.282  -0.679  0.00  0.00    -0.318 OA
BRANCH  19  20
ATOM     20  C   UNL d   1       1.019   3.395  -1.532  0.00  0.00     0.174 C 
ATOM     21  C   UNL d   1       1.560   3.174  -2.934  0.00  0.00     0.034 C 
ENDBRANCH  19  20
ENDBRANCH  17  19
ENDBRANCH   1  17
BRANCH   1  22
ATOM     22  N   UNL d   1       2.426  -0.096   0.231  0.00  0.00    -0.348 N 
ATOM     23  H   UNL d   1       2.720  -0.411   1.153  0.00  0.00     0.163 HD
BRANCH  22  24
ATOM     24  C   UNL d   1       3.391  -0.117  -0.756  0.00  0.00     0.030 A 
ATOM     25  C   UNL d   1       3.122  -0.171  -2.127  0.00  0.00     0.029 A 
ATOM     26  C   UNL d   1       4.145  -0.087  -3.079  0.00  0.00     0.002 A 
ATOM     27  C   UNL d   1       5.465   0.074  -2.674  0.00  0.00     0.000 A 
ATOM     28  C   UNL d   1       5.759   0.147  -1.319  0.00  0.00     0.002 A 
ATOM     29  C   UNL d   1       4.730   0.054  -0.374  0.00  0.00     0.029 A 
ENDBRANCH  22  24
ENDBRANCH   1  22
TORSDOF 8
