REMARK  4 active torsions:
REMARK  status: ('A' for Active; 'I' for Inactive)
REMARK    1  A    between atoms: N_2  and  C_1 
REMARK    2  A    between atoms: C_7  and  N_2 
REMARK    3  A    between atoms: C_9  and  N_4 
REMARK    4  A    between atoms: C_8  and  C_9 
ROOT
ATOM      1  C   UNL d   1       1.005  -0.055  -0.035  0.00  0.00     0.172 C 
ATOM      2  S   UNL d   1       0.252  -1.355   0.697  0.00  0.00    -0.041 SA
ATOM      3  N   UNL d   1       2.371  -0.052  -0.036  0.00  0.00    -0.363 N 
ATOM      4  H   UNL d   1       2.754  -0.862   0.439  0.00  0.00     0.162 HD
ENDROOT
BRANCH   1   5
ATOM      5  N   UNL d   1       0.414   1.004  -0.696  0.00  0.00    -0.333 N 
ATOM      6  H   UNL d   1       0.833   1.196  -1.599  0.00  0.00     0.168 HD
BRANCH   5   7
ATOM      7  C   UNL d   1      -0.912   1.448  -0.511  0.00  0.00     0.034 A 
ATOM      8  C   UNL d   1      -1.462   1.546   0.772  0.00  0.00     0.036 A 
ATOM      9  C   UNL d   1      -2.794   1.930   0.959  0.00  0.00    -0.060 A 
ATOM     10  C   UNL d   1      -3.387   1.959   2.336  0.00  0.00     0.048 C 
ATOM     11  C   UNL d   1      -3.572   2.241  -0.160  0.00  0.00     0.007 A 
ATOM     12  C   UNL d   1      -3.012   2.202  -1.440  0.00  0.00     0.003 A 
ATOM     13  C   UNL d   1      -1.677   1.824  -1.615  0.00  0.00     0.029 A 
ENDBRANCH   5   7
ENDBRANCH   1   5
BRANCH   3  14
ATOM     14  C   UNL d   1       3.197   1.139  -0.004  0.00  0.00     0.162 C 
BRANCH  14  15
ATOM     15  C   UNL d   1       3.960   1.389  -1.271  0.00  0.00    -0.025 A 
ATOM     16  C   UNL d   1       4.345   2.688  -1.590  0.00  0.00     0.096 A 
ATOM     17  N   UNL d   1       5.102   3.022  -2.659  0.00  0.00    -0.375 N 
ATOM     18  C   UNL d   1       5.512   2.008  -3.449  0.00  0.00     0.087 A 
ATOM     19  HN  UNL d   1       5.351   3.991  -2.857  1.00  0.00     0.164 HD
ATOM     20  C   UNL d   1       5.193   0.681  -3.222  0.00  0.00     0.018 A 
ATOM     21  C   UNL d   1       4.409   0.369  -2.113  0.00  0.00     0.011 A 
ENDBRANCH  14  15
ENDBRANCH   3  14
TORSDOF 4
