REMARK  6 active torsions:
REMARK  status: ('A' for Active; 'I' for Inactive)
REMARK    1  A    between atoms: N_3  and  C_1 
REMARK    2  A    between atoms: N_5  and  C_1 
REMARK    3  A    between atoms: C_2  and  N_4 
REMARK    4  A    between atoms: N_12  and  C_2 
REMARK    5  A    between atoms: N_4  and  N_3 
REMARK    6  A    between atoms: C_10  and  N_5 
ROOT
ATOM      1  C   UNL d   1       0.744   0.112  -0.568  0.00  0.00     0.191 C 
ATOM      2  S   UNL d   1      -0.603   1.085  -0.747  0.00  0.00    -0.039 SA
ENDROOT
BRANCH   1   3
ATOM      3  N   UNL d   1       0.547  -1.237  -0.799  0.00  0.00    -0.272 N 
ATOM      4  H   UNL d   1      -0.394  -1.482  -1.096  0.00  0.00     0.189 HD
BRANCH   3   5
ATOM      5  N   UNL d   1       1.264  -2.250  -0.094  0.00  0.00    -0.270 N 
ATOM      6  C   UNL d   1       0.312  -3.079   0.656  0.00  0.00     0.180 C 
BRANCH   5   7
ATOM      7  C   UNL d   1       2.427  -2.781  -0.637  0.00  0.00     0.188 C 
ATOM      8  S   UNL d   1       3.038  -2.446  -2.163  0.00  0.00    -0.039 SA
BRANCH   7   9
ATOM      9  N   UNL d   1       3.189  -3.605   0.144  0.00  0.00    -0.370 N 
ATOM     10  C   UNL d   1       3.174  -3.778   1.583  0.00  0.00     0.148 C 
ATOM     11  H   UNL d   1       4.007  -3.965  -0.339  0.00  0.00     0.161 HD
ENDBRANCH   7   9
ENDBRANCH   5   7
ENDBRANCH   3   5
ENDBRANCH   1   3
BRANCH   1  12
ATOM     12  N   UNL d   1       2.040   0.452  -0.253  0.00  0.00    -0.332 N 
ATOM     13  H   UNL d   1       2.595  -0.364  -0.025  0.00  0.00     0.168 HD
BRANCH  12  14
ATOM     14  C   UNL d   1       2.756   1.668  -0.347  0.00  0.00     0.036 A 
ATOM     15  C   UNL d   1       4.099   1.644   0.069  0.00  0.00     0.056 A 
ATOM     16  C   UNL d   1       4.908   2.779  -0.057  0.00  0.00     0.074 A 
ATOM     17 CL   UNL d   1       6.551   2.702   0.454  0.00  0.00    -0.081 Cl
ATOM     18  C   UNL d   1       4.391   3.945  -0.603  0.00  0.00     0.138 A 
ATOM     19  C   UNL d   1       3.067   3.991  -1.020  0.00  0.00     0.046 A 
ATOM     20  F   UNL d   1       5.150   5.039  -0.745  0.00  0.00    -0.204 F 
ATOM     21  C   UNL d   1       2.256   2.850  -0.895  0.00  0.00     0.032 A 
ENDBRANCH  12  14
ENDBRANCH   1  12
TORSDOF 6
