REMARK  6 active torsions:
REMARK  status: ('A' for Active; 'I' for Inactive)
REMARK    1  A    between atoms: C_4  and  N_1 
REMARK    2  A    between atoms: C_9  and  C_2 
REMARK    3  A    between atoms: C_10  and  C_2 
REMARK    4  A    between atoms: C_15  and  C_9 
REMARK    5  A    between atoms: O_25  and  C_10 
REMARK    6  A    between atoms: O_27  and  C_15 
ROOT
ATOM      1  N   UNL d   1      -2.417   0.820  -0.352  0.00  0.00    -0.269 N 
ATOM      2  C   UNL d   1      -2.403  -0.466   0.379  0.00  0.00     0.247 C 
ATOM      3  C   UNL d   1      -1.245   1.567  -0.407  0.00  0.00     0.264 C 
ATOM      4  C   UNL d   1      -0.000   0.804  -0.201  0.00  0.00     0.067 A 
ATOM      5  O   UNL d   1      -1.272  -1.261  -0.113  0.00  0.00    -0.308 OA
ATOM      6  C   UNL d   1      -0.082  -0.588  -0.157  0.00  0.00     0.088 A 
ATOM      7  O   UNL d   1      -1.199   2.755  -0.702  0.00  0.00    -0.267 OA
ATOM      8  C   UNL d   1       1.239   1.447  -0.210  0.00  0.00     0.039 A 
ATOM      9  C   UNL d   1       1.082  -1.352  -0.187  0.00  0.00     0.039 A 
ATOM     10  C   UNL d   1       2.399   0.676  -0.196  0.00  0.00     0.012 A 
ATOM     11  C   UNL d   1       2.327  -0.718  -0.204  0.00  0.00     0.022 A 
ATOM     12 BR   UNL d   1       4.088   1.526  -0.194  0.00  0.00    -0.051 Br
ENDROOT
BRANCH   1  13
ATOM     13  C   UNL d   1      -3.381   1.063  -1.380  0.00  0.00     0.064 A 
ATOM     14  C   UNL d   1      -4.682   1.438  -1.022  0.00  0.00     0.057 A 
ATOM     15  C   UNL d   1      -5.655   1.670  -2.001  0.00  0.00     0.058 A 
ATOM     16 CL   UNL d   1      -7.236   2.124  -1.473  0.00  0.00    -0.082 Cl
ATOM     17  C   UNL d   1      -5.335   1.527  -3.355  0.00  0.00     0.057 A 
ATOM     18  C   UNL d   1      -4.042   1.165  -3.728  0.00  0.00     0.051 A 
ATOM     19 CL   UNL d   1      -6.494   1.766  -4.615  0.00  0.00    -0.082 Cl
ATOM     20  C   UNL d   1      -3.068   0.937  -2.753  0.00  0.00     0.062 A 
ATOM     21 CL   UNL d   1      -1.528   0.387  -3.322  0.00  0.00    -0.082 Cl
ENDBRANCH   1  13
BRANCH   2  22
ATOM     22  C   UNL d   1      -2.200  -0.320   1.909  0.00  0.00     0.184 C 
BRANCH  22  23
ATOM     23  C   UNL d   1      -3.339   0.357   2.619  0.00  0.00     0.263 C 
ATOM     24  O   UNL d   1      -4.351   0.783   2.089  0.00  0.00    -0.265 OA
BRANCH  23  25
ATOM     25  O   UNL d   1      -3.051   0.437   3.947  0.00  0.00    -0.326 OA
ATOM     26  C   UNL d   1      -4.032   1.081   4.767  0.00  0.00     0.213 C 
ENDBRANCH  23  25
ENDBRANCH  22  23
ENDBRANCH   2  22
BRANCH   2  27
ATOM     27  C   UNL d   1      -3.584  -1.466   0.143  0.00  0.00     0.316 C 
ATOM     28  O   UNL d   1      -4.210  -2.026   1.039  0.00  0.00    -0.260 OA
BRANCH  27  29
ATOM     29  O   UNL d   1      -3.755  -1.745  -1.184  0.00  0.00    -0.323 OA
ATOM     30  C   UNL d   1      -4.773  -2.704  -1.482  0.00  0.00     0.213 C 
ENDBRANCH  27  29
ENDBRANCH   2  27
TORSDOF 6
