REMARK  6 active torsions:
REMARK  status: ('A' for Active; 'I' for Inactive)
REMARK    1  A    between atoms: S_6  and  C_1 
REMARK    2  A    between atoms: C_3  and  S_6 
REMARK    3  A    between atoms: C_18  and  C_5 
REMARK    4  A    between atoms: C_17  and  C_9 
REMARK    5  A    between atoms: O_20  and  C_17 
REMARK    6  A    between atoms: C_25  and  O_20 
ROOT
ATOM      1  C   UNL d   1      -0.868   1.155  -0.081  0.00  0.00     0.087 A 
ATOM      2  C   UNL d   1      -1.558  -0.042  -0.228  0.00  0.00     0.005 A 
ATOM      3  C   UNL d   1      -0.739  -1.163  -0.213  0.00  0.00     0.118 A 
ATOM      4  N   UNL d   1       0.482   1.239  -0.024  0.00  0.00    -0.340 N 
ATOM      5  HN  UNL d   1       0.953   2.140   0.064  1.00  0.00     0.167 HD
ATOM      6  N   UNL d   1       0.615  -1.109  -0.160  0.00  0.00    -0.341 N 
ATOM      7  HN  UNL d   1       1.182  -1.957  -0.177  1.00  0.00     0.167 HD
ATOM      8  C   UNL d   1       1.174   0.096  -0.086  0.00  0.00     0.078 A 
ATOM      9  C   UNL d   1      -3.049  -0.135  -0.320  0.00  0.00     0.054 C 
ATOM     10  C   UNL d   1       2.666   0.164  -0.002  0.00  0.00     0.089 C 
ENDROOT
BRANCH   1  11
ATOM     11  S   UNL d   1      -1.682   2.700   0.293  0.00  0.00    -0.034 SA
BRANCH  11  12
ATOM     12  C   UNL d   1      -1.763   3.375  -1.283  0.00  0.00     0.167 A 
ATOM     13  N   UNL d   1      -1.211   4.590  -1.548  0.00  0.00    -0.320 N 
ATOM     14  C   UNL d   1      -1.691   4.972  -2.777  0.00  0.00     0.132 A 
ATOM     15  H   UNL d   1      -0.663   5.145  -0.911  0.00  0.00     0.169 HD
ATOM     16  N   UNL d   1      -2.432   3.983  -3.248  0.00  0.00    -0.283 N 
ATOM     17  N   UNL d   1      -2.473   2.973  -2.307  0.00  0.00    -0.278 N 
ATOM     18  HN  UNL d   1      -2.897   3.969  -4.156  1.00  0.00     0.188 HD
ATOM     19  HN  UNL d   1      -2.963   2.083  -2.393  1.00  0.00     0.189 HD
BRANCH  14  20
ATOM     20  C   UNL d   1      -1.478   6.286  -3.379  0.00  0.00     0.009 A 
ATOM     21  C   UNL d   1      -0.293   7.012  -3.185  0.00  0.00     0.015 A 
ATOM     22  C   UNL d   1      -0.130   8.276  -3.759  0.00  0.00     0.001 A 
ATOM     23  C   UNL d   1      -1.150   8.833  -4.530  0.00  0.00     0.000 A 
ATOM     24  C   UNL d   1      -2.331   8.122  -4.734  0.00  0.00     0.001 A 
ATOM     25  C   UNL d   1      -2.490   6.855  -4.167  0.00  0.00     0.015 A 
ENDBRANCH  14  20
ENDBRANCH  11  12
ENDBRANCH   1  11
BRANCH   3  26
ATOM     26  C   UNL d   1      -1.296  -2.554  -0.094  0.00  0.00     0.310 C 
ATOM     27  O   UNL d   1      -2.373  -2.837   0.407  0.00  0.00    -0.258 OA
BRANCH  26  28
ATOM     28  O   UNL d   1      -0.363  -3.436  -0.539  0.00  0.00    -0.317 OA
BRANCH  28  29
ATOM     29  C   UNL d   1      -0.520  -4.802  -0.138  0.00  0.00     0.175 C 
ATOM     30  C   UNL d   1       0.261  -5.016   1.147  0.00  0.00     0.034 C 
ENDBRANCH  28  29
ENDBRANCH  26  28
ENDBRANCH   3  26
TORSDOF 6
