REMARK  5 active torsions:
REMARK  status: ('A' for Active; 'I' for Inactive)
REMARK    1  A    between atoms: C_6  and  C_1 
REMARK    2  A    between atoms: C_4  and  S_9 
REMARK    3  A    between atoms: C_12  and  C_5 
REMARK    4  A    between atoms: S_9  and  C_6 
REMARK    5  A    between atoms: O_22  and  C_19 
ROOT
ATOM      1  N   UNL d   1      -2.256   5.866  -0.122  0.00  0.00    -0.336 N 
ATOM      2  HN  UNL d   1      -3.202   5.563  -0.355  1.00  0.00     0.168 HD
ATOM      3  C   UNL d   1      -1.284   4.974   0.123  0.00  0.00     0.144 A 
ATOM      4  C   UNL d   1      -1.941   7.179  -0.050  0.00  0.00     0.045 A 
ATOM      5  N   UNL d   1      -0.017   5.292   0.423  0.00  0.00    -0.347 N 
ATOM      6  HN  UNL d   1       0.690   4.579   0.605  1.00  0.00     0.167 HD
ATOM      7  C   UNL d   1      -0.657   7.595   0.246  0.00  0.00     0.047 A 
ATOM      8  C   UNL d   1       0.270   6.604   0.471  0.00  0.00     0.092 A 
ENDROOT
BRANCH   3   9
ATOM      9  S   UNL d   1      -1.695   3.246   0.097  0.00  0.00    -0.089 SA
BRANCH   9  10
ATOM     10  C   UNL d   1      -3.125   3.298  -1.024  0.00  0.00     0.126 C 
BRANCH  10  11
ATOM     11  C   UNL d   1      -3.773   1.945  -1.176  0.00  0.00     0.012 A 
ATOM     12  C   UNL d   1      -3.348   1.094  -2.203  0.00  0.00     0.125 A 
ATOM     13  F   UNL d   1      -2.378   1.491  -3.039  0.00  0.00    -0.205 F 
ATOM     14  C   UNL d   1      -3.914  -0.165  -2.400  0.00  0.00     0.043 A 
ATOM     15  C   UNL d   1      -4.929  -0.604  -1.557  0.00  0.00     0.005 A 
ATOM     16  C   UNL d   1      -5.365   0.220  -0.519  0.00  0.00     0.024 A 
ATOM     17  C   UNL d   1      -4.788   1.482  -0.325  0.00  0.00     0.044 A 
ATOM     18 CL   UNL d   1      -5.390   2.433   0.987  0.00  0.00    -0.084 Cl
ENDBRANCH  10  11
ENDBRANCH   9  10
ENDBRANCH   3   9
BRANCH   4  19
ATOM     19  C   UNL d   1      -3.057   8.111  -0.317  0.00  0.00    -0.009 A 
ATOM     20  C   UNL d   1      -3.148   9.375   0.295  0.00  0.00     0.016 A 
ATOM     21  C   UNL d   1      -4.221  10.240   0.034  0.00  0.00     0.037 A 
ATOM     22  C   UNL d   1      -5.232   9.859  -0.844  0.00  0.00     0.068 A 
ATOM     23  C   UNL d   1      -5.153   8.619  -1.472  0.00  0.00     0.037 A 
ATOM     24  C   UNL d   1      -4.088   7.754  -1.203  0.00  0.00     0.016 A 
BRANCH  22  25
ATOM     25  O   UNL d   1      -6.314  10.619  -1.189  0.00  0.00    -0.356 OA
ATOM     26  C   UNL d   1      -6.746  11.558  -0.211  0.00  0.00     0.210 C 
ENDBRANCH  22  25
ENDBRANCH   4  19
TORSDOF 5
