REMARK  6 active torsions:
REMARK  status: ('A' for Active; 'I' for Inactive)
REMARK    1  A    between atoms: N_2  and  S_1 
REMARK    2  A    between atoms: C_3  and  S_1 
REMARK    3  A    between atoms: N_5  and  N_2 
REMARK    4  A    between atoms: O_16  and  C_4 
REMARK    5  A    between atoms: C_7  and  C_11 
REMARK    6  A    between atoms: O_21  and  C_15 
ROOT
ATOM      1  N   UNL d   1       0.852   1.829   2.055  0.00  0.00    -0.301 N 
ATOM      2  HN  UNL d   1       1.698   1.424   2.455  1.00  0.00     0.186 HD
ATOM      3  C   UNL d   1       0.141   2.695   2.700  0.00  0.00     0.122 C 
ENDROOT
BRANCH   1   4
ATOM      4  N   UNL d   1       0.393   1.470   0.758  0.00  0.00    -0.223 N 
ATOM      5  H   UNL d   1      -0.452   1.840   0.321  0.00  0.00     0.200 HD
BRANCH   4   6
ATOM      6  S   UNL d   1       0.995   0.057   0.026  0.00  0.00     0.276 S 
ATOM      7  O   UNL d   1       2.442   0.099   0.028  0.00  0.00    -0.199 OA
ATOM      8  O   UNL d   1       0.240  -0.125  -1.197  0.00  0.00    -0.199 OA
BRANCH   6   9
ATOM      9  C   UNL d   1       0.470  -1.184   1.187  0.00  0.00     0.081 A 
ATOM     10  C   UNL d   1      -0.749  -1.838   0.994  0.00  0.00     0.026 A 
ATOM     11  C   UNL d   1      -1.152  -2.821   1.899  0.00  0.00     0.008 A 
ATOM     12  C   UNL d   1      -0.341  -3.162   2.990  0.00  0.00    -0.062 A 
ATOM     13  C   UNL d   1       0.883  -2.501   3.169  0.00  0.00     0.008 A 
ATOM     14  C   UNL d   1      -0.783  -4.235   3.942  0.00  0.00     0.048 C 
ATOM     15  C   UNL d   1       1.294  -1.517   2.267  0.00  0.00     0.026 A 
ENDBRANCH   6   9
ENDBRANCH   4   6
ENDBRANCH   1   4
BRANCH   3  16
ATOM     16  C   UNL d   1       0.549   3.110   4.057  0.00  0.00     0.014 A 
ATOM     17  C   UNL d   1       1.770   2.705   4.616  0.00  0.00     0.080 A 
ATOM     18  C   UNL d   1       2.116   3.097   5.905  0.00  0.00     0.074 A 
ATOM     19  C   UNL d   1       1.242   3.892   6.636  0.00  0.00     0.068 A 
ATOM     20  C   UNL d   1       0.025   4.305   6.097  0.00  0.00     0.037 A 
ATOM     21  C   UNL d   1      -0.324   3.914   4.800  0.00  0.00     0.018 A 
BRANCH  17  22
ATOM     22  O   UNL d   1       2.683   1.925   3.958  0.00  0.00    -0.360 OA
ATOM     23  H   UNL d   1       2.335   1.728   3.062  0.00  0.00     0.217 HD
ENDBRANCH  17  22
BRANCH  19  24
ATOM     24  O   UNL d   1       1.619   4.251   7.895  0.00  0.00    -0.361 OA
ATOM     25  H   UNL d   1       0.928   4.805   8.290  0.00  0.00     0.217 HD
ENDBRANCH  19  24
ENDBRANCH   3  16
TORSDOF 6
