REMARK  3 active torsions:
REMARK  status: ('A' for Active; 'I' for Inactive)
REMARK    1  A    between atoms: N_3  and  C_1 
REMARK       I    between atoms: C_2  and  N_3 
REMARK       I    between atoms: N_10  and  C_2 
REMARK    2  A    between atoms: C_17  and  C_6 
REMARK    3  A    between atoms: C_16  and  N_10 
ROOT
ATOM      1  N   UNL d   1      -8.824  -3.545  -2.064  0.00  0.00    -0.191 NA
ATOM      2  C   UNL d   1      -7.722  -3.261  -1.843  0.00  0.00     0.099 C 
ATOM      3  C   UNL d   1      -6.363  -2.894  -1.576  0.00  0.00     0.044 A 
ATOM      4  C   UNL d   1      -3.691  -2.186  -1.075  0.00  0.00     0.036 A 
ATOM      5  C   UNL d   1      -5.490  -3.805  -0.978  0.00  0.00     0.025 A 
ATOM      6  C   UNL d   1      -5.905  -1.619  -1.917  0.00  0.00     0.025 A 
ATOM      7  C   UNL d   1      -4.156  -3.454  -0.731  0.00  0.00     0.031 A 
ATOM      8  C   UNL d   1      -4.579  -1.268  -1.655  0.00  0.00     0.031 A 
ENDROOT
BRANCH   4   9
ATOM      9  N   UNL d   1      -2.369  -1.746  -0.890  0.00  0.00    -0.309 N 
ATOM     10  C   UNL d   1      -1.251  -2.474  -0.599  0.00  0.00     0.325 C 
ATOM     11  N   UNL d   1      -0.064  -1.784  -0.498  0.00  0.00    -0.306 N 
ATOM     12  O   UNL d   1      -1.231  -3.678  -0.352  0.00  0.00    -0.247 OA
ATOM     13  H   UNL d   1       0.607  -2.347   0.018  0.00  0.00     0.171 HD
ATOM     14  H   UNL d   1      -2.199  -0.799  -1.179  0.00  0.00     0.170 HD
BRANCH  11  15
ATOM     15  C   UNL d   1       0.228  -0.395  -0.572  0.00  0.00     0.071 C 
ATOM     16  C   UNL d   1      -0.313   0.503  -1.505  0.00  0.00     0.039 C 
ATOM     17  C   UNL d   1      -0.154   1.887  -1.351  0.00  0.00     0.029 C 
ATOM     18 BR   UNL d   1      -1.116  -0.046  -3.145  0.00  0.00    -0.049 Br
ATOM     19  C   UNL d   1       0.643   2.412  -0.329  0.00  0.00    -0.052 C 
ATOM     20  C   UNL d   1       1.329   1.515   0.497  0.00  0.00     0.029 C 
ATOM     21  C   UNL d   1       1.131   0.132   0.370  0.00  0.00     0.039 C 
ATOM     22 BR   UNL d   1       2.102  -0.997   1.559  0.00  0.00    -0.049 Br
BRANCH  19  23
ATOM     23  C   UNL d   1       0.774   3.909  -0.112  0.00  0.00     0.010 C 
ATOM     24  C   UNL d   1       1.161   4.655  -1.392  0.00  0.00     0.015 C 
ATOM     25  C   UNL d   1      -0.521   4.480   0.476  0.00  0.00     0.015 C 
ENDBRANCH  19  23
ENDBRANCH  11  15
ENDBRANCH   4   9
TORSDOF 3
