REMARK  4 active torsions:
REMARK  status: ('A' for Active; 'I' for Inactive)
REMARK    1  A    between atoms: N_2  and  C_1 
REMARK    2  A    between atoms: N_3  and  C_6 
REMARK    3  A    between atoms: C_4  and  C_5 
REMARK       I    between atoms: C_5  and  N_8 
REMARK    4  A    between atoms: N_8  and  C_7 
ROOT
ATOM      1  C   UNL d   1       4.553   1.111   0.292  0.00  0.00     0.258 C 
ATOM      2  N   UNL d   1       3.646   0.129  -0.053  0.00  0.00    -0.321 N 
ATOM      3  O   UNL d   1       5.768   0.959   0.315  0.00  0.00    -0.267 OA
ATOM      4  H   UNL d   1       2.695   0.425  -0.254  0.00  0.00     0.169 HD
ENDROOT
BRANCH   2   5
ATOM      5  C   UNL d   1       3.945  -1.198  -0.452  0.00  0.00     0.068 A 
ATOM      6  C   UNL d   1       5.087  -1.960  -0.152  0.00  0.00     0.131 A 
ATOM      7  C   UNL d   1       5.319  -3.205  -0.767  0.00  0.00     0.062 A 
ATOM      8  C   UNL d   1       4.373  -3.720  -1.646  0.00  0.00     0.036 A 
ATOM      9  C   UNL d   1       3.192  -3.028  -1.889  0.00  0.00     0.026 A 
ATOM     10 CL   UNL d   1       4.639  -5.241  -2.402  0.00  0.00    -0.084 Cl
ATOM     11  C   UNL d   1       2.980  -1.781  -1.293  0.00  0.00     0.034 A 
BRANCH   6  12
ATOM     12  N   UNL d   1       5.955  -1.646   0.972  0.00  0.00    -0.113 N 
ATOM     13  O   UNL d   1       5.405  -1.440   2.065  0.00  0.00    -0.532 OA
ATOM     14  O   UNL d   1       7.178  -1.746   0.788  0.00  0.00    -0.532 OA
ENDBRANCH   6  12
ENDBRANCH   2   5
BRANCH   1  15
ATOM     15  C   UNL d   1       4.014   2.495   0.473  0.00  0.00     0.065 A 
ATOM     16  C   UNL d   1       2.789   2.846   1.048  0.00  0.00     0.118 A 
ATOM     17  C   UNL d   1       2.346   4.179   1.105  0.00  0.00     0.037 A 
ATOM     18  C   UNL d   1       3.154   5.190   0.591  0.00  0.00     0.002 A 
ATOM     19  C   UNL d   1       4.399   4.872   0.051  0.00  0.00     0.001 A 
ATOM     20  C   UNL d   1       4.827   3.541  -0.002  0.00  0.00     0.020 A 
BRANCH  16  21
ATOM     21  N   UNL d   1       1.905   1.855   1.608  0.00  0.00    -0.115 N 
ATOM     22  O   UNL d   1       1.313   1.126   0.798  0.00  0.00    -0.532 OA
ATOM     23  O   UNL d   1       1.765   1.846   2.836  0.00  0.00    -0.532 OA
ENDBRANCH  16  21
ENDBRANCH   1  15
TORSDOF 4
