REMARK  3 active torsions:
REMARK  status: ('A' for Active; 'I' for Inactive)
REMARK    1  A    between atoms: C_5  and  C_1 
REMARK    2  A    between atoms: C_6  and  C_2 
REMARK       I    between atoms: N_9  and  C_5 
REMARK    3  A    between atoms: C_14  and  N_9 
ROOT
ATOM      1  C   UNL d   1      -0.356  -1.051   0.332  0.00  0.00     0.093 A 
ATOM      2  C   UNL d   1      -1.641  -0.430   0.452  0.00  0.00     0.085 A 
ATOM      3  N   UNL d   1      -1.517   0.900   0.566  0.00  0.00    -0.259 N 
ATOM      4  HN  UNL d   1      -2.271   1.579   0.670  1.00  0.00     0.195 HD
ATOM      5  O   UNL d   1      -0.167   1.166   0.514  0.00  0.00    -0.241 OA
ATOM      6  C   UNL d   1       0.527   0.008   0.343  0.00  0.00     0.090 A 
ATOM      7  C   UNL d   1       1.981   0.174   0.145  0.00  0.00     0.080 C 
ENDROOT
BRANCH   1   8
ATOM      8  C   UNL d   1      -0.108  -2.464   0.094  0.00  0.00     0.261 C 
ATOM      9  N   UNL d   1       1.157  -2.926   0.436  0.00  0.00    -0.323 N 
ATOM     10  H   UNL d   1       1.829  -2.261   0.781  0.00  0.00     0.169 HD
ATOM     11  O   UNL d   1      -0.978  -3.147  -0.430  0.00  0.00    -0.267 OA
BRANCH   9  12
ATOM     12  C   UNL d   1       1.662  -4.172  -0.002  0.00  0.00     0.037 C 
ATOM     13  C   UNL d   1       0.825  -5.248  -0.311  0.00  0.00     0.069 C 
ATOM     14  C   UNL d   1       1.361  -6.298  -1.015  0.00  0.00     0.107 C 
ATOM     15  O   UNL d   1       0.661  -7.349  -1.518  0.00  0.00    -0.323 OA
ATOM     16  C   UNL d   1       2.692  -6.340  -1.352  0.00  0.00     0.105 C 
ATOM     17  C   UNL d   1       1.653  -7.914  -2.396  0.00  0.00     0.352 C 
ATOM     18  O   UNL d   1       2.983  -7.408  -2.143  0.00  0.00    -0.323 OA
ATOM     19  C   UNL d   1       3.571  -5.361  -0.946  0.00  0.00     0.042 C 
ATOM     20  C   UNL d   1       3.048  -4.263  -0.249  0.00  0.00     0.032 C 
ENDBRANCH   9  12
ENDBRANCH   1   8
BRANCH   2  21
ATOM     21  C   UNL d   1      -2.954  -1.067   0.378  0.00  0.00     0.015 A 
ATOM     22  C   UNL d   1      -3.366  -2.063   1.277  0.00  0.00     0.046 A 
ATOM     23 CL   UNL d   1      -2.430  -2.510   2.665  0.00  0.00    -0.083 Cl
ATOM     24  C   UNL d   1      -4.579  -2.734   1.079  0.00  0.00     0.025 A 
ATOM     25  C   UNL d   1      -5.399  -2.402  -0.001  0.00  0.00     0.002 A 
ATOM     26  C   UNL d   1      -5.017  -1.390  -0.878  0.00  0.00     0.001 A 
ATOM     27  C   UNL d   1      -3.802  -0.726  -0.691  0.00  0.00     0.015 A 
ENDBRANCH   2  21
TORSDOF 3
