REMARK  5 active torsions:
REMARK  status: ('A' for Active; 'I' for Inactive)
REMARK    1  A    between atoms: C_8  and  C_1 
REMARK    2  A    between atoms: C_26  and  N_2 
REMARK    3  A    between atoms: C_7  and  C_13 
REMARK       I    between atoms: N_15  and  C_8 
REMARK    4  A    between atoms: C_9  and  C_12 
REMARK       I    between atoms: C_13  and  N_16 
REMARK    5  A    between atoms: N_16  and  N_15 
ROOT
ATOM      1  C   UNL d   1      -3.194  -5.000  -1.013  0.00  0.00     0.288 C 
ATOM      2  N   UNL d   1      -2.112  -4.484  -0.326  0.00  0.00    -0.262 N 
ATOM      3  O   UNL d   1      -3.980  -4.288  -1.626  0.00  0.00    -0.264 OA
ATOM      4  H   UNL d   1      -1.453  -5.093   0.165  0.00  0.00     0.190 HD
ENDROOT
BRANCH   2   5
ATOM      5  N   UNL d   1      -1.836  -3.113  -0.367  0.00  0.00    -0.262 N 
ATOM      6  C   UNL d   1      -0.584  -2.686   0.027  0.00  0.00     0.289 C 
ATOM      7  O   UNL d   1       0.261  -3.503   0.403  0.00  0.00    -0.264 OA
ATOM      8  H   UNL d   1      -2.533  -2.507  -0.796  0.00  0.00     0.190 HD
BRANCH   6   9
ATOM      9  C   UNL d   1      -0.322  -1.269  -0.046  0.00  0.00     0.139 A 
ATOM     10  N   UNL d   1       0.943  -0.734  -0.174  0.00  0.00    -0.286 N 
ATOM     11  N   UNL d   1       0.975   0.614  -0.138  0.00  0.00    -0.301 N 
ATOM     12  C   UNL d   1      -0.304   0.976   0.001  0.00  0.00     0.042 A 
ATOM     13  HN  UNL d   1       1.793   1.220  -0.203  1.00  0.00     0.187 HD
ATOM     14  C   UNL d   1      -1.144  -0.161   0.035  0.00  0.00     0.068 A 
ATOM     15  C   UNL d   1      -0.626   2.422   0.104  0.00  0.00     0.071 C 
ATOM     16 BR   UNL d   1      -3.009  -0.095   0.235  0.00  0.00    -0.046 Br
BRANCH  10  17
ATOM     17  C   UNL d   1       2.190  -1.435  -0.439  0.00  0.00     0.145 C 
ATOM     18  C   UNL d   1       2.984  -1.724   0.822  0.00  0.00     0.028 C 
ENDBRANCH  10  17
ENDBRANCH   6   9
ENDBRANCH   2   5
BRANCH   1  19
ATOM     19  C   UNL d   1      -3.304  -6.500  -0.922  0.00  0.00     0.124 A 
ATOM     20  N   UNL d   1      -2.544  -7.057   0.077  0.00  0.00    -0.359 N 
ATOM     21  C   UNL d   1      -2.590  -8.402   0.227  0.00  0.00     0.105 A 
ATOM     22  HN  UNL d   1      -1.966  -6.478   0.686  1.00  0.00     0.165 HD
ATOM     23  C   UNL d   1      -3.338  -9.243  -0.581  0.00  0.00     0.065 A 
ATOM     24  C   UNL d   1      -4.095  -8.653  -1.601  0.00  0.00     0.044 A 
ATOM     25  C   UNL d   1      -4.088  -7.264  -1.783  0.00  0.00     0.067 A 
ATOM     26 CL   UNL d   1      -5.013  -6.642  -3.095  0.00  0.00    -0.082 Cl
BRANCH  23  27
ATOM     27  C   UNL d   1      -3.305 -10.725  -0.350  0.00  0.00     0.418 C 
ATOM     28  F   UNL d   1      -4.045 -11.428  -1.249  0.00  0.00    -0.166 F 
ATOM     29  F   UNL d   1      -2.045 -11.232  -0.424  0.00  0.00    -0.166 F 
ATOM     30  F   UNL d   1      -3.778 -11.069   0.878  0.00  0.00    -0.166 F 
ENDBRANCH  23  27
ENDBRANCH   1  19
TORSDOF 5
