REMARK  5 active torsions:
REMARK  status: ('A' for Active; 'I' for Inactive)
REMARK    1  A    between atoms: O_6  and  C_1 
REMARK    2  A    between atoms: C_9  and  C_2 
REMARK    3  A    between atoms: C_7  and  O_6 
REMARK    4  A    between atoms: C_8  and  C_7 
REMARK    5  A    between atoms: O_20  and  C_9 
ROOT
ATOM      1  C   UNL d   1       0.258  -0.989  -0.663  0.00  0.00     0.122 A 
ATOM      2  C   UNL d   1       1.353  -0.149  -0.553  0.00  0.00     0.116 A 
ATOM      3  C   UNL d   1      -0.932  -0.420  -0.127  0.00  0.00     0.070 A 
ATOM      4  S   UNL d   1       0.921   1.294   0.279  0.00  0.00    -0.072 SA
ATOM      5  C   UNL d   1      -0.705   0.825   0.400  0.00  0.00     0.072 A 
ATOM      6 BR   UNL d   1      -2.599  -1.315  -0.225  0.00  0.00    -0.046 Br
ATOM      7 BR   UNL d   1      -2.004   1.952   1.151  0.00  0.00    -0.042 Br
ENDROOT
BRANCH   1   8
ATOM      8  O   UNL d   1       0.318  -2.156  -1.346  0.00  0.00    -0.272 OA
BRANCH   8   9
ATOM      9  C   UNL d   1       0.435  -3.294  -0.619  0.00  0.00     0.300 C 
ATOM     10  O   UNL d   1       0.675  -3.357   0.580  0.00  0.00    -0.259 OA
BRANCH   9  11
ATOM     11  C   UNL d   1       0.233  -4.511  -1.464  0.00  0.00     0.061 A 
ATOM     12  C   UNL d   1      -0.352  -4.546  -2.744  0.00  0.00     0.051 A 
ATOM     13  C   UNL d   1      -0.534  -5.772  -3.403  0.00  0.00     0.048 A 
ATOM     14 CL   UNL d   1      -0.939  -3.165  -3.607  0.00  0.00    -0.083 Cl
ATOM     15  C   UNL d   1      -0.148  -6.963  -2.798  0.00  0.00     0.035 A 
ATOM     16  C   UNL d   1       0.433  -6.950  -1.536  0.00  0.00     0.025 A 
ATOM     17 CL   UNL d   1      -0.408  -8.457  -3.609  0.00  0.00    -0.084 Cl
ATOM     18  C   UNL d   1       0.624  -5.732  -0.875  0.00  0.00     0.021 A 
ENDBRANCH   9  11
ENDBRANCH   8   9
ENDBRANCH   1   8
BRANCH   2  19
ATOM     19  C   UNL d   1       2.699  -0.383  -1.048  0.00  0.00     0.302 C 
ATOM     20  O   UNL d   1       3.095  -1.433  -1.536  0.00  0.00    -0.259 OA
BRANCH  19  21
ATOM     21  O   UNL d   1       3.460   0.744  -0.945  0.00  0.00    -0.322 OA
ATOM     22  C   UNL d   1       4.767   0.658  -1.515  0.00  0.00     0.213 C 
ENDBRANCH  19  21
ENDBRANCH   2  19
TORSDOF 5
