REMARK  5 active torsions:
REMARK  status: ('A' for Active; 'I' for Inactive)
REMARK    1  A    between atoms: C_2  and  C_1 
REMARK       I    between atoms: N_10  and  C_2 
REMARK    2  A    between atoms: C_14  and  C_5 
REMARK    3  A    between atoms: C_8  and  O_13 
REMARK    4  A    between atoms: C_15  and  N_10 
REMARK    5  A    between atoms: O_13  and  C_19 
ROOT
ATOM      1  C   UNL d   1       1.267  -1.482  -0.270  0.00  0.00     0.073 A 
ATOM      2  N   UNL d   1       2.275   0.629   0.062  0.00  0.00    -0.298 N 
ATOM      3  HN  UNL d   1       3.109   1.210   0.150  1.00  0.00     0.187 HD
ATOM      4  C   UNL d   1       2.420  -0.697  -0.166  0.00  0.00     0.075 A 
ATOM      5  N   UNL d   1       1.036   1.217   0.177  0.00  0.00    -0.299 N 
ATOM      6  HN  UNL d   1       0.971   2.214   0.382  1.00  0.00     0.187 HD
ATOM      7  C   UNL d   1      -0.029  -0.876  -0.228  0.00  0.00     0.010 A 
ATOM      8  C   UNL d   1      -0.080   0.504   0.025  0.00  0.00     0.059 A 
ATOM      9  C   UNL d   1      -1.272  -1.541  -0.446  0.00  0.00     0.015 A 
ATOM     10  C   UNL d   1      -1.306   1.154   0.124  0.00  0.00     0.032 A 
ATOM     11  C   UNL d   1      -2.497  -0.878  -0.330  0.00  0.00     0.001 A 
ATOM     12  C   UNL d   1      -2.514   0.474  -0.036  0.00  0.00     0.002 A 
ENDROOT
BRANCH   1  13
ATOM     13  C   UNL d   1       1.381  -2.952  -0.430  0.00  0.00     0.259 C 
ATOM     14  N   UNL d   1       0.663  -3.697   0.496  0.00  0.00    -0.323 N 
ATOM     15  H   UNL d   1      -0.043  -3.219   1.042  0.00  0.00     0.169 HD
ATOM     16  O   UNL d   1       2.040  -3.410  -1.357  0.00  0.00    -0.267 OA
BRANCH  14  17
ATOM     17  C   UNL d   1       0.589  -5.102   0.488  0.00  0.00     0.035 A 
ATOM     18  C   UNL d   1       1.709  -5.906   0.273  0.00  0.00     0.032 A 
ATOM     19  C   UNL d   1       1.596  -7.302   0.316  0.00  0.00     0.039 A 
ATOM     20  C   UNL d   1       0.352  -7.896   0.527  0.00  0.00     0.078 A 
ATOM     21  C   UNL d   1      -0.772  -7.088   0.706  0.00  0.00     0.039 A 
ATOM     22  C   UNL d   1      -0.649  -5.697   0.732  0.00  0.00     0.032 A 
BRANCH  20  23
ATOM     23  O   UNL d   1       0.102  -9.238   0.523  0.00  0.00    -0.255 OA
BRANCH  23  24
ATOM     24  C   UNL d   1       1.121 -10.066   1.062  0.00  0.00     0.530 C 
ATOM     25  F   UNL d   1       1.529  -9.619   2.269  0.00  0.00    -0.144 F 
ATOM     26  F   UNL d   1       0.618 -11.311   1.225  0.00  0.00    -0.144 F 
ATOM     27  F   UNL d   1       2.177 -10.149   0.227  0.00  0.00    -0.144 F 
ENDBRANCH  23  24
ENDBRANCH  20  23
ENDBRANCH  14  17
ENDBRANCH   1  13
BRANCH   4  28
ATOM     28  C   UNL d   1       3.844  -1.106  -0.289  0.00  0.00    -0.007 A 
ATOM     29  C   UNL d   1       4.771  -0.217  -0.882  0.00  0.00     0.014 A 
ATOM     30  C   UNL d   1       6.125  -0.538  -1.025  0.00  0.00     0.001 A 
ATOM     31  C   UNL d   1       6.593  -1.769  -0.586  0.00  0.00     0.000 A 
ATOM     32  C   UNL d   1       5.712  -2.663   0.012  0.00  0.00     0.001 A 
ATOM     33  C   UNL d   1       4.361  -2.327   0.176  0.00  0.00     0.014 A 
ENDBRANCH   4  28
TORSDOF 5
