REMARK  1 active torsions:
REMARK  status: ('A' for Active; 'I' for Inactive)
REMARK    1  A    between atoms: C_8  and  N_3 
ROOT
ATOM      1  C   UNL d   1      -2.486   0.700  -0.321  0.00  0.00     0.258 C 
ATOM      2  C   UNL d   1      -2.499  -0.780   0.031  0.00  0.00     0.276 C 
ATOM      3  N   UNL d   1      -1.264  -1.439  -0.131  0.00  0.00    -0.279 N 
ATOM      4  C   UNL d   1      -1.236   1.428   0.092  0.00  0.00     0.210 C 
ATOM      5  C   UNL d   1      -0.012  -0.732  -0.127  0.00  0.00     0.056 A 
ATOM      6  C   UNL d   1       0.019   0.660   0.024  0.00  0.00     0.041 A 
ATOM      7  O   UNL d   1      -3.549  -1.373   0.302  0.00  0.00    -0.269 OA
ATOM      8 CL   UNL d   1      -2.585   0.809  -2.119  0.00  0.00    -0.082 Cl
ATOM      9 CL   UNL d   1      -3.916   1.517   0.377  0.00  0.00    -0.082 Cl
ATOM     10  O   UNL d   1      -1.182   2.617   0.405  0.00  0.00    -0.288 OA
ATOM     11  C   UNL d   1       1.231  -1.398  -0.157  0.00  0.00     0.031 A 
ATOM     12  C   UNL d   1       1.233   1.364   0.102  0.00  0.00     0.017 A 
ATOM     13  C   UNL d   1       2.442  -0.697  -0.100  0.00  0.00     0.002 A 
ATOM     14  C   UNL d   1       2.444   0.686   0.028  0.00  0.00     0.001 A 
ENDROOT
BRANCH   3  15
ATOM     15  C   UNL d   1      -1.282  -2.838  -0.434  0.00  0.00     0.042 A 
ATOM     16  C   UNL d   1      -0.713  -3.308  -1.627  0.00  0.00     0.030 A 
ATOM     17  C   UNL d   1      -0.800  -4.657  -1.980  0.00  0.00     0.002 A 
ATOM     18  C   UNL d   1      -1.468  -5.550  -1.145  0.00  0.00     0.000 A 
ATOM     19  C   UNL d   1      -2.054  -5.095   0.035  0.00  0.00     0.002 A 
ATOM     20  C   UNL d   1      -1.968  -3.745   0.385  0.00  0.00     0.030 A 
ENDBRANCH   3  15
TORSDOF 1
