REMARK  3 active torsions:
REMARK  status: ('A' for Active; 'I' for Inactive)
REMARK    1  A    between atoms: N_2  and  S_1 
REMARK    2  A    between atoms: N_3  and  S_1 
REMARK    3  A    between atoms: C_6  and  N_2 
ROOT
ATOM      1  N   UNL d   1       0.326  -0.262  -1.481  0.00  0.00    -0.172 NA
ATOM      2  H   UNL d   1       0.624  -1.212  -1.701  0.00  0.00     0.147 HD
ENDROOT
BRANCH   1   3
ATOM      3  S   UNL d   1       0.906   0.078   0.065  0.00  0.00     0.284 S 
ATOM      4  O   UNL d   1       2.201   0.712  -0.037  0.00  0.00    -0.194 OA
ATOM      5  O   UNL d   1       0.733  -1.128   0.841  0.00  0.00    -0.194 OA
BRANCH   3   6
ATOM      6  N   UNL d   1      -0.230   1.212   0.610  0.00  0.00    -0.206 NA
ATOM      7  C   UNL d   1      -1.595   0.669   0.788  0.00  0.00     0.130 C 
ATOM      8  C   UNL d   1       0.214   1.951   1.813  0.00  0.00     0.130 C 
ENDBRANCH   3   6
ENDBRANCH   1   3
BRANCH   1   9
ATOM      9  C   UNL d   1       0.671   0.660  -2.521  0.00  0.00     0.023 A 
ATOM     10  C   UNL d   1       1.839   0.459  -3.261  0.00  0.00     0.024 A 
ATOM     11  C   UNL d   1       2.174   1.340  -4.291  0.00  0.00     0.002 A 
ATOM     12  C   UNL d   1       1.347   2.426  -4.574  0.00  0.00     0.000 A 
ATOM     13  C   UNL d   1       0.197   2.643  -3.815  0.00  0.00     0.002 A 
ATOM     14  C   UNL d   1      -0.137   1.766  -2.778  0.00  0.00     0.024 A 
ENDBRANCH   1   9
TORSDOF 3
