REMARK  4 active torsions:
REMARK  status: ('A' for Active; 'I' for Inactive)
REMARK    1  A    between atoms: C_5  and  C_1 
REMARK    2  A    between atoms: C_6  and  C_2 
REMARK    3  A    between atoms: O_13  and  C_5 
REMARK    4  A    between atoms: O_12  and  C_6 
ROOT
ATOM      1  C   UNL d   1      -1.221  -0.826  -0.541  0.00  0.00     0.102 C 
ATOM      2  C   UNL d   1      -1.272   0.730  -0.530  0.00  0.00     0.102 C 
ATOM      3  C   UNL d   1       0.058  -1.139   0.271  0.00  0.00     0.001 C 
ATOM      4  C   UNL d   1      -0.028   1.088   0.319  0.00  0.00     0.001 C 
ATOM      5  C   UNL d   1       0.004  -0.050   1.343  0.00  0.00     0.011 C 
ATOM      6  C   UNL d   1       1.333  -0.724  -0.487  0.00  0.00     0.006 C 
ATOM      7  C   UNL d   1       1.237   0.807  -0.512  0.00  0.00     0.006 C 
ENDROOT
BRANCH   1   8
ATOM      8  C   UNL d   1      -1.189  -1.417  -1.933  0.00  0.00     0.145 C 
ATOM      9  O   UNL d   1      -0.831  -0.815  -2.936  0.00  0.00    -0.650 OA
BRANCH   8  10
ATOM     10  O   UNL d   1      -1.560  -2.716  -1.967  0.00  0.00    -0.776 OA
ATOM     11  H   UNL d   1      -1.845  -3.075  -1.106  0.00  0.00     0.167 HD
ENDBRANCH   8  10
ENDBRANCH   1   8
BRANCH   2  12
ATOM     12  C   UNL d   1      -2.537   1.256   0.125  0.00  0.00     0.145 C 
ATOM     13  O   UNL d   1      -3.457   0.559   0.528  0.00  0.00    -0.650 OA
BRANCH  12  14
ATOM     14  O   UNL d   1      -2.573   2.604   0.222  0.00  0.00    -0.776 OA
ATOM     15  H   UNL d   1      -1.800   3.059  -0.164  0.00  0.00     0.167 HD
ENDBRANCH  12  14
ENDBRANCH   2  12
TORSDOF 4
