REMARK  3 active torsions:
REMARK  status: ('A' for Active; 'I' for Inactive)
REMARK    1  A    between atoms: N_10  and  N_7 
REMARK    2  A    between atoms: C_16  and  N_10 
REMARK    3  A    between atoms: C_17  and  C_13 
ROOT
ATOM      1  C   UNL d   1       1.318   1.183   0.210  0.00  0.00     0.185 C 
ATOM      2  N   UNL d   1       0.095  -0.871  -0.159  0.00  0.00    -0.298 N 
ATOM      3  N   UNL d   1      -0.539   0.531   1.604  0.00  0.00    -0.298 N 
ATOM      4  C   UNL d   1       1.249  -0.179  -0.444  0.00  0.00     0.281 C 
ATOM      5  C   UNL d   1       0.562   1.348   1.508  0.00  0.00     0.281 C 
ATOM      6  C   UNL d   1      -0.796  -0.563   0.828  0.00  0.00     0.181 C 
ATOM      7  N   UNL d   1       1.896   2.223  -0.324  0.00  0.00    -0.291 N 
ATOM      8  HN  UNL d   1       1.881   3.139   0.125  1.00  0.00     0.187 HD
ATOM      9  S   UNL d   1      -2.123  -1.522   1.106  0.00  0.00    -0.040 SA
ATOM     10  O   UNL d   1       0.928   2.098   2.395  0.00  0.00    -0.265 OA
ATOM     11  O   UNL d   1       2.153  -0.615  -1.140  0.00  0.00    -0.265 OA
ATOM     12  H   UNL d   1      -0.027  -1.750  -0.645  0.00  0.00     0.171 HD
ATOM     13  H   UNL d   1      -1.118   0.669   2.424  0.00  0.00     0.171 HD
ENDROOT
BRANCH   7  14
ATOM     14  N   UNL d   1       2.522   2.016  -1.519  0.00  0.00    -0.300 N 
ATOM     15  H   UNL d   1       2.952   1.099  -1.689  0.00  0.00     0.187 HD
BRANCH  14  16
ATOM     16  C   UNL d   1       3.243   3.075  -2.107  0.00  0.00     0.048 A 
ATOM     17  C   UNL d   1       4.211   2.773  -3.071  0.00  0.00     0.031 A 
ATOM     18  C   UNL d   1       4.919   3.785  -3.723  0.00  0.00     0.010 A 
ATOM     19  C   UNL d   1       4.660   5.133  -3.447  0.00  0.00    -0.055 A 
ATOM     20  C   UNL d   1       3.668   5.439  -2.506  0.00  0.00     0.010 A 
ATOM     21  C   UNL d   1       2.966   4.420  -1.846  0.00  0.00     0.031 A 
BRANCH  19  22
ATOM     22  C   UNL d   1       5.431   6.239  -4.144  0.00  0.00     0.010 C 
ATOM     23  C   UNL d   1       6.928   6.157  -3.829  0.00  0.00     0.015 C 
ATOM     24  C   UNL d   1       5.195   6.222  -5.657  0.00  0.00     0.015 C 
ENDBRANCH  19  22
ENDBRANCH  14  16
ENDBRANCH   7  14
TORSDOF 3
