REMARK  2 active torsions:
REMARK  status: ('A' for Active; 'I' for Inactive)
REMARK    1  A    between atoms: C_9  and  C_4 
REMARK    2  A    between atoms: C_10  and  C_5 
ROOT
ATOM      1  C   UNL d   1       0.756  -0.216   0.153  0.00  0.00    -0.006 A 
ATOM      2  C   UNL d   1       0.267   2.103  -0.130  0.00  0.00    -0.006 A 
ATOM      3  C   UNL d   1       1.362   1.105  -0.132  0.00  0.00     0.184 A 
ATOM      4  C   UNL d   1       1.528  -1.304   0.291  0.00  0.00     0.022 C 
ATOM      5  C   UNL d   1       0.536   3.410  -0.257  0.00  0.00     0.022 C 
ATOM      6  C   UNL d   1      -1.044   1.410   0.063  0.00  0.00     0.047 A 
ATOM      7  C   UNL d   1      -0.728  -0.074   0.282  0.00  0.00     0.047 A 
ATOM      8  O   UNL d   1       2.543   1.332  -0.314  0.00  0.00    -0.287 OA
ENDROOT
BRANCH   4   9
ATOM      9  C   UNL d   1       1.015  -2.639   0.601  0.00  0.00    -0.036 A 
ATOM     10  C   UNL d   1       0.661  -3.518  -0.427  0.00  0.00     0.011 A 
ATOM     11  C   UNL d   1       0.202  -4.803  -0.126  0.00  0.00     0.001 A 
ATOM     12  C   UNL d   1       0.098  -5.214   1.203  0.00  0.00     0.000 A 
ATOM     13  C   UNL d   1       0.448  -4.340   2.232  0.00  0.00     0.001 A 
ATOM     14  C   UNL d   1       0.903  -3.054   1.932  0.00  0.00     0.011 A 
ENDBRANCH   4   9
BRANCH   5  15
ATOM     15  C   UNL d   1      -0.483   4.457  -0.186  0.00  0.00    -0.036 A 
ATOM     16  C   UNL d   1      -0.804   5.035   1.047  0.00  0.00     0.011 A 
ATOM     17  C   UNL d   1      -1.774   6.037   1.124  0.00  0.00     0.001 A 
ATOM     18  C   UNL d   1      -2.421   6.470  -0.031  0.00  0.00     0.000 A 
ATOM     19  C   UNL d   1      -2.100   5.903  -1.264  0.00  0.00     0.001 A 
ATOM     20  C   UNL d   1      -1.135   4.896  -1.343  0.00  0.00     0.011 A 
ENDBRANCH   5  15
TORSDOF 2
