REMARK  3 active torsions:
REMARK  status: ('A' for Active; 'I' for Inactive)
REMARK    1  A    between atoms: C_10  and  C_7 
REMARK    2  A    between atoms: C_11  and  C_8 
REMARK    3  A    between atoms: O_12  and  C_9 
ROOT
ATOM      1  N   UNL d   1      -0.700   1.202  -0.046  0.00  0.00    -0.307 N 
ATOM      2  HN  UNL d   1      -1.208   2.087  -0.068  1.00  0.00     0.171 HD
ATOM      3  N   UNL d   1       1.373   0.047  -0.001  0.00  0.00    -0.307 N 
ATOM      4  HN  UNL d   1       2.392   0.077   0.012  1.00  0.00     0.171 HD
ATOM      5  N   UNL d   1      -0.661  -1.156  -0.008  0.00  0.00    -0.327 N 
ATOM      6  HN  UNL d   1      -1.159  -2.046  -0.001  1.00  0.00     0.169 HD
ATOM      7  C   UNL d   1       0.673  -1.090   0.006  0.00  0.00     0.120 A 
ATOM      8  C   UNL d   1      -1.304   0.017  -0.033  0.00  0.00     0.120 A 
ATOM      9  C   UNL d   1       0.616   1.128  -0.028  0.00  0.00     0.224 A 
ENDROOT
BRANCH   7  10
ATOM     10  C   UNL d   1       1.427  -2.362   0.032  0.00  0.00     0.008 A 
ATOM     11  C   UNL d   1       2.835  -2.385   0.066  0.00  0.00     0.015 A 
ATOM     12  C   UNL d   1       3.549  -3.587   0.089  0.00  0.00     0.001 A 
ATOM     13  C   UNL d   1       2.870  -4.801   0.080  0.00  0.00     0.000 A 
ATOM     14  C   UNL d   1       1.479  -4.813   0.047  0.00  0.00     0.001 A 
ATOM     15  C   UNL d   1       0.768  -3.608   0.024  0.00  0.00     0.015 A 
ENDBRANCH   7  10
BRANCH   9  16
ATOM     16  O   UNL d   1       1.304   2.301  -0.032  0.00  0.00    -0.332 OA
ATOM     17  H   UNL d   1       2.212   1.959  -0.007  0.00  0.00     0.221 HD
ENDBRANCH   9  16
BRANCH   8  18
ATOM     18  C   UNL d   1      -2.782  -0.005  -0.037  0.00  0.00     0.008 A 
ATOM     19  C   UNL d   1      -3.503  -1.214   0.025  0.00  0.00     0.015 A 
ATOM     20  C   UNL d   1      -4.902  -1.233   0.029  0.00  0.00     0.001 A 
ATOM     21  C   UNL d   1      -5.615  -0.040  -0.030  0.00  0.00     0.000 A 
ATOM     22  C   UNL d   1      -4.932   1.170  -0.095  0.00  0.00     0.001 A 
ATOM     23  C   UNL d   1      -3.534   1.185  -0.099  0.00  0.00     0.015 A 
ENDBRANCH   8  18
TORSDOF 3
