REMARK  3 active torsions:
REMARK  status: ('A' for Active; 'I' for Inactive)
REMARK    1  A    between atoms: C_2  and  S_1 
REMARK    2  A    between atoms: N_5  and  S_1 
REMARK    3  A    between atoms: C_11  and  N_5 
ROOT
ATOM      1  C   UNL d   1       0.558   1.422  -0.895  0.00  0.00     0.079 A 
ATOM      2  C   UNL d   1       0.955   2.678  -0.430  0.00  0.00     0.026 A 
ATOM      3  C   UNL d   1      -0.158   1.299  -2.090  0.00  0.00     0.026 A 
ATOM      4  C   UNL d   1      -0.472   2.444  -2.826  0.00  0.00     0.008 A 
ATOM      5  C   UNL d   1       0.639   3.817  -1.172  0.00  0.00     0.008 A 
ATOM      6  C   UNL d   1      -0.069   3.710  -2.378  0.00  0.00    -0.062 A 
ATOM      7  C   UNL d   1      -0.362   4.943  -3.182  0.00  0.00     0.048 C 
ENDROOT
BRANCH   1   8
ATOM      8  S   UNL d   1       1.046  -0.040  -0.021  0.00  0.00     0.258 S 
ATOM      9  O   UNL d   1       1.745   0.343   1.187  0.00  0.00    -0.201 OA
ATOM     10  O   UNL d   1       1.633  -0.943  -0.986  0.00  0.00    -0.201 OA
BRANCH   8  11
ATOM     11  N   UNL d   1      -0.424  -0.732   0.426  0.00  0.00    -0.316 N 
ATOM     12  H   UNL d   1      -0.428  -1.730   0.214  0.00  0.00     0.172 HD
BRANCH  11  13
ATOM     13  C   UNL d   1      -1.026  -0.301   1.690  0.00  0.00     0.128 C 
ATOM     14  C   UNL d   1      -2.353  -1.015   1.881  0.00  0.00     0.027 C 
ENDBRANCH  11  13
ENDBRANCH   8  11
ENDBRANCH   1   8
TORSDOF 3
