REMARK  7 active torsions:
REMARK  status: ('A' for Active; 'I' for Inactive)
REMARK    1  A    between atoms: C_2  and  C_1 
REMARK    2  A    between atoms: O_15  and  C_2 
REMARK    3  A    between atoms: C_11  and  C_3 
REMARK    4  A    between atoms: N_9  and  C_8 
REMARK    5  A    between atoms: C_18  and  N_9 
REMARK    6  A    between atoms: C_14  and  C_18 
REMARK    7  A    between atoms: C_20  and  O_15 
ROOT
ATOM      1  C   UNL d   1       1.064  -1.095   1.822  0.00  0.00     0.120 C 
ATOM      2  C   UNL d   1       0.246  -0.335   1.066  0.00  0.00     0.040 C 
ATOM      3  C   UNL d   1       0.590  -2.067   2.746  0.00  0.00     0.105 C 
ATOM      4  N   UNL d   1       0.195  -2.867   3.488  0.00  0.00    -0.191 NA
ENDROOT
BRANCH   1   5
ATOM      5  C   UNL d   1       2.520  -0.919   1.607  0.00  0.00     0.303 C 
ATOM      6  O   UNL d   1       3.007  -0.092   0.850  0.00  0.00    -0.258 OA
BRANCH   5   7
ATOM      7  O   UNL d   1       3.217  -1.855   2.300  0.00  0.00    -0.317 OA
BRANCH   7   8
ATOM      8  C   UNL d   1       4.579  -2.042   1.888  0.00  0.00     0.174 C 
ATOM      9  C   UNL d   1       4.591  -3.066   0.767  0.00  0.00     0.034 C 
ENDBRANCH   7   8
ENDBRANCH   5   7
ENDBRANCH   1   5
BRANCH   2  10
ATOM     10  C   UNL d   1      -1.215  -0.371   1.141  0.00  0.00    -0.035 A 
ATOM     11  C   UNL d   1      -1.869   0.361   2.123  0.00  0.00     0.013 A 
ATOM     12  C   UNL d   1      -3.264   0.327   2.214  0.00  0.00     0.030 A 
ATOM     13  C   UNL d   1      -4.064  -0.416   1.325  0.00  0.00     0.029 A 
ATOM     14  C   UNL d   1      -3.370  -1.157   0.352  0.00  0.00     0.030 A 
ATOM     15  C   UNL d   1      -1.968  -1.137   0.254  0.00  0.00     0.013 A 
BRANCH  13  16
ATOM     16  N   UNL d   1      -5.446  -0.413   1.422  0.00  0.00    -0.384 N 
ATOM     17  C   UNL d   1      -6.156   0.741   1.978  0.00  0.00     0.149 C 
BRANCH  16  18
ATOM     18  C   UNL d   1      -6.297  -1.452   0.819  0.00  0.00     0.136 C 
BRANCH  18  19
ATOM     19  C   UNL d   1      -6.213  -2.775   1.582  0.00  0.00     0.143 C 
ATOM     20  C   UNL d   1      -7.203  -3.723   1.054  0.00  0.00     0.060 C 
ATOM     21  N   UNL d   1      -7.994  -4.458   0.630  0.00  0.00    -0.197 NA
ENDBRANCH  18  19
ENDBRANCH  16  18
ENDBRANCH  13  16
ENDBRANCH   2  10
TORSDOF 7
