REMARK  1 active torsions:
REMARK  status: ('A' for Active; 'I' for Inactive)
REMARK    1  A    between atoms: O_7  and  C_1 
ROOT
ATOM      1  C   UNL d   1       0.105  -1.446   0.016  0.00  0.00     0.081 A 
ATOM      2  C   UNL d   1       1.317  -0.712   0.026  0.00  0.00    -0.022 A 
ATOM      3  C   UNL d   1      -1.151  -0.759   0.006  0.00  0.00    -0.022 A 
ATOM      4  C   UNL d   1      -1.199   0.649   0.015  0.00  0.00    -0.053 A 
ATOM      5  C   UNL d   1       1.243   0.712   0.008  0.00  0.00    -0.053 A 
ATOM      6  C   UNL d   1      -0.000   1.360   0.009  0.00  0.00     0.014 A 
ATOM      7  C   UNL d   1       2.709  -1.288   0.052  0.00  0.00     0.052 C 
ATOM      8  C   UNL d   1      -2.457  -1.530  -0.015  0.00  0.00     0.052 C 
ATOM      9  C   UNL d   1      -2.474   1.450   0.032  0.00  0.00     0.049 C 
ATOM     10  C   UNL d   1       2.450   1.623  -0.015  0.00  0.00     0.049 C 
ENDROOT
BRANCH   1  11
ATOM     11  O   UNL d   1      -0.086  -2.801   0.017  0.00  0.00    -0.355 OA
ATOM     12  C   UNL d   1       0.948  -3.757   0.014  0.00  0.00     0.210 C 
ENDBRANCH   1  11
TORSDOF 1
