REMARK  4 active torsions:
REMARK  status: ('A' for Active; 'I' for Inactive)
REMARK    1  A    between atoms: C_12  and  C_1 
REMARK    2  A    between atoms: N_4  and  C_9 
REMARK       I    between atoms: C_7  and  N_10 
REMARK    3  A    between atoms: C_11  and  C_7 
REMARK    4  A    between atoms: N_10  and  C_21 
ROOT
ATOM      1  C   UNL d   1      -3.881  -0.710   0.196  0.00  0.00    -0.002 A 
ATOM      2  C   UNL d   1      -4.646   0.047  -0.703  0.00  0.00     0.016 A 
ATOM      3  C   UNL d   1      -4.550  -1.641   1.002  0.00  0.00     0.016 A 
ATOM      4  C   UNL d   1      -6.668  -1.157  -0.070  0.00  0.00     0.035 A 
ATOM      5  C   UNL d   1      -6.028  -0.171  -0.833  0.00  0.00     0.030 A 
ATOM      6  C   UNL d   1      -5.922  -1.864   0.867  0.00  0.00     0.030 A 
ENDROOT
BRANCH   4   7
ATOM      7  N   UNL d   1      -8.043  -1.384  -0.298  0.00  0.00    -0.323 N 
ATOM      8  C   UNL d   1      -8.817  -2.384   0.278  0.00  0.00     0.256 C 
ATOM      9  O   UNL d   1      -8.460  -3.230   1.086  0.00  0.00    -0.267 OA
ATOM     10  H   UNL d   1      -8.485  -0.746  -0.942  0.00  0.00     0.169 HD
BRANCH   8  11
ATOM     11  C   UNL d   1     -10.252  -2.387  -0.125  0.00  0.00     0.034 A 
ATOM     12  C   UNL d   1     -10.670  -2.012  -1.404  0.00  0.00     0.053 A 
ATOM     13  C   UNL d   1     -12.043  -1.962  -1.685  0.00  0.00     0.103 A 
ATOM     14  C   UNL d   1     -12.991  -2.330  -0.720  0.00  0.00     0.036 A 
ATOM     15  C   UNL d   1     -12.562  -2.753   0.537  0.00  0.00     0.003 A 
ATOM     16  C   UNL d   1     -11.199  -2.781   0.834  0.00  0.00     0.017 A 
BRANCH  13  17
ATOM     17  N   UNL d   1     -12.491  -1.476  -2.996  0.00  0.00    -0.116 N 
ATOM     18  O   UNL d   1     -11.621  -1.093  -3.791  0.00  0.00    -0.532 OA
ATOM     19  O   UNL d   1     -13.709  -1.457  -3.220  0.00  0.00    -0.532 OA
ENDBRANCH  13  17
ENDBRANCH   8  11
ENDBRANCH   4   7
BRANCH   1  20
ATOM     20  C   UNL d   1      -2.421  -0.526   0.274  0.00  0.00     0.085 A 
ATOM     21  N   UNL d   1      -1.779   0.586  -0.027  0.00  0.00    -0.349 N 
ATOM     22  C   UNL d   1      -0.416   0.424   0.187  0.00  0.00     0.050 A 
ATOM     23  HN  UNL d   1      -2.219   1.440  -0.368  1.00  0.00     0.166 HD
ATOM     24  C   UNL d   1       0.577   1.409   0.019  0.00  0.00     0.031 A 
ATOM     25  C   UNL d   1      -0.024  -0.843   0.614  0.00  0.00     0.034 A 
ATOM     26  C   UNL d   1       1.918   1.102   0.289  0.00  0.00     0.009 A 
ATOM     27  C   UNL d   1       2.291  -0.174   0.720  0.00  0.00    -0.061 A 
ATOM     28  C   UNL d   1       1.316  -1.167   0.883  0.00  0.00     0.028 A 
ATOM     29  C   UNL d   1       3.734  -0.479   1.004  0.00  0.00     0.048 C 
ATOM     30  S   UNL d   1      -1.407  -1.845   0.732  0.00  0.00    -0.070 SA
ENDBRANCH   1  20
TORSDOF 4
