REMARK  8 active torsions:
REMARK  status: ('A' for Active; 'I' for Inactive)
REMARK    1  A    between atoms: O_8  and  N_1 
REMARK    2  A    between atoms: C_3  and  C_4 
REMARK    3  A    between atoms: C_4  and  O_8 
REMARK    4  A    between atoms: C_9  and  C_5 
REMARK    5  A    between atoms: N_13  and  C_5 
REMARK    6  A    between atoms: O_14  and  C_15 
REMARK    7  A    between atoms: C_18  and  O_14 
REMARK    8  A    between atoms: C_17  and  C_18 
ROOT
ATOM      1  C   UNL d   1       0.937  -1.700   1.617  0.00  0.00     0.004 A 
ATOM      2  C   UNL d   1       2.075  -1.310   2.328  0.00  0.00     0.017 A 
ATOM      3  C   UNL d   1       0.379  -2.963   1.848  0.00  0.00     0.017 A 
ATOM      4  C   UNL d   1       2.099  -3.447   3.481  0.00  0.00     0.069 A 
ATOM      5  C   UNL d   1       0.952  -3.828   2.785  0.00  0.00     0.037 A 
ATOM      6  C   UNL d   1       2.646  -2.180   3.263  0.00  0.00     0.037 A 
ENDROOT
BRANCH   1   7
ATOM      7  C   UNL d   1       0.302  -0.780   0.623  0.00  0.00     0.109 C 
ATOM      8  N   UNL d   1       1.037   0.134   0.057  0.00  0.00    -0.246 N 
ATOM      9  HN  UNL d   1       2.033   0.274   0.230  1.00  0.00     0.196 HD
BRANCH   8  10
ATOM     10  O   UNL d   1       0.256   0.903  -0.829  0.00  0.00    -0.198 OA
BRANCH  10  11
ATOM     11  C   UNL d   1       0.963   1.845  -1.542  0.00  0.00     0.285 C 
ATOM     12  O   UNL d   1       0.396   2.591  -2.334  0.00  0.00    -0.263 OA
BRANCH  11  13
ATOM     13  C   UNL d   1       2.446   1.919  -1.352  0.00  0.00     0.087 A 
ATOM     14  C   UNL d   1       3.211   3.138  -1.824  0.00  0.00     0.015 A 
ATOM     15  C   UNL d   1       3.354   1.839  -2.561  0.00  0.00     0.015 A 
ENDBRANCH  11  13
ENDBRANCH  10  11
ENDBRANCH   8  10
BRANCH   7  16
ATOM     16  N   UNL d   1      -1.040  -0.936   0.357  0.00  0.00    -0.286 NA
ATOM     17  H   UNL d   1      -1.427  -0.147  -0.153  0.00  0.00     0.125 HD
ATOM     18  H   UNL d   1      -1.618  -1.197   1.149  0.00  0.00     0.125 HD
ENDBRANCH   7  16
ENDBRANCH   1   7
BRANCH   4  19
ATOM     19  O   UNL d   1       2.765  -4.225   4.391  0.00  0.00    -0.347 OA
BRANCH  19  20
ATOM     20  C   UNL d   1       2.477  -5.622   4.342  0.00  0.00     0.214 C 
BRANCH  20  21
ATOM     21  C   UNL d   1       3.559  -6.378   5.073  0.00  0.00    -0.034 A 
ATOM     22  C   UNL d   1       3.686  -6.277   6.466  0.00  0.00     0.011 A 
ATOM     23  C   UNL d   1       4.678  -6.994   7.139  0.00  0.00     0.024 A 
ATOM     24  C   UNL d   1       5.549  -7.812   6.422  0.00  0.00     0.034 A 
ATOM     25  C   UNL d   1       5.441  -7.916   5.037  0.00  0.00     0.024 A 
ATOM     26 CL   UNL d   1       6.767  -8.700   7.251  0.00  0.00    -0.084 Cl
ATOM     27  C   UNL d   1       4.450  -7.199   4.364  0.00  0.00     0.011 A 
ENDBRANCH  20  21
ENDBRANCH  19  20
ENDBRANCH   4  19
TORSDOF 8
