REMARK  6 active torsions:
REMARK  status: ('A' for Active; 'I' for Inactive)
REMARK    1  A    between atoms: C_3  and  C_1 
REMARK       I    between atoms: N_4  and  C_1 
REMARK    2  A    between atoms: C_2  and  O_6 
REMARK    3  A    between atoms: C_12  and  N_4 
REMARK    4  A    between atoms: O_6  and  C_16 
REMARK    5  A    between atoms: O_11  and  C_18 
REMARK    6  A    between atoms: C_17  and  O_11 
ROOT
ATOM      1  C   UNL d   1      -1.179  -1.144   0.588  0.00  0.00     0.035 A 
ATOM      2  C   UNL d   1      -3.994  -1.300   0.537  0.00  0.00     0.076 A 
ATOM      3  C   UNL d   1      -1.891  -0.905  -0.590  0.00  0.00     0.032 A 
ATOM      4  C   UNL d   1      -1.891  -1.540   1.725  0.00  0.00     0.032 A 
ATOM      5  C   UNL d   1      -3.285  -1.008  -0.626  0.00  0.00     0.039 A 
ATOM      6  C   UNL d   1      -3.293  -1.617   1.700  0.00  0.00     0.039 A 
ENDROOT
BRANCH   2   7
ATOM      7  O   UNL d   1      -5.370  -1.334   0.601  0.00  0.00    -0.311 OA
BRANCH   7   8
ATOM      8  C   UNL d   1      -6.100  -0.425  -0.136  0.00  0.00     0.076 A 
ATOM      9  C   UNL d   1      -7.346  -0.854  -0.590  0.00  0.00     0.040 A 
ATOM     10  C   UNL d   1      -8.133  -0.008  -1.377  0.00  0.00     0.040 A 
ATOM     11  C   UNL d   1      -7.681   1.268  -1.729  0.00  0.00     0.078 A 
ATOM     12  C   UNL d   1      -6.477   1.729  -1.201  0.00  0.00     0.040 A 
ATOM     13  C   UNL d   1      -5.694   0.888  -0.399  0.00  0.00     0.040 A 
BRANCH  11  14
ATOM     14  O   UNL d   1      -8.517   1.958  -2.552  0.00  0.00    -0.255 OA
BRANCH  14  15
ATOM     15  C   UNL d   1      -7.982   2.957  -3.409  0.00  0.00     0.530 C 
ATOM     16  F   UNL d   1      -6.652   2.849  -3.611  0.00  0.00    -0.144 F 
ATOM     17  F   UNL d   1      -8.588   2.850  -4.614  0.00  0.00    -0.144 F 
ATOM     18  F   UNL d   1      -8.255   4.179  -2.908  0.00  0.00    -0.144 F 
ENDBRANCH  14  15
ENDBRANCH  11  14
ENDBRANCH   7   8
ENDBRANCH   2   7
BRANCH   1  19
ATOM     19  N   UNL d   1       0.221  -0.999   0.687  0.00  0.00    -0.321 N 
ATOM     20  C   UNL d   1       1.083  -0.524  -0.295  0.00  0.00     0.279 C 
ATOM     21  O   UNL d   1       0.744  -0.178  -1.420  0.00  0.00    -0.265 OA
ATOM     22  H   UNL d   1       0.657  -1.210   1.581  0.00  0.00     0.169 HD
BRANCH  20  23
ATOM     23  C   UNL d   1       2.472  -0.445   0.117  0.00  0.00     0.142 A 
ATOM     24  O   UNL d   1       2.857  -0.818   1.375  0.00  0.00    -0.317 OA
ATOM     25  C   UNL d   1       4.203  -0.626   1.451  0.00  0.00     0.143 A 
ATOM     26  C   UNL d   1       4.690  -0.133   0.264  0.00  0.00     0.027 A 
ATOM     27  C   UNL d   1       3.577  -0.012  -0.598  0.00  0.00     0.045 A 
ENDBRANCH  20  23
ENDBRANCH   1  19
TORSDOF 6
