REMARK  8 active torsions:
REMARK  status: ('A' for Active; 'I' for Inactive)
REMARK    1  A    between atoms: N_9  and  S_1 
REMARK    2  A    between atoms: C_11  and  S_1 
REMARK    3  A    between atoms: S_18  and  C_3 
REMARK    4  A    between atoms: C_8  and  C_10 
REMARK    5  A    between atoms: C_12  and  N_9 
REMARK    6  A    between atoms: C_16  and  N_9 
REMARK    7  A    between atoms: C_10  and  C_16 
REMARK    8  A    between atoms: C_13  and  C_12 
ROOT
ATOM      1  N   UNL d   1       0.362  -0.404   1.406  0.00  0.00    -0.200 NA
ENDROOT
BRANCH   1   2
ATOM      2  S   UNL d   1       1.013  -0.014  -0.121  0.00  0.00     0.244 S 
ATOM      3  O   UNL d   1       0.711  -1.108  -1.023  0.00  0.00    -0.206 OA
ATOM      4  O   UNL d   1       2.386   0.398   0.074  0.00  0.00    -0.206 OA
BRANCH   2   5
ATOM      5  C   UNL d   1       0.151   1.431  -0.689  0.00  0.00     0.074 A 
ATOM      6  C   UNL d   1       0.346   2.652  -0.034  0.00  0.00     0.026 A 
ATOM      7  C   UNL d   1      -0.225   3.814  -0.563  0.00  0.00     0.025 A 
ATOM      8  C   UNL d   1      -0.972   3.748  -1.741  0.00  0.00     0.034 A 
ATOM      9  C   UNL d   1      -1.169   2.528  -2.389  0.00  0.00     0.025 A 
ATOM     10 CL   UNL d   1      -1.634   5.185  -2.416  0.00  0.00    -0.084 Cl
ATOM     11  C   UNL d   1      -0.604   1.365  -1.865  0.00  0.00     0.026 A 
ENDBRANCH   2   5
ENDBRANCH   1   2
BRANCH   1  12
ATOM     12  C   UNL d   1      -1.127  -0.339   1.558  0.00  0.00     0.172 C 
BRANCH  12  13
ATOM     13  C   UNL d   1      -1.876  -1.322   0.728  0.00  0.00     0.066 A 
ATOM     14  O   UNL d   1      -1.714  -2.643   1.036  0.00  0.00    -0.326 OA
ATOM     15  C   UNL d   1      -2.444  -3.357   0.145  0.00  0.00     0.142 A 
ATOM     16  C   UNL d   1      -3.125  -2.515  -0.701  0.00  0.00     0.027 A 
ATOM     17  C   UNL d   1      -2.774  -1.198  -0.314  0.00  0.00     0.036 A 
ENDBRANCH  12  13
ENDBRANCH   1  12
BRANCH   1  18
ATOM     18  C   UNL d   1       0.907  -1.683   2.004  0.00  0.00     0.115 C 
BRANCH  18  19
ATOM     19  C   UNL d   1       2.424  -1.720   2.194  0.00  0.00     0.093 C 
BRANCH  19  20
ATOM     20  C   UNL d   1       2.858  -3.061   2.688  0.00  0.00     0.100 A 
ATOM     21  N   UNL d   1       3.145  -4.155   1.899  0.00  0.00    -0.320 N 
ATOM     22  C   UNL d   1       3.529  -5.141   2.768  0.00  0.00     0.159 A 
ATOM     23  C   UNL d   1       3.042  -4.253   0.464  0.00  0.00     0.159 C 
ATOM     24  N   UNL d   1       3.447  -4.697   4.001  0.00  0.00    -0.279 N 
ATOM     25  N   UNL d   1       3.025  -3.393   3.952  0.00  0.00    -0.287 N 
ATOM     26  HN  UNL d   1       3.661  -5.227   4.846  1.00  0.00     0.189 HD
ATOM     27  HN  UNL d   1       2.867  -2.785   4.755  1.00  0.00     0.188 HD
BRANCH  22  28
ATOM     28  S   UNL d   1       4.043  -6.731   2.325  0.00  0.00    -0.105 SA
ATOM     29  H   UNL d   1       3.967  -6.651   0.992  0.00  0.00     0.110 HD
ENDBRANCH  22  28
ENDBRANCH  19  20
ENDBRANCH  18  19
ENDBRANCH   1  18
TORSDOF 8
