REMARK  5 active torsions:
REMARK  status: ('A' for Active; 'I' for Inactive)
REMARK    1  A    between atoms: C_3  and  C_1 
REMARK    2  A    between atoms: C_8  and  C_3 
REMARK    3  A    between atoms: C_10  and  C_8 
REMARK    4  A    between atoms: S_9  and  C_10 
REMARK    5  A    between atoms: C_11  and  S_9 
ROOT
ATOM      1  C   UNL d   1       0.901   3.697  -0.043  0.00  0.00     0.095 C 
ENDROOT
BRANCH   1   2
ATOM      2  C   UNL d   1      -0.245   2.693   0.047  0.00  0.00     0.167 C 
ATOM      3  O   UNL d   1      -1.412   3.087   0.096  0.00  0.00    -0.292 OA
BRANCH   2   4
ATOM      4  C   UNL d   1       0.148   1.288   0.070  0.00  0.00     0.050 A 
ATOM      5  S   UNL d   1      -1.062   0.075   0.164  0.00  0.00    -0.098 SA
ATOM      6  C   UNL d   1       0.092  -1.184   0.139  0.00  0.00     0.050 A 
ATOM      7  C   UNL d   1       1.378  -0.703   0.061  0.00  0.00     0.009 A 
ATOM      8  C   UNL d   1       1.412   0.723   0.021  0.00  0.00     0.023 A 
ENDBRANCH   2   4
ENDBRANCH   1   2
BRANCH   1   9
ATOM      9  C   UNL d   1       0.401   5.135  -0.099  0.00  0.00     0.087 C 
BRANCH   9  10
ATOM     10  S   UNL d   1       1.782   6.334  -0.166  0.00  0.00    -0.130 SA
BRANCH  10  11
ATOM     11  C   UNL d   1       2.609   5.869  -1.678  0.00  0.00     0.000 A 
ATOM     12  C   UNL d   1       1.976   5.916  -2.925  0.00  0.00     0.018 A 
ATOM     13  C   UNL d   1       2.690   5.609  -4.089  0.00  0.00     0.001 A 
ATOM     14  C   UNL d   1       4.037   5.256  -4.015  0.00  0.00     0.000 A 
ATOM     15  C   UNL d   1       4.672   5.202  -2.777  0.00  0.00     0.001 A 
ATOM     16  C   UNL d   1       3.961   5.509  -1.615  0.00  0.00     0.018 A 
ENDBRANCH  10  11
ENDBRANCH   9  10
ENDBRANCH   1   9
TORSDOF 5
