REMARK  4 active torsions:
REMARK  status: ('A' for Active; 'I' for Inactive)
REMARK    1  A    between atoms: S_9  and  C_3 
REMARK    2  A    between atoms: C_4  and  C_5 
REMARK    3  A    between atoms: C_15  and  S_9 
REMARK    4  A    between atoms: C_16  and  C_15 
ROOT
ATOM      1  N   UNL d   1       1.255   0.548  -0.014  0.00  0.00    -0.335 N 
ATOM      2  HN  UNL d   1       2.191   0.953  -0.048  1.00  0.00     0.168 HD
ATOM      3  C   UNL d   1       0.158   1.318   0.049  0.00  0.00     0.144 A 
ATOM      4  C   UNL d   1       1.062  -0.787  -0.032  0.00  0.00     0.069 A 
ATOM      5  N   UNL d   1      -1.101   0.853   0.097  0.00  0.00    -0.347 N 
ATOM      6  HN  UNL d   1      -1.905   1.479   0.146  1.00  0.00     0.167 HD
ATOM      7  C   UNL d   1      -0.190  -1.361   0.015  0.00  0.00     0.049 A 
ATOM      8  C   UNL d   1      -1.245  -0.485   0.075  0.00  0.00     0.092 A 
ENDROOT
BRANCH   3   9
ATOM      9  S   UNL d   1       0.427   3.069  -0.019  0.00  0.00    -0.089 SA
BRANCH   9  10
ATOM     10  C   UNL d   1      -1.048   3.655   0.868  0.00  0.00     0.121 C 
BRANCH  10  11
ATOM     11  C   UNL d   1      -1.052   5.165   0.965  0.00  0.00    -0.049 A 
ATOM     12  C   UNL d   1      -1.671   5.940  -0.028  0.00  0.00     0.008 A 
ATOM     13  C   UNL d   1      -1.646   7.334   0.041  0.00  0.00     0.001 A 
ATOM     14  C   UNL d   1      -1.000   7.970   1.099  0.00  0.00     0.000 A 
ATOM     15  C   UNL d   1      -0.378   7.212   2.091  0.00  0.00     0.001 A 
ATOM     16  C   UNL d   1      -0.403   5.816   2.025  0.00  0.00     0.008 A 
ENDBRANCH  10  11
ENDBRANCH   9  10
ENDBRANCH   3   9
BRANCH   4  17
ATOM     17  C   UNL d   1       2.281  -1.577  -0.141  0.00  0.00     0.101 A 
ATOM     18  O   UNL d   1       2.137  -2.939  -0.145  0.00  0.00    -0.321 OA
ATOM     19  C   UNL d   1       3.377  -3.475  -0.284  0.00  0.00     0.142 A 
ATOM     20  C   UNL d   1       4.324  -2.483  -0.368  0.00  0.00     0.027 A 
ATOM     21  C   UNL d   1       3.620  -1.259  -0.266  0.00  0.00     0.041 A 
ENDBRANCH   4  17
TORSDOF 4
