REMARK  2 active torsions:
REMARK  status: ('A' for Active; 'I' for Inactive)
REMARK    1  A    between atoms: C_14  and  C_4 
REMARK    2  A    between atoms: C_9  and  C_15 
ROOT
ATOM      1  N   UNL d   1       1.230   0.105  -0.035  0.00  0.00    -0.318 N 
ATOM      2  HN  UNL d   1       2.241   0.228  -0.093  1.00  0.00     0.169 HD
ATOM      3  C   UNL d   1       0.542  -1.020  -0.003  0.00  0.00     0.189 A 
ATOM      4  C   UNL d   1       0.251   1.074   0.027  0.00  0.00     0.138 A 
ATOM      5  N   UNL d   1      -0.994   0.581   0.105  0.00  0.00    -0.242 N 
ATOM      6  HN  UNL d   1      -1.872   1.096   0.165  1.00  0.00     0.196 HD
ATOM      7  C   UNL d   1       1.132  -2.328  -0.061  0.00  0.00     0.058 A 
ATOM      8  O   UNL d   1      -0.807  -0.795   0.085  0.00  0.00    -0.217 OA
ATOM      9  S   UNL d   1       0.170  -3.743  -0.042  0.00  0.00    -0.097 SA
ATOM     10  C   UNL d   1       2.476  -2.639  -0.141  0.00  0.00     0.030 A 
ATOM     11  C   UNL d   1       1.540  -4.758  -0.146  0.00  0.00     0.057 A 
ATOM     12  C   UNL d   1       2.726  -4.051  -0.191  0.00  0.00    -0.054 A 
ATOM     13  C   UNL d   1       4.076  -4.678  -0.281  0.00  0.00     0.048 C 
ENDROOT
BRANCH   4  14
ATOM     14  C   UNL d   1       0.553   2.502  -0.004  0.00  0.00     0.010 A 
ATOM     15  C   UNL d   1       1.879   2.949  -0.085  0.00  0.00     0.016 A 
ATOM     16  C   UNL d   1       2.171   4.318  -0.130  0.00  0.00     0.017 A 
ATOM     17  C   UNL d   1       1.141   5.268  -0.094  0.00  0.00     0.048 A 
ATOM     18  C   UNL d   1      -0.186   4.822  -0.007  0.00  0.00     0.017 A 
ATOM     19  C   UNL d   1      -0.475   3.455   0.038  0.00  0.00     0.016 A 
BRANCH  17  20
ATOM     20  C   UNL d   1       1.432   6.749  -0.151  0.00  0.00     0.417 C 
ATOM     21  F   UNL d   1       2.760   7.041  -0.227  0.00  0.00    -0.166 F 
ATOM     22  F   UNL d   1       0.856   7.350  -1.229  0.00  0.00    -0.166 F 
ATOM     23  F   UNL d   1       0.965   7.414   0.942  0.00  0.00    -0.166 F 
ENDBRANCH  17  20
ENDBRANCH   4  14
TORSDOF 2
