REMARK  4 active torsions:
REMARK  status: ('A' for Active; 'I' for Inactive)
REMARK    1  A    between atoms: C_10  and  N_1 
REMARK    2  A    between atoms: C_7  and  N_3 
REMARK    3  A    between atoms: C_19  and  C_10 
REMARK    4  A    between atoms: C_20  and  C_19 
ROOT
ATOM      1  N   UNL d   1      -0.413   0.974   0.126  0.00  0.00    -0.297 N 
ATOM      2  C   UNL d   1       0.884   0.529   0.209  0.00  0.00     0.150 C 
ATOM      3  N   UNL d   1       1.903   1.287  -0.047  0.00  0.00    -0.335 N 
ATOM      4  HN  UNL d   1       1.731   2.269  -0.264  1.00  0.00     0.168 HD
ATOM      5  C   UNL d   1      -1.371  -0.019  -0.001  0.00  0.00     0.235 C 
ATOM      6  S   UNL d   1       0.893  -1.154   0.681  0.00  0.00    -0.084 SA
ATOM      7  C   UNL d   1      -0.776  -1.400   0.082  0.00  0.00     0.185 C 
ATOM      8  O   UNL d   1      -2.556   0.140  -0.239  0.00  0.00    -0.272 OA
ENDROOT
BRANCH   1   9
ATOM      9  C   UNL d   1      -0.734   2.395  -0.086  0.00  0.00     0.138 C 
BRANCH   9  10
ATOM     10  C   UNL d   1      -2.046   2.859   0.563  0.00  0.00     0.059 C 
BRANCH  10  11
ATOM     11  C   UNL d   1      -2.340   4.328   0.379  0.00  0.00    -0.057 A 
ATOM     12  C   UNL d   1      -3.054   4.763  -0.748  0.00  0.00     0.007 A 
ATOM     13  C   UNL d   1      -3.410   6.105  -0.886  0.00  0.00     0.001 A 
ATOM     14  C   UNL d   1      -3.047   7.025   0.094  0.00  0.00     0.000 A 
ATOM     15  C   UNL d   1      -2.318   6.606   1.207  0.00  0.00     0.001 A 
ATOM     16  C   UNL d   1      -1.961   5.264   1.348  0.00  0.00     0.007 A 
ENDBRANCH  10  11
ENDBRANCH   9  10
ENDBRANCH   1   9
BRANCH   3  17
ATOM     17  C   UNL d   1       3.242   0.827  -0.041  0.00  0.00     0.057 A 
ATOM     18  C   UNL d   1       3.613  -0.356  -0.697  0.00  0.00     0.057 A 
ATOM     19  C   UNL d   1       4.922  -0.842  -0.657  0.00  0.00     0.058 A 
ATOM     20 CL   UNL d   1       5.212  -2.401  -1.340  0.00  0.00    -0.082 Cl
ATOM     21  C   UNL d   1       5.925  -0.077  -0.062  0.00  0.00     0.057 A 
ATOM     22  C   UNL d   1       5.604   1.153   0.513  0.00  0.00     0.051 A 
ATOM     23 CL   UNL d   1       7.573  -0.588  -0.031  0.00  0.00    -0.082 Cl
ATOM     24  C   UNL d   1       4.273   1.593   0.537  0.00  0.00     0.062 A 
ATOM     25 CL   UNL d   1       3.946   3.120   1.281  0.00  0.00    -0.082 Cl
ENDBRANCH   3  17
TORSDOF 4
