REMARK  5 active torsions:
REMARK  status: ('A' for Active; 'I' for Inactive)
REMARK    1  A    between atoms: C_13  and  C_3 
REMARK    2  A    between atoms: C_12  and  C_5 
REMARK    3  A    between atoms: O_17  and  C_13 
REMARK    4  A    between atoms: O_20  and  C_14 
REMARK    5  A    between atoms: C_22  and  O_17 
ROOT
ATOM      1  C   UNL d   1      -0.282   0.434  -0.013  0.00  0.00     0.089 A 
ATOM      2  C   UNL d   1      -0.095  -0.940   0.064  0.00  0.00     0.028 A 
ATOM      3  C   UNL d   1      -2.455  -0.718  -0.008  0.00  0.00     0.089 A 
ATOM      4  C   UNL d   1      -1.389  -1.623   0.080  0.00  0.00    -0.024 A 
ATOM      5  C   UNL d   1       1.897   0.933   0.019  0.00  0.00     0.119 A 
ATOM      6  S   UNL d   1      -1.907   0.898  -0.067  0.00  0.00    -0.065 SA
ATOM      7  N   UNL d   1       0.654   1.392  -0.057  0.00  0.00    -0.335 N 
ATOM      8  HN  UNL d   1       0.432   2.384  -0.142  1.00  0.00     0.168 HD
ATOM      9  N   UNL d   1       2.219  -0.373   0.100  0.00  0.00    -0.345 N 
ATOM     10  HN  UNL d   1       3.200  -0.642   0.170  1.00  0.00     0.167 HD
ATOM     11  C   UNL d   1       1.261  -1.339   0.091  0.00  0.00     0.020 A 
ATOM     12  C   UNL d   1      -1.616  -3.102   0.165  0.00  0.00     0.050 C 
ATOM     13  C   UNL d   1       1.832  -2.724   0.098  0.00  0.00     0.069 C 
ENDROOT
BRANCH   5  14
ATOM     14  C   UNL d   1       3.026   1.876  -0.093  0.00  0.00     0.041 A 
ATOM     15  C   UNL d   1       3.002   3.236   0.278  0.00  0.00     0.082 A 
ATOM     16  C   UNL d   1       4.116   4.061   0.039  0.00  0.00     0.038 A 
ATOM     17  C   UNL d   1       5.278   3.557  -0.542  0.00  0.00     0.003 A 
ATOM     18  C   UNL d   1       5.338   2.218  -0.895  0.00  0.00     0.001 A 
ATOM     19  C   UNL d   1       4.232   1.396  -0.668  0.00  0.00     0.018 A 
BRANCH  15  20
ATOM     20  O   UNL d   1       1.917   3.906   0.786  0.00  0.00    -0.355 OA
ATOM     21  C   UNL d   1       1.469   3.432   2.054  0.00  0.00     0.210 C 
ENDBRANCH  15  20
ENDBRANCH   5  14
BRANCH   3  22
ATOM     22  C   UNL d   1      -3.884  -1.019  -0.050  0.00  0.00     0.300 C 
ATOM     23  O   UNL d   1      -4.367  -2.148  -0.037  0.00  0.00    -0.259 OA
BRANCH  22  24
ATOM     24  O   UNL d   1      -4.640   0.115  -0.123  0.00  0.00    -0.317 OA
BRANCH  24  25
ATOM     25  C   UNL d   1      -6.058  -0.066  -0.201  0.00  0.00     0.174 C 
ATOM     26  C   UNL d   1      -6.476  -0.318  -1.638  0.00  0.00     0.034 C 
ENDBRANCH  24  25
ENDBRANCH  22  24
ENDBRANCH   3  22
TORSDOF 5
