REMARK  9 active torsions:
REMARK  status: ('A' for Active; 'I' for Inactive)
REMARK    1  A    between atoms: C_10  and  N_1 
REMARK    2  A    between atoms: S_11  and  C_5 
REMARK    3  A    between atoms: C_8  and  C_12 
REMARK    4  A    between atoms: C_17  and  S_11 
REMARK    5  A    between atoms: C_14  and  C_17 
REMARK    6  A    between atoms: C_15  and  C_14 
REMARK    7  A    between atoms: O_30  and  C_31 
REMARK    8  A    between atoms: C_32  and  O_30 
REMARK    9  A    between atoms: C_35  and  C_32 
ROOT
ATOM      1  N   UNL d   1      -0.274  -1.264   0.028  0.00  0.00    -0.273 N 
ATOM      2  C   UNL d   1       0.973  -0.642   0.036  0.00  0.00     0.163 A 
ATOM      3  N   UNL d   1       0.820   0.669   0.056  0.00  0.00    -0.281 N 
ATOM      4  HN  UNL d   1       1.572   1.357   0.080  1.00  0.00     0.188 HD
ATOM      5  C   UNL d   1      -1.168  -0.196   0.041  0.00  0.00     0.168 A 
ATOM      6  N   UNL d   1      -0.520   0.947   0.038  0.00  0.00    -0.278 N 
ATOM      7  HN  UNL d   1      -0.941   1.876   0.025  1.00  0.00     0.189 HD
ATOM      8  C   UNL d   1       2.257  -1.273  -0.044  0.00  0.00     0.120 A 
ATOM      9  O   UNL d   1       2.492  -2.433  -0.740  0.00  0.00    -0.319 OA
ATOM     10  C   UNL d   1       3.448  -0.871   0.540  0.00  0.00     0.043 A 
ATOM     11  C   UNL d   1       3.787  -2.785  -0.547  0.00  0.00     0.142 A 
ATOM     12  C   UNL d   1       4.421  -1.857   0.240  0.00  0.00     0.027 A 
ENDROOT
BRANCH   1  13
ATOM     13  C   UNL d   1      -0.550  -2.665   0.036  0.00  0.00     0.043 A 
ATOM     14  C   UNL d   1       0.255  -3.551   0.767  0.00  0.00     0.033 A 
ATOM     15  C   UNL d   1      -0.008  -4.925   0.753  0.00  0.00     0.039 A 
ATOM     16  C   UNL d   1      -1.094  -5.425   0.039  0.00  0.00     0.069 A 
ATOM     17  C   UNL d   1      -1.878  -4.551  -0.717  0.00  0.00     0.039 A 
ATOM     18  C   UNL d   1      -1.613  -3.178  -0.714  0.00  0.00     0.033 A 
BRANCH  16  19
ATOM     19  O   UNL d   1      -1.308  -6.774   0.148  0.00  0.00    -0.347 OA
BRANCH  19  20
ATOM     20  C   UNL d   1      -2.666  -7.173  -0.062  0.00  0.00     0.214 C 
BRANCH  20  21
ATOM     21  C   UNL d   1      -2.953  -8.516   0.565  0.00  0.00    -0.034 A 
ATOM     22  C   UNL d   1      -4.209  -8.741   1.153  0.00  0.00     0.009 A 
ATOM     23  C   UNL d   1      -4.532  -9.985   1.689  0.00  0.00     0.001 A 
ATOM     24  C   UNL d   1      -3.608 -11.025   1.638  0.00  0.00     0.000 A 
ATOM     25  C   UNL d   1      -2.360 -10.819   1.050  0.00  0.00     0.001 A 
ATOM     26  C   UNL d   1      -2.034  -9.572   0.512  0.00  0.00     0.009 A 
ENDBRANCH  20  21
ENDBRANCH  19  20
ENDBRANCH  16  19
ENDBRANCH   1  13
BRANCH   5  27
ATOM     27  S   UNL d   1      -2.887  -0.325   0.280  0.00  0.00    -0.084 SA
BRANCH  27  28
ATOM     28  C   UNL d   1      -3.430   1.407   0.110  0.00  0.00     0.166 C 
BRANCH  28  29
ATOM     29  C   UNL d   1      -4.925   1.555   0.384  0.00  0.00     0.169 C 
ATOM     30  O   UNL d   1      -5.650   0.620   0.733  0.00  0.00    -0.291 OA
BRANCH  29  31
ATOM     31  C   UNL d   1      -5.556   2.908   0.225  0.00  0.00     0.011 A 
ATOM     32  C   UNL d   1      -4.837   4.037  -0.182  0.00  0.00     0.016 A 
ATOM     33  C   UNL d   1      -5.487   5.269  -0.339  0.00  0.00     0.017 A 
ATOM     34  C   UNL d   1      -6.864   5.399  -0.094  0.00  0.00     0.048 A 
ATOM     35  C   UNL d   1      -7.579   4.271   0.329  0.00  0.00     0.017 A 
ATOM     36  C   UNL d   1      -6.930   3.040   0.485  0.00  0.00     0.016 A 
BRANCH  34  37
ATOM     37  C   UNL d   1      -7.546   6.734  -0.293  0.00  0.00     0.417 C 
ATOM     38  F   UNL d   1      -8.882   6.709  -0.033  0.00  0.00    -0.166 F 
ATOM     39  F   UNL d   1      -7.028   7.708   0.504  0.00  0.00    -0.166 F 
ATOM     40  F   UNL d   1      -7.424   7.192  -1.571  0.00  0.00    -0.166 F 
ENDBRANCH  34  37
ENDBRANCH  29  31
ENDBRANCH  28  29
ENDBRANCH  27  28
ENDBRANCH   5  27
TORSDOF 9
