REMARK  6 active torsions:
REMARK  status: ('A' for Active; 'I' for Inactive)
REMARK    1  A    between atoms: C_7  and  C_1 
REMARK    2  A    between atoms: C_9  and  N_2 
REMARK    3  A    between atoms: C_13  and  C_3 
REMARK       I    between atoms: N_8  and  C_7 
REMARK    4  A    between atoms: N_10  and  N_8 
REMARK    5  A    between atoms: C_12  and  N_10 
REMARK    6  A    between atoms: C_22  and  C_13 
ROOT
ATOM      1  C   UNL d   1      -0.123   1.258   0.028  0.00  0.00     0.074 C 
ATOM      2  N   UNL d   1       1.006  -0.680   0.017  0.00  0.00    -0.260 N 
ATOM      3  C   UNL d   1       1.173   0.720   0.056  0.00  0.00     0.051 C 
ATOM      4  N   UNL d   1      -0.286  -1.001  -0.259  0.00  0.00    -0.304 N 
ATOM      5  HN  UNL d   1      -0.659  -1.920  -0.496  1.00  0.00     0.186 HD
ATOM      6  C   UNL d   1      -0.956   0.137  -0.156  0.00  0.00     0.127 C 
ENDROOT
BRANCH   1   7
ATOM      7  C   UNL d   1      -0.662   2.616   0.074  0.00  0.00     0.269 C 
ATOM      8  N   UNL d   1       0.197   3.647   0.429  0.00  0.00    -0.283 N 
ATOM      9  H   UNL d   1       0.954   3.436   1.068  0.00  0.00     0.184 HD
ATOM     10  O   UNL d   1      -1.852   2.836  -0.158  0.00  0.00    -0.266 OA
BRANCH   8  11
ATOM     11  N   UNL d   1      -0.417   4.892   0.683  0.00  0.00    -0.203 NA
ATOM     12  H   UNL d   1      -1.406   4.897   0.396  0.00  0.00     0.153 HD
BRANCH  11  13
ATOM     13  C   UNL d   1       0.258   6.045   0.218  0.00  0.00     0.027 A 
ATOM     14  C   UNL d   1       1.533   6.037  -0.358  0.00  0.00     0.026 A 
ATOM     15  C   UNL d   1       2.196   7.237  -0.656  0.00  0.00     0.008 A 
ATOM     16  C   UNL d   1       1.608   8.472  -0.364  0.00  0.00    -0.062 A 
ATOM     17  C   UNL d   1       0.326   8.489   0.189  0.00  0.00     0.008 A 
ATOM     18  C   UNL d   1       2.367   9.746  -0.590  0.00  0.00     0.048 C 
ATOM     19  C   UNL d   1      -0.338   7.291   0.471  0.00  0.00     0.026 A 
ENDBRANCH  11  13
ENDBRANCH   8  11
ENDBRANCH   1   7
BRANCH   3  20
ATOM     20  C   UNL d   1       2.500   1.425   0.057  0.00  0.00     0.060 C 
BRANCH  20  21
ATOM     21  C   UNL d   1       3.385   1.151  -1.161  0.00  0.00     0.002 C 
ATOM     22  C   UNL d   1       2.792   1.687  -2.457  0.00  0.00     0.005 C 
ENDBRANCH  20  21
ENDBRANCH   3  20
BRANCH   2  23
ATOM     23  C   UNL d   1       1.899  -1.777   0.262  0.00  0.00     0.056 A 
ATOM     24  C   UNL d   1       3.095  -1.638   0.977  0.00  0.00     0.031 A 
ATOM     25  C   UNL d   1       3.862  -2.764   1.295  0.00  0.00     0.002 A 
ATOM     26  C   UNL d   1       3.452  -4.036   0.914  0.00  0.00     0.000 A 
ATOM     27  C   UNL d   1       2.276  -4.192   0.185  0.00  0.00     0.002 A 
ATOM     28  C   UNL d   1       1.507  -3.069  -0.135  0.00  0.00     0.031 A 
ENDBRANCH   2  23
TORSDOF 6
