REMARK  6 active torsions:
REMARK  status: ('A' for Active; 'I' for Inactive)
REMARK    1  A    between atoms: C_5  and  C_1 
REMARK    2  A    between atoms: C_6  and  C_2 
REMARK    3  A    between atoms: N_17  and  C_6 
REMARK    4  A    between atoms: O_12  and  N_9 
REMARK    5  A    between atoms: C_11  and  O_12 
REMARK    6  A    between atoms: C_13  and  C_11 
ROOT
ATOM      1  C   UNL d   1       2.244  -4.095  -0.684  0.00  0.00     0.084 A 
ATOM      2  C   UNL d   1       1.608  -2.954  -0.069  0.00  0.00     0.065 A 
ATOM      3  N   UNL d   1       3.572  -3.901  -0.758  0.00  0.00    -0.259 N 
ATOM      4  HN  UNL d   1       4.252  -4.516  -1.205  1.00  0.00     0.195 HD
ATOM      5  O   UNL d   1       3.837  -2.723  -0.119  0.00  0.00    -0.241 OA
ATOM      6  C   UNL d   1       2.681  -2.157   0.302  0.00  0.00     0.088 A 
ATOM      7  C   UNL d   1       2.870  -0.890   1.039  0.00  0.00     0.080 C 
ENDROOT
BRANCH   2   8
ATOM      8  C   UNL d   1       0.204  -2.670   0.132  0.00  0.00     0.114 C 
ATOM      9  N   UNL d   1      -0.640  -3.645   0.224  0.00  0.00    -0.246 N 
ATOM     10  HN  UNL d   1      -0.391  -4.634   0.221  1.00  0.00     0.196 HD
BRANCH   9  11
ATOM     11  O   UNL d   1      -1.960  -3.145   0.328  0.00  0.00    -0.198 OA
BRANCH  11  12
ATOM     12  C   UNL d   1      -2.877  -4.154   0.169  0.00  0.00     0.288 C 
ATOM     13  O   UNL d   1      -2.617  -5.348   0.037  0.00  0.00    -0.262 OA
BRANCH  12  14
ATOM     14  C   UNL d   1      -4.317  -3.613   0.185  0.00  0.00     0.039 C 
ATOM     15  C   UNL d   1      -4.397  -2.082   0.078  0.00  0.00     0.025 C 
ATOM     16  C   UNL d   1      -5.066  -4.221  -1.012  0.00  0.00     0.025 C 
ATOM     17  C   UNL d   1      -4.981  -4.060   1.493  0.00  0.00     0.025 C 
ENDBRANCH  12  14
ENDBRANCH  11  12
ENDBRANCH   9  11
BRANCH   8  18
ATOM     18  N   UNL d   1      -0.107  -1.333   0.155  0.00  0.00    -0.286 NA
ATOM     19  H   UNL d   1       0.466  -0.739  -0.435  0.00  0.00     0.125 HD
ATOM     20  H   UNL d   1      -1.097  -1.161   0.023  0.00  0.00     0.125 HD
ENDBRANCH   8  18
ENDBRANCH   2   8
BRANCH   1  21
ATOM     21  C   UNL d   1       1.692  -5.331  -1.252  0.00  0.00     0.037 A 
ATOM     22  C   UNL d   1       0.757  -5.317  -2.304  0.00  0.00     0.048 A 
ATOM     23 CL   UNL d   1       0.162  -3.855  -3.022  0.00  0.00    -0.083 Cl
ATOM     24  C   UNL d   1       0.310  -6.516  -2.885  0.00  0.00     0.025 A 
ATOM     25  C   UNL d   1       0.815  -7.742  -2.463  0.00  0.00     0.003 A 
ATOM     26  C   UNL d   1       1.752  -7.778  -1.437  0.00  0.00     0.025 A 
ATOM     27  C   UNL d   1       2.174  -6.590  -0.823  0.00  0.00     0.048 A 
ATOM     28 CL   UNL d   1       3.307  -6.779   0.480  0.00  0.00    -0.083 Cl
ENDBRANCH   1  21
TORSDOF 6
