REMARK  5 active torsions:
REMARK  status: ('A' for Active; 'I' for Inactive)
REMARK    1  A    between atoms: N_4  and  C_1 
REMARK    2  A    between atoms: N_5  and  C_1 
REMARK       I    between atoms: C_2  and  N_3 
REMARK    3  A    between atoms: C_8  and  C_2 
REMARK    4  A    between atoms: N_3  and  N_4 
REMARK    5  A    between atoms: C_9  and  N_5 
ROOT
ATOM      1  N   UNL d   1       0.192  -0.800  -1.056  0.00  0.00    -0.273 N 
ATOM      2  H   UNL d   1      -0.773  -1.063  -0.865  0.00  0.00     0.189 HD
ENDROOT
BRANCH   1   3
ATOM      3  N   UNL d   1       0.825  -1.577  -2.036  0.00  0.00    -0.264 N 
ATOM      4  C   UNL d   1       0.230  -2.778  -2.369  0.00  0.00     0.270 C 
ATOM      5  O   UNL d   1      -0.881  -3.102  -1.956  0.00  0.00    -0.266 OA
ATOM      6  H   UNL d   1       1.732  -1.263  -2.367  0.00  0.00     0.190 HD
BRANCH   4   7
ATOM      7  C   UNL d   1       0.988  -3.683  -3.271  0.00  0.00     0.033 A 
ATOM      8  C   UNL d   1       2.388  -3.700  -3.311  0.00  0.00     0.017 A 
ATOM      9  C   UNL d   1       3.047  -4.595  -4.158  0.00  0.00     0.001 A 
ATOM     10  C   UNL d   1       2.316  -5.473  -4.959  0.00  0.00     0.000 A 
ATOM     11  C   UNL d   1       0.923  -5.467  -4.911  0.00  0.00     0.001 A 
ATOM     12  C   UNL d   1       0.260  -4.578  -4.065  0.00  0.00     0.017 A 
ENDBRANCH   4   7
ENDBRANCH   1   3
BRANCH   1  13
ATOM     13  C   UNL d   1       0.923  -0.112  -0.127  0.00  0.00     0.191 C 
ATOM     14  S   UNL d   1       2.448   0.519  -0.425  0.00  0.00    -0.039 SA
BRANCH  13  15
ATOM     15  N   UNL d   1       0.331   0.147   1.077  0.00  0.00    -0.332 N 
ATOM     16  H   UNL d   1       0.778   0.899   1.593  0.00  0.00     0.168 HD
BRANCH  15  17
ATOM     17  C   UNL d   1      -0.651  -0.577   1.788  0.00  0.00     0.034 A 
ATOM     18  C   UNL d   1      -1.032  -1.886   1.481  0.00  0.00     0.029 A 
ATOM     19  C   UNL d   1      -1.987  -2.551   2.256  0.00  0.00     0.002 A 
ATOM     20  C   UNL d   1      -2.551  -1.923   3.363  0.00  0.00     0.000 A 
ATOM     21  C   UNL d   1      -2.153  -0.632   3.700  0.00  0.00     0.002 A 
ATOM     22  C   UNL d   1      -1.204   0.035   2.919  0.00  0.00     0.029 A 
ENDBRANCH  15  17
ENDBRANCH  13  15
ENDBRANCH   1  13
TORSDOF 5
