REMARK  4 active torsions:
REMARK  status: ('A' for Active; 'I' for Inactive)
REMARK       I    between atoms: C_2  and  N_1 
REMARK       I    between atoms: C_3  and  N_1 
REMARK    1  A    between atoms: C_7  and  N_1 
REMARK       I    between atoms: N_4  and  C_2 
REMARK    2  A    between atoms: C_8  and  C_3 
REMARK    3  A    between atoms: C_10  and  N_4 
REMARK    4  A    between atoms: C_14  and  C_7 
ROOT
ATOM      1  N   UNL d   1      -0.152   3.798  -2.616  0.00  0.00    -0.197 NA
ATOM      2  C   UNL d   1       0.418   3.058  -1.930  0.00  0.00     0.068 C 
ATOM      3  C   UNL d   1       1.193   2.124  -1.100  0.00  0.00     0.227 C 
ENDROOT
BRANCH   3   4
ATOM      4  C   UNL d   1       0.291   1.310  -0.188  0.00  0.00     0.241 C 
ATOM      5  N   UNL d   1       0.807   0.155   0.414  0.00  0.00    -0.265 N 
ATOM      6  C   UNL d   1      -0.033  -0.833   0.974  0.00  0.00     0.329 C 
ATOM      7  N   UNL d   1      -1.248  -0.360   1.432  0.00  0.00    -0.308 N 
ATOM      8  O   UNL d   1       0.297  -2.016   1.022  0.00  0.00    -0.246 OA
ATOM      9  H   UNL d   1      -1.569   0.501   0.993  0.00  0.00     0.170 HD
ATOM     10  O   UNL d   1      -0.857   1.705   0.054  0.00  0.00    -0.272 OA
BRANCH   5  11
ATOM     11  C   UNL d   1       2.191  -0.281   0.201  0.00  0.00     0.175 C 
BRANCH  11  12
ATOM     12  C   UNL d   1       2.897  -0.789   1.442  0.00  0.00    -0.040 A 
ATOM     13  C   UNL d   1       3.596  -2.006   1.404  0.00  0.00     0.009 A 
ATOM     14  C   UNL d   1       4.326  -2.440   2.511  0.00  0.00     0.001 A 
ATOM     15  C   UNL d   1       4.360  -1.667   3.668  0.00  0.00     0.000 A 
ATOM     16  C   UNL d   1       3.638  -0.476   3.733  0.00  0.00     0.001 A 
ATOM     17  C   UNL d   1       2.909  -0.038   2.627  0.00  0.00     0.009 A 
ENDBRANCH  11  12
ENDBRANCH   5  11
BRANCH   7  18
ATOM     18  C   UNL d   1      -2.191  -1.074   2.188  0.00  0.00     0.039 A 
ATOM     19  C   UNL d   1      -1.858  -2.181   2.969  0.00  0.00     0.071 A 
ATOM     20  C   UNL d   1      -2.860  -2.873   3.638  0.00  0.00     0.118 A 
ATOM     21  F   UNL d   1      -2.542  -3.946   4.374  0.00  0.00    -0.206 F 
ATOM     22  C   UNL d   1      -4.190  -2.476   3.553  0.00  0.00     0.042 A 
ATOM     23  C   UNL d   1      -4.520  -1.338   2.823  0.00  0.00     0.005 A 
ATOM     24  C   UNL d   1      -3.518  -0.627   2.156  0.00  0.00     0.030 A 
ENDBRANCH   7  18
ENDBRANCH   3   4
TORSDOF 4
