REMARK  10 active torsions:
REMARK  status: ('A' for Active; 'I' for Inactive)
REMARK    1  A    between atoms: C_2  and  C_1 
REMARK    2  A    between atoms: C_5  and  O_12 
REMARK    3  A    between atoms: C_6  and  C_5 
REMARK    4  A    between atoms: C_21  and  C_7 
REMARK    5  A    between atoms: O_12  and  N_9 
REMARK    6  A    between atoms: C_13  and  C_26 
REMARK    7  A    between atoms: N_27  and  C_13 
REMARK    8  A    between atoms: O_25  and  C_21 
REMARK    9  A    between atoms: C_29  and  O_25 
REMARK   10  A    between atoms: C_26  and  C_30 
ROOT
ATOM      1  C   UNL d   1      -1.333  13.497   8.457  0.00  0.00     0.069 A 
ATOM      2  C   UNL d   1      -1.116  13.351   5.644  0.00  0.00    -0.051 A 
ATOM      3  C   UNL d   1      -0.928  12.313   7.839  0.00  0.00     0.037 A 
ATOM      4  C   UNL d   1      -1.660  14.596   7.662  0.00  0.00     0.037 A 
ATOM      5  C   UNL d   1      -1.548  14.528   6.268  0.00  0.00     0.010 A 
ATOM      6  C   UNL d   1      -0.822  12.240   6.444  0.00  0.00     0.010 A 
ENDROOT
BRANCH   2   7
ATOM      7  C   UNL d   1      -1.056  13.254   4.135  0.00  0.00     0.110 C 
BRANCH   7   8
ATOM      8  C   UNL d   1       0.305  12.814   3.590  0.00  0.00     0.080 C 
ATOM      9  N   UNL d   1       0.340  11.671   2.975  0.00  0.00    -0.250 N 
ATOM     10  HN  UNL d   1      -0.471  11.060   2.881  1.00  0.00     0.196 HD
BRANCH   9  11
ATOM     11  O   UNL d   1       1.613  11.357   2.450  0.00  0.00    -0.194 OA
BRANCH  11  12
ATOM     12  C   UNL d   1       1.498  10.222   1.690  0.00  0.00     0.315 C 
ATOM     13  O   UNL d   1       0.477   9.572   1.484  0.00  0.00    -0.257 OA
BRANCH  12  14
ATOM     14  C   UNL d   1       2.798   9.800   1.100  0.00  0.00     0.044 A 
ATOM     15  C   UNL d   1       2.804   8.623   0.330  0.00  0.00     0.041 A 
ATOM     16  C   UNL d   1       3.986   8.160  -0.244  0.00  0.00     0.036 A 
ATOM     17 CL   UNL d   1       3.974   6.716  -1.179  0.00  0.00    -0.084 Cl
ATOM     18  C   UNL d   1       5.176   8.857  -0.066  0.00  0.00     0.047 A 
ATOM     19  C   UNL d   1       5.170  10.027   0.693  0.00  0.00     0.036 A 
ATOM     20  C   UNL d   1       3.993  10.506   1.276  0.00  0.00     0.041 A 
ATOM     21 CL   UNL d   1       6.642  10.891   0.917  0.00  0.00    -0.084 Cl
ENDBRANCH  12  14
ENDBRANCH  11  12
ENDBRANCH   9  11
BRANCH   8  22
ATOM     22  N   UNL d   1       1.377  13.653   3.771  0.00  0.00    -0.290 NA
ATOM     23  H   UNL d   1       2.277  13.200   3.670  0.00  0.00     0.125 HD
ATOM     24  H   UNL d   1       1.323  14.268   4.578  0.00  0.00     0.125 HD
ENDBRANCH   8  22
ENDBRANCH   7   8
ENDBRANCH   2   7
BRANCH   1  25
ATOM     25  O   UNL d   1      -1.486  13.676   9.809  0.00  0.00    -0.345 OA
BRANCH  25  26
ATOM     26  C   UNL d   1      -0.678  12.831  10.634  0.00  0.00     0.234 C 
BRANCH  26  27
ATOM     27  C   UNL d   1      -0.873  13.148  12.103  0.00  0.00     0.055 A 
ATOM     28  N   UNL d   1       0.207  13.670  12.757  0.00  0.00    -0.365 N 
ATOM     29  C   UNL d   1       0.099  13.896  14.087  0.00  0.00     0.104 A 
ATOM     30  HN  UNL d   1       1.070  13.884  12.256  1.00  0.00     0.165 HD
ATOM     31  C   UNL d   1      -1.040  13.624  14.827  0.00  0.00     0.064 A 
ATOM     32  C   UNL d   1      -2.139  13.091  14.146  0.00  0.00     0.043 A 
ATOM     33  C   UNL d   1      -2.062  12.850  12.773  0.00  0.00     0.059 A 
ATOM     34 CL   UNL d   1      -3.428  12.149  11.991  0.00  0.00    -0.082 Cl
BRANCH  31  35
ATOM     35  C   UNL d   1      -1.047  13.885  16.301  0.00  0.00     0.418 C 
ATOM     36  F   UNL d   1      -2.243  13.617  16.894  0.00  0.00    -0.166 F 
ATOM     37  F   UNL d   1      -0.761  15.181  16.603  0.00  0.00    -0.166 F 
ATOM     38  F   UNL d   1      -0.126  13.135  16.964  0.00  0.00    -0.166 F 
ENDBRANCH  31  35
ENDBRANCH  26  27
ENDBRANCH  25  26
ENDBRANCH   1  25
TORSDOF 10
