REMARK  4 active torsions:
REMARK  status: ('A' for Active; 'I' for Inactive)
REMARK    1  A    between atoms: S_8  and  C_1 
REMARK    2  A    between atoms: C_3  and  C_2 
REMARK    3  A    between atoms: C_7  and  C_3 
REMARK    4  A    between atoms: C_5  and  S_8 
ROOT
ATOM      1  C   UNL d   1       4.270  -3.547   0.142  0.00  0.00     0.062 C 
ATOM      2  C   UNL d   1       3.364  -2.559   0.055  0.00  0.00     0.054 C 
ENDROOT
BRANCH   1   3
ATOM      3  C   UNL d   1       5.719  -3.230   0.141  0.00  0.00     0.182 C 
ATOM      4  O   UNL d   1       6.135  -2.087   0.290  0.00  0.00    -0.288 OA
BRANCH   3   5
ATOM      5  C   UNL d   1       6.679  -4.364  -0.010  0.00  0.00     0.014 A 
ATOM      6  C   UNL d   1       6.386  -5.486  -0.792  0.00  0.00     0.016 A 
ATOM      7  C   UNL d   1       7.344  -6.492  -0.959  0.00  0.00     0.007 A 
ATOM      8  C   UNL d   1       8.603  -6.387  -0.353  0.00  0.00    -0.062 A 
ATOM      9  C   UNL d   1       8.886  -5.266   0.436  0.00  0.00     0.007 A 
ATOM     10  C   UNL d   1       9.631  -7.458  -0.572  0.00  0.00     0.048 C 
ATOM     11  C   UNL d   1       7.933  -4.258   0.602  0.00  0.00     0.016 A 
ENDBRANCH   3   5
ENDBRANCH   1   3
BRANCH   2  12
ATOM     12  S   UNL d   1       1.677  -2.933   0.117  0.00  0.00    -0.100 SA
BRANCH  12  13
ATOM     13  C   UNL d   1       0.974  -1.641   1.148  0.00  0.00     0.028 A 
ATOM     14  C   UNL d   1      -0.309  -1.210   0.749  0.00  0.00     0.044 A 
ATOM     15  C   UNL d   1      -1.045  -0.317   1.529  0.00  0.00     0.035 A 
ATOM     16 CL   UNL d   1      -2.632   0.139   1.043  0.00  0.00    -0.084 Cl
ATOM     17  C   UNL d   1      -0.519   0.184   2.712  0.00  0.00     0.025 A 
ATOM     18  C   UNL d   1       0.752  -0.218   3.119  0.00  0.00     0.027 A 
ATOM     19  C   UNL d   1       1.492  -1.137   2.356  0.00  0.00     0.051 A 
ATOM     20 CL   UNL d   1       3.000  -1.633   3.040  0.00  0.00    -0.083 Cl
ENDBRANCH  12  13
ENDBRANCH   2  12
TORSDOF 4
