REMARK  4 active torsions:
REMARK  status: ('A' for Active; 'I' for Inactive)
REMARK    1  A    between atoms: N_2  and  C_1 
REMARK    2  A    between atoms: C_5  and  C_15 
REMARK    3  A    between atoms: O_17  and  C_12 
REMARK    4  A    between atoms: C_14  and  O_17 
ROOT
ATOM      1  C   UNL d   1       1.291  -0.093  -0.134  0.00  0.00     0.137 A 
ATOM      2  C   UNL d   1       0.465  -1.219  -0.108  0.00  0.00     0.109 A 
ATOM      3  C   UNL d   1       0.769   1.204   0.019  0.00  0.00     0.055 A 
ATOM      4  C   UNL d   1      -0.608   1.377   0.216  0.00  0.00     0.050 A 
ATOM      5  C   UNL d   1      -0.898  -1.044   0.137  0.00  0.00     0.040 A 
ATOM      6  C   UNL d   1      -1.435   0.240   0.274  0.00  0.00     0.019 A 
ENDROOT
BRANCH   2   7
ATOM      7  O   UNL d   1       1.000  -2.474  -0.288  0.00  0.00    -0.308 OA
BRANCH   7   8
ATOM      8  C   UNL d   1       0.361  -3.350  -1.154  0.00  0.00     0.078 A 
ATOM      9  C   UNL d   1       0.495  -4.712  -0.815  0.00  0.00     0.071 A 
ATOM     10  C   UNL d   1      -0.086  -5.602  -1.737  0.00  0.00     0.088 A 
ATOM     11  N   UNL d   1      -0.113  -6.940  -1.724  0.00  0.00    -0.239 N 
ATOM     12  C   UNL d   1      -0.788  -5.145  -2.929  0.00  0.00     0.085 A 
ATOM     13  O   UNL d   1      -0.791  -7.315  -2.873  0.00  0.00    -0.156 OA
ATOM     14  HN  UNL d   1       0.283  -7.556  -1.015  1.00  0.00     0.197 HD
ATOM     15  N   UNL d   1      -1.218  -6.218  -3.602  0.00  0.00    -0.240 N 
ATOM     16  HN  UNL d   1      -1.751  -6.226  -4.472  1.00  0.00     0.197 HD
ATOM     17  C   UNL d   1      -0.930  -3.783  -3.244  0.00  0.00     0.037 A 
ATOM     18  C   UNL d   1      -0.309  -2.907  -2.332  0.00  0.00     0.040 A 
ENDBRANCH   7   8
ENDBRANCH   2   7
BRANCH   1  19
ATOM     19  N   UNL d   1       2.720  -0.232  -0.361  0.00  0.00    -0.113 N 
ATOM     20  O   UNL d   1       3.354  -0.958   0.414  0.00  0.00    -0.532 OA
ATOM     21  O   UNL d   1       3.198   0.424  -1.293  0.00  0.00    -0.532 OA
ENDBRANCH   1  19
BRANCH   4  22
ATOM     22  C   UNL d   1      -1.222   2.750   0.363  0.00  0.00     0.417 C 
ATOM     23  F   UNL d   1      -0.302   3.751   0.408  0.00  0.00    -0.166 F 
ATOM     24  F   UNL d   1      -2.060   3.050  -0.666  0.00  0.00    -0.166 F 
ATOM     25  F   UNL d   1      -1.962   2.866   1.499  0.00  0.00    -0.166 F 
ENDBRANCH   4  22
TORSDOF 4
