REMARK  3 active torsions:
REMARK  status: ('A' for Active; 'I' for Inactive)
REMARK       I    between atoms: N_10  and  C_1 
REMARK       I    between atoms: N_11  and  C_1 
REMARK    1  A    between atoms: N_4  and  N_2 
REMARK    2  A    between atoms: O_16  and  C_7 
REMARK    3  A    between atoms: C_13  and  C_12 
ROOT
ATOM      1  N   UNL d   1       0.948  -2.541   0.256  0.00  0.00    -0.309 N 
ATOM      2  HN  UNL d   1       1.715  -2.696   0.910  1.00  0.00     0.186 HD
ATOM      3  C   UNL d   1       0.556  -3.393  -0.637  0.00  0.00     0.118 C 
ENDROOT
BRANCH   1   4
ATOM      4  N   UNL d   1       0.172  -1.377   0.199  0.00  0.00    -0.281 N 
ATOM      5  C   UNL d   1       0.524  -0.509   1.094  0.00  0.00     0.141 C 
ATOM      6  N   UNL d   1      -0.049   0.710   1.213  0.00  0.00    -0.278 NA
ATOM      7  N   UNL d   1       1.498  -0.677   2.021  0.00  0.00    -0.278 NA
ATOM      8  H   UNL d   1      -0.912   0.758   0.682  0.00  0.00     0.126 HD
ATOM      9  H   UNL d   1      -0.189   0.974   2.179  0.00  0.00     0.126 HD
ATOM     10  H   UNL d   1       1.995  -1.533   1.778  0.00  0.00     0.126 HD
ATOM     11  H   UNL d   1       2.132   0.111   2.049  0.00  0.00     0.126 HD
ATOM     12  HN  UNL d   1      -0.584  -1.230  -0.470  1.00  0.00     0.189 HD
ENDBRANCH   1   4
BRANCH   3  13
ATOM     13  C   UNL d   1       1.230  -4.695  -0.813  0.00  0.00    -0.018 A 
ATOM     14  C   UNL d   1       0.780  -5.563  -1.811  0.00  0.00     0.039 A 
ATOM     15  C   UNL d   1       1.434  -6.782  -2.006  0.00  0.00     0.068 A 
ATOM     16 CL   UNL d   1       0.868  -7.829  -3.256  0.00  0.00    -0.081 Cl
ATOM     17  C   UNL d   1       2.528  -7.130  -1.206  0.00  0.00     0.087 A 
ATOM     18  C   UNL d   1       2.969  -6.267  -0.203  0.00  0.00     0.039 A 
ATOM     19  C   UNL d   1       2.318  -5.048  -0.007  0.00  0.00     0.015 A 
BRANCH  17  20
ATOM     20  O   UNL d   1       3.173  -8.319  -1.406  0.00  0.00    -0.359 OA
ATOM     21  H   UNL d   1       3.916  -8.395  -0.786  0.00  0.00     0.217 HD
ENDBRANCH  17  20
ENDBRANCH   3  13
TORSDOF 3
