REMARK  6 active torsions:
REMARK  status: ('A' for Active; 'I' for Inactive)
REMARK    1  A    between atoms: C_3  and  C_1 
REMARK    2  A    between atoms: C_2  and  N_5 
REMARK    3  A    between atoms: N_6  and  C_2 
REMARK    4  A    between atoms: C_10  and  C_3 
REMARK    5  A    between atoms: N_5  and  C_4 
REMARK    6  A    between atoms: C_12  and  N_6 
ROOT
ATOM      1  C   UNL d   1       2.100   1.388  -1.006  0.00  0.00     0.043 A 
ATOM      2  C   UNL d   1       2.734   0.231  -0.478  0.00  0.00     0.048 A 
ATOM      3  C   UNL d   1       0.712   1.360  -1.220  0.00  0.00     0.041 A 
ATOM      4  C   UNL d   1       1.966  -0.920  -0.233  0.00  0.00     0.032 A 
ATOM      5  C   UNL d   1      -0.016   0.189  -1.012  0.00  0.00     0.035 A 
ATOM      6  C   UNL d   1       0.604  -0.953  -0.524  0.00  0.00     0.026 A 
ATOM      7 CL   UNL d   1      -1.703   0.161  -1.352  0.00  0.00    -0.084 Cl
ENDROOT
BRANCH   2   8
ATOM      8  N   UNL d   1       4.102   0.256  -0.084  0.00  0.00    -0.332 N 
ATOM      9  H   UNL d   1       4.534   1.184  -0.104  0.00  0.00     0.168 HD
BRANCH   8  10
ATOM     10  C   UNL d   1       4.978  -0.780  -0.007  0.00  0.00     0.176 C 
ATOM     11  S   UNL d   1       5.021  -2.096  -1.054  0.00  0.00    -0.041 SA
BRANCH  10  12
ATOM     12  N   UNL d   1       5.956  -0.758   0.947  0.00  0.00    -0.333 N 
ATOM     13  H   UNL d   1       6.574  -1.555   0.836  0.00  0.00     0.168 HD
BRANCH  12  14
ATOM     14  C   UNL d   1       6.208   0.028   2.090  0.00  0.00     0.034 A 
ATOM     15  C   UNL d   1       5.447   1.120   2.514  0.00  0.00     0.032 A 
ATOM     16  C   UNL d   1       5.800   1.814   3.682  0.00  0.00     0.044 A 
ATOM     17  C   UNL d   1       6.897   1.410   4.432  0.00  0.00     0.116 A 
ATOM     18  C   UNL d   1       7.654   0.319   4.039  0.00  0.00     0.044 A 
ATOM     19  F   UNL d   1       7.222   2.075   5.547  0.00  0.00    -0.206 F 
ATOM     20  C   UNL d   1       7.310  -0.366   2.871  0.00  0.00     0.032 A 
ENDBRANCH  12  14
ENDBRANCH  10  12
ENDBRANCH   8  10
ENDBRANCH   2   8
BRANCH   1  21
ATOM     21  C   UNL d   1       2.899   2.626  -1.283  0.00  0.00     0.194 C 
ATOM     22  O   UNL d   1       3.943   2.776  -0.640  0.00  0.00    -0.287 OA
BRANCH  21  23
ATOM     23  C   UNL d   1       2.530   3.702  -2.263  0.00  0.00     0.015 A 
ATOM     24  C   UNL d   1       3.215   4.925  -2.153  0.00  0.00     0.015 A 
ATOM     25  C   UNL d   1       2.918   6.001  -2.994  0.00  0.00     0.001 A 
ATOM     26  C   UNL d   1       1.919   5.876  -3.953  0.00  0.00     0.000 A 
ATOM     27  C   UNL d   1       1.256   4.660  -4.103  0.00  0.00     0.001 A 
ATOM     28  C   UNL d   1       1.582   3.568  -3.286  0.00  0.00     0.015 A 
ENDBRANCH  21  23
ENDBRANCH   1  21
TORSDOF 6
