REMARK  2 active torsions:
REMARK  status: ('A' for Active; 'I' for Inactive)
REMARK    1  A    between atoms: C_5  and  C_2 
REMARK    2  A    between atoms: C_3  and  C_5 
ROOT
ATOM      1  C   UNL d   1      -1.005   0.179   0.171  0.00  0.00     0.042 A 
ATOM      2  C   UNL d   1      -1.252  -1.190  -0.029  0.00  0.00    -0.030 A 
ATOM      3  C   UNL d   1       0.305   0.668   0.226  0.00  0.00     0.048 A 
ATOM      4  C   UNL d   1      -0.150  -2.059  -0.133  0.00  0.00     0.011 A 
ATOM      5  C   UNL d   1       1.377  -0.209   0.099  0.00  0.00     0.035 A 
ATOM      6 CL   UNL d   1      -2.288   1.323   0.355  0.00  0.00    -0.084 Cl
ATOM      7  C   UNL d   1       1.156  -1.571  -0.070  0.00  0.00     0.024 A 
ATOM      8 CL   UNL d   1       2.987   0.396   0.148  0.00  0.00    -0.084 Cl
ENDROOT
BRANCH   2   9
ATOM      9  C   UNL d   1      -2.647  -1.773  -0.142  0.00  0.00     0.109 C 
BRANCH   9  10
ATOM     10  C   UNL d   1      -3.205  -2.253   1.183  0.00  0.00     0.075 C 
ATOM     11  S   UNL d   1      -3.075  -3.831   1.710  0.00  0.00    -0.066 SA
ATOM     12  N   UNL d   1      -3.860  -1.334   1.947  0.00  0.00    -0.393 N 
ATOM     13  H   UNL d   1      -3.906  -0.351   1.702  0.00  0.00     0.156 HD
ATOM     14  H   UNL d   1      -4.241  -1.614   2.844  0.00  0.00     0.156 HD
ENDBRANCH   9  10
ENDBRANCH   2   9
TORSDOF 2
