REMARK  7 active torsions:
REMARK  status: ('A' for Active; 'I' for Inactive)
REMARK    1  A    between atoms: C_6  and  S_1 
REMARK    2  A    between atoms: N_10  and  S_1 
REMARK       I    between atoms: C_2  and  N_7 
REMARK    3  A    between atoms: C_3  and  C_2 
REMARK    4  A    between atoms: C_5  and  C_4 
REMARK    5  A    between atoms: O_17  and  C_5 
REMARK    6  A    between atoms: N_7  and  N_11 
REMARK    7  A    between atoms: N_11  and  C_16 
ROOT
ATOM      1  C   UNL d   1      -0.416  -7.229  -3.520  0.00  0.00     0.267 C 
ATOM      2  N   UNL d   1      -0.119  -6.146  -2.724  0.00  0.00    -0.283 N 
ATOM      3  O   UNL d   1      -1.393  -7.234  -4.273  0.00  0.00    -0.266 OA
ATOM      4  H   UNL d   1       0.509  -6.225  -1.925  0.00  0.00     0.184 HD
ENDROOT
BRANCH   2   5
ATOM      5  N   UNL d   1      -1.018  -5.063  -2.697  0.00  0.00    -0.203 NA
ATOM      6  H   UNL d   1      -1.635  -5.076  -3.515  0.00  0.00     0.153 HD
BRANCH   5   7
ATOM      7  C   UNL d   1      -0.406  -3.802  -2.474  0.00  0.00     0.027 A 
ATOM      8  C   UNL d   1      -1.037  -2.637  -2.944  0.00  0.00     0.026 A 
ATOM      9  C   UNL d   1      -0.551  -1.360  -2.617  0.00  0.00     0.026 A 
ATOM     10  C   UNL d   1       0.570  -1.242  -1.795  0.00  0.00     0.074 A 
ATOM     11  C   UNL d   1       1.206  -2.381  -1.309  0.00  0.00     0.026 A 
ATOM     12  C   UNL d   1       0.714  -3.645  -1.641  0.00  0.00     0.026 A 
BRANCH  10  13
ATOM     13  S   UNL d   1       1.121   0.335  -1.220  0.00  0.00     0.239 S 
ATOM     14  O   UNL d   1       1.784   0.169   0.058  0.00  0.00    -0.206 OA
ATOM     15  O   UNL d   1       0.083   1.315  -1.424  0.00  0.00    -0.206 OA
BRANCH  13  16
ATOM     16  N   UNL d   1       2.344   0.712  -2.309  0.00  0.00    -0.225 NA
ATOM     17  H   UNL d   1       3.255   0.526  -1.893  0.00  0.00     0.136 HD
ATOM     18  H   UNL d   1       2.227   1.681  -2.612  0.00  0.00     0.136 HD
ENDBRANCH  13  16
ENDBRANCH  10  13
ENDBRANCH   5   7
ENDBRANCH   2   5
BRANCH   1  19
ATOM     19  C   UNL d   1       0.541  -8.391  -3.539  0.00  0.00     0.050 A 
ATOM     20  C   UNL d   1       1.428  -8.819  -2.528  0.00  0.00     0.053 A 
ATOM     21  C   UNL d   1       2.323  -9.883  -2.789  0.00  0.00     0.019 A 
ATOM     22  C   UNL d   1       2.302 -10.565  -4.004  0.00  0.00     0.001 A 
ATOM     23  C   UNL d   1       1.396 -10.189  -4.983  0.00  0.00     0.001 A 
ATOM     24  C   UNL d   1       0.533  -9.114  -4.755  0.00  0.00     0.018 A 
BRANCH  20  25
ATOM     25  C   UNL d   1       1.529  -8.209  -1.179  0.00  0.00     0.177 C 
ATOM     26  O   UNL d   1       1.475  -7.006  -0.978  0.00  0.00    -0.646 OA
BRANCH  25  27
ATOM     27  O   UNL d   1       1.723  -9.091  -0.179  0.00  0.00    -0.773 OA
ATOM     28  H   UNL d   1       1.608 -10.034  -0.404  0.00  0.00     0.167 HD
ENDBRANCH  25  27
ENDBRANCH  20  25
ENDBRANCH   1  19
TORSDOF 7
