REMARK  6 active torsions:
REMARK  status: ('A' for Active; 'I' for Inactive)
REMARK    1  A    between atoms: C_12  and  C_1 
REMARK    2  A    between atoms: C_7  and  C_2 
REMARK    3  A    between atoms: N_9  and  C_3 
REMARK       I    between atoms: C_10  and  N_11 
REMARK    4  A    between atoms: C_15  and  C_10 
REMARK    5  A    between atoms: O_27  and  C_12 
REMARK    6  A    between atoms: C_32  and  O_27 
ROOT
ATOM      1  C   UNL d   1      -1.612   1.241   0.385  0.00  0.00     0.072 A 
ATOM      2  C   UNL d   1      -1.386   0.370   1.449  0.00  0.00     0.134 A 
ATOM      3  C   UNL d   1      -0.178  -1.109   0.047  0.00  0.00     0.104 A 
ATOM      4  N   UNL d   1      -0.651  -0.785   1.270  0.00  0.00    -0.341 N 
ATOM      5  HN  UNL d   1      -0.464  -1.396   2.065  1.00  0.00     0.167 HD
ATOM      6  C   UNL d   1      -0.413  -0.280  -1.058  0.00  0.00     0.084 A 
ATOM      7  C   UNL d   1      -1.133   0.898  -0.883  0.00  0.00     0.046 A 
ATOM      8  C   UNL d   1       0.092  -0.594  -2.361  0.00  0.00     0.102 C 
ATOM      9  N   UNL d   1       0.456  -0.853  -3.434  0.00  0.00    -0.191 NA
ENDROOT
BRANCH   3  10
ATOM     10  N   UNL d   1       0.543  -2.284  -0.109  0.00  0.00    -0.265 NA
ATOM     11  C   UNL d   1       1.306  -2.816   1.038  0.00  0.00     0.117 C 
ATOM     12  C   UNL d   1       2.351  -3.825   0.486  0.00  0.00     0.141 C 
ATOM     13  N   UNL d   1       1.742  -4.858  -0.385  0.00  0.00    -0.346 N 
ATOM     14  C   UNL d   1       2.194  -6.176  -0.282  0.00  0.00     0.253 C 
ATOM     15  C   UNL d   1       0.794  -4.333  -1.384  0.00  0.00     0.141 C 
ATOM     16  O   UNL d   1       3.000  -6.530   0.576  0.00  0.00    -0.267 OA
ATOM     17  C   UNL d   1      -0.213  -3.355  -0.775  0.00  0.00     0.117 C 
BRANCH  14  18
ATOM     18  C   UNL d   1       1.641  -7.239  -1.176  0.00  0.00     0.032 A 
ATOM     19  C   UNL d   1       1.418  -7.051  -2.546  0.00  0.00     0.018 A 
ATOM     20  C   UNL d   1       0.754  -8.025  -3.296  0.00  0.00     0.025 A 
ATOM     21  C   UNL d   1       0.412  -9.239  -2.705  0.00  0.00     0.034 A 
ATOM     22  C   UNL d   1       0.735  -9.488  -1.373  0.00  0.00     0.025 A 
ATOM     23 CL   UNL d   1      -0.404 -10.436  -3.631  0.00  0.00    -0.084 Cl
ATOM     24  C   UNL d   1       1.339  -8.485  -0.606  0.00  0.00     0.018 A 
ENDBRANCH  14  18
ENDBRANCH   3  10
BRANCH   1  25
ATOM     25  C   UNL d   1      -2.295   2.538   0.535  0.00  0.00     0.295 C 
ATOM     26  O   UNL d   1      -2.099   3.300   1.451  0.00  0.00    -0.259 OA
BRANCH  25  27
ATOM     27  O   UNL d   1      -3.158   2.679  -0.501  0.00  0.00    -0.318 OA
BRANCH  27  28
ATOM     28  C   UNL d   1      -4.144   3.712  -0.368  0.00  0.00     0.174 C 
ATOM     29  C   UNL d   1      -5.436   3.030   0.036  0.00  0.00     0.034 C 
ENDBRANCH  27  28
ENDBRANCH  25  27
ENDBRANCH   1  25
BRANCH   2  30
ATOM     30  C   UNL d   1      -1.984   0.565   2.837  0.00  0.00     0.433 C 
ATOM     31  F   UNL d   1      -2.896   1.564   2.967  0.00  0.00    -0.165 F 
ATOM     32  F   UNL d   1      -2.663  -0.553   3.245  0.00  0.00    -0.165 F 
ATOM     33  F   UNL d   1      -1.037   0.783   3.793  0.00  0.00    -0.165 F 
ENDBRANCH   2  30
TORSDOF 6
