REMARK  5 active torsions:
REMARK  status: ('A' for Active; 'I' for Inactive)
REMARK    1  A    between atoms: N_4  and  C_1 
REMARK    2  A    between atoms: N_9  and  C_1 
REMARK    3  A    between atoms: C_3  and  N_4 
REMARK    4  A    between atoms: N_5  and  N_9 
REMARK    5  A    between atoms: C_11  and  C_12 
ROOT
ATOM      1  N   UNL d   1       2.407  -2.156   1.062  0.00  0.00    -0.276 N 
ATOM      2  H   UNL d   1       2.754  -2.924   0.493  0.00  0.00     0.189 HD
ENDROOT
BRANCH   1   3
ATOM      3  N   UNL d   1       3.141  -1.013   1.168  0.00  0.00    -0.309 N 
ATOM      4  C   UNL d   1       4.438  -1.120   1.085  0.00  0.00     0.119 C 
ATOM      5  HN  UNL d   1       2.692  -0.108   1.306  1.00  0.00     0.186 HD
BRANCH   4   6
ATOM      6  C   UNL d   1       5.279  -2.341   1.165  0.00  0.00    -0.008 A 
ATOM      7  C   UNL d   1       6.465  -2.465   0.395  0.00  0.00    -0.014 A 
ATOM      8  C   UNL d   1       7.298  -3.589   0.633  0.00  0.00    -0.025 A 
ATOM      9  C   UNL d   1       6.874  -1.545  -0.601  0.00  0.00     0.013 A 
ATOM     10  C   UNL d   1       8.497  -3.741  -0.083  0.00  0.00     0.012 A 
ATOM     11  C   UNL d   1       6.933  -4.546   1.592  0.00  0.00     0.012 A 
ATOM     12  C   UNL d   1       8.884  -2.807  -1.040  0.00  0.00     0.001 A 
ATOM     13  C   UNL d   1       8.069  -1.713  -1.306  0.00  0.00     0.001 A 
ATOM     14  C   UNL d   1       5.766  -4.407   2.337  0.00  0.00     0.002 A 
ATOM     15  C   UNL d   1       4.950  -3.299   2.137  0.00  0.00     0.014 A 
ENDBRANCH   4   6
ENDBRANCH   1   3
BRANCH   1  16
ATOM     16  C   UNL d   1       1.253  -2.358   1.790  0.00  0.00     0.191 C 
ATOM     17  S   UNL d   1       0.435  -3.800   1.580  0.00  0.00    -0.039 SA
BRANCH  16  18
ATOM     18  N   UNL d   1       0.945  -1.313   2.630  0.00  0.00    -0.331 N 
ATOM     19  H   UNL d   1       1.307  -0.425   2.285  0.00  0.00     0.168 HD
BRANCH  18  20
ATOM     20  C   UNL d   1       0.216  -1.278   3.841  0.00  0.00     0.058 A 
ATOM     21  C   UNL d   1      -0.293  -0.051   4.315  0.00  0.00     0.082 A 
ATOM     22  C   UNL d   1      -0.962   0.002   5.549  0.00  0.00     0.058 A 
ATOM     23 CL   UNL d   1      -0.100   1.381   3.348  0.00  0.00    -0.080 Cl
ATOM     24 CL   UNL d   1      -1.639   1.463   6.182  0.00  0.00    -0.082 Cl
ATOM     25  C   UNL d   1      -1.101  -1.152   6.326  0.00  0.00     0.026 A 
ATOM     26  C   UNL d   1      -0.574  -2.358   5.876  0.00  0.00     0.004 A 
ATOM     27  C   UNL d   1       0.078  -2.419   4.644  0.00  0.00     0.031 A 
ENDBRANCH  18  20
ENDBRANCH  16  18
ENDBRANCH   1  16
TORSDOF 5
