REMARK  4 active torsions:
REMARK  status: ('A' for Active; 'I' for Inactive)
REMARK       I    between atoms: N_3  and  C_1 
REMARK       I    between atoms: N_4  and  C_1 
REMARK    1  A    between atoms: C_2  and  N_3 
REMARK    2  A    between atoms: C_9  and  N_5 
REMARK    3  A    between atoms: C_16  and  C_9 
REMARK    4  A    between atoms: C_17  and  C_9 
ROOT
ATOM      1  C   UNL d   1       1.010   0.074   0.038  0.00  0.00     0.323 C 
ATOM      2  N   UNL d   1       0.348   1.053  -0.672  0.00  0.00    -0.307 N 
ATOM      3  N   UNL d   1       0.263  -1.064   0.293  0.00  0.00    -0.331 N 
ATOM      4  N   UNL d   1      -0.711  -3.858   0.416  0.00  0.00     0.105 N 
ATOM      5  O   UNL d   1       2.155   0.204   0.469  0.00  0.00    -0.247 OA
ATOM      6  C   UNL d   1       0.746  -1.987   1.322  0.00  0.00     0.158 C 
ATOM      7  C   UNL d   1      -1.013  -1.421  -0.340  0.00  0.00     0.158 C 
ATOM      8  C   UNL d   1      -1.084  -2.928  -0.689  0.00  0.00     0.293 C 
ATOM      9  C   UNL d   1       0.639  -3.450   0.875  0.00  0.00     0.293 C 
ATOM     10  H   UNL d   1      -0.626   1.141  -0.433  0.00  0.00     0.170 HD
ENDROOT
BRANCH   2  11
ATOM     11  C   UNL d   1       0.991   2.249  -1.007  0.00  0.00     0.054 A 
ATOM     12  C   UNL d   1       0.409   3.553  -0.807  0.00  0.00     0.008 A 
ATOM     13  C   UNL d   1       1.294   4.567  -1.198  0.00  0.00     0.017 A 
ATOM     14  C   UNL d   1      -0.826   3.941  -0.232  0.00  0.00     0.015 A 
ATOM     15  C   UNL d   1       0.971   5.927  -1.043  0.00  0.00     0.020 A 
ATOM     16  S   UNL d   1       2.754   3.919  -1.840  0.00  0.00    -0.099 SA
ATOM     17  C   UNL d   1      -0.251   6.273  -0.465  0.00  0.00     0.001 A 
ATOM     18  C   UNL d   1      -1.143   5.292  -0.061  0.00  0.00     0.001 A 
ATOM     19  C   UNL d   1       2.258   2.317  -1.543  0.00  0.00     0.081 A 
ENDBRANCH   2  11
BRANCH   4  20
ATOM     20  C   UNL d   1      -1.740  -3.862   1.501  0.00  0.00     0.289 C 
BRANCH  20  21
ATOM     21  C   UNL d   1      -3.100  -4.340   0.980  0.00  0.00    -0.021 A 
ATOM     22  C   UNL d   1      -3.244  -5.602   0.377  0.00  0.00     0.010 A 
ATOM     23  C   UNL d   1      -4.487  -6.039  -0.077  0.00  0.00     0.001 A 
ATOM     24  C   UNL d   1      -5.603  -5.216   0.055  0.00  0.00     0.000 A 
ATOM     25  C   UNL d   1      -5.476  -3.957   0.640  0.00  0.00     0.001 A 
ATOM     26  C   UNL d   1      -4.235  -3.521   1.101  0.00  0.00     0.010 A 
ENDBRANCH  20  21
BRANCH  20  27
ATOM     27  C   UNL d   1      -1.383  -4.656   2.769  0.00  0.00    -0.021 A 
ATOM     28  C   UNL d   1      -1.851  -4.198   4.016  0.00  0.00     0.010 A 
ATOM     29  C   UNL d   1      -1.615  -4.924   5.185  0.00  0.00     0.001 A 
ATOM     30  C   UNL d   1      -0.907  -6.122   5.129  0.00  0.00     0.000 A 
ATOM     31  C   UNL d   1      -0.442  -6.596   3.904  0.00  0.00     0.001 A 
ATOM     32  C   UNL d   1      -0.686  -5.874   2.732  0.00  0.00     0.010 A 
ENDBRANCH  20  27
ENDBRANCH   4  20
TORSDOF 4
