REMARK  8 active torsions:
REMARK  status: ('A' for Active; 'I' for Inactive)
REMARK    1  A    between atoms: O_3  and  C_1 
REMARK    2  A    between atoms: C_2  and  O_3 
REMARK    3  A    between atoms: C_5  and  C_2 
REMARK    4  A    between atoms: C_13  and  C_4 
REMARK    5  A    between atoms: O_26  and  C_6 
REMARK    6  A    between atoms: C_12  and  N_8 
REMARK    7  A    between atoms: O_27  and  C_10 
REMARK    8  A    between atoms: O_28  and  C_11 
ROOT
ATOM      1  C   UNL d   1       2.025  -5.737  -0.678  0.00  0.00     0.113 A 
ATOM      2  C   UNL d   1       1.624  -4.444  -0.272  0.00  0.00     0.017 A 
ATOM      3  C   UNL d   1       3.387  -6.011  -0.860  0.00  0.00     0.070 A 
ATOM      4  C   UNL d   1       4.332  -5.003  -0.628  0.00  0.00     0.050 A 
ATOM      5  C   UNL d   1       2.577  -3.445  -0.047  0.00  0.00     0.039 A 
ATOM      6  C   UNL d   1       3.927  -3.741  -0.198  0.00  0.00     0.036 A 
ATOM      7 CL   UNL d   1       4.030  -7.563  -1.242  0.00  0.00    -0.081 Cl
ATOM      8 CL   UNL d   1       5.111  -2.558   0.199  0.00  0.00    -0.084 Cl
ENDROOT
BRANCH   1   9
ATOM      9  O   UNL d   1       1.002  -6.741  -0.631  0.00  0.00    -0.272 OA
BRANCH   9  10
ATOM     10  C   UNL d   1       0.830  -7.886  -1.410  0.00  0.00     0.298 C 
ATOM     11  O   UNL d   1       1.430  -8.212  -2.418  0.00  0.00    -0.259 OA
BRANCH  10  12
ATOM     12  C   UNL d   1      -0.240  -8.691  -0.781  0.00  0.00     0.045 A 
ATOM     13  C   UNL d   1       0.044  -9.960  -0.260  0.00  0.00     0.057 A 
ATOM     14  C   UNL d   1      -0.985 -10.735   0.310  0.00  0.00     0.105 A 
ATOM     15  C   UNL d   1      -2.312 -10.245   0.320  0.00  0.00     0.135 A 
ATOM     16  C   UNL d   1      -2.566  -8.943  -0.177  0.00  0.00     0.105 A 
ATOM     17  C   UNL d   1      -1.532  -8.185  -0.731  0.00  0.00     0.057 A 
BRANCH  14  18
ATOM     18  O   UNL d   1      -0.760 -11.959   0.887  0.00  0.00    -0.353 OA
ATOM     19  C   UNL d   1       0.553 -12.499   0.880  0.00  0.00     0.210 C 
ENDBRANCH  14  18
BRANCH  15  20
ATOM     20  O   UNL d   1      -3.403 -10.928   0.795  0.00  0.00    -0.351 OA
ATOM     21  C   UNL d   1      -3.385 -12.350   0.807  0.00  0.00     0.210 C 
ENDBRANCH  15  20
BRANCH  16  22
ATOM     22  O   UNL d   1      -3.778  -8.306  -0.252  0.00  0.00    -0.353 OA
ATOM     23  C   UNL d   1      -4.741  -8.601   0.753  0.00  0.00     0.210 C 
ENDBRANCH  16  22
ENDBRANCH  10  12
ENDBRANCH   9  10
ENDBRANCH   1   9
BRANCH   2  24
ATOM     24  C   UNL d   1       0.184  -4.145  -0.109  0.00  0.00     0.102 C 
ATOM     25  N   UNL d   1      -0.449  -3.459   0.796  0.00  0.00    -0.365 N 
ATOM     26  HN  UNL d   1      -1.451  -3.325   0.662  1.00  0.00     0.165 HD
BRANCH  25  27
ATOM     27  C   UNL d   1       0.127  -2.886   1.943  0.00  0.00     0.038 A 
ATOM     28  C   UNL d   1       1.010  -3.608   2.760  0.00  0.00     0.037 A 
ATOM     29  C   UNL d   1       1.571  -3.058   3.926  0.00  0.00    -0.054 A 
ATOM     30  C   UNL d   1       2.596  -3.851   4.687  0.00  0.00     0.049 C 
ATOM     31  C   UNL d   1       1.176  -1.777   4.338  0.00  0.00    -0.056 A 
ATOM     32  C   UNL d   1       0.255  -1.067   3.555  0.00  0.00     0.016 A 
ATOM     33  C   UNL d   1       1.663  -1.178   5.630  0.00  0.00     0.049 C 
ATOM     34  C   UNL d   1      -0.262  -1.601   2.358  0.00  0.00    -0.035 A 
ATOM     35  C   UNL d   1      -1.270  -0.776   1.605  0.00  0.00     0.050 C 
ENDBRANCH  25  27
ENDBRANCH   2  24
TORSDOF 8
