REMARK  5 active torsions:
REMARK  status: ('A' for Active; 'I' for Inactive)
REMARK    1  A    between atoms: C_3  and  C_1 
REMARK    2  A    between atoms: C_2  and  C_10 
REMARK       I    between atoms: N_6  and  C_2 
REMARK       I    between atoms: N_5  and  C_3 
REMARK    3  A    between atoms: C_17  and  N_6 
REMARK    4  A    between atoms: C_18  and  N_6 
REMARK    5  A    between atoms: C_10  and  N_8 
ROOT
ATOM      1  C   UNL d   1       1.915   0.583  -1.287  0.00  0.00     0.251 C 
ATOM      2  N   UNL d   1       0.943   1.295  -1.966  0.00  0.00    -0.347 N 
ATOM      3  N   UNL d   1      -0.600   2.290  -4.157  0.00  0.00    -0.401 N 
ATOM      4  O   UNL d   1       3.112   0.887  -1.446  0.00  0.00    -0.270 OA
ATOM      5  C   UNL d   1      -0.504   1.071  -1.954  0.00  0.00     0.145 C 
ATOM      6  C   UNL d   1       1.339   2.533  -2.637  0.00  0.00     0.145 C 
ATOM      7  C   UNL d   1       0.809   2.617  -4.074  0.00  0.00     0.137 C 
ATOM      8  C   UNL d   1      -1.120   1.180  -3.379  0.00  0.00     0.137 C 
ENDROOT
BRANCH   3   9
ATOM      9  C   UNL d   1      -1.380   2.900  -5.225  0.00  0.00     0.220 C 
BRANCH   9  10
ATOM     10  C   UNL d   1      -1.930   4.241  -4.733  0.00  0.00     0.242 C 
ATOM     11  N   UNL d   1      -2.157   5.307  -5.610  0.00  0.00    -0.312 N 
ATOM     12  O   UNL d   1      -2.213   4.336  -3.525  0.00  0.00    -0.271 OA
BRANCH  11  13
ATOM     13  C   UNL d   1      -2.547   6.531  -4.956  0.00  0.00     0.037 A 
ATOM     14  C   UNL d   1      -1.680   7.137  -4.035  0.00  0.00     0.030 A 
ATOM     15  C   UNL d   1      -2.019   8.350  -3.440  0.00  0.00     0.002 A 
ATOM     16  C   UNL d   1      -3.240   8.951  -3.743  0.00  0.00     0.000 A 
ATOM     17  C   UNL d   1      -4.117   8.344  -4.643  0.00  0.00     0.002 A 
ATOM     18  C   UNL d   1      -3.768   7.141  -5.257  0.00  0.00     0.030 A 
ENDBRANCH  11  13
BRANCH  11  19
ATOM     19  C   UNL d   1      -1.942   5.502  -7.097  0.00  0.00     0.093 C 
ATOM     20  C   UNL d   1      -1.832   4.303  -8.047  0.00  0.00     0.026 C 
ATOM     21  C   UNL d   1      -0.428   3.800  -8.419  0.00  0.00     0.002 C 
ATOM     22  C   UNL d   1       0.786   4.659  -8.057  0.00  0.00     0.000 C 
ATOM     23  C   UNL d   1       0.544   5.852  -7.145  0.00  0.00     0.002 C 
ATOM     24  C   UNL d   1      -0.803   6.493  -7.402  0.00  0.00     0.026 C 
ENDBRANCH  11  19
ENDBRANCH   9  10
ENDBRANCH   3   9
BRANCH   1  25
ATOM     25  C   UNL d   1       1.519  -0.485  -0.230  0.00  0.00     0.245 C 
ATOM     26  O   UNL d   1       0.683  -1.579  -0.603  0.00  0.00    -0.331 OA
ATOM     27  C   UNL d   1       1.378  -2.656  -1.091  0.00  0.00     0.103 C 
ATOM     28  C   UNL d   1       0.633  -3.730  -1.572  0.00  0.00     0.040 C 
ATOM     29  C   UNL d   1       2.772  -2.714  -1.125  0.00  0.00     0.102 C 
ATOM     30  C   UNL d   1       1.280  -4.803  -2.192  0.00  0.00     0.003 C 
ATOM     31  C   UNL d   1       2.666  -4.786  -2.352  0.00  0.00     0.003 C 
ATOM     32  C   UNL d   1       3.416  -3.744  -1.806  0.00  0.00     0.039 C 
ATOM     33  O   UNL d   1       3.567  -1.803  -0.486  0.00  0.00    -0.345 OA
ATOM     34  C   UNL d   1       2.799  -1.014   0.436  0.00  0.00     0.218 C 
ENDBRANCH   1  25
TORSDOF 5
