REMARK  5 active torsions:
REMARK  status: ('A' for Active; 'I' for Inactive)
REMARK    1  A    between atoms: C_3  and  C_1 
REMARK    2  A    between atoms: C_6  and  C_2 
REMARK       I    between atoms: N_14  and  C_3 
REMARK    3  A    between atoms: C_17  and  N_14 
REMARK    4  A    between atoms: C_15  and  C_16 
REMARK    5  A    between atoms: C_16  and  C_17 
ROOT
ATOM      1  C   UNL d   1       0.913  -0.014   0.040  0.00  0.00     0.114 C 
ATOM      2  C   UNL d   1       2.273  -0.063  -0.021  0.00  0.00     0.058 C 
ATOM      3  C   UNL d   1       0.076  -0.983  -0.647  0.00  0.00     0.105 C 
ATOM      4  N   UNL d   1      -0.566  -1.760  -1.214  0.00  0.00    -0.191 NA
ENDROOT
BRANCH   1   5
ATOM      5  C   UNL d   1       0.278   1.075   0.886  0.00  0.00     0.262 C 
ATOM      6  O   UNL d   1       0.938   1.917   1.479  0.00  0.00    -0.267 OA
ATOM      7  N   UNL d   1      -1.105   1.054   0.924  0.00  0.00    -0.356 N 
ATOM      8  H   UNL d   1      -1.644   0.399   0.370  0.00  0.00     0.162 HD
BRANCH   7   9
ATOM      9  C   UNL d   1      -1.893   2.028   1.674  0.00  0.00     0.129 C 
BRANCH   9  10
ATOM     10  C   UNL d   1      -2.223   3.293   0.875  0.00  0.00     0.076 C 
BRANCH  10  11
ATOM     11  C   UNL d   1      -3.069   2.992  -0.337  0.00  0.00     0.010 A 
ATOM     12  N   UNL d   1      -4.261   2.385  -0.118  0.00  0.00    -0.369 N 
ATOM     13  C   UNL d   1      -5.011   2.076  -1.199  0.00  0.00     0.088 A 
ATOM     14  HN  UNL d   1      -4.581   2.170   0.827  1.00  0.00     0.165 HD
ATOM     15  C   UNL d   1      -4.630   2.343  -2.502  0.00  0.00     0.017 A 
ATOM     16  C   UNL d   1      -3.413   2.980  -2.710  0.00  0.00     0.003 A 
ATOM     17  C   UNL d   1      -2.621   3.315  -1.615  0.00  0.00     0.025 A 
ENDBRANCH  10  11
ENDBRANCH   9  10
ENDBRANCH   7   9
ENDBRANCH   1   5
BRANCH   2  18
ATOM     18  C   UNL d   1       2.944  -1.032  -0.824  0.00  0.00     0.033 A 
ATOM     19  N   UNL d   1       4.171  -1.518  -0.427  0.00  0.00    -0.366 N 
ATOM     20  C   UNL d   1       4.575  -2.516  -1.280  0.00  0.00     0.088 A 
ATOM     21  H   UNL d   1       4.684  -1.228   0.396  0.00  0.00     0.165 HD
ATOM     22  C   UNL d   1       3.625  -2.651  -2.263  0.00  0.00     0.019 A 
ATOM     23  C   UNL d   1       2.627  -1.690  -2.001  0.00  0.00     0.031 A 
ENDBRANCH   2  18
TORSDOF 5
