REMARK  3 active torsions:
REMARK  status: ('A' for Active; 'I' for Inactive)
REMARK    1  A    between atoms: N_2  and  S_1 
REMARK    2  A    between atoms: C_6  and  S_1 
REMARK    3  A    between atoms: C_5  and  N_2 
ROOT
ATOM      1  C   UNL d   1       2.739   0.053  -0.801  0.00  0.00     0.080 A 
ATOM      2  N   UNL d   1       7.675  -0.270  -2.935  0.00  0.00    -0.191 NA
ATOM      3  C   UNL d   1       6.613  -0.205  -2.473  0.00  0.00     0.099 C 
ATOM      4  C   UNL d   1       3.852   0.381  -0.022  0.00  0.00     0.027 A 
ATOM      5  C   UNL d   1       2.897  -0.389  -2.120  0.00  0.00     0.027 A 
ATOM      6  C   UNL d   1       5.297  -0.125  -1.905  0.00  0.00     0.044 A 
ATOM      7  C   UNL d   1       4.179  -0.471  -2.672  0.00  0.00     0.024 A 
ATOM      8  C   UNL d   1       5.131   0.296  -0.579  0.00  0.00     0.024 A 
ENDROOT
BRANCH   1   9
ATOM      9  S   UNL d   1       1.115   0.106  -0.080  0.00  0.00     0.264 S 
ATOM     10  O   UNL d   1       0.280  -0.795  -0.851  0.00  0.00    -0.200 OA
ATOM     11  O   UNL d   1       1.232  -0.050   1.353  0.00  0.00    -0.200 OA
BRANCH   9  12
ATOM     12  N   UNL d   1       0.579   1.640  -0.456  0.00  0.00    -0.266 N 
ATOM     13  H   UNL d   1      -0.330   1.643  -0.907  0.00  0.00     0.180 HD
BRANCH  12  14
ATOM     14  C   UNL d   1       0.856   2.675   0.452  0.00  0.00     0.115 A 
ATOM     15  N   UNL d   1       2.014   3.317   0.231  0.00  0.00    -0.341 N 
ATOM     16  C   UNL d   1       2.275   4.401   0.987  0.00  0.00     0.043 A 
ATOM     17  HN  UNL d   1       2.670   2.998  -0.482  1.00  0.00     0.167 HD
ATOM     18  C   UNL d   1       3.438   5.125   0.762  0.00  0.00     0.030 A 
ATOM     19  C   UNL d   1       1.397   4.855   1.996  0.00  0.00    -0.009 A 
ATOM     20  C   UNL d   1       3.741   6.279   1.491  0.00  0.00     0.002 A 
ATOM     21  C   UNL d   1       2.868   6.727   2.476  0.00  0.00     0.001 A 
ATOM     22  C   UNL d   1       1.699   6.014   2.734  0.00  0.00     0.013 A 
ATOM     23  C   UNL d   1       0.224   4.125   2.223  0.00  0.00     0.017 A 
ATOM     24  C   UNL d   1      -0.055   3.013   1.436  0.00  0.00     0.050 A 
ENDBRANCH  12  14
ENDBRANCH   9  12
ENDBRANCH   1   9
TORSDOF 3
