REMARK  9 active torsions:
REMARK  status: ('A' for Active; 'I' for Inactive)
REMARK    1  A    between atoms: O_5  and  C_1 
REMARK    2  A    between atoms: C_13  and  N_2 
REMARK    3  A    between atoms: C_8  and  O_5 
REMARK    4  A    between atoms: N_12  and  C_8 
REMARK    5  A    between atoms: C_18  and  N_12 
REMARK    6  A    between atoms: C_19  and  N_12 
REMARK    7  A    between atoms: C_16  and  C_13 
REMARK    8  A    between atoms: C_20  and  C_16 
REMARK    9  A    between atoms: O_17  and  C_20 
ROOT
ATOM      1  C   UNL d   1      -0.696   1.243   0.017  0.00  0.00     0.163 A 
ATOM      2  N   UNL d   1      -1.361   0.025  -0.164  0.00  0.00    -0.303 N 
ATOM      3  C   UNL d   1      -0.613  -1.165  -0.310  0.00  0.00     0.180 A 
ATOM      4  C   UNL d   1       0.642   1.335   0.061  0.00  0.00     0.012 A 
ATOM      5  N   UNL d   1       0.757  -1.084  -0.301  0.00  0.00    -0.336 N 
ATOM      6  HN  UNL d   1       1.314  -1.928  -0.434  1.00  0.00     0.168 HD
ATOM      7  C   UNL d   1       1.347   0.048  -0.125  0.00  0.00     0.018 A 
ATOM      8  S   UNL d   1      -1.288  -2.711  -0.481  0.00  0.00    -0.040 SA
ATOM      9  C   UNL d   1       1.440   2.571   0.331  0.00  0.00     0.055 C 
ATOM     10  C   UNL d   1       2.859   0.031  -0.092  0.00  0.00     0.069 C 
ENDROOT
BRANCH   1  11
ATOM     11  O   UNL d   1      -1.496   2.378   0.344  0.00  0.00    -0.266 OA
BRANCH  11  12
ATOM     12  C   UNL d   1      -1.726   3.503  -0.411  0.00  0.00     0.218 C 
ATOM     13  S   UNL d   1      -1.338   3.574  -2.038  0.00  0.00    -0.033 SA
BRANCH  12  14
ATOM     14  N   UNL d   1      -2.342   4.510   0.332  0.00  0.00    -0.353 N 
BRANCH  14  15
ATOM     15  C   UNL d   1      -2.073   4.633   1.768  0.00  0.00     0.121 C 
ATOM     16  C   UNL d   1      -3.035   3.844   2.639  0.00  0.00     0.026 C 
ENDBRANCH  14  15
BRANCH  14  17
ATOM     17  C   UNL d   1      -3.304   5.451  -0.254  0.00  0.00     0.121 C 
ATOM     18  C   UNL d   1      -2.697   6.798  -0.612  0.00  0.00     0.026 C 
ENDBRANCH  14  17
ENDBRANCH  12  14
ENDBRANCH  11  12
ENDBRANCH   1  11
BRANCH   2  19
ATOM     19  C   UNL d   1      -2.842   0.006  -0.119  0.00  0.00     0.135 C 
BRANCH  19  20
ATOM     20  C   UNL d   1      -3.569   0.541  -1.355  0.00  0.00     0.046 C 
BRANCH  20  21
ATOM     21  C   UNL d   1      -3.087   0.011  -2.702  0.00  0.00     0.168 C 
BRANCH  21  22
ATOM     22  O   UNL d   1      -3.932   0.590  -3.703  0.00  0.00    -0.396 OA
ATOM     23  C   UNL d   1      -3.483   0.301  -5.020  0.00  0.00     0.201 C 
ENDBRANCH  21  22
ENDBRANCH  20  21
ENDBRANCH  19  20
ENDBRANCH   2  19
TORSDOF 9
