REMARK  6 active torsions:
REMARK  status: ('A' for Active; 'I' for Inactive)
REMARK    1  A    between atoms: C_9  and  C_1 
REMARK    2  A    between atoms: N_16  and  C_3 
REMARK    3  A    between atoms: C_15  and  C_6 
REMARK       I    between atoms: N_14  and  C_9 
REMARK    4  A    between atoms: C_18  and  C_10 
REMARK    5  A    between atoms: N_12  and  N_14 
REMARK    6  A    between atoms: C_20  and  C_19 
ROOT
ATOM      1  C   UNL d   1       2.425   0.030   0.090  0.00  0.00     0.174 A 
ATOM      2  C   UNL d   1       0.306   0.843   0.045  0.00  0.00     0.056 A 
ATOM      3  C   UNL d   1       1.681   1.192   0.143  0.00  0.00     0.081 A 
ATOM      4  C   UNL d   1       0.300  -0.557   0.027  0.00  0.00     0.162 A 
ATOM      5  O   UNL d   1       1.582  -1.047   0.039  0.00  0.00    -0.285 OA
ATOM      6  C   UNL d   1      -0.945   1.505  -0.028  0.00  0.00    -0.007 A 
ATOM      7  N   UNL d   1      -0.774  -1.370  -0.010  0.00  0.00    -0.335 N 
ATOM      8  HN  UNL d   1      -0.698  -2.387  -0.002  1.00  0.00     0.168 HD
ATOM      9  C   UNL d   1      -1.963  -0.725  -0.059  0.00  0.00     0.045 A 
ATOM     10  C   UNL d   1      -2.076   0.669  -0.061  0.00  0.00     0.043 A 
ENDROOT
BRANCH   1  11
ATOM     11  C   UNL d   1       3.868  -0.114   0.104  0.00  0.00     0.296 C 
ATOM     12  N   UNL d   1       4.361  -1.413   0.032  0.00  0.00    -0.264 N 
ATOM     13  H   UNL d   1       3.731  -2.204  -0.032  0.00  0.00     0.190 HD
ATOM     14  O   UNL d   1       4.612   0.868   0.173  0.00  0.00    -0.264 OA
BRANCH  12  15
ATOM     15  N   UNL d   1       5.715  -1.569  -0.019  0.00  0.00    -0.308 N 
ATOM     16  C   UNL d   1       6.192  -2.766  -0.096  0.00  0.00     0.118 C 
ATOM     17  HN  UNL d   1       6.336  -0.760   0.001  1.00  0.00     0.186 HD
BRANCH  16  18
ATOM     18  C   UNL d   1       7.655  -2.974  -0.194  0.00  0.00    -0.019 A 
ATOM     19  C   UNL d   1       8.532  -1.880  -0.181  0.00  0.00     0.014 A 
ATOM     20  C   UNL d   1       9.910  -2.083  -0.316  0.00  0.00     0.024 A 
ATOM     21  C   UNL d   1      10.402  -3.378  -0.465  0.00  0.00     0.034 A 
ATOM     22  C   UNL d   1       9.534  -4.471  -0.466  0.00  0.00     0.024 A 
ATOM     23 CL   UNL d   1      12.093  -3.631  -0.657  0.00  0.00    -0.084 Cl
ATOM     24  C   UNL d   1       8.155  -4.271  -0.329  0.00  0.00     0.014 A 
ENDBRANCH  16  18
ENDBRANCH  12  15
ENDBRANCH   1  11
BRANCH   3  25
ATOM     25  N   UNL d   1       2.225   2.423   0.259  0.00  0.00    -0.396 N 
ATOM     26  H   UNL d   1       1.707   3.207   0.644  0.00  0.00     0.156 HD
ATOM     27  H   UNL d   1       3.239   2.515   0.379  0.00  0.00     0.156 HD
ENDBRANCH   3  25
BRANCH   6  28
ATOM     28  C   UNL d   1      -1.077   2.976  -0.086  0.00  0.00    -0.025 A 
ATOM     29  C   UNL d   1      -0.225   3.768  -0.876  0.00  0.00     0.012 A 
ATOM     30  C   UNL d   1      -0.301   5.164  -0.869  0.00  0.00     0.001 A 
ATOM     31  C   UNL d   1      -1.291   5.802  -0.132  0.00  0.00     0.000 A 
ATOM     32  C   UNL d   1      -2.204   5.042   0.593  0.00  0.00     0.001 A 
ATOM     33  C   UNL d   1      -2.088   3.648   0.625  0.00  0.00     0.012 A 
ENDBRANCH   6  28
BRANCH   9  34
ATOM     34  C   UNL d   1      -3.174  -1.584  -0.137  0.00  0.00    -0.009 A 
ATOM     35  C   UNL d   1      -3.241  -2.818   0.533  0.00  0.00     0.013 A 
ATOM     36  C   UNL d   1      -4.387  -3.624   0.462  0.00  0.00     0.001 A 
ATOM     37  C   UNL d   1      -5.487  -3.212  -0.281  0.00  0.00     0.000 A 
ATOM     38  C   UNL d   1      -5.451  -1.998  -0.955  0.00  0.00     0.001 A 
ATOM     39  C   UNL d   1      -4.303  -1.198  -0.884  0.00  0.00     0.013 A 
ENDBRANCH   9  34
TORSDOF 6
