REMARK  2 active torsions:
REMARK  status: ('A' for Active; 'I' for Inactive)
REMARK    1  A    between atoms: C_10  and  C_3 
REMARK    2  A    between atoms: C_8  and  C_4 
ROOT
ATOM      1  C   UNL d   1      -2.078   0.439   0.154  0.00  0.00     0.028 C 
ATOM      2  C   UNL d   1      -1.631   1.768   0.671  0.00  0.00     0.194 C 
ATOM      3  C   UNL d   1      -0.970  -0.578   0.005  0.00  0.00     0.199 C 
ATOM      4  C   UNL d   1      -3.340   0.170  -0.236  0.00  0.00     0.027 C 
ATOM      5  O   UNL d   1      -0.097  -0.595   1.152  0.00  0.00    -0.335 OA
ATOM      6  C   UNL d   1      -0.264   1.819   1.220  0.00  0.00     0.048 A 
ATOM      7  C   UNL d   1       0.430   0.633   1.445  0.00  0.00     0.084 A 
ATOM      8  O   UNL d   1      -2.313   2.783   0.619  0.00  0.00    -0.287 OA
ATOM      9  C   UNL d   1       0.334   3.048   1.518  0.00  0.00     0.018 A 
ATOM     10  C   UNL d   1       1.709   0.663   1.998  0.00  0.00     0.038 A 
ATOM     11  C   UNL d   1       1.628   3.081   2.038  0.00  0.00     0.001 A 
ATOM     12  C   UNL d   1       2.313   1.889   2.283  0.00  0.00     0.003 A 
ENDROOT
BRANCH   3  13
ATOM     13  C   UNL d   1      -0.156  -0.478  -1.292  0.00  0.00    -0.024 A 
ATOM     14  C   UNL d   1      -0.430   0.468  -2.296  0.00  0.00     0.010 A 
ATOM     15  C   UNL d   1       0.348   0.531  -3.453  0.00  0.00     0.001 A 
ATOM     16  C   UNL d   1       1.408  -0.352  -3.631  0.00  0.00     0.000 A 
ATOM     17  C   UNL d   1       1.689  -1.305  -2.655  0.00  0.00     0.001 A 
ATOM     18  C   UNL d   1       0.912  -1.370  -1.497  0.00  0.00     0.010 A 
ENDBRANCH   3  13
BRANCH   4  19
ATOM     19  C   UNL d   1      -4.470   1.106  -0.280  0.00  0.00    -0.014 A 
ATOM     20  C   UNL d   1      -5.317   1.348   0.811  0.00  0.00     0.044 A 
ATOM     21 CL   UNL d   1      -5.094   0.550   2.329  0.00  0.00    -0.083 Cl
ATOM     22  C   UNL d   1      -6.388   2.239   0.685  0.00  0.00     0.024 A 
ATOM     23  C   UNL d   1      -6.619   2.896  -0.524  0.00  0.00     0.002 A 
ATOM     24  C   UNL d   1      -5.780   2.667  -1.611  0.00  0.00     0.001 A 
ATOM     25  C   UNL d   1      -4.711   1.777  -1.491  0.00  0.00     0.013 A 
ENDBRANCH   4  19
TORSDOF 2
