REMARK  8 active torsions:
REMARK  status: ('A' for Active; 'I' for Inactive)
REMARK    1  A    between atoms: C_2  and  C_1 
REMARK       I    between atoms: N_5  and  C_2 
REMARK    2  A    between atoms: C_9  and  N_5 
REMARK    3  A    between atoms: C_17  and  N_5 
REMARK    4  A    between atoms: C_7  and  C_9 
REMARK    5  A    between atoms: O_20  and  C_10 
REMARK    6  A    between atoms: O_21  and  C_11 
REMARK    7  A    between atoms: O_22  and  C_12 
REMARK    8  A    between atoms: C_23  and  C_17 
ROOT
ATOM      1  C   UNL d   1       6.237  -1.312  -0.030  0.00  0.00     0.228 C 
ATOM      2  N   UNL d   1       7.139  -3.212  -1.633  0.00  0.00    -0.195 NA
ATOM      3  C   UNL d   1       6.704  -2.394  -0.935  0.00  0.00     0.089 C 
ENDROOT
BRANCH   1   4
ATOM      4  C   UNL d   1       7.102  -1.182   1.247  0.00  0.00    -0.016 A 
ATOM      5  C   UNL d   1       8.466  -1.531   1.229  0.00  0.00     0.050 A 
ATOM      6  C   UNL d   1       9.303  -1.384   2.352  0.00  0.00     0.104 A 
ATOM      7  C   UNL d   1       8.800  -0.824   3.540  0.00  0.00     0.135 A 
ATOM      8  C   UNL d   1       7.461  -0.384   3.550  0.00  0.00     0.104 A 
ATOM      9  C   UNL d   1       6.624  -0.595   2.432  0.00  0.00     0.050 A 
BRANCH   6  10
ATOM     10  O   UNL d   1      10.642  -1.681   2.280  0.00  0.00    -0.353 OA
ATOM     11  C   UNL d   1      11.011  -2.769   1.438  0.00  0.00     0.210 C 
ENDBRANCH   6  10
BRANCH   7  12
ATOM     12  O   UNL d   1       9.497  -0.661   4.708  0.00  0.00    -0.351 OA
ATOM     13  C   UNL d   1      10.725  -1.344   4.910  0.00  0.00     0.210 C 
ENDBRANCH   7  12
BRANCH   8  14
ATOM     14  O   UNL d   1       6.812   0.243   4.590  0.00  0.00    -0.353 OA
ATOM     15  C   UNL d   1       7.606   1.054   5.456  0.00  0.00     0.210 C 
ENDBRANCH   8  14
ENDBRANCH   1   4
BRANCH   1  16
ATOM     16  N   UNL d   1       4.787  -1.374   0.245  0.00  0.00    -0.322 N 
ATOM     17  C   UNL d   1       3.875  -0.319   0.047  0.00  0.00     0.264 C 
ATOM     18  O   UNL d   1       2.770  -0.385   0.592  0.00  0.00    -0.267 OA
BRANCH  17  19
ATOM     19  C   UNL d   1       4.160   0.800  -0.854  0.00  0.00     0.096 C 
ATOM     20  S   UNL d   1       2.948   1.112  -2.046  0.00  0.00    -0.082 SA
ATOM     21  C   UNL d   1       3.711   2.542  -2.605  0.00  0.00     0.017 A 
ATOM     22  C   UNL d   1       3.221   3.449  -3.569  0.00  0.00     0.020 A 
ATOM     23  C   UNL d   1       4.938   2.737  -1.974  0.00  0.00     0.004 A 
ATOM     24  C   UNL d   1       4.011   4.540  -3.941  0.00  0.00     0.001 A 
ATOM     25  C   UNL d   1       5.271   4.713  -3.391  0.00  0.00     0.001 A 
ATOM     26  C   UNL d   1       5.736   3.829  -2.412  0.00  0.00     0.014 A 
ATOM     27  C   UNL d   1       5.121   1.793  -0.893  0.00  0.00     0.068 C 
ATOM     28 CL   UNL d   1       6.389   2.047   0.244  0.00  0.00    -0.082 Cl
ENDBRANCH  17  19
BRANCH  16  29
ATOM     29  C   UNL d   1       4.259  -2.614   0.858  0.00  0.00     0.166 C 
BRANCH  29  30
ATOM     30  C   UNL d   1       3.520  -3.501  -0.131  0.00  0.00    -0.040 A 
ATOM     31  C   UNL d   1       4.179  -4.512  -0.846  0.00  0.00     0.009 A 
ATOM     32  C   UNL d   1       3.513  -5.255  -1.825  0.00  0.00     0.001 A 
ATOM     33  C   UNL d   1       2.164  -5.029  -2.078  0.00  0.00     0.000 A 
ATOM     34  C   UNL d   1       1.477  -4.073  -1.336  0.00  0.00     0.001 A 
ATOM     35  C   UNL d   1       2.149  -3.314  -0.372  0.00  0.00     0.009 A 
ENDBRANCH  29  30
ENDBRANCH  16  29
ENDBRANCH   1  16
TORSDOF 8
