REMARK  4 active torsions:
REMARK  status: ('A' for Active; 'I' for Inactive)
REMARK    1  A    between atoms: S_8  and  C_3 
REMARK    2  A    between atoms: O_14  and  C_4 
REMARK    3  A    between atoms: C_7  and  C_9 
REMARK    4  A    between atoms: C_9  and  S_8 
ROOT
ATOM      1  N   UNL d   1      -0.319  -1.084  -0.035  0.00  0.00    -0.318 N 
ATOM      2  HN  UNL d   1      -0.922  -1.906  -0.038  1.00  0.00     0.170 HD
ATOM      3  C   UNL d   1       1.022  -1.178  -0.030  0.00  0.00     0.146 A 
ATOM      4  C   UNL d   1      -0.808   0.158  -0.036  0.00  0.00     0.142 A 
ATOM      5  N   UNL d   1       1.863  -0.128  -0.021  0.00  0.00    -0.347 N 
ATOM      6  HN  UNL d   1       2.876  -0.249  -0.012  1.00  0.00     0.167 HD
ATOM      7  C   UNL d   1      -0.065   1.303  -0.030  0.00  0.00     0.073 A 
ATOM      8  C   UNL d   1       1.292   1.096  -0.024  0.00  0.00     0.094 A 
ENDROOT
BRANCH   3   9
ATOM      9  S   UNL d   1       1.659  -2.834  -0.011  0.00  0.00    -0.089 SA
BRANCH   9  10
ATOM     10  C   UNL d   1       3.454  -2.533  -0.016  0.00  0.00     0.122 C 
BRANCH  10  11
ATOM     11  C   UNL d   1       4.209  -3.842   0.100  0.00  0.00    -0.027 A 
ATOM     12  C   UNL d   1       4.606  -4.600  -1.014  0.00  0.00     0.041 A 
ATOM     13 CL   UNL d   1       4.302  -4.079  -2.633  0.00  0.00    -0.084 Cl
ATOM     14  C   UNL d   1       5.264  -5.825  -0.847  0.00  0.00     0.024 A 
ATOM     15  C   UNL d   1       5.531  -6.314   0.431  0.00  0.00     0.002 A 
ATOM     16  C   UNL d   1       5.138  -5.579   1.546  0.00  0.00     0.001 A 
ATOM     17  C   UNL d   1       4.481  -4.357   1.383  0.00  0.00     0.009 A 
ENDBRANCH  10  11
ENDBRANCH   9  10
ENDBRANCH   3   9
BRANCH   4  18
ATOM     18  O   UNL d   1      -2.163   0.217  -0.039  0.00  0.00    -0.346 OA
ATOM     19  H   UNL d   1      -2.383  -0.733  -0.045  0.00  0.00     0.219 HD
ENDBRANCH   4  18
TORSDOF 4
