REMARK  3 active torsions:
REMARK  status: ('A' for Active; 'I' for Inactive)
REMARK       I    between atoms: N_2  and  C_1 
REMARK       I    between atoms: N_3  and  C_1 
REMARK    1  A    between atoms: C_5  and  N_2 
REMARK    2  A    between atoms: C_7  and  N_3 
REMARK    3  A    between atoms: N_4  and  C_6 
ROOT
ATOM      1  C   UNL d   1      -1.268   0.921  -1.137  0.00  0.00     0.325 C 
ATOM      2  N   UNL d   1       0.096   0.939  -1.065  0.00  0.00    -0.307 N 
ATOM      3  N   UNL d   1      -1.880  -0.068  -0.408  0.00  0.00    -0.308 N 
ATOM      4  O   UNL d   1      -1.944   1.628  -1.881  0.00  0.00    -0.247 OA
ATOM      5  H   UNL d   1       0.501   0.016  -1.045  0.00  0.00     0.170 HD
ATOM      6  H   UNL d   1      -2.761  -0.349  -0.819  0.00  0.00     0.170 HD
ENDROOT
BRANCH   2   7
ATOM      7  C   UNL d   1       0.940   1.931  -1.605  0.00  0.00     0.063 A 
ATOM      8  C   UNL d   1       2.156   1.516  -2.205  0.00  0.00     0.057 A 
ATOM      9  C   UNL d   1       2.984   2.511  -2.745  0.00  0.00     0.031 A 
ATOM     10  C   UNL d   1       2.627   3.864  -2.690  0.00  0.00     0.002 A 
ATOM     11  C   UNL d   1       1.430   4.248  -2.092  0.00  0.00     0.002 A 
ATOM     12  C   UNL d   1       0.585   3.283  -1.550  0.00  0.00     0.032 A 
BRANCH   8  13
ATOM     13  N   UNL d   1       2.416   0.153  -2.366  0.00  0.00    -0.375 N 
ATOM     14  C   UNL d   1       3.062  -0.292  -3.614  0.00  0.00     0.149 C 
ATOM     15  C   UNL d   1       2.753  -1.788  -3.811  0.00  0.00     0.187 C 
ATOM     16  O   UNL d   1       3.164  -2.572  -2.673  0.00  0.00    -0.388 OA
ATOM     17  C   UNL d   1       2.538  -2.093  -1.468  0.00  0.00     0.187 C 
ATOM     18  C   UNL d   1       2.892  -0.617  -1.201  0.00  0.00     0.149 C 
ENDBRANCH   8  13
ENDBRANCH   2   7
BRANCH   3  19
ATOM     19  C   UNL d   1      -1.443  -0.763   0.743  0.00  0.00     0.047 C 
ATOM     20  C   UNL d   1      -0.590  -0.222   1.752  0.00  0.00     0.001 A 
ATOM     21  C   UNL d   1      -0.118  -1.084   2.776  0.00  0.00    -0.024 A 
ATOM     22  C   UNL d   1      -0.214   1.142   1.860  0.00  0.00     0.014 A 
ATOM     23  C   UNL d   1       0.797  -0.621   3.740  0.00  0.00     0.012 A 
ATOM     24  C   UNL d   1      -0.593  -2.402   2.849  0.00  0.00     0.012 C 
ATOM     25  C   UNL d   1       1.213   0.712   3.748  0.00  0.00     0.001 A 
ATOM     26  C   UNL d   1       0.686   1.597   2.825  0.00  0.00     0.001 A 
ATOM     27  C   UNL d   1      -1.524  -2.880   1.931  0.00  0.00     0.003 C 
ATOM     28  C   UNL d   1      -1.942  -2.065   0.882  0.00  0.00     0.030 C 
ENDBRANCH   3  19
TORSDOF 3
