REMARK  4 active torsions:
REMARK  status: ('A' for Active; 'I' for Inactive)
REMARK    1  A    between atoms: C_10  and  C_1 
REMARK       I    between atoms: C_4  and  N_9 
REMARK    2  A    between atoms: O_12  and  C_4 
REMARK    3  A    between atoms: N_9  and  N_6 
REMARK    4  A    between atoms: C_15  and  O_12 
ROOT
ATOM      1  C   UNL d   1      -1.548  -1.318   0.036  0.00  0.00     0.009 A 
ATOM      2  N   UNL d   1      -0.217   0.475   0.029  0.00  0.00    -0.364 N 
ATOM      3  C   UNL d   1      -0.232  -0.890   0.052  0.00  0.00     0.102 A 
ATOM      4  C   UNL d   1      -2.364  -0.144  -0.010  0.00  0.00     0.004 A 
ATOM      5  C   UNL d   1      -1.506   0.959  -0.005  0.00  0.00     0.043 A 
ATOM      6  C   UNL d   1      -3.755   0.095  -0.052  0.00  0.00     0.014 A 
ATOM      7  C   UNL d   1      -1.962   2.281  -0.029  0.00  0.00     0.030 A 
ATOM      8  C   UNL d   1      -4.228   1.413  -0.078  0.00  0.00     0.001 A 
ATOM      9  C   UNL d   1      -3.342   2.487  -0.065  0.00  0.00     0.002 A 
ATOM     10  H   UNL d   1       0.614   1.048   0.038  0.00  0.00     0.165 HD
ENDROOT
BRANCH   1  11
ATOM     11  C   UNL d   1      -1.965  -2.703   0.063  0.00  0.00     0.120 C 
ATOM     12  N   UNL d   1      -1.049  -3.611   0.128  0.00  0.00    -0.307 N 
ATOM     13  HN  UNL d   1      -0.059  -3.365   0.169  1.00  0.00     0.186 HD
BRANCH  12  14
ATOM     14  N   UNL d   1      -1.458  -4.907   0.139  0.00  0.00    -0.246 N 
ATOM     15  C   UNL d   1      -0.533  -5.913  -0.005  0.00  0.00     0.379 C 
ATOM     16  O   UNL d   1       0.682  -5.779  -0.068  0.00  0.00    -0.237 OA
ATOM     17  H   UNL d   1      -2.438  -5.152   0.084  0.00  0.00     0.192 HD
BRANCH  15  18
ATOM     18  O   UNL d   1      -1.187  -7.099  -0.141  0.00  0.00    -0.303 OA
BRANCH  18  19
ATOM     19  C   UNL d   1      -0.364  -8.190  -0.581  0.00  0.00     0.176 C 
ATOM     20  C   UNL d   1      -0.359  -8.212  -2.098  0.00  0.00     0.034 C 
ENDBRANCH  18  19
ENDBRANCH  15  18
ENDBRANCH  12  14
ENDBRANCH   1  11
TORSDOF 4
