REMARK  4 active torsions:
REMARK  status: ('A' for Active; 'I' for Inactive)
REMARK    1  A    between atoms: C_11  and  C_1 
REMARK    2  A    between atoms: C_5  and  N_3 
REMARK    3  A    between atoms: N_10  and  C_5 
REMARK    4  A    between atoms: C_14  and  N_10 
ROOT
ATOM      1  C   UNL d   1      -0.669  -1.493  -0.424  0.00  0.00     0.139 C 
ATOM      2  N   UNL d   1      -1.469  -0.350  -0.934  0.00  0.00    -0.216 NA
ATOM      3  N   UNL d   1      -1.556  -1.976   0.691  0.00  0.00    -0.227 NA
ATOM      4  C   UNL d   1      -0.664   0.667  -1.422  0.00  0.00     0.236 C 
ATOM      5  C   UNL d   1       0.635  -0.739  -0.101  0.00  0.00     0.000 A 
ATOM      6  C   UNL d   1       0.636   0.489  -0.788  0.00  0.00     0.036 A 
ATOM      7  C   UNL d   1      -2.326   0.146   0.165  0.00  0.00     0.116 C 
ATOM      8  C   UNL d   1      -2.004  -0.763   1.353  0.00  0.00     0.115 C 
ATOM      9  O   UNL d   1      -1.006   1.661  -2.033  0.00  0.00    -0.274 OA
ATOM     10  C   UNL d   1       1.756  -1.052   0.646  0.00  0.00     0.012 A 
ATOM     11  C   UNL d   1       1.620   1.453  -0.689  0.00  0.00     0.017 A 
ATOM     12  C   UNL d   1       2.792  -0.108   0.745  0.00  0.00     0.001 A 
ATOM     13  C   UNL d   1       2.720   1.147   0.101  0.00  0.00     0.001 A 
ENDROOT
BRANCH   3  14
ATOM     14  C   UNL d   1      -2.671  -2.795   0.359  0.00  0.00     0.155 C 
ATOM     15  S   UNL d   1      -3.515  -2.921  -1.109  0.00  0.00    -0.047 SA
BRANCH  14  16
ATOM     16  N   UNL d   1      -3.322  -3.482   1.332  0.00  0.00    -0.338 N 
ATOM     17  H   UNL d   1      -4.175  -3.872   0.938  0.00  0.00     0.168 HD
BRANCH  16  18
ATOM     18  C   UNL d   1      -3.142  -3.744   2.687  0.00  0.00     0.035 A 
ATOM     19  C   UNL d   1      -4.262  -4.275   3.341  0.00  0.00     0.053 A 
ATOM     20  C   UNL d   1      -4.224  -4.519   4.709  0.00  0.00     0.036 A 
ATOM     21 CL   UNL d   1      -5.629  -5.110   5.510  0.00  0.00    -0.084 Cl
ATOM     22  C   UNL d   1      -3.062  -4.267   5.426  0.00  0.00     0.024 A 
ATOM     23  C   UNL d   1      -1.929  -3.781   4.767  0.00  0.00     0.004 A 
ATOM     24  C   UNL d   1      -1.966  -3.518   3.392  0.00  0.00     0.029 A 
ENDBRANCH  16  18
ENDBRANCH  14  16
ENDBRANCH   3  14
BRANCH   1  25
ATOM     25  C   UNL d   1      -0.297  -2.686  -1.330  0.00  0.00    -0.015 A 
ATOM     26  C   UNL d   1      -0.475  -2.705  -2.719  0.00  0.00     0.011 A 
ATOM     27  C   UNL d   1      -0.337  -3.908  -3.428  0.00  0.00     0.001 A 
ATOM     28  C   UNL d   1       0.004  -5.094  -2.772  0.00  0.00     0.000 A 
ATOM     29  C   UNL d   1       0.258  -5.080  -1.407  0.00  0.00     0.001 A 
ATOM     30  C   UNL d   1       0.130  -3.887  -0.701  0.00  0.00     0.011 A 
ENDBRANCH   1  25
TORSDOF 4
