REMARK  6 active torsions:
REMARK  status: ('A' for Active; 'I' for Inactive)
REMARK    1  A    between atoms: CA_4  and  C_1 
REMARK    2  A    between atoms: OXT_7  and  C_1 
REMARK    3  A    between atoms: N_2  and  CA_4 
REMARK       I    between atoms: C_3  and  N_2 
REMARK    4  A    between atoms: C_9  and  CA_4 
REMARK    5  A    between atoms: C_10  and  C_9 
REMARK    6  A    between atoms: C_11  and  C_10 
ROOT
ATOM      1  CA  UNL d   1       0.350  -1.107  -0.327  0.00  0.00     0.182 C 
ENDROOT
BRANCH   1   2
ATOM      2  N   UNL d   1      -0.514  -0.834  -1.472  0.00  0.00    -0.347 N 
ATOM      3  C   UNL d   1      -1.710  -1.482  -1.648  0.00  0.00     0.214 C 
ATOM      4  O   UNL d   1      -2.169  -2.270  -0.827  0.00  0.00    -0.274 OA
ATOM      5  C   UNL d   1      -2.438  -1.120  -2.913  0.00  0.00     0.117 C 
ATOM      6  H   UNL d   1      -0.137  -0.247  -2.211  0.00  0.00     0.163 HD
ENDBRANCH   1   2
BRANCH   1   7
ATOM      7  C   UNL d   1       1.165   0.164  -0.077  0.00  0.00     0.163 C 
ATOM      8  O   UNL d   1       1.824   0.729  -0.943  0.00  0.00    -0.648 OA
BRANCH   7   9
ATOM      9  OXT UNL d   1       1.069   0.648   1.182  0.00  0.00    -0.775 OA
ATOM     10  HXT UNL d   1       0.449   0.160   1.758  0.00  0.00     0.167 HD
ENDBRANCH   7   9
ENDBRANCH   1   7
BRANCH   1  11
ATOM     11  C   UNL d   1       1.259  -2.306  -0.621  0.00  0.00     0.036 C 
BRANCH  11  12
ATOM     12  C   UNL d   1       2.180  -2.673   0.546  0.00  0.00     0.002 C 
BRANCH  12  13
ATOM     13  C   UNL d   1       3.012  -3.913   0.211  0.00  0.00    -0.004 C 
ATOM     14  C   UNL d   1       3.961  -4.279   1.341  0.00  0.00     0.005 C 
ENDBRANCH  12  13
ENDBRANCH  11  12
ENDBRANCH   1  11
TORSDOF 6
