REMARK  5 active torsions:
REMARK  status: ('A' for Active; 'I' for Inactive)
REMARK    1  A    between atoms: C_7  and  C_1 
REMARK    2  A    between atoms: C_11  and  C_2 
REMARK    3  A    between atoms: N_6  and  C_7 
REMARK    4  A    between atoms: C_9  and  C_10 
REMARK    5  A    between atoms: O_17  and  C_12 
ROOT
ATOM      1  N   UNL d   1       3.492   1.202  -0.175  0.00  0.00     0.092 N 
ATOM      2  C   UNL d   1       4.934  -1.436  -0.130  0.00  0.00     0.025 C 
ATOM      3  C   UNL d   1       4.828  -0.494   1.089  0.00  0.00     0.040 C 
ATOM      4  C   UNL d   1       4.906  -0.519  -1.367  0.00  0.00     0.040 C 
ATOM      5  C   UNL d   1       3.565   0.369   1.041  0.00  0.00     0.273 C 
ATOM      6  C   UNL d   1       3.679   0.396  -1.395  0.00  0.00     0.273 C 
ENDROOT
BRANCH   1   7
ATOM      7  C   UNL d   1       2.163   1.854  -0.269  0.00  0.00     0.315 C 
BRANCH   7   8
ATOM      8  C   UNL d   1       2.075   3.162   0.448  0.00  0.00     0.016 A 
ATOM      9  C   UNL d   1       0.965   4.074   0.374  0.00  0.00     0.067 A 
ATOM     10  N   UNL d   1       1.216   5.199   1.061  0.00  0.00    -0.300 N 
ATOM     11  N   UNL d   1       2.435   5.009   1.582  0.00  0.00    -0.311 N 
ATOM     12  HN  UNL d   1       0.614   6.016   1.162  1.00  0.00     0.187 HD
ATOM     13  C   UNL d   1       2.993   3.814   1.246  0.00  0.00     0.118 A 
ATOM     14  H   UNL d   1       2.835   5.747   2.147  0.00  0.00     0.186 HD
BRANCH   9  15
ATOM     15  C   UNL d   1      -0.286   3.907  -0.369  0.00  0.00    -0.007 A 
ATOM     16  C   UNL d   1      -1.055   2.743  -0.235  0.00  0.00     0.014 A 
ATOM     17  C   UNL d   1      -2.223   2.573  -0.985  0.00  0.00     0.001 A 
ATOM     18  C   UNL d   1      -2.640   3.572  -1.862  0.00  0.00     0.000 A 
ATOM     19  C   UNL d   1      -1.895   4.743  -1.987  0.00  0.00     0.001 A 
ATOM     20  C   UNL d   1      -0.724   4.912  -1.241  0.00  0.00     0.014 A 
ENDBRANCH   9  15
ENDBRANCH   7   8
ENDBRANCH   1   7
BRANCH   2  21
ATOM     21  C   UNL d   1       3.934  -2.601  -0.115  0.00  0.00    -0.021 A 
ATOM     22  C   UNL d   1       3.870  -3.498   0.969  0.00  0.00     0.074 A 
ATOM     23  C   UNL d   1       2.900  -4.508   1.040  0.00  0.00     0.037 A 
ATOM     24  C   UNL d   1       2.013  -4.699  -0.014  0.00  0.00     0.003 A 
ATOM     25  C   UNL d   1       2.109  -3.887  -1.136  0.00  0.00     0.001 A 
ATOM     26  C   UNL d   1       3.062  -2.862  -1.188  0.00  0.00     0.010 A 
BRANCH  22  27
ATOM     27  O   UNL d   1       4.738  -3.412   2.026  0.00  0.00    -0.355 OA
ATOM     28  C   UNL d   1       5.895  -4.216   1.785  0.00  0.00     0.210 C 
ENDBRANCH  22  27
ENDBRANCH   2  21
TORSDOF 5
