REMARK  5 active torsions:
REMARK  status: ('A' for Active; 'I' for Inactive)
REMARK    1  A    between atoms: C_6  and  C_1 
REMARK    2  A    between atoms: C_7  and  C_2 
REMARK    3  A    between atoms: S_4  and  C_3 
REMARK    4  A    between atoms: C_5  and  S_4 
REMARK    5  A    between atoms: O_14  and  C_6 
REMARK       I    between atoms: N_12  and  C_7 
ROOT
ATOM      1  S   UNL d   1       4.098  -0.008  -0.373  0.00  0.00    -0.088 SA
ENDROOT
BRANCH   1   2
ATOM      2  C   UNL d   1       5.100  -1.211   0.496  0.00  0.00     0.022 A 
ATOM      3  C   UNL d   1       6.260  -1.829  -0.017  0.00  0.00     0.056 A 
ATOM      4  C   UNL d   1       6.857  -2.894   0.687  0.00  0.00     0.043 A 
ATOM      5  C   UNL d   1       6.308  -3.348   1.881  0.00  0.00     0.035 A 
ATOM      6  C   UNL d   1       5.178  -2.734   2.406  0.00  0.00     0.025 A 
ATOM      7 CL   UNL d   1       7.009  -4.690   2.696  0.00  0.00    -0.084 Cl
ATOM      8  C   UNL d   1       4.580  -1.676   1.717  0.00  0.00     0.021 A 
BRANCH   3   9
ATOM      9  C   UNL d   1       6.951  -1.458  -1.284  0.00  0.00     0.177 C 
ATOM     10  O   UNL d   1       8.156  -1.581  -1.423  0.00  0.00    -0.646 OA
BRANCH   9  11
ATOM     11  O   UNL d   1       6.145  -1.064  -2.288  0.00  0.00    -0.773 OA
ATOM     12  H   UNL d   1       5.200  -1.004  -2.052  0.00  0.00     0.167 HD
ENDBRANCH   9  11
ENDBRANCH   3   9
ENDBRANCH   1   2
BRANCH   1  13
ATOM     13  C   UNL d   1       4.840   1.565   0.047  0.00  0.00     0.021 A 
ATOM     14  C   UNL d   1       4.518   2.349   1.172  0.00  0.00     0.049 A 
ATOM     15  C   UNL d   1       5.095   3.626   1.320  0.00  0.00     0.018 A 
ATOM     16  C   UNL d   1       5.968   4.137   0.361  0.00  0.00     0.001 A 
ATOM     17  C   UNL d   1       6.292   3.368  -0.748  0.00  0.00     0.001 A 
ATOM     18  C   UNL d   1       5.734   2.096  -0.904  0.00  0.00     0.020 A 
BRANCH  14  19
ATOM     19  C   UNL d   1       3.591   1.954   2.269  0.00  0.00     0.252 C 
ATOM     20  O   UNL d   1       3.857   2.267   3.425  0.00  0.00    -0.268 OA
ATOM     21  N   UNL d   1       2.431   1.305   1.916  0.00  0.00    -0.361 N 
ATOM     22  C   UNL d   1       1.403   1.017   2.885  0.00  0.00     0.149 C 
ATOM     23  H   UNL d   1       2.219   1.182   0.933  0.00  0.00     0.162 HD
ENDBRANCH  14  19
ENDBRANCH   1  13
TORSDOF 5
