REMARK  7 active torsions:
REMARK  status: ('A' for Active; 'I' for Inactive)
REMARK    1  A    between atoms: S_13  and  C_2 
REMARK    2  A    between atoms: S_14  and  C_3 
REMARK    3  A    between atoms: C_8  and  C_12 
REMARK    4  A    between atoms: C_9  and  C_15 
REMARK       I    between atoms: N_10  and  C_11 
REMARK    5  A    between atoms: C_11  and  C_20 
REMARK    6  A    between atoms: C_12  and  S_13 
REMARK    7  A    between atoms: C_20  and  S_14 
ROOT
ATOM      1  S   UNL d   1      -1.223  -0.155   0.536  0.00  0.00    -0.038 SA
ATOM      2  C   UNL d   1      -0.380   1.151  -0.194  0.00  0.00     0.129 A 
ATOM      3  C   UNL d   1       0.084  -1.164   0.067  0.00  0.00     0.129 A 
ATOM      4  N   UNL d   1       0.774   0.809  -0.732  0.00  0.00    -0.287 N 
ATOM      5  HN  UNL d   1       1.396   1.462  -1.207  1.00  0.00     0.188 HD
ATOM      6  N   UNL d   1       1.044  -0.537  -0.577  0.00  0.00    -0.287 N 
ATOM      7  HN  UNL d   1       1.890  -0.992  -0.921  1.00  0.00     0.188 HD
ENDROOT
BRANCH   3   8
ATOM      8  S   UNL d   1       0.132  -2.888   0.386  0.00  0.00    -0.094 SA
BRANCH   8   9
ATOM      9  C   UNL d   1       1.833  -3.269  -0.124  0.00  0.00     0.184 C 
BRANCH   9  10
ATOM     10  C   UNL d   1       2.160  -4.729   0.163  0.00  0.00     0.229 C 
ATOM     11  N   UNL d   1       1.994  -5.679  -0.849  0.00  0.00    -0.351 N 
ATOM     12  C   UNL d   1       2.335  -7.068  -0.540  0.00  0.00     0.126 C 
ATOM     13  C   UNL d   1       1.172  -5.490  -2.045  0.00  0.00     0.126 C 
ATOM     14  C   UNL d   1       3.016  -7.737  -1.731  0.00  0.00     0.033 C 
ATOM     15  C   UNL d   1       2.180  -7.634  -3.014  0.00  0.00     0.096 C 
ATOM     16  C   UNL d   1       1.806  -6.163  -3.267  0.00  0.00     0.033 C 
ATOM     17  O   UNL d   1       2.611  -5.040   1.270  0.00  0.00    -0.273 OA
BRANCH  15  18
ATOM     18  C   UNL d   1       0.963  -8.563  -3.006  0.00  0.00     0.391 C 
ATOM     19  F   UNL d   1       0.919  -9.348  -1.909  0.00  0.00    -0.171 F 
ATOM     20  F   UNL d   1      -0.203  -7.887  -3.070  0.00  0.00    -0.171 F 
ATOM     21  F   UNL d   1       1.003  -9.386  -4.081  0.00  0.00    -0.171 F 
ENDBRANCH  15  18
ENDBRANCH   9  10
ENDBRANCH   8   9
ENDBRANCH   3   8
BRANCH   2  22
ATOM     22  S   UNL d   1      -0.989   2.794  -0.226  0.00  0.00    -0.099 SA
BRANCH  22  23
ATOM     23  C   UNL d   1       0.308   3.607  -1.207  0.00  0.00     0.123 C 
BRANCH  23  24
ATOM     24  C   UNL d   1       0.141   5.110  -1.297  0.00  0.00    -0.005 A 
ATOM     25  C   UNL d   1       0.703   5.966  -0.329  0.00  0.00     0.042 A 
ATOM     26 CL   UNL d   1       1.538   5.359   1.061  0.00  0.00    -0.084 Cl
ATOM     27  C   UNL d   1       0.621   7.359  -0.449  0.00  0.00     0.024 A 
ATOM     28  C   UNL d   1      -0.037   7.934  -1.534  0.00  0.00     0.003 A 
ATOM     29  C   UNL d   1      -0.630   7.110  -2.485  0.00  0.00     0.024 A 
ATOM     30  C   UNL d   1      -0.551   5.716  -2.367  0.00  0.00     0.042 A 
ATOM     31 CL   UNL d   1      -1.333   4.786  -3.598  0.00  0.00    -0.084 Cl
ENDBRANCH  23  24
ENDBRANCH  22  23
ENDBRANCH   2  22
TORSDOF 7
