REMARK  8 active torsions:
REMARK  status: ('A' for Active; 'I' for Inactive)
REMARK    1  A    between atoms: N_2  and  C_1 
REMARK    2  A    between atoms: C_3  and  N_10 
REMARK    3  A    between atoms: N_9  and  C_3 
REMARK    4  A    between atoms: C_4  and  C_8 
REMARK    5  A    between atoms: S_7  and  C_5 
REMARK    6  A    between atoms: C_12  and  S_7 
REMARK    7  A    between atoms: C_11  and  N_9 
REMARK    8  A    between atoms: N_10  and  C_13 
ROOT
ATOM      1  C   UNL d   1       2.787  -3.163   1.850  0.00  0.00     0.032 C 
ATOM      2  C   UNL d   1       3.668  -2.082   2.085  0.00  0.00     0.051 C 
ATOM      3  C   UNL d   1       3.325  -4.391   1.453  0.00  0.00     0.021 C 
ATOM      4  C   UNL d   1       5.050  -2.282   2.114  0.00  0.00     0.031 C 
ATOM      5  C   UNL d   1       5.569  -3.518   1.728  0.00  0.00     0.002 C 
ATOM      6  C   UNL d   1       4.710  -4.556   1.362  0.00  0.00     0.002 C 
ENDROOT
BRANCH   1   7
ATOM      7  S   UNL d   1       1.007  -2.970   1.956  0.00  0.00    -0.086 SA
BRANCH   7   8
ATOM      8  C   UNL d   1       0.532  -3.733   3.494  0.00  0.00     0.038 A 
ATOM      9  C   UNL d   1       1.077  -3.530   4.766  0.00  0.00     0.120 A 
ATOM     10  C   UNL d   1       0.572  -4.179   5.913  0.00  0.00     0.053 A 
ATOM     11  C   UNL d   1      -0.529  -5.036   5.803  0.00  0.00     0.050 A 
ATOM     12  C   UNL d   1      -1.113  -5.216   4.547  0.00  0.00     0.017 A 
ATOM     13  C   UNL d   1      -0.586  -4.579   3.412  0.00  0.00     0.022 A 
BRANCH   9  14
ATOM     14  N   UNL d   1       2.143  -2.590   4.994  0.00  0.00    -0.114 N 
ATOM     15  O   UNL d   1       1.852  -1.382   4.987  0.00  0.00    -0.532 OA
ATOM     16  O   UNL d   1       3.255  -3.056   5.284  0.00  0.00    -0.532 OA
ENDBRANCH   9  14
BRANCH  11  17
ATOM     17  C   UNL d   1      -1.119  -5.720   7.017  0.00  0.00     0.417 C 
ATOM     18  F   UNL d   1      -0.326  -5.633   8.120  0.00  0.00    -0.166 F 
ATOM     19  F   UNL d   1      -2.318  -5.189   7.372  0.00  0.00    -0.166 F 
ATOM     20  F   UNL d   1      -1.336  -7.045   6.813  0.00  0.00    -0.166 F 
ENDBRANCH  11  17
ENDBRANCH   7   8
ENDBRANCH   1   7
BRANCH   2  21
ATOM     21  N   UNL d   1       3.185  -0.753   2.165  0.00  0.00    -0.336 N 
ATOM     22  H   UNL d   1       3.684  -0.117   2.774  0.00  0.00     0.168 HD
BRANCH  21  23
ATOM     23  C   UNL d   1       2.642  -0.124   1.046  0.00  0.00     0.155 C 
ATOM     24  S   UNL d   1       2.564  -0.739  -0.525  0.00  0.00    -0.047 SA
BRANCH  23  25
ATOM     25  N   UNL d   1       2.044   1.100   1.345  0.00  0.00    -0.234 NA
ATOM     26  H   UNL d   1       1.170   1.093   0.818  0.00  0.00     0.136 HD
BRANCH  25  27
ATOM     27  C   UNL d   1       2.763   2.254   0.887  0.00  0.00     0.036 C 
ATOM     28  C   UNL d   1       2.389   2.895  -0.307  0.00  0.00     0.056 C 
ATOM     29  C   UNL d   1       3.251   3.806  -0.907  0.00  0.00     0.032 C 
ATOM     30 CL   UNL d   1       0.904   2.516  -1.110  0.00  0.00    -0.082 Cl
ATOM     31  C   UNL d   1       4.453   4.152  -0.279  0.00  0.00    -0.060 C 
ATOM     32  C   UNL d   1       4.747   3.621   0.985  0.00  0.00     0.009 C 
ATOM     33  C   UNL d   1       5.450   5.031  -0.974  0.00  0.00     0.048 C 
ATOM     34  C   UNL d   1       3.913   2.662   1.562  0.00  0.00     0.026 C 
ENDBRANCH  25  27
ENDBRANCH  23  25
ENDBRANCH  21  23
ENDBRANCH   2  21
TORSDOF 8
