REMARK  4 active torsions:
REMARK  status: ('A' for Active; 'I' for Inactive)
REMARK    1  A    between atoms: C_2  and  C_1 
REMARK    2  A    between atoms: O_3  and  C_1 
REMARK    3  A    between atoms: C_5  and  O_3 
REMARK    4  A    between atoms: N_4  and  C_6 
ROOT
ATOM      1  C   UNL d   1      -1.179   0.101   1.161  0.00  0.00     0.106 A 
ATOM      2  C   UNL d   1      -1.917  -0.958   0.586  0.00  0.00     0.064 A 
ATOM      3  C   UNL d   1      -1.811   1.089   1.937  0.00  0.00     0.040 A 
ATOM      4  C   UNL d   1      -3.313  -0.934   0.796  0.00  0.00     0.032 A 
ATOM      5  C   UNL d   1      -3.193   1.078   2.110  0.00  0.00     0.003 A 
ATOM      6  C   UNL d   1      -3.947   0.067   1.536  0.00  0.00     0.002 A 
ENDROOT
BRANCH   1   7
ATOM      7  O   UNL d   1       0.234   0.140   0.987  0.00  0.00    -0.271 OA
BRANCH   7   8
ATOM      8  C   UNL d   1       0.932   1.350   0.886  0.00  0.00     0.322 C 
ATOM      9  O   UNL d   1       0.424   2.464   0.811  0.00  0.00    -0.257 OA
BRANCH   8  10
ATOM     10  C   UNL d   1       2.361   1.120   0.914  0.00  0.00     0.150 A 
ATOM     11  O   UNL d   1       2.874  -0.150   0.894  0.00  0.00    -0.317 OA
ATOM     12  C   UNL d   1       4.228  -0.039   0.932  0.00  0.00     0.143 A 
ATOM     13  C   UNL d   1       4.606   1.281   0.984  0.00  0.00     0.027 A 
ATOM     14  C   UNL d   1       3.406   2.031   0.972  0.00  0.00     0.045 A 
ENDBRANCH   8  10
ENDBRANCH   7   8
ENDBRANCH   1   7
BRANCH   2  15
ATOM     15  N   UNL d   1      -1.392  -2.036  -0.115  0.00  0.00    -0.379 N 
ATOM     16  C   UNL d   1      -0.072  -2.588   0.171  0.00  0.00     0.123 C 
ATOM     17  C   UNL d   1      -0.137  -4.117   0.045  0.00  0.00     0.020 C 
ATOM     18  C   UNL d   1      -0.732  -4.563  -1.291  0.00  0.00     0.003 C 
ATOM     19  C   UNL d   1      -2.078  -3.887  -1.545  0.00  0.00     0.020 C 
ATOM     20  C   UNL d   1      -1.953  -2.369  -1.428  0.00  0.00     0.123 C 
ENDBRANCH   2  15
TORSDOF 4
