REMARK  1 active torsions:
REMARK  status: ('A' for Active; 'I' for Inactive)
REMARK    1  A    between atoms: C_2  and  C_1 
REMARK       I    between atoms: N_3  and  C_2 
ROOT
ATOM      1  C   UNL d   1       3.274  -0.154   0.629  0.00  0.00     0.267 C 
ATOM      2  N   UNL d   1       3.907  -1.171  -0.144  0.00  0.00    -0.306 N 
ATOM      3  C   UNL d   1       5.281  -0.966  -0.615  0.00  0.00     0.098 C 
ATOM      4  N   UNL d   1       5.437  -3.021   1.608  0.00  0.00    -0.325 N 
ATOM      5  C   UNL d   1       3.577  -2.539   0.012  0.00  0.00     0.064 C 
ATOM      6  C   UNL d   1       6.335  -2.009   1.514  0.00  0.00     0.224 C 
ATOM      7  C   UNL d   1       6.277  -0.869   0.525  0.00  0.00     0.128 C 
ATOM      8  C   UNL d   1       4.285  -3.374   0.886  0.00  0.00     0.061 C 
ATOM      9  O   UNL d   1       3.844   0.911   0.854  0.00  0.00    -0.266 OA
ATOM     10  O   UNL d   1       7.287  -2.054   2.306  0.00  0.00    -0.273 OA
ATOM     11  C   UNL d   1       5.369   0.235  -1.572  0.00  0.00     0.033 C 
ATOM     12  C   UNL d   1       2.575  -3.080  -0.804  0.00  0.00     0.032 C 
ATOM     13  C   UNL d   1       3.842  -4.697   1.054  0.00  0.00     0.032 C 
ATOM     14  C   UNL d   1       2.171  -4.405  -0.658  0.00  0.00     0.002 C 
ATOM     15  C   UNL d   1       2.787  -5.208   0.294  0.00  0.00     0.002 C 
ATOM     16  H   UNL d   1       5.755  -3.694   2.297  0.00  0.00     0.169 HD
ENDROOT
BRANCH   1  17
ATOM     17  C   UNL d   1       1.931  -0.395   1.134  0.00  0.00     0.096 C 
ATOM     18  S   UNL d   1       0.639  -0.605   0.037  0.00  0.00    -0.082 SA
ATOM     19  C   UNL d   1      -0.457  -1.015   1.288  0.00  0.00     0.017 A 
ATOM     20  C   UNL d   1      -1.751  -1.546   1.130  0.00  0.00     0.020 A 
ATOM     21  C   UNL d   1       0.079  -0.724   2.545  0.00  0.00     0.004 A 
ATOM     22  C   UNL d   1      -2.531  -1.768   2.263  0.00  0.00     0.001 A 
ATOM     23  C   UNL d   1      -2.052  -1.433   3.521  0.00  0.00     0.001 A 
ATOM     24  C   UNL d   1      -0.764  -0.906   3.672  0.00  0.00     0.014 A 
ATOM     25  C   UNL d   1       1.458  -0.306   2.428  0.00  0.00     0.068 C 
ATOM     26 CL   UNL d   1       2.400   0.133   3.796  0.00  0.00    -0.082 Cl
ENDBRANCH   1  17
TORSDOF 1
