REMARK  4 active torsions:
REMARK  status: ('A' for Active; 'I' for Inactive)
REMARK    1  A    between atoms: C_3  and  C_1 
REMARK    2  A    between atoms: N_6  and  C_2 
REMARK       I    between atoms: C_7  and  N_6 
REMARK       I    between atoms: N_9  and  C_7 
REMARK    3  A    between atoms: C_14  and  N_9 
REMARK    4  A    between atoms: C_15  and  C_14 
ROOT
ATOM      1  N   UNL d   1       0.303  -2.296   0.093  0.00  0.00    -0.306 N 
ATOM      2  C   UNL d   1       1.485  -2.940  -0.037  0.00  0.00     0.321 C 
ATOM      3  N   UNL d   1       2.627  -2.242  -0.150  0.00  0.00    -0.339 N 
ATOM      4  O   UNL d   1       1.454  -4.171  -0.097  0.00  0.00    -0.247 OA
ATOM      5  H   UNL d   1      -0.422  -3.003   0.176  0.00  0.00     0.170 HD
ATOM      6  H   UNL d   1       2.683  -1.326   0.259  0.00  0.00     0.164 HD
ENDROOT
BRANCH   1   7
ATOM      7  C   UNL d   1      -0.192  -1.004  -0.022  0.00  0.00     0.077 A 
ATOM      8  C   UNL d   1       0.330   0.272  -0.214  0.00  0.00     0.186 A 
ATOM      9  O   UNL d   1      -0.712   1.174  -0.286  0.00  0.00    -0.308 OA
ATOM     10  C   UNL d   1      -1.878   0.509  -0.155  0.00  0.00     0.052 A 
ATOM     11  C   UNL d   1      -3.115   1.310  -0.243  0.00  0.00     0.077 C 
ATOM     12  C   UNL d   1      -1.617  -0.823   0.032  0.00  0.00     0.064 A 
BRANCH   8  13
ATOM     13  C   UNL d   1       1.637   0.961  -0.350  0.00  0.00     0.441 C 
ATOM     14  F   UNL d   1       2.707   0.138  -0.440  0.00  0.00    -0.164 F 
ATOM     15  F   UNL d   1       1.681   1.757  -1.452  0.00  0.00    -0.164 F 
ATOM     16  F   UNL d   1       1.885   1.767   0.717  0.00  0.00    -0.164 F 
ENDBRANCH   8  13
ENDBRANCH   1   7
BRANCH   3  17
ATOM     17  C   UNL d   1       3.875  -2.852  -0.553  0.00  0.00     0.162 C 
BRANCH  17  18
ATOM     18  C   UNL d   1       4.779  -3.231   0.592  0.00  0.00    -0.040 A 
ATOM     19  C   UNL d   1       4.660  -4.487   1.205  0.00  0.00     0.009 A 
ATOM     20  C   UNL d   1       5.565  -4.888   2.189  0.00  0.00     0.001 A 
ATOM     21  C   UNL d   1       6.592  -4.032   2.584  0.00  0.00     0.000 A 
ATOM     22  C   UNL d   1       6.702  -2.768   2.007  0.00  0.00     0.001 A 
ATOM     23  C   UNL d   1       5.796  -2.366   1.022  0.00  0.00     0.009 A 
ENDBRANCH  17  18
ENDBRANCH   3  17
TORSDOF 4
