REMARK  5 active torsions:
REMARK  status: ('A' for Active; 'I' for Inactive)
REMARK    1  A    between atoms: C_3  and  C_1 
REMARK       I    between atoms: C_2  and  N_4 
REMARK    2  A    between atoms: O_10  and  C_2 
REMARK       I    between atoms: N_7  and  C_3 
REMARK    3  A    between atoms: O_12  and  C_6 
REMARK    4  A    between atoms: C_20  and  O_10 
REMARK    5  A    between atoms: C_21  and  O_12 
ROOT
ATOM      1  C   UNL d   1      -6.052   2.918  -0.525  0.00  0.00     0.363 C 
ATOM      2  C   UNL d   1      -0.565   2.468   0.066  0.00  0.00     0.277 C 
ATOM      3  N   UNL d   1      -4.730   2.543  -0.419  0.00  0.00    -0.325 N 
ATOM      4  N   UNL d   1      -1.942   2.679   0.108  0.00  0.00    -0.343 N 
ATOM      5  O   UNL d   1      -6.508   3.510  -1.492  0.00  0.00    -0.238 OA
ATOM      6  C   UNL d   1      -3.797   2.884  -1.492  0.00  0.00     0.148 C 
ATOM      7  C   UNL d   1      -4.170   1.723   0.665  0.00  0.00     0.148 C 
ATOM      8  C   UNL d   1      -2.541   3.541  -0.917  0.00  0.00     0.146 C 
ATOM      9  C   UNL d   1      -2.862   2.328   1.204  0.00  0.00     0.146 C 
ATOM     10  O   UNL d   1       0.129   3.127  -0.712  0.00  0.00    -0.265 OA
ENDROOT
BRANCH   2  11
ATOM     11  C   UNL d   1       0.066   1.460   0.901  0.00  0.00     0.146 A 
ATOM     12  O   UNL d   1      -0.640   0.425   1.464  0.00  0.00    -0.282 OA
ATOM     13  C   UNL d   1       0.252  -0.356   2.135  0.00  0.00     0.191 A 
ATOM     14  C   UNL d   1       1.533   0.118   1.950  0.00  0.00     0.067 A 
ATOM     15  C   UNL d   1       1.411   1.289   1.174  0.00  0.00     0.048 A 
BRANCH  13  16
ATOM     16  O   UNL d   1      -0.299  -1.372   2.797  0.00  0.00    -0.286 OA
BRANCH  16  17
ATOM     17  C   UNL d   1       0.387  -1.954   3.833  0.00  0.00     0.093 A 
ATOM     18  C   UNL d   1       0.408  -3.337   3.934  0.00  0.00     0.124 A 
ATOM     19  N   UNL d   1       1.056  -4.009   4.916  0.00  0.00    -0.373 N 
ATOM     20  C   UNL d   1       1.698  -3.263   5.843  0.00  0.00     0.088 A 
ATOM     21  HN  UNL d   1       1.060  -5.028   4.954  1.00  0.00     0.164 HD
ATOM     22  C   UNL d   1       1.709  -1.877   5.842  0.00  0.00     0.020 A 
ATOM     23  C   UNL d   1       1.026  -1.214   4.827  0.00  0.00     0.040 A 
ENDBRANCH  16  17
ENDBRANCH  13  16
ENDBRANCH   2  11
BRANCH   1  24
ATOM     24  O   UNL d   1      -6.774   2.568   0.568  0.00  0.00    -0.294 OA
BRANCH  24  25
ATOM     25  C   UNL d   1      -8.201   2.823   0.621  0.00  0.00     0.061 C 
ATOM     26  C   UNL d   1      -8.930   2.050  -0.484  0.00  0.00     0.046 C 
ATOM     27  C   UNL d   1      -8.639   2.275   1.987  0.00  0.00     0.046 C 
ATOM     28  C   UNL d   1      -8.519   4.323   0.575  0.00  0.00     0.046 C 
ENDBRANCH  24  25
ENDBRANCH   1  24
TORSDOF 5
