REMARK  5 active torsions:
REMARK  status: ('A' for Active; 'I' for Inactive)
REMARK    1  A    between atoms: N_2  and  C_1 
REMARK    2  A    between atoms: N_6  and  C_1 
REMARK       I    between atoms: C_3  and  N_2 
REMARK    3  A    between atoms: C_7  and  C_3 
REMARK    4  A    between atoms: C_14  and  N_6 
REMARK    5  A    between atoms: C_8  and  C_7 
ROOT
ATOM      1  C   UNL d   1       0.964   0.208  -0.077  0.00  0.00     0.179 C 
ATOM      2  S   UNL d   1       1.936   0.433  -1.414  0.00  0.00    -0.040 SA
ENDROOT
BRANCH   1   3
ATOM      3  N   UNL d   1       0.658  -0.999   0.535  0.00  0.00    -0.300 N 
ATOM      4  C   UNL d   1       1.030  -2.293   0.242  0.00  0.00     0.247 C 
ATOM      5  O   UNL d   1       0.168  -3.161   0.127  0.00  0.00    -0.268 OA
ATOM      6  H   UNL d   1      -0.324  -1.007   0.783  0.00  0.00     0.171 HD
BRANCH   4   7
ATOM      7  C   UNL d   1       2.482  -2.592   0.202  0.00  0.00     0.076 C 
BRANCH   7   8
ATOM      8  C   UNL d   1       2.851  -3.882   0.168  0.00  0.00     0.024 C 
ATOM      9  C   UNL d   1       4.212  -4.306   0.189  0.00  0.00     0.004 A 
ATOM     10  S   UNL d   1       4.533  -6.005   0.235  0.00  0.00    -0.102 SA
ATOM     11  C   UNL d   1       5.402  -3.597   0.187  0.00  0.00     0.019 A 
ATOM     12  C   UNL d   1       6.221  -5.770   0.256  0.00  0.00     0.050 A 
ATOM     13  C   UNL d   1       6.557  -4.437   0.226  0.00  0.00     0.008 A 
ENDBRANCH   7   8
ENDBRANCH   4   7
ENDBRANCH   1   3
BRANCH   1  14
ATOM     14  N   UNL d   1       0.289   1.297   0.435  0.00  0.00    -0.333 N 
ATOM     15  H   UNL d   1       0.234   2.092  -0.196  0.00  0.00     0.168 HD
BRANCH  14  16
ATOM     16  C   UNL d   1      -0.312   1.449   1.702  0.00  0.00     0.034 A 
ATOM     17  C   UNL d   1       0.109   0.730   2.827  0.00  0.00     0.031 A 
ATOM     18  C   UNL d   1      -0.515   0.915   4.063  0.00  0.00     0.026 A 
ATOM     19  C   UNL d   1      -1.563   1.823   4.178  0.00  0.00     0.034 A 
ATOM     20  C   UNL d   1      -1.975   2.563   3.071  0.00  0.00     0.026 A 
ATOM     21 CL   UNL d   1      -2.342   2.039   5.695  0.00  0.00    -0.084 Cl
ATOM     22  C   UNL d   1      -1.336   2.390   1.838  0.00  0.00     0.031 A 
ENDBRANCH  14  16
ENDBRANCH   1  14
TORSDOF 5
