REMARK  4 active torsions:
REMARK  status: ('A' for Active; 'I' for Inactive)
REMARK       I    between atoms: N_3  and  C_1 
REMARK       I    between atoms: N_4  and  C_1 
REMARK    1  A    between atoms: C_2  and  N_3 
REMARK    2  A    between atoms: C_5  and  N_4 
REMARK    3  A    between atoms: O_16  and  C_13 
REMARK    4  A    between atoms: O_17  and  C_14 
ROOT
ATOM      1  C   UNL d   1       0.882   0.281   0.202  0.00  0.00     0.321 C 
ATOM      2  N   UNL d   1       0.408  -0.932   0.667  0.00  0.00    -0.309 N 
ATOM      3  N   UNL d   1      -0.126   0.935  -0.483  0.00  0.00    -0.338 N 
ATOM      4  O   UNL d   1       2.003   0.741   0.330  0.00  0.00    -0.247 OA
ATOM      5  H   UNL d   1      -0.459  -1.237   0.253  0.00  0.00     0.170 HD
ATOM      6  H   UNL d   1      -1.033   0.764  -0.075  0.00  0.00     0.164 HD
ENDROOT
BRANCH   2   7
ATOM      7  C   UNL d   1       1.070  -1.867   1.485  0.00  0.00     0.041 A 
ATOM      8  C   UNL d   1       2.298  -1.621   2.098  0.00  0.00     0.066 A 
ATOM      9  C   UNL d   1       2.893  -2.596   2.903  0.00  0.00     0.073 A 
ATOM     10  C   UNL d   1       2.255  -3.826   3.095  0.00  0.00     0.073 A 
ATOM     11  C   UNL d   1       1.021  -4.081   2.502  0.00  0.00     0.073 A 
ATOM     12  C   UNL d   1       0.433  -3.097   1.702  0.00  0.00     0.066 A 
BRANCH   9  13
ATOM     13  O   UNL d   1       4.090  -2.467   3.558  0.00  0.00    -0.356 OA
ATOM     14  C   UNL d   1       4.747  -1.210   3.440  0.00  0.00     0.210 C 
ENDBRANCH   9  13
BRANCH  11  15
ATOM     15  O   UNL d   1       0.290  -5.231   2.627  0.00  0.00    -0.356 OA
ATOM     16  C   UNL d   1       0.883  -6.291   3.372  0.00  0.00     0.210 C 
ENDBRANCH  11  15
ENDBRANCH   2   7
BRANCH   3  17
ATOM     17  C   UNL d   1       0.039   2.269  -1.050  0.00  0.00     0.094 C 
ATOM     18  C   UNL d   1       1.216   2.424  -2.044  0.00  0.00     0.064 C 
ATOM     19  C   UNL d   1       0.656   3.370  -3.063  0.00  0.00    -0.050 A 
ATOM     20  C   UNL d   1       1.337   4.075  -4.042  0.00  0.00     0.007 A 
ATOM     21  C   UNL d   1      -0.736   3.416  -2.993  0.00  0.00    -0.050 A 
ATOM     22  C   UNL d   1       0.594   4.785  -4.991  0.00  0.00     0.001 A 
ATOM     23  C   UNL d   1      -0.809   4.758  -4.966  0.00  0.00     0.001 A 
ATOM     24  C   UNL d   1      -1.484   4.075  -3.956  0.00  0.00     0.007 A 
ATOM     25  C   UNL d   1      -1.249   2.660  -1.815  0.00  0.00     0.064 C 
ENDBRANCH   3  17
TORSDOF 4
