REMARK  4 active torsions:
REMARK  status: ('A' for Active; 'I' for Inactive)
REMARK    1  A    between atoms: C_10  and  C_1 
REMARK    2  A    between atoms: C_5  and  C_6 
REMARK    3  A    between atoms: N_15  and  N_8 
REMARK    4  A    between atoms: C_11  and  N_15 
ROOT
ATOM      1  N   UNL d   1       3.481  -2.658   0.109  0.00  0.00    -0.327 N 
ATOM      2  HN  UNL d   1       4.158  -1.915   0.281  1.00  0.00     0.180 HD
ATOM      3  C   UNL d   1       2.241  -2.407  -0.147  0.00  0.00     0.116 C 
ENDROOT
BRANCH   1   4
ATOM      4  N   UNL d   1       3.833  -3.977   0.136  0.00  0.00    -0.205 NA
ATOM      5  H   UNL d   1       3.780  -4.456  -0.769  0.00  0.00     0.153 HD
BRANCH   4   6
ATOM      6  C   UNL d   1       5.059  -4.240   0.814  0.00  0.00     0.042 A 
ATOM      7  C   UNL d   1       5.883  -5.335   0.493  0.00  0.00     0.070 A 
ATOM      8  C   UNL d   1       7.052  -5.569   1.253  0.00  0.00     0.018 A 
ATOM      9  C   UNL d   1       7.396  -4.746   2.324  0.00  0.00     0.001 A 
ATOM     10  C   UNL d   1       6.572  -3.682   2.661  0.00  0.00     0.002 A 
ATOM     11  C   UNL d   1       5.415  -3.443   1.922  0.00  0.00     0.026 A 
BRANCH   7  12
ATOM     12  C   UNL d   1       5.596  -6.274  -0.645  0.00  0.00     0.419 C 
ATOM     13  F   UNL d   1       4.521  -5.918  -1.409  0.00  0.00    -0.166 F 
ATOM     14  F   UNL d   1       6.640  -6.375  -1.517  0.00  0.00    -0.166 F 
ATOM     15  F   UNL d   1       5.344  -7.546  -0.226  0.00  0.00    -0.166 F 
ENDBRANCH   7  12
ENDBRANCH   4   6
ENDBRANCH   1   4
BRANCH   3  16
ATOM     16  C   UNL d   1       1.761  -1.028  -0.182  0.00  0.00     0.016 A 
ATOM     17  C   UNL d   1       2.531   0.120  -0.132  0.00  0.00     0.064 A 
ATOM     18  S   UNL d   1       1.630   1.554  -0.153  0.00  0.00    -0.081 SA
ATOM     19 BR   UNL d   1       4.413   0.240  -0.062  0.00  0.00    -0.042 Br
ATOM     20  C   UNL d   1       0.145   0.707  -0.258  0.00  0.00     0.017 A 
ATOM     21  C   UNL d   1       0.344  -0.679  -0.275  0.00  0.00    -0.004 A 
ATOM     22  C   UNL d   1      -1.139   1.284  -0.321  0.00  0.00     0.021 A 
ATOM     23  C   UNL d   1      -0.816  -1.497  -0.365  0.00  0.00     0.037 A 
ATOM     24  C   UNL d   1      -2.090  -0.924  -0.437  0.00  0.00     0.035 A 
ATOM     25  C   UNL d   1      -2.253   0.451  -0.413  0.00  0.00     0.025 A 
ATOM     26 CL   UNL d   1      -3.472  -1.943  -0.557  0.00  0.00    -0.084 Cl
ENDBRANCH   3  16
TORSDOF 4
