REMARK  6 active torsions:
REMARK  status: ('A' for Active; 'I' for Inactive)
REMARK    1  A    between atoms: S_13  and  C_2 
REMARK    2  A    between atoms: N_3  and  C_11 
REMARK    3  A    between atoms: C_9  and  C_4 
REMARK    4  A    between atoms: C_21  and  S_13 
REMARK    5  A    between atoms: C_16  and  C_18 
REMARK    6  A    between atoms: C_18  and  C_21 
ROOT
ATOM      1  C   UNL d   1       2.518   0.744   0.077  0.00  0.00     0.090 A 
ATOM      2  C   UNL d   1       2.488  -0.643  -0.088  0.00  0.00     0.092 A 
ATOM      3  C   UNL d   1       1.304   1.475   0.117  0.00  0.00     0.013 A 
ATOM      4  N   UNL d   1       1.335  -1.347  -0.103  0.00  0.00    -0.352 N 
ATOM      5  HN  UNL d   1       1.344  -2.364  -0.176  1.00  0.00     0.166 HD
ATOM      6  C   UNL d   1       0.088   0.742   0.033  0.00  0.00    -0.022 A 
ATOM      7  C   UNL d   1       0.162  -0.663  -0.017  0.00  0.00     0.017 A 
ATOM      8  C   UNL d   1       3.790   1.398   0.219  0.00  0.00     0.103 C 
ATOM      9  N   UNL d   1       4.820   1.917   0.330  0.00  0.00    -0.191 NA
ATOM     10  C   UNL d   1      -1.272   1.417   0.023  0.00  0.00     0.041 C 
ATOM     11  C   UNL d   1      -1.082  -1.524  -0.071  0.00  0.00     0.057 C 
ATOM     12  C   UNL d   1      -2.439   0.528  -0.399  0.00  0.00     0.005 C 
ATOM     13  C   UNL d   1      -2.360  -0.798   0.336  0.00  0.00     0.006 C 
ENDROOT
BRANCH   2  14
ATOM     14  S   UNL d   1       3.995  -1.538  -0.510  0.00  0.00    -0.103 SA
BRANCH  14  15
ATOM     15  C   UNL d   1       3.709  -3.190   0.188  0.00  0.00     0.164 C 
BRANCH  15  16
ATOM     16  C   UNL d   1       4.907  -4.069  -0.155  0.00  0.00     0.169 C 
ATOM     17  O   UNL d   1       4.873  -4.835  -1.121  0.00  0.00    -0.291 OA
BRANCH  16  18
ATOM     18  C   UNL d   1       6.170  -4.010   0.660  0.00  0.00     0.013 A 
ATOM     19  C   UNL d   1       6.312  -3.202   1.793  0.00  0.00     0.051 A 
ATOM     20  C   UNL d   1       7.532  -3.192   2.493  0.00  0.00     0.103 A 
ATOM     21  C   UNL d   1       8.612  -3.983   2.081  0.00  0.00     0.036 A 
ATOM     22  C   UNL d   1       8.471  -4.790   0.955  0.00  0.00     0.003 A 
ATOM     23  C   UNL d   1       7.261  -4.802   0.252  0.00  0.00     0.015 A 
BRANCH  20  24
ATOM     24  N   UNL d   1       7.679  -2.340   3.683  0.00  0.00    -0.116 N 
ATOM     25  O   UNL d   1       6.683  -1.701   4.052  0.00  0.00    -0.532 OA
ATOM     26  O   UNL d   1       8.781  -2.324   4.247  0.00  0.00    -0.532 OA
ENDBRANCH  20  24
ENDBRANCH  16  18
ENDBRANCH  15  16
ENDBRANCH  14  15
ENDBRANCH   2  14
BRANCH   3  27
ATOM     27  C   UNL d   1       1.341   2.970   0.159  0.00  0.00     0.017 C 
ATOM     28  S   UNL d   1       0.365   3.874   1.256  0.00  0.00    -0.101 SA
ATOM     29  C   UNL d   1       0.874   5.371   0.616  0.00  0.00     0.050 C 
ATOM     30  C   UNL d   1       1.899   5.215  -0.284  0.00  0.00     0.008 C 
ATOM     31  C   UNL d   1       2.152   3.840  -0.561  0.00  0.00     0.020 C 
ENDBRANCH   3  27
TORSDOF 6
