REMARK  6 active torsions:
REMARK  status: ('A' for Active; 'I' for Inactive)
REMARK    1  A    between atoms: S_2  and  C_1 
REMARK    2  A    between atoms: C_6  and  S_2 
REMARK    3  A    between atoms: C_5  and  C_4 
REMARK    4  A    between atoms: O_10  and  C_5 
REMARK    5  A    between atoms: C_13  and  C_7 
REMARK    6  A    between atoms: O_14  and  C_13 
ROOT
ATOM      1  C   UNL d   1       1.268  -1.440  -0.460  0.00  0.00     0.017 A 
ATOM      2  C   UNL d   1      -0.014  -0.812  -0.237  0.00  0.00     0.008 A 
ATOM      3  C   UNL d   1      -1.324  -1.404  -0.173  0.00  0.00     0.050 A 
ATOM      4  C   UNL d   1       0.002   0.612  -0.088  0.00  0.00    -0.024 A 
ATOM      5  C   UNL d   1       2.449  -0.664  -0.517  0.00  0.00     0.020 A 
ATOM      6  C   UNL d   1      -2.496  -0.629  -0.035  0.00  0.00     0.019 A 
ATOM      7  C   UNL d   1       2.420   0.703  -0.310  0.00  0.00     0.002 A 
ATOM      8  C   UNL d   1      -2.423   0.744   0.077  0.00  0.00     0.002 A 
ATOM      9  C   UNL d   1       1.204   1.333  -0.102  0.00  0.00     0.012 A 
ATOM     10  C   UNL d   1      -1.180   1.357   0.068  0.00  0.00     0.012 A 
ENDROOT
BRANCH   1  11
ATOM     11  S   UNL d   1       1.537  -3.183  -0.833  0.00  0.00    -0.089 SA
BRANCH  11  12
ATOM     12  C   UNL d   1       1.954  -3.947   0.746  0.00  0.00     0.014 A 
ATOM     13  C   UNL d   1       1.575  -5.278   1.040  0.00  0.00    -0.018 A 
ATOM     14  C   UNL d   1       1.847  -5.800   2.324  0.00  0.00     0.011 A 
ATOM     15  C   UNL d   1       2.497  -5.043   3.294  0.00  0.00     0.001 A 
ATOM     16  C   UNL d   1       2.909  -3.755   2.991  0.00  0.00     0.001 A 
ATOM     17  C   UNL d   1       2.647  -3.217   1.729  0.00  0.00     0.019 A 
BRANCH  13  18
ATOM     18  C   UNL d   1       0.844  -6.189   0.081  0.00  0.00     0.204 C 
BRANCH  18  19
ATOM     19  O   UNL d   1       1.604  -7.383  -0.103  0.00  0.00    -0.396 OA
ATOM     20  H   UNL d   1       2.102  -7.267  -0.929  0.00  0.00     0.209 HD
ENDBRANCH  18  19
ENDBRANCH  13  18
ENDBRANCH  11  12
ENDBRANCH   1  11
BRANCH   3  21
ATOM     21  C   UNL d   1      -1.614  -2.854  -0.209  0.00  0.00     0.177 C 
ATOM     22  O   UNL d   1      -2.426  -3.352  -0.970  0.00  0.00    -0.646 OA
BRANCH  21  23
ATOM     23  O   UNL d   1      -1.078  -3.513   0.837  0.00  0.00    -0.773 OA
ATOM     24  H   UNL d   1      -0.398  -3.008   1.323  0.00  0.00     0.167 HD
ENDBRANCH  21  23
ENDBRANCH   3  21
TORSDOF 6
