REMARK  4 active torsions:
REMARK  status: ('A' for Active; 'I' for Inactive)
REMARK       I    between atoms: C_6  and  N_1 
REMARK    1  A    between atoms: C_5  and  C_4 
REMARK    2  A    between atoms: C_16  and  C_6 
REMARK    3  A    between atoms: C_10  and  C_11 
REMARK    4  A    between atoms: C_17  and  C_12 
ROOT
ATOM      1  N   UNL d   1      -0.272  -1.009   0.773  0.00  0.00    -0.231 N 
ATOM      2  N   UNL d   1      -0.770   0.229   1.032  0.00  0.00    -0.290 N 
ATOM      3  HN  UNL d   1      -1.405   0.500   1.783  1.00  0.00     0.187 HD
ATOM      4  C   UNL d   1      -0.243   1.013   0.086  0.00  0.00     0.067 A 
ATOM      5  C   UNL d   1      -0.644  -2.111   1.568  0.00  0.00     0.276 C 
ATOM      6  C   UNL d   1       0.646   0.300  -0.748  0.00  0.00     0.051 A 
ATOM      7  C   UNL d   1       0.582  -0.999  -0.307  0.00  0.00     0.122 A 
ATOM      8  O   UNL d   1      -0.454  -3.235   1.102  0.00  0.00    -0.265 OA
ENDROOT
BRANCH   4   9
ATOM      9  C   UNL d   1      -0.603   2.462  -0.031  0.00  0.00     0.034 A 
ATOM     10  S   UNL d   1       0.019   3.491  -1.240  0.00  0.00    -0.079 SA
ATOM     11  C   UNL d   1      -0.918   4.807  -0.697  0.00  0.00     0.059 A 
ATOM     12  C   UNL d   1      -1.669   4.486   0.412  0.00  0.00     0.029 A 
ATOM     13  C   UNL d   1      -1.487   3.121   0.798  0.00  0.00     0.023 A 
BRANCH  11  14
ATOM     14  C   UNL d   1      -0.897   6.065  -1.357  0.00  0.00    -0.054 C 
ATOM     15  C   UNL d   1      -0.841   7.096  -1.973  0.00  0.00    -0.061 C 
BRANCH  15  16
ATOM     16  C   UNL d   1      -0.742   8.303  -2.729  0.00  0.00     0.018 A 
ATOM     17  C   UNL d   1      -1.725   9.284  -2.602  0.00  0.00     0.020 A 
ATOM     18  C   UNL d   1      -1.619  10.473  -3.324  0.00  0.00     0.001 A 
ATOM     19  C   UNL d   1      -0.532  10.680  -4.174  0.00  0.00     0.000 A 
ATOM     20  C   UNL d   1       0.445   9.694  -4.312  0.00  0.00     0.001 A 
ATOM     21  C   UNL d   1       0.340   8.504  -3.591  0.00  0.00     0.020 A 
ENDBRANCH  15  16
ENDBRANCH  11  14
ENDBRANCH   4   9
BRANCH   5  22
ATOM     22  C   UNL d   1      -1.202  -1.975   2.937  0.00  0.00     0.034 A 
ATOM     23  C   UNL d   1      -2.145  -2.895   3.398  0.00  0.00     0.017 A 
ATOM     24  C   UNL d   1      -2.630  -2.792   4.704  0.00  0.00     0.001 A 
ATOM     25  C   UNL d   1      -2.160  -1.785   5.549  0.00  0.00     0.000 A 
ATOM     26  C   UNL d   1      -1.202  -0.880   5.097  0.00  0.00     0.001 A 
ATOM     27  C   UNL d   1      -0.720  -0.976   3.794  0.00  0.00     0.017 A 
ENDBRANCH   5  22
TORSDOF 4
