REMARK  4 active torsions:
REMARK  status: ('A' for Active; 'I' for Inactive)
REMARK    1  A    between atoms: N_2  and  S_1 
REMARK    2  A    between atoms: C_7  and  S_1 
REMARK    3  A    between atoms: O_18  and  C_11 
REMARK    4  A    between atoms: O_19  and  C_13 
ROOT
ATOM      1  N   UNL d   1       0.291  -1.244  -0.992  0.00  0.00    -0.298 N 
ATOM      2  C   UNL d   1       0.163  -3.539  -1.895  0.00  0.00    -0.026 A 
ATOM      3  C   UNL d   1       0.461  -2.681  -0.682  0.00  0.00     0.125 C 
ATOM      4  C   UNL d   1      -0.755  -3.115  -2.868  0.00  0.00    -0.045 A 
ATOM      5  C   UNL d   1       0.675  -4.839  -1.933  0.00  0.00     0.049 A 
ATOM      6  C   UNL d   1      -1.037  -0.924  -1.554  0.00  0.00     0.141 C 
ATOM      7  C   UNL d   1       0.211  -5.764  -2.866  0.00  0.00     0.102 A 
ATOM      8  C   UNL d   1      -1.175  -4.028  -3.850  0.00  0.00     0.047 A 
ATOM      9  C   UNL d   1      -0.721  -5.358  -3.840  0.00  0.00     0.102 A 
ATOM     10  C   UNL d   1      -1.240  -1.682  -2.881  0.00  0.00     0.060 C 
ATOM     11  C   UNL d   1      -0.483  -3.164   0.432  0.00  0.00     0.038 C 
ENDROOT
BRANCH   1  12
ATOM     12  S   UNL d   1       1.042  -0.137   0.042  0.00  0.00     0.261 S 
ATOM     13  O   UNL d   1       0.884  -0.585   1.403  0.00  0.00    -0.200 OA
ATOM     14  O   UNL d   1       0.671   1.205  -0.360  0.00  0.00    -0.200 OA
BRANCH  12  15
ATOM     15  C   UNL d   1       2.757  -0.337  -0.402  0.00  0.00     0.079 A 
ATOM     16  C   UNL d   1       3.138  -0.099  -1.729  0.00  0.00     0.028 A 
ATOM     17  C   UNL d   1       4.461  -0.313  -2.111  0.00  0.00     0.044 A 
ATOM     18  C   UNL d   1       5.385  -0.750  -1.167  0.00  0.00     0.116 A 
ATOM     19  C   UNL d   1       5.019  -0.957   0.160  0.00  0.00     0.044 A 
ATOM     20  F   UNL d   1       6.650  -0.981  -1.544  0.00  0.00    -0.206 F 
ATOM     21  C   UNL d   1       3.694  -0.749   0.553  0.00  0.00     0.028 A 
ENDBRANCH  12  15
ENDBRANCH   1  12
BRANCH   7  22
ATOM     22  O   UNL d   1       0.629  -7.074  -2.871  0.00  0.00    -0.353 OA
ATOM     23  C   UNL d   1       1.044  -7.588  -1.606  0.00  0.00     0.210 C 
ENDBRANCH   7  22
BRANCH   9  24
ATOM     24  O   UNL d   1      -1.140  -6.328  -4.717  0.00  0.00    -0.353 OA
ATOM     25  C   UNL d   1      -2.154  -5.977  -5.649  0.00  0.00     0.210 C 
ENDBRANCH   9  24
TORSDOF 4
