REMARK  6 active torsions:
REMARK  status: ('A' for Active; 'I' for Inactive)
REMARK    1  A    between atoms: S_8  and  C_2 
REMARK    2  A    between atoms: S_10  and  C_3 
REMARK    3  A    between atoms: C_12  and  S_8 
REMARK    4  A    between atoms: C_9  and  C_12 
REMARK    5  A    between atoms: O_13  and  C_9 
REMARK    6  A    between atoms: C_14  and  O_13 
ROOT
ATOM      1  S   UNL d   1       0.713  -1.115   0.056  0.00  0.00    -0.038 SA
ATOM      2  C   UNL d   1      -0.470   0.126   0.082  0.00  0.00     0.129 A 
ATOM      3  C   UNL d   1       1.891   0.122   0.018  0.00  0.00     0.126 A 
ATOM      4  N   UNL d   1       0.020   1.346   0.059  0.00  0.00    -0.287 N 
ATOM      5  HN  UNL d   1      -0.550   2.191   0.068  1.00  0.00     0.188 HD
ATOM      6  N   UNL d   1       1.405   1.343   0.021  0.00  0.00    -0.287 N 
ATOM      7  HN  UNL d   1       1.977   2.187  -0.003  1.00  0.00     0.188 HD
ENDROOT
BRANCH   2   8
ATOM      8  S   UNL d   1      -2.174  -0.229   0.134  0.00  0.00    -0.094 SA
BRANCH   8   9
ATOM      9  C   UNL d   1      -2.899   1.437   0.059  0.00  0.00     0.192 C 
BRANCH   9  10
ATOM     10  C   UNL d   1      -4.397   1.350  -0.134  0.00  0.00     0.268 C 
ATOM     11  O   UNL d   1      -5.062   0.326  -0.216  0.00  0.00    -0.264 OA
BRANCH  10  12
ATOM     12  O   UNL d   1      -4.916   2.610  -0.260  0.00  0.00    -0.321 OA
BRANCH  12  13
ATOM     13  C   UNL d   1      -6.280   2.667  -0.701  0.00  0.00     0.174 C 
ATOM     14  C   UNL d   1      -6.297   2.709  -2.218  0.00  0.00     0.034 C 
ENDBRANCH  12  13
ENDBRANCH  10  12
ENDBRANCH   9  10
ENDBRANCH   8   9
ENDBRANCH   2   8
BRANCH   3  15
ATOM     15  S   UNL d   1       3.604  -0.203  -0.018  0.00  0.00    -0.117 SA
ATOM     16  H   UNL d   1       3.515  -1.540   0.006  0.00  0.00     0.109 HD
ENDBRANCH   3  15
TORSDOF 6
