REMARK  2 active torsions:
REMARK  status: ('A' for Active; 'I' for Inactive)
REMARK    1  A    between atoms: C_9  and  C_1 
REMARK    2  A    between atoms: O_13  and  C_11 
ROOT
ATOM      1  C   UNL d   1      -2.325  -0.308   0.026  0.00  0.00     0.048 A 
ATOM      2  C   UNL d   1      -1.381   0.838   0.025  0.00  0.00     0.197 A 
ATOM      3  C   UNL d   1       0.052   0.505   0.011  0.00  0.00     0.049 A 
ATOM      4  C   UNL d   1      -1.802  -1.544   0.018  0.00  0.00     0.159 A 
ATOM      5  C   UNL d   1       0.441  -0.832   0.012  0.00  0.00     0.091 A 
ATOM      6  O   UNL d   1      -0.463  -1.865   0.017  0.00  0.00    -0.321 OA
ATOM      7  C   UNL d   1       1.014   1.518  -0.002  0.00  0.00     0.021 A 
ATOM      8  C   UNL d   1       1.799  -1.159   0.004  0.00  0.00     0.075 A 
ATOM      9  O   UNL d   1      -1.755   2.006   0.033  0.00  0.00    -0.286 OA
ATOM     10  C   UNL d   1       2.770  -0.150  -0.007  0.00  0.00     0.070 A 
ATOM     11  C   UNL d   1       2.371   1.189  -0.013  0.00  0.00     0.038 A 
ENDROOT
BRANCH   1  12
ATOM     12  C   UNL d   1      -3.776  -0.100   0.023  0.00  0.00    -0.020 A 
ATOM     13  C   UNL d   1      -4.488  -0.040   1.228  0.00  0.00     0.012 A 
ATOM     14  C   UNL d   1      -5.862   0.208   1.222  0.00  0.00     0.001 A 
ATOM     15  C   UNL d   1      -6.532   0.398   0.013  0.00  0.00     0.000 A 
ATOM     16  C   UNL d   1      -5.832   0.324  -1.190  0.00  0.00     0.001 A 
ATOM     17  C   UNL d   1      -4.460   0.069  -1.187  0.00  0.00     0.012 A 
ENDBRANCH   1  12
BRANCH  10  18
ATOM     18  O   UNL d   1       4.066  -0.591  -0.012  0.00  0.00    -0.356 OA
ATOM     19  C   UNL d   1       5.079   0.410  -0.026  0.00  0.00     0.210 C 
ENDBRANCH  10  18
TORSDOF 2
