REMARK  5 active torsions:
REMARK  status: ('A' for Active; 'I' for Inactive)
REMARK    1  A    between atoms: C_4  and  C_1 
REMARK       I    between atoms: N_14  and  C_4 
REMARK    2  A    between atoms: C_6  and  O_13 
REMARK    3  A    between atoms: C_8  and  C_12 
REMARK    4  A    between atoms: N_9  and  N_14 
REMARK    5  A    between atoms: O_13  and  C_17 
ROOT
ATOM      1  C   UNL d   1      -2.398  -0.274  -0.075  0.00  0.00     0.103 A 
ATOM      2  N   UNL d   1      -1.626   0.869  -0.063  0.00  0.00    -0.351 N 
ATOM      3  C   UNL d   1      -1.521  -1.340  -0.041  0.00  0.00     0.049 A 
ATOM      4  C   UNL d   1      -0.194  -0.826  -0.024  0.00  0.00    -0.004 A 
ATOM      5  C   UNL d   1      -0.287   0.562  -0.050  0.00  0.00     0.043 A 
ATOM      6  C   UNL d   1       1.083  -1.413   0.007  0.00  0.00     0.051 A 
ATOM      7  C   UNL d   1       2.229  -0.605   0.016  0.00  0.00     0.079 A 
ATOM      8  C   UNL d   1       0.838   1.392  -0.067  0.00  0.00     0.033 A 
ATOM      9  C   UNL d   1       2.102   0.780  -0.053  0.00  0.00     0.039 A 
ATOM     10  H   UNL d   1      -2.016   1.804  -0.077  0.00  0.00     0.166 HD
ENDROOT
BRANCH   1  11
ATOM     11  C   UNL d   1      -3.845  -0.181  -0.118  0.00  0.00     0.286 C 
ATOM     12  N   UNL d   1      -4.514  -1.399  -0.154  0.00  0.00    -0.265 N 
ATOM     13  H   UNL d   1      -4.003  -2.269  -0.153  0.00  0.00     0.190 HD
ATOM     14  O   UNL d   1      -4.405   0.911  -0.126  0.00  0.00    -0.264 OA
BRANCH  12  15
ATOM     15  N   UNL d   1      -5.878  -1.407  -0.186  0.00  0.00    -0.308 N 
ATOM     16  C   UNL d   1      -6.460  -2.564  -0.219  0.00  0.00     0.126 C 
ATOM     17  HN  UNL d   1      -6.417  -0.541  -0.183  1.00  0.00     0.186 HD
BRANCH  16  18
ATOM     18  C   UNL d   1      -7.901  -2.631  -0.236  0.00  0.00     0.021 A 
ATOM     19  S   UNL d   1      -8.684  -4.148  -0.254  0.00  0.00    -0.101 SA
ATOM     20  C   UNL d   1     -10.233  -3.418  -0.246  0.00  0.00     0.050 A 
ATOM     21  C   UNL d   1     -10.156  -2.043  -0.238  0.00  0.00     0.008 A 
ATOM     22  C   UNL d   1      -8.806  -1.588  -0.235  0.00  0.00     0.021 A 
ENDBRANCH  16  18
ENDBRANCH  12  15
ENDBRANCH   1  11
BRANCH   7  23
ATOM     23  O   UNL d   1       3.395  -1.310   0.044  0.00  0.00    -0.255 OA
BRANCH  23  24
ATOM     24  C   UNL d   1       4.563  -0.727   0.599  0.00  0.00     0.530 C 
ATOM     25  F   UNL d   1       4.333   0.379   1.336  0.00  0.00    -0.144 F 
ATOM     26  F   UNL d   1       5.149  -1.643   1.405  0.00  0.00    -0.144 F 
ATOM     27  F   UNL d   1       5.430  -0.424  -0.391  0.00  0.00    -0.144 F 
ENDBRANCH  23  24
ENDBRANCH   7  23
TORSDOF 5
