REMARK  6 active torsions:
REMARK  status: ('A' for Active; 'I' for Inactive)
REMARK    1  A    between atoms: C_9  and  C_1 
REMARK    2  A    between atoms: C_5  and  C_3 
REMARK    3  A    between atoms: C_6  and  O_15 
REMARK    4  A    between atoms: C_10  and  C_6 
REMARK    5  A    between atoms: C_20  and  C_7 
REMARK    6  A    between atoms: O_15  and  C_20 
ROOT
ATOM      1  C   UNL d   1       4.346   3.235  -0.089  0.00  0.00     0.273 C 
ENDROOT
BRANCH   1   2
ATOM      2  O   UNL d   1       4.590   3.815  -1.378  0.00  0.00    -0.305 OA
BRANCH   2   3
ATOM      3  C   UNL d   1       4.799   5.151  -1.383  0.00  0.00     0.294 C 
ATOM      4  O   UNL d   1       4.759   5.891  -0.412  0.00  0.00    -0.259 OA
BRANCH   3   5
ATOM      5  C   UNL d   1       5.123   5.642  -2.751  0.00  0.00     0.039 A 
ATOM      6  C   UNL d   1       5.366   7.016  -2.909  0.00  0.00     0.019 A 
ATOM      7  C   UNL d   1       5.697   7.539  -4.161  0.00  0.00     0.025 A 
ATOM      8  C   UNL d   1       5.788   6.690  -5.261  0.00  0.00     0.034 A 
ATOM      9  C   UNL d   1       5.546   5.323  -5.120  0.00  0.00     0.025 A 
ATOM     10 CL   UNL d   1       6.206   7.332  -6.801  0.00  0.00    -0.084 Cl
ATOM     11  C   UNL d   1       5.212   4.797  -3.866  0.00  0.00     0.019 A 
ENDBRANCH   3   5
ENDBRANCH   2   3
ENDBRANCH   1   2
BRANCH   1  12
ATOM     12  C   UNL d   1       3.112   2.448  -0.126  0.00  0.00    -0.074 C 
ATOM     13  C   UNL d   1       2.136   1.746  -0.115  0.00  0.00    -0.057 C 
BRANCH  13  14
ATOM     14  C   UNL d   1       1.048   0.828  -0.076  0.00  0.00     0.059 A 
ATOM     15  S   UNL d   1       1.288  -0.859  -0.045  0.00  0.00    -0.078 SA
ATOM     16  C   UNL d   1      -0.398  -1.187  -0.007  0.00  0.00     0.051 A 
ATOM     17  C   UNL d   1      -1.124  -0.008  -0.013  0.00  0.00     0.025 A 
ATOM     18  C   UNL d   1      -0.289   1.154  -0.051  0.00  0.00     0.029 A 
BRANCH  16  19
ATOM     19  C   UNL d   1      -0.827  -2.583   0.026  0.00  0.00     0.162 C 
ATOM     20  O   UNL d   1      -0.043  -3.536   0.037  0.00  0.00    -0.292 OA
ATOM     21  C   UNL d   1      -2.306  -2.887   0.044  0.00  0.00     0.097 C 
ENDBRANCH  16  19
ENDBRANCH  13  14
ENDBRANCH   1  12
TORSDOF 6
