REMARK  3 active torsions:
REMARK  status: ('A' for Active; 'I' for Inactive)
REMARK    1  A    between atoms: C_8  and  C_1 
REMARK    2  A    between atoms: C_9  and  N_3 
REMARK    3  A    between atoms: O_10  and  C_4 
ROOT
ATOM      1  C   UNL d   1       2.415  -0.716  -0.063  0.00  0.00     0.077 A 
ATOM      2  C   UNL d   1       2.411   0.783  -0.111  0.00  0.00     0.266 A 
ATOM      3  N   UNL d   1       1.177   1.427   0.004  0.00  0.00    -0.278 N 
ATOM      4  C   UNL d   1       1.260  -1.397   0.048  0.00  0.00     0.094 A 
ATOM      5  C   UNL d   1      -0.062   0.712   0.040  0.00  0.00     0.056 A 
ATOM      6  C   UNL d   1      -0.031  -0.694   0.066  0.00  0.00     0.025 A 
ATOM      7  O   UNL d   1       3.491   1.372  -0.211  0.00  0.00    -0.267 OA
ATOM      8  C   UNL d   1      -1.314   1.353  -0.031  0.00  0.00     0.031 A 
ATOM      9  C   UNL d   1      -1.238  -1.418   0.063  0.00  0.00     0.016 A 
ATOM     10  C   UNL d   1      -2.505   0.621  -0.050  0.00  0.00     0.002 A 
ATOM     11  C   UNL d   1      -2.467  -0.766   0.004  0.00  0.00     0.001 A 
ENDROOT
BRANCH   1  12
ATOM     12  C   UNL d   1       3.702  -1.429  -0.154  0.00  0.00    -0.018 A 
ATOM     13  C   UNL d   1       4.216  -1.778  -1.409  0.00  0.00     0.012 A 
ATOM     14  C   UNL d   1       5.409  -2.496  -1.506  0.00  0.00     0.001 A 
ATOM     15  C   UNL d   1       6.092  -2.869  -0.350  0.00  0.00     0.000 A 
ATOM     16  C   UNL d   1       5.588  -2.522   0.903  0.00  0.00     0.001 A 
ATOM     17  C   UNL d   1       4.396  -1.804   1.004  0.00  0.00     0.012 A 
ENDBRANCH   1  12
BRANCH   4  18
ATOM     18  O   UNL d   1       1.180  -2.779   0.112  0.00  0.00    -0.359 OA
ATOM     19  H   UNL d   1       2.079  -3.153   0.087  0.00  0.00     0.217 HD
ENDBRANCH   4  18
BRANCH   3  20
ATOM     20  C   UNL d   1       1.162   2.850   0.060  0.00  0.00     0.043 A 
ATOM     21  C   UNL d   1       1.702   3.598  -0.995  0.00  0.00     0.030 A 
ATOM     22  C   UNL d   1       1.752   4.990  -0.921  0.00  0.00     0.002 A 
ATOM     23  C   UNL d   1       1.285   5.645   0.217  0.00  0.00     0.000 A 
ATOM     24  C   UNL d   1       0.761   4.909   1.280  0.00  0.00     0.002 A 
ATOM     25  C   UNL d   1       0.694   3.516   1.202  0.00  0.00     0.030 A 
ENDBRANCH   3  20
TORSDOF 3
