REMARK  4 active torsions:
REMARK  status: ('A' for Active; 'I' for Inactive)
REMARK    1  A    between atoms: N_6  and  C_1 
REMARK    2  A    between atoms: N_9  and  C_1 
REMARK    3  A    between atoms: N_2  and  N_6 
REMARK    4  A    between atoms: C_12  and  C_11 
ROOT
ATOM      1  N   UNL d   1      -1.163   0.129  -1.141  0.00  0.00    -0.309 N 
ATOM      2  HN  UNL d   1      -1.710   0.436  -0.336  1.00  0.00     0.186 HD
ATOM      3  C   UNL d   1      -1.729  -0.205  -2.253  0.00  0.00     0.118 C 
ENDROOT
BRANCH   1   4
ATOM      4  N   UNL d   1       0.195   0.051  -1.090  0.00  0.00    -0.277 N 
ATOM      5  H   UNL d   1       0.735  -0.287  -1.879  0.00  0.00     0.189 HD
BRANCH   4   6
ATOM      6  C   UNL d   1       0.862   0.399   0.072  0.00  0.00     0.186 C 
ATOM      7  S   UNL d   1       2.520   0.277   0.149  0.00  0.00    -0.040 SA
BRANCH   6   8
ATOM      8  N   UNL d   1       0.015   0.824   1.060  0.00  0.00    -0.370 N 
ATOM      9  C   UNL d   1       0.311   1.277   2.398  0.00  0.00     0.148 C 
ATOM     10  H   UNL d   1      -0.955   0.777   0.762  0.00  0.00     0.161 HD
ENDBRANCH   6   8
ENDBRANCH   4   6
ENDBRANCH   1   4
BRANCH   3  11
ATOM     11  C   UNL d   1      -3.204  -0.180  -2.354  0.00  0.00    -0.018 A 
ATOM     12  C   UNL d   1      -3.965   0.237  -1.254  0.00  0.00     0.038 A 
ATOM     13  C   UNL d   1      -5.358   0.212  -1.315  0.00  0.00     0.056 A 
ATOM     14 CL   UNL d   1      -6.229   0.729   0.086  0.00  0.00    -0.083 Cl
ATOM     15  C   UNL d   1      -5.995  -0.229  -2.479  0.00  0.00     0.055 A 
ATOM     16  C   UNL d   1      -5.231  -0.629  -3.582  0.00  0.00     0.026 A 
ATOM     17 CL   UNL d   1      -7.714  -0.318  -2.614  0.00  0.00    -0.083 Cl
ATOM     18  C   UNL d   1      -3.833  -0.603  -3.526  0.00  0.00     0.014 A 
ENDBRANCH   3  11
TORSDOF 4
