REMARK  5 active torsions:
REMARK  status: ('A' for Active; 'I' for Inactive)
REMARK    1  A    between atoms: C_6  and  C_3 
REMARK    2  A    between atoms: C_11  and  C_4 
REMARK    3  A    between atoms: C_8  and  C_17 
REMARK    4  A    between atoms: O_16  and  C_12 
REMARK    5  A    between atoms: C_17  and  O_16 
ROOT
ATOM      1  C   UNL d   1      -0.007  -2.620  -0.023  0.00  0.00     0.013 A 
ATOM      2  N   UNL d   1      -0.913  -4.630  -1.049  0.00  0.00    -0.346 N 
ATOM      3  HN  UNL d   1      -1.430  -5.069  -1.811  1.00  0.00     0.167 HD
ATOM      4  C   UNL d   1      -0.421  -5.360  -0.031  0.00  0.00     0.142 A 
ATOM      5  C   UNL d   1      -0.699  -3.290  -1.026  0.00  0.00     0.104 A 
ATOM      6  C   UNL d   1       0.505  -3.410   1.010  0.00  0.00     0.020 A 
ATOM      7  C   UNL d   1       0.295  -4.791   1.011  0.00  0.00     0.057 A 
ENDROOT
BRANCH   1   8
ATOM      8  C   UNL d   1       0.222  -1.171  -0.031  0.00  0.00     0.086 A 
ATOM      9  N   UNL d   1       1.273  -0.582   0.508  0.00  0.00    -0.346 N 
ATOM     10  C   UNL d   1       1.207   0.799   0.340  0.00  0.00     0.085 A 
ATOM     11  HN  UNL d   1       2.031  -1.072   0.983  1.00  0.00     0.167 HD
ATOM     12  C   UNL d   1       0.059   1.236  -0.296  0.00  0.00     0.085 A 
ATOM     13  S   UNL d   1      -0.933  -0.090  -0.714  0.00  0.00    -0.081 SA
BRANCH  10  14
ATOM     14  C   UNL d   1       2.264   1.704   0.800  0.00  0.00     0.172 C 
ATOM     15  O   UNL d   1       2.175   2.923   0.645  0.00  0.00    -0.291 OA
ATOM     16  C   UNL d   1       3.483   1.120   1.469  0.00  0.00     0.098 C 
ENDBRANCH  10  14
ENDBRANCH   1   8
BRANCH   4  17
ATOM     17  O   UNL d   1      -0.640  -6.697  -0.179  0.00  0.00    -0.327 OA
BRANCH  17  18
ATOM     18  C   UNL d   1      -0.805  -7.444   1.028  0.00  0.00     0.294 C 
BRANCH  18  19
ATOM     19  C   UNL d   1      -1.133  -8.906   0.735  0.00  0.00     0.408 C 
ATOM     20  F   UNL d   1      -1.183  -9.191  -0.582  0.00  0.00    -0.169 F 
ATOM     21  F   UNL d   1      -0.198  -9.717   1.288  0.00  0.00    -0.169 F 
ATOM     22  F   UNL d   1      -2.325  -9.252   1.275  0.00  0.00    -0.169 F 
ENDBRANCH  18  19
ENDBRANCH  17  18
ENDBRANCH   4  17
TORSDOF 5
