REMARK  8 active torsions:
REMARK  status: ('A' for Active; 'I' for Inactive)
REMARK       I    between atoms: N_2  and  C_1 
REMARK       I    between atoms: N_3  and  C_1 
REMARK    1  A    between atoms: C_5  and  N_2 
REMARK    2  A    between atoms: C_9  and  N_3 
REMARK    3  A    between atoms: O_6  and  C_11 
REMARK    4  A    between atoms: C_8  and  O_6 
REMARK    5  A    between atoms: C_7  and  C_9 
REMARK    6  A    between atoms: C_11  and  C_7 
REMARK    7  A    between atoms: O_22  and  C_7 
REMARK    8  A    between atoms: O_23  and  C_12 
ROOT
ATOM      1  C   UNL d   1      -1.322   0.070   1.168  0.00  0.00     0.158 C 
ENDROOT
BRANCH   1   2
ATOM      2  C   UNL d   1      -1.798   0.212   2.617  0.00  0.00     0.160 C 
BRANCH   2   3
ATOM      3  C   UNL d   1      -1.270   1.509   3.244  0.00  0.00     0.209 C 
BRANCH   3   4
ATOM      4  O   UNL d   1      -1.691   1.557   4.610  0.00  0.00    -0.349 OA
BRANCH   4   5
ATOM      5  C   UNL d   1      -1.380   2.683   5.318  0.00  0.00     0.069 A 
ATOM      6  C   UNL d   1      -0.576   3.732   4.874  0.00  0.00     0.039 A 
ATOM      7  C   UNL d   1      -0.326   4.832   5.705  0.00  0.00     0.039 A 
ATOM      8  C   UNL d   1      -0.876   4.892   6.984  0.00  0.00     0.068 A 
ATOM      9  C   UNL d   1      -1.680   3.841   7.427  0.00  0.00     0.039 A 
ATOM     10  C   UNL d   1      -1.929   2.743   6.599  0.00  0.00     0.039 A 
BRANCH   8  11
ATOM     11  O   UNL d   1      -0.702   5.906   7.886  0.00  0.00    -0.356 OA
ATOM     12  C   UNL d   1       0.094   7.007   7.462  0.00  0.00     0.210 C 
ENDBRANCH   8  11
ENDBRANCH   4   5
ENDBRANCH   3   4
ENDBRANCH   2   3
BRANCH   2  13
ATOM     13  O   UNL d   1      -3.235   0.173   2.639  0.00  0.00    -0.392 OA
ATOM     14  H   UNL d   1      -3.563   0.991   2.225  0.00  0.00     0.210 HD
ENDBRANCH   2  13
ENDBRANCH   1   2
BRANCH   1  15
ATOM     15  N   UNL d   1      -1.875  -1.116   0.539  0.00  0.00    -0.340 N 
ATOM     16  C   UNL d   1      -1.559  -1.437  -0.757  0.00  0.00     0.320 C 
ATOM     17  N   UNL d   1      -2.214  -2.574  -1.173  0.00  0.00    -0.309 N 
ATOM     18  O   UNL d   1      -0.800  -0.741  -1.422  0.00  0.00    -0.247 OA
ATOM     19  H   UNL d   1      -2.993  -2.863  -0.600  0.00  0.00     0.170 HD
ATOM     20  H   UNL d   1      -2.346  -1.790   1.127  0.00  0.00     0.164 HD
BRANCH  17  21
ATOM     21  C   UNL d   1      -2.070  -3.213  -2.421  0.00  0.00     0.036 A 
ATOM     22  C   UNL d   1      -1.017  -2.942  -3.301  0.00  0.00     0.032 A 
ATOM     23  C   UNL d   1      -0.939  -3.590  -4.536  0.00  0.00     0.044 A 
ATOM     24  C   UNL d   1      -1.911  -4.514  -4.887  0.00  0.00     0.116 A 
ATOM     25  C   UNL d   1      -2.953  -4.816  -4.019  0.00  0.00     0.044 A 
ATOM     26  F   UNL d   1      -1.844  -5.125  -6.077  0.00  0.00    -0.206 F 
ATOM     27  C   UNL d   1      -3.028  -4.171  -2.781  0.00  0.00     0.032 A 
ENDBRANCH  17  21
ENDBRANCH   1  15
TORSDOF 8
