REMARK  3 active torsions:
REMARK  status: ('A' for Active; 'I' for Inactive)
REMARK    1  A    between atoms: C_9  and  N_1 
REMARK    2  A    between atoms: C_12  and  N_2 
REMARK    3  A    between atoms: C_17  and  C_12 
ROOT
ATOM      1  N   UNL d   1       0.899  -1.421   0.088  0.00  0.00    -0.247 N 
ATOM      2  N   UNL d   1       2.091   0.669   0.025  0.00  0.00    -0.260 N 
ATOM      3  C   UNL d   1       2.128  -0.740   0.141  0.00  0.00     0.338 A 
ATOM      4  C   UNL d   1      -0.276  -0.701   0.032  0.00  0.00     0.150 A 
ATOM      5  C   UNL d   1      -0.252   0.663  -0.033  0.00  0.00     0.147 A 
ATOM      6  C   UNL d   1       0.933   1.436  -0.053  0.00  0.00     0.282 A 
ATOM      7  N   UNL d   1      -1.564  -1.162  -0.011  0.00  0.00    -0.336 N 
ATOM      8  HN  UNL d   1      -1.875  -2.133  -0.002  1.00  0.00     0.168 HD
ATOM      9  N   UNL d   1      -1.558   1.058  -0.076  0.00  0.00    -0.345 N 
ATOM     10  C   UNL d   1      -2.316  -0.082  -0.064  0.00  0.00     0.182 A 
ATOM     11  O   UNL d   1       3.201  -1.326   0.339  0.00  0.00    -0.246 OA
ATOM     12  O   UNL d   1       0.911   2.661  -0.116  0.00  0.00    -0.265 OA
ATOM     13  H   UNL d   1      -1.894   2.013  -0.113  0.00  0.00     0.167 HD
ENDROOT
BRANCH   1  14
ATOM     14  C   UNL d   1       0.834  -2.842   0.137  0.00  0.00     0.047 A 
ATOM     15  C   UNL d   1      -0.040  -3.506   1.009  0.00  0.00     0.049 A 
ATOM     16  C   UNL d   1      -0.003  -4.897   1.115  0.00  0.00     0.013 A 
ATOM     17 BR   UNL d   1      -1.115  -5.771   2.371  0.00  0.00    -0.051 Br
ATOM     18  C   UNL d   1       0.868  -5.650   0.329  0.00  0.00     0.019 A 
ATOM     19  C   UNL d   1       1.715  -5.005  -0.568  0.00  0.00     0.004 A 
ATOM     20  C   UNL d   1       1.707  -3.610  -0.652  0.00  0.00     0.030 A 
ENDBRANCH   1  14
BRANCH   2  21
ATOM     21  C   UNL d   1       3.369   1.373   0.037  0.00  0.00     0.175 C 
BRANCH  21  22
ATOM     22  C   UNL d   1       3.986   1.451  -1.343  0.00  0.00    -0.040 A 
ATOM     23  C   UNL d   1       3.692   2.523  -2.198  0.00  0.00     0.009 A 
ATOM     24  C   UNL d   1       4.199   2.550  -3.499  0.00  0.00     0.001 A 
ATOM     25  C   UNL d   1       5.005   1.510  -3.959  0.00  0.00     0.000 A 
ATOM     26  C   UNL d   1       5.325   0.453  -3.111  0.00  0.00     0.001 A 
ATOM     27  C   UNL d   1       4.821   0.424  -1.810  0.00  0.00     0.009 A 
ENDBRANCH  21  22
ENDBRANCH   2  21
TORSDOF 3
