REMARK  5 active torsions:
REMARK  status: ('A' for Active; 'I' for Inactive)
REMARK    1  A    between atoms: C_7  and  N_1 
REMARK       I    between atoms: N_2  and  C_4 
REMARK    2  A    between atoms: C_3  and  N_2 
REMARK    3  A    between atoms: N_5  and  C_3 
REMARK    4  A    between atoms: C_4  and  C_11 
REMARK    5  A    between atoms: C_6  and  N_5 
ROOT
ATOM      1  N   UNL d   1      -2.625  -3.922   2.053  0.00  0.00    -0.299 N 
ATOM      2  C   UNL d   1      -2.534  -4.717   3.189  0.00  0.00     0.257 C 
ATOM      3  O   UNL d   1      -2.718  -5.930   3.167  0.00  0.00    -0.267 OA
ATOM      4  H   UNL d   1      -2.154  -3.033   2.042  0.00  0.00     0.171 HD
ENDROOT
BRANCH   1   5
ATOM      5  C   UNL d   1      -3.683  -3.939   1.163  0.00  0.00     0.179 C 
ATOM      6  S   UNL d   1      -5.154  -4.707   1.358  0.00  0.00    -0.040 SA
BRANCH   5   7
ATOM      7  N   UNL d   1      -3.536  -3.123   0.065  0.00  0.00    -0.333 N 
ATOM      8  H   UNL d   1      -4.429  -2.900  -0.365  0.00  0.00     0.168 HD
BRANCH   7   9
ATOM      9  C   UNL d   1      -2.465  -3.124  -0.869  0.00  0.00     0.040 A 
ATOM     10  C   UNL d   1      -2.536  -2.272  -1.993  0.00  0.00    -0.034 A 
ATOM     11  C   UNL d   1      -1.587  -2.414  -3.025  0.00  0.00     0.028 A 
ATOM     12  C   UNL d   1      -3.578  -1.200  -2.177  0.00  0.00     0.050 C 
ATOM     13  C   UNL d   1      -0.578  -3.368  -2.936  0.00  0.00     0.011 A 
ATOM     14  C   UNL d   1      -0.479  -4.177  -1.810  0.00  0.00     0.021 A 
ATOM     15 BR   UNL d   1       0.641  -3.584  -4.363  0.00  0.00    -0.051 Br
ATOM     16  C   UNL d   1      -1.417  -4.053  -0.780  0.00  0.00     0.031 A 
ENDBRANCH   7   9
ENDBRANCH   5   7
ENDBRANCH   1   5
BRANCH   2  17
ATOM     17  C   UNL d   1      -2.080  -4.090   4.474  0.00  0.00     0.032 A 
ATOM     18  C   UNL d   1      -2.288  -4.837   5.651  0.00  0.00     0.019 A 
ATOM     19  C   UNL d   1      -1.924  -4.332   6.904  0.00  0.00     0.037 A 
ATOM     20  C   UNL d   1      -1.339  -3.068   6.986  0.00  0.00     0.102 A 
ATOM     21  C   UNL d   1      -1.120  -2.312   5.826  0.00  0.00     0.037 A 
ATOM     22  C   UNL d   1      -1.494  -2.823   4.572  0.00  0.00     0.019 A 
BRANCH  20  23
ATOM     23  N   UNL d   1      -0.954  -2.527   8.295  0.00  0.00    -0.116 N 
ATOM     24  O   UNL d   1      -0.218  -1.529   8.310  0.00  0.00    -0.532 OA
ATOM     25  O   UNL d   1      -1.389  -3.097   9.306  0.00  0.00    -0.532 OA
ENDBRANCH  20  23
ENDBRANCH   2  17
TORSDOF 5
