REMARK  3 active torsions:
REMARK  status: ('A' for Active; 'I' for Inactive)
REMARK    1  A    between atoms: C_2  and  C_1 
REMARK    2  A    between atoms: O_3  and  C_1 
REMARK    3  A    between atoms: C_4  and  O_3 
ROOT
ATOM      1  C   UNL d   1      -1.200   0.989  -0.697  0.00  0.00     0.097 A 
ATOM      2  C   UNL d   1      -1.875   1.181  -1.907  0.00  0.00     0.045 A 
ATOM      3  C   UNL d   1      -3.273   1.211  -1.930  0.00  0.00     0.028 A 
ATOM      4  C   UNL d   1      -1.918   0.890   0.493  0.00  0.00     0.039 A 
ATOM      5 BR   UNL d   1      -0.943   1.395  -3.545  0.00  0.00    -0.048 Br
ATOM      6  C   UNL d   1      -4.004   1.052  -0.745  0.00  0.00    -0.061 A 
ATOM      7  C   UNL d   1      -3.316   0.910   0.466  0.00  0.00     0.009 A 
ATOM      8  C   UNL d   1      -5.504   1.042  -0.784  0.00  0.00     0.048 C 
ENDROOT
BRANCH   1   9
ATOM      9  O   UNL d   1       0.213   0.938  -0.734  0.00  0.00    -0.273 OA
BRANCH   9  10
ATOM     10  C   UNL d   1       0.938   0.055   0.071  0.00  0.00     0.305 C 
ATOM     11  O   UNL d   1       0.464  -0.624   0.976  0.00  0.00    -0.258 OA
BRANCH  10  12
ATOM     12  C   UNL d   1       2.342   0.019  -0.311  0.00  0.00     0.080 A 
ATOM     13  S   UNL d   1       2.956   0.830  -1.690  0.00  0.00    -0.096 SA
ATOM     14  C   UNL d   1       4.533   0.219  -1.440  0.00  0.00     0.050 A 
ATOM     15  C   UNL d   1       4.608  -0.571  -0.316  0.00  0.00     0.009 A 
ATOM     16  C   UNL d   1       3.346  -0.683   0.336  0.00  0.00     0.025 A 
ENDBRANCH  10  12
ENDBRANCH   9  10
ENDBRANCH   1   9
TORSDOF 3
