REMARK  4 active torsions:
REMARK  status: ('A' for Active; 'I' for Inactive)
REMARK    1  A    between atoms: N_7  and  C_1 
REMARK    2  A    between atoms: C_10  and  C_6 
REMARK       I    between atoms: C_8  and  N_7 
REMARK       I    between atoms: N_9  and  C_8 
REMARK    3  A    between atoms: C_11  and  N_9 
REMARK    4  A    between atoms: O_15  and  C_13 
ROOT
ATOM      1  N   UNL d   1      -0.362  -2.315   0.624  0.00  0.00    -0.293 N 
ATOM      2  C   UNL d   1       0.163  -3.552   0.168  0.00  0.00     0.326 C 
ATOM      3  N   UNL d   1       1.468  -3.756   0.488  0.00  0.00    -0.306 N 
ATOM      4  O   UNL d   1      -0.638  -4.332  -0.317  0.00  0.00    -0.247 OA
ATOM      5  H   UNL d   1      -1.367  -2.320   0.735  0.00  0.00     0.172 HD
ATOM      6  H   UNL d   1       1.851  -3.191   1.237  0.00  0.00     0.171 HD
ENDROOT
BRANCH   1   7
ATOM      7  C   UNL d   1       0.307  -1.105   0.697  0.00  0.00     0.127 A 
ATOM      8  C   UNL d   1       1.534  -0.757   0.165  0.00  0.00     0.077 A 
ATOM      9  C   UNL d   1       1.699   0.626   0.445  0.00  0.00     0.037 A 
ATOM     10  N   UNL d   1       0.656   1.094   1.145  0.00  0.00    -0.301 N 
ATOM     11  N   UNL d   1      -0.182   0.056   1.252  0.00  0.00    -0.281 N 
ATOM     12  HN  UNL d   1       0.530   2.035   1.516  1.00  0.00     0.187 HD
ATOM     13  C   UNL d   1      -1.444   0.245   1.922  0.00  0.00     0.179 C 
BRANCH   9  14
ATOM     14  C   UNL d   1       2.810   1.585   0.038  0.00  0.00    -0.007 C 
ATOM     15  C   UNL d   1       3.970   0.866  -0.678  0.00  0.00     0.021 C 
ATOM     16  C   UNL d   1       2.240   2.647  -0.929  0.00  0.00     0.021 C 
ATOM     17  C   UNL d   1       3.386   2.297   1.279  0.00  0.00     0.021 C 
ENDBRANCH   9  14
ENDBRANCH   1   7
BRANCH   3  18
ATOM     18  C   UNL d   1       2.231  -4.876   0.118  0.00  0.00     0.069 A 
ATOM     19  C   UNL d   1       3.226  -5.344   0.991  0.00  0.00     0.095 A 
ATOM     20  C   UNL d   1       4.157  -6.285   0.546  0.00  0.00     0.039 A 
ATOM     21  C   UNL d   1       4.084  -6.784  -0.755  0.00  0.00     0.003 A 
ATOM     22  C   UNL d   1       3.055  -6.372  -1.601  0.00  0.00     0.002 A 
ATOM     23  C   UNL d   1       2.116  -5.434  -1.161  0.00  0.00     0.032 A 
BRANCH  19  24
ATOM     24  O   UNL d   1       3.390  -4.891   2.276  0.00  0.00    -0.354 OA
ATOM     25  C   UNL d   1       2.213  -4.953   3.088  0.00  0.00     0.210 C 
ENDBRANCH  19  24
ENDBRANCH   3  18
TORSDOF 4
