REMARK  4 active torsions:
REMARK  status: ('A' for Active; 'I' for Inactive)
REMARK    1  A    between atoms: S_12  and  C_3 
REMARK    2  A    between atoms: C_17  and  S_12 
REMARK    3  A    between atoms: C_15  and  C_17 
REMARK    4  A    between atoms: O_20  and  C_15 
ROOT
ATOM      1  N   UNL d   1      -0.835   0.655  -0.025  0.00  0.00    -0.120 N 
ATOM      2  C   UNL d   1      -1.704  -0.421   0.071  0.00  0.00     0.720 C 
ATOM      3  C   UNL d   1      -1.675   1.742  -0.129  0.00  0.00     0.183 C 
ATOM      4  N   UNL d   1      -2.940   0.010   0.224  0.00  0.00    -0.128 N 
ATOM      5  HN  UNL d   1      -3.761  -0.567   0.406  1.00  0.00     0.205 HD
ATOM      6  N   UNL d   1      -2.923   1.379   0.095  0.00  0.00    -0.265 N 
ATOM      7  HN  UNL d   1      -3.729   2.001   0.161  1.00  0.00     0.189 HD
ATOM      8  C   UNL d   1       0.575   0.496  -0.006  0.00  0.00     0.087 A 
ATOM      9  C   UNL d   1       1.046  -0.834  -0.055  0.00  0.00     0.078 A 
ATOM     10  N   UNL d   1      -1.222  -1.686   0.018  0.00  0.00    -0.130 N 
ATOM     11  N   UNL d   1       0.133  -1.917   0.037  0.00  0.00    -0.284 N 
ATOM     12  C   UNL d   1       2.423  -1.075  -0.045  0.00  0.00     0.057 A 
ATOM     13  C   UNL d   1       1.476   1.560   0.090  0.00  0.00     0.035 A 
ATOM     14  C   UNL d   1       3.316  -0.004   0.013  0.00  0.00     0.036 A 
ATOM     15  C   UNL d   1       2.848   1.305   0.093  0.00  0.00     0.026 A 
ATOM     16 CL   UNL d   1       5.010  -0.303   0.022  0.00  0.00    -0.084 Cl
ATOM     17  H   UNL d   1      -1.832  -2.426   0.367  0.00  0.00     0.205 HD
ATOM     18  H   UNL d   1       0.454  -2.745  -0.470  0.00  0.00     0.187 HD
ENDROOT
BRANCH   3  19
ATOM     19  S   UNL d   1      -1.222   3.337  -0.624  0.00  0.00    -0.081 SA
BRANCH  19  20
ATOM     20  C   UNL d   1      -2.446   4.350   0.235  0.00  0.00     0.192 C 
BRANCH  20  21
ATOM     21  C   UNL d   1      -2.344   4.177   1.731  0.00  0.00     0.149 C 
ATOM     22  O   UNL d   1      -1.582   4.821   2.439  0.00  0.00    -0.649 OA
BRANCH  21  23
ATOM     23  O   UNL d   1      -3.151   3.214   2.235  0.00  0.00    -0.776 OA
ATOM     24  H   UNL d   1      -3.594   2.658   1.554  0.00  0.00     0.167 HD
ENDBRANCH  21  23
ENDBRANCH  20  21
ENDBRANCH  19  20
ENDBRANCH   3  19
TORSDOF 4
