REMARK  4 active torsions:
REMARK  status: ('A' for Active; 'I' for Inactive)
REMARK    1  A    between atoms: C_4  and  N_1 
REMARK    2  A    between atoms: C_2  and  C_7 
REMARK    3  A    between atoms: O_3  and  C_2 
REMARK    4  A    between atoms: C_5  and  O_3 
ROOT
ATOM      1  C   UNL d   1      -0.001  -0.025   5.133  0.00  0.00     0.293 C 
ATOM      2  O   UNL d   1      -0.828   0.669   4.569  0.00  0.00    -0.259 OA
ENDROOT
BRANCH   1   3
ATOM      3  C   UNL d   1       1.456   0.298   5.176  0.00  0.00     0.041 A 
ATOM      4  C   UNL d   1       2.406  -0.594   5.691  0.00  0.00     0.053 A 
ATOM      5  C   UNL d   1       3.763  -0.237   5.689  0.00  0.00     0.103 A 
ATOM      6  C   UNL d   1       4.181   1.004   5.188  0.00  0.00     0.036 A 
ATOM      7  C   UNL d   1       3.233   1.885   4.668  0.00  0.00     0.003 A 
ATOM      8  C   UNL d   1       1.881   1.532   4.657  0.00  0.00     0.018 A 
BRANCH   5   9
ATOM      9  N   UNL d   1       4.763  -1.180   6.208  0.00  0.00    -0.116 N 
ATOM     10  O   UNL d   1       4.366  -2.298   6.567  0.00  0.00    -0.532 OA
ATOM     11  O   UNL d   1       5.942  -0.805   6.251  0.00  0.00    -0.532 OA
ENDBRANCH   5   9
ENDBRANCH   1   3
BRANCH   1  12
ATOM     12  O   UNL d   1      -0.254  -1.182   5.795  0.00  0.00    -0.310 OA
BRANCH  12  13
ATOM     13  C   UNL d   1      -1.611  -1.667   5.723  0.00  0.00     0.164 C 
ATOM     14  C   UNL d   1      -2.598  -0.807   6.553  0.00  0.00     0.305 C 
ATOM     15  N   UNL d   1      -3.365  -1.618   7.537  0.00  0.00     0.090 N 
ATOM     16  C   UNL d   1      -2.407  -2.200   8.502  0.00  0.00     0.273 C 
ATOM     17  C   UNL d   1      -4.054  -2.718   6.827  0.00  0.00     0.273 C 
ATOM     18  C   UNL d   1      -1.342  -3.057   7.799  0.00  0.00     0.037 C 
ATOM     19  C   UNL d   1      -1.635  -3.106   6.287  0.00  0.00     0.020 C 
ATOM     20  C   UNL d   1      -3.060  -3.655   6.120  0.00  0.00     0.037 C 
ENDBRANCH  12  13
ENDBRANCH   1  12
TORSDOF 4
