REMARK  9 active torsions:
REMARK  status: ('A' for Active; 'I' for Inactive)
REMARK    1  A    between atoms: C_3  and  C_1 
REMARK    2  A    between atoms: S_4  and  C_2 
REMARK    3  A    between atoms: N_6  and  C_3 
REMARK    4  A    between atoms: C_11  and  S_4 
REMARK       I    between atoms: C_5  and  N_6 
REMARK    5  A    between atoms: C_21  and  C_5 
REMARK    6  A    between atoms: C_8  and  C_22 
REMARK    7  A    between atoms: O_15  and  C_8 
REMARK    8  A    between atoms: S_12  and  C_21 
REMARK    9  A    between atoms: C_22  and  S_12 
ROOT
ATOM      1  C   UNL d   1       0.240   1.127  -0.216  0.00  0.00    -0.002 A 
ATOM      2  C   UNL d   1       1.653   1.243  -0.221  0.00  0.00     0.015 A 
ATOM      3  C   UNL d   1      -0.315  -0.172  -0.168  0.00  0.00     0.043 A 
ATOM      4 CL   UNL d   1      -2.022  -0.457  -0.119  0.00  0.00    -0.084 Cl
ATOM      5  C   UNL d   1       2.454   0.088  -0.164  0.00  0.00     0.019 A 
ATOM      6  C   UNL d   1       1.883  -1.181  -0.129  0.00  0.00     0.003 A 
ATOM      7  C   UNL d   1       0.500  -1.310  -0.130  0.00  0.00     0.024 A 
ENDROOT
BRANCH   1   8
ATOM      8  C   UNL d   1      -0.651   2.347  -0.223  0.00  0.00     0.164 C 
BRANCH   8   9
ATOM      9  N   UNL d   1      -0.675   3.196   0.963  0.00  0.00    -0.356 N 
ATOM     10  C   UNL d   1      -0.092   2.934   2.176  0.00  0.00     0.227 C 
ATOM     11  O   UNL d   1       0.494   1.888   2.462  0.00  0.00    -0.273 OA
ATOM     12  H   UNL d   1      -1.263   4.017   0.894  0.00  0.00     0.162 HD
BRANCH  10  13
ATOM     13  C   UNL d   1      -0.204   4.049   3.201  0.00  0.00     0.177 C 
BRANCH  13  14
ATOM     14  S   UNL d   1      -1.359   3.591   4.532  0.00  0.00    -0.149 SA
BRANCH  14  15
ATOM     15  C   UNL d   1      -0.654   2.001   5.097  0.00  0.00     0.184 C 
BRANCH  15  16
ATOM     16  C   UNL d   1       0.771   2.127   5.584  0.00  0.00     0.149 C 
ATOM     17  O   UNL d   1       1.072   2.512   6.708  0.00  0.00    -0.649 OA
BRANCH  16  18
ATOM     18  O   UNL d   1       1.718   1.799   4.675  0.00  0.00    -0.776 OA
ATOM     19  H   UNL d   1       1.355   1.571   3.779  0.00  0.00     0.167 HD
ENDBRANCH  16  18
ENDBRANCH  15  16
ENDBRANCH  14  15
ENDBRANCH  13  14
ENDBRANCH  10  13
ENDBRANCH   8   9
ENDBRANCH   1   8
BRANCH   2  20
ATOM     20  S   UNL d   1       2.510   2.811  -0.066  0.00  0.00    -0.090 SA
BRANCH  20  21
ATOM     21  C   UNL d   1       2.984   3.296  -1.707  0.00  0.00     0.005 A 
ATOM     22  C   UNL d   1       3.240   4.660  -1.907  0.00  0.00     0.020 A 
ATOM     23  C   UNL d   1       3.704   5.132  -3.137  0.00  0.00     0.025 A 
ATOM     24  C   UNL d   1       3.918   4.236  -4.177  0.00  0.00     0.034 A 
ATOM     25  C   UNL d   1       3.660   2.878  -3.999  0.00  0.00     0.025 A 
ATOM     26 CL   UNL d   1       4.522   4.805  -5.683  0.00  0.00    -0.084 Cl
ATOM     27  C   UNL d   1       3.194   2.409  -2.767  0.00  0.00     0.020 A 
ENDBRANCH  20  21
ENDBRANCH   2  20
TORSDOF 9
