REMARK  6 active torsions:
REMARK  status: ('A' for Active; 'I' for Inactive)
REMARK    1  A    between atoms: N_3  and  C_1 
REMARK    2  A    between atoms: C_5  and  N_3 
REMARK    3  A    between atoms: N_11  and  C_5 
REMARK    4  A    between atoms: N_9  and  N_11 
REMARK    5  A    between atoms: C_14  and  C_16 
REMARK    6  A    between atoms: C_20  and  C_15 
ROOT
ATOM      1  C   UNL d   1      -2.888  -2.446   0.760  0.00  0.00     0.187 C 
ATOM      2  S   UNL d   1      -2.068  -3.875   0.962  0.00  0.00    -0.040 SA
ENDROOT
BRANCH   1   3
ATOM      3  N   UNL d   1      -2.411  -1.208   0.388  0.00  0.00    -0.356 N 
ATOM      4  H   UNL d   1      -3.241  -0.629   0.290  0.00  0.00     0.162 HD
BRANCH   3   5
ATOM      5  C   UNL d   1      -1.236  -0.784  -0.414  0.00  0.00     0.040 C 
ATOM      6  C   UNL d   1      -1.200   0.825  -0.562  0.00  0.00    -0.019 C 
ATOM      7  C   UNL d   1       0.139   1.184   0.169  0.00  0.00    -0.004 C 
ATOM      8  C   UNL d   1      -1.240   1.350  -2.011  0.00  0.00     0.018 C 
ATOM      9  C   UNL d   1      -2.354   1.569   0.165  0.00  0.00     0.018 C 
ATOM     10  C   UNL d   1       0.178   0.160   1.307  0.00  0.00     0.012 C 
ATOM     11  C   UNL d   1       1.377   0.750  -0.635  0.00  0.00     0.006 C 
ATOM     12  C   UNL d   1       0.104  -1.040   0.358  0.00  0.00     0.014 C 
ATOM     13  C   UNL d   1       1.343  -0.776  -0.523  0.00  0.00     0.007 C 
ATOM     14  C   UNL d   1      -1.324  -1.522  -1.761  0.00  0.00     0.039 C 
ENDBRANCH   3   5
ENDBRANCH   1   3
BRANCH   1  15
ATOM     15  N   UNL d   1      -4.270  -2.401   0.940  0.00  0.00    -0.277 N 
ATOM     16  H   UNL d   1      -4.776  -3.255   1.152  0.00  0.00     0.189 HD
BRANCH  15  17
ATOM     17  N   UNL d   1      -4.917  -1.234   0.661  0.00  0.00    -0.310 N 
ATOM     18  C   UNL d   1      -6.209  -1.236   0.649  0.00  0.00     0.107 C 
ATOM     19  HN  UNL d   1      -4.393  -0.381   0.466  1.00  0.00     0.186 HD
BRANCH  18  20
ATOM     20  C   UNL d   1      -6.878   0.038   0.327  0.00  0.00     0.019 C 
ATOM     21  C   UNL d   1      -8.206   0.181   0.239  0.00  0.00     0.013 C 
BRANCH  21  22
ATOM     22  C   UNL d   1      -8.829   1.474  -0.092  0.00  0.00    -0.036 A 
ATOM     23  C   UNL d   1      -8.204   2.418  -0.925  0.00  0.00     0.011 A 
ATOM     24  C   UNL d   1      -8.820   3.638  -1.218  0.00  0.00     0.001 A 
ATOM     25  C   UNL d   1     -10.075   3.926  -0.694  0.00  0.00     0.000 A 
ATOM     26  C   UNL d   1     -10.719   2.992   0.115  0.00  0.00     0.001 A 
ATOM     27  C   UNL d   1     -10.102   1.771   0.410  0.00  0.00     0.011 A 
ENDBRANCH  21  22
ENDBRANCH  18  20
ENDBRANCH  15  17
ENDBRANCH   1  15
TORSDOF 6
