REMARK  6 active torsions:
REMARK  status: ('A' for Active; 'I' for Inactive)
REMARK    1  A    between atoms: C_4  and  C_1 
REMARK    2  A    between atoms: N_22  and  C_2 
REMARK    3  A    between atoms: C_21  and  N_3 
REMARK    4  A    between atoms: C_16  and  C_10 
REMARK    5  A    between atoms: C_12  and  C_14 
REMARK    6  A    between atoms: C_13  and  C_15 
ROOT
ATOM      1  C   UNL d   1      -0.448  -2.767   0.120  0.00  0.00     0.090 A 
ATOM      2  N   UNL d   1      -1.158  -3.447  -0.768  0.00  0.00    -0.349 N 
ATOM      3  HN  UNL d   1      -1.652  -3.033  -1.558  1.00  0.00     0.166 HD
ATOM      4  C   UNL d   1      -1.134  -4.801  -0.470  0.00  0.00     0.050 A 
ATOM      5  S   UNL d   1       0.196  -3.721   1.399  0.00  0.00    -0.081 SA
ATOM      6  C   UNL d   1      -0.468  -5.126   0.694  0.00  0.00     0.082 A 
ENDROOT
BRANCH   1   7
ATOM      7  C   UNL d   1      -0.194  -1.290  -0.024  0.00  0.00     0.067 A 
ATOM      8  C   UNL d   1      -0.755  -0.493  -1.007  0.00  0.00     0.136 A 
ATOM      9  N   UNL d   1      -0.206   0.783  -0.830  0.00  0.00    -0.239 N 
ATOM     10  N   UNL d   1       0.726   0.789   0.159  0.00  0.00    -0.296 N 
ATOM     11  C   UNL d   1       0.670  -0.431   0.704  0.00  0.00     0.039 A 
ATOM     12  HN  UNL d   1       1.337   1.560   0.429  1.00  0.00     0.187 HD
ATOM     13  C   UNL d   1       1.522  -0.710   1.888  0.00  0.00     0.071 C 
BRANCH   8  14
ATOM     14  N   UNL d   1      -1.609  -0.838  -2.012  0.00  0.00    -0.383 N 
ATOM     15  H   UNL d   1      -1.759  -1.844  -2.141  0.00  0.00     0.157 HD
ATOM     16  H   UNL d   1      -1.550  -0.352  -2.905  0.00  0.00     0.157 HD
ENDBRANCH   8  14
BRANCH   9  17
ATOM     17  C   UNL d   1      -0.476   1.983  -1.546  0.00  0.00     0.058 A 
ATOM     18  C   UNL d   1      -1.726   2.215  -2.132  0.00  0.00     0.031 A 
ATOM     19  C   UNL d   1      -1.951   3.389  -2.855  0.00  0.00     0.002 A 
ATOM     20  C   UNL d   1      -0.930   4.328  -3.004  0.00  0.00     0.000 A 
ATOM     21  C   UNL d   1       0.309   4.112  -2.403  0.00  0.00     0.002 A 
ATOM     22  C   UNL d   1       0.532   2.954  -1.657  0.00  0.00     0.031 A 
ENDBRANCH   9  17
ENDBRANCH   1   7
BRANCH   4  23
ATOM     23  C   UNL d   1      -1.778  -5.796  -1.322  0.00  0.00    -0.007 A 
ATOM     24  C   UNL d   1      -1.226  -7.078  -1.473  0.00  0.00     0.030 A 
ATOM     25  C   UNL d   1      -1.859  -8.059  -2.253  0.00  0.00     0.049 A 
ATOM     26  C   UNL d   1      -3.059  -7.737  -2.902  0.00  0.00     0.032 A 
ATOM     27  C   UNL d   1      -3.622  -6.454  -2.784  0.00  0.00     0.049 A 
ATOM     28  C   UNL d   1      -2.966  -5.489  -1.996  0.00  0.00     0.030 A 
BRANCH  25  29
ATOM     29  C   UNL d   1      -1.243  -9.434  -2.364  0.00  0.00     0.417 C 
ATOM     30  F   UNL d   1      -1.984 -10.307  -3.099  0.00  0.00    -0.166 F 
ATOM     31  F   UNL d   1      -0.011  -9.405  -2.941  0.00  0.00    -0.166 F 
ATOM     32  F   UNL d   1      -1.072 -10.020  -1.146  0.00  0.00    -0.166 F 
ENDBRANCH  25  29
BRANCH  27  33
ATOM     33  C   UNL d   1      -4.922  -6.109  -3.474  0.00  0.00     0.417 C 
ATOM     34  F   UNL d   1      -5.439  -7.141  -4.197  0.00  0.00    -0.166 F 
ATOM     35  F   UNL d   1      -5.895  -5.747  -2.594  0.00  0.00    -0.166 F 
ATOM     36  F   UNL d   1      -4.792  -5.071  -4.344  0.00  0.00    -0.166 F 
ENDBRANCH  27  33
ENDBRANCH   4  23
TORSDOF 6
