REMARK  2 active torsions:
REMARK  status: ('A' for Active; 'I' for Inactive)
REMARK    1  A    between atoms: N_6  and  C_1 
REMARK       I    between atoms: C_5  and  N_8 
REMARK       I    between atoms: N_10  and  C_5 
REMARK    2  A    between atoms: C_22  and  N_10 
ROOT
ATOM      1  C   UNL d   1      -8.307   1.550   0.439  0.00  0.00     0.318 C 
ATOM      2  N   UNL d   1      -4.558   0.166   0.031  0.00  0.00    -0.360 N 
ATOM      3  N   UNL d   1      -6.956   1.798   0.633  0.00  0.00    -0.333 N 
ATOM      4  N   UNL d   1      -9.043   1.338   1.577  0.00  0.00    -0.339 N 
ATOM      5  O   UNL d   1      -8.820   1.549  -0.674  0.00  0.00    -0.247 OA
ATOM      6  C   UNL d   1      -5.335   0.803  -1.045  0.00  0.00     0.145 C 
ATOM      7  C   UNL d   1      -6.114   2.039  -0.555  0.00  0.00     0.147 C 
ATOM      8  C   UNL d   1      -5.673   0.344   2.238  0.00  0.00     0.040 C 
ATOM      9  C   UNL d   1      -5.339  -0.543   1.040  0.00  0.00     0.126 C 
ATOM     10  C   UNL d   1      -6.223   1.730   1.898  0.00  0.00     0.129 C 
ATOM     11  H   UNL d   1      -8.553   1.149   2.433  0.00  0.00     0.164 HD
ENDROOT
BRANCH   2  12
ATOM     12  C   UNL d   1      -3.192   0.227   0.032  0.00  0.00     0.147 A 
ATOM     13  N   UNL d   1      -2.486   0.886  -0.865  0.00  0.00    -0.336 N 
ATOM     14  C   UNL d   1      -1.124   0.752  -0.641  0.00  0.00     0.051 A 
ATOM     15  HN  UNL d   1      -2.892   1.427  -1.629  1.00  0.00     0.168 HD
ATOM     16  C   UNL d   1      -0.090   1.314  -1.421  0.00  0.00     0.032 A 
ATOM     17  C   UNL d   1      -0.776  -0.013   0.469  0.00  0.00     0.036 A 
ATOM     18  C   UNL d   1       1.250   1.099  -1.067  0.00  0.00     0.026 A 
ATOM     19  C   UNL d   1       1.561   0.330   0.050  0.00  0.00     0.035 A 
ATOM     20  C   UNL d   1       0.561  -0.242   0.836  0.00  0.00     0.045 A 
ATOM     21 CL   UNL d   1       3.212   0.080   0.474  0.00  0.00    -0.084 Cl
ATOM     22  S   UNL d   1      -2.211  -0.565   1.226  0.00  0.00    -0.052 SA
ENDBRANCH   2  12
BRANCH   4  23
ATOM     23  C   UNL d   1     -10.494   1.172   1.615  0.00  0.00     0.078 C 
ATOM     24  C   UNL d   1     -11.245   2.401   1.105  0.00  0.00     0.032 C 
ATOM     25  C   UNL d   1     -10.968  -0.098   0.910  0.00  0.00     0.032 C 
ENDBRANCH   4  23
TORSDOF 2
