REMARK  3 active torsions:
REMARK  status: ('A' for Active; 'I' for Inactive)
REMARK    1  A    between atoms: C_7  and  C_2 
REMARK    2  A    between atoms: O_14  and  C_8 
REMARK    3  A    between atoms: O_15  and  C_10 
ROOT
ATOM      1  C   UNL d   1      -0.189   0.691  -0.168  0.00  0.00     0.000 A 
ATOM      2  C   UNL d   1       1.165   1.331  -0.313  0.00  0.00     0.049 C 
ATOM      3  C   UNL d   1      -1.393   1.403  -0.132  0.00  0.00     0.054 A 
ATOM      4  N   UNL d   1       2.263   0.707  -0.018  0.00  0.00    -0.388 N 
ATOM      5  HN  UNL d   1       3.168   1.155  -0.162  1.00  0.00     0.159 HD
ATOM      6  C   UNL d   1      -0.215  -0.705  -0.028  0.00  0.00    -0.041 A 
ATOM      7  C   UNL d   1      -2.614   0.729   0.022  0.00  0.00     0.102 A 
ATOM      8  C   UNL d   1      -1.435  -1.373   0.153  0.00  0.00     0.047 A 
ATOM      9  C   UNL d   1      -2.637  -0.664   0.163  0.00  0.00     0.102 A 
ATOM     10  C   UNL d   1       2.184  -0.651   0.524  0.00  0.00     0.124 C 
ATOM     11  C   UNL d   1       1.075  -1.466  -0.123  0.00  0.00     0.059 C 
ENDROOT
BRANCH   2  12
ATOM     12  C   UNL d   1       1.321   2.741  -0.787  0.00  0.00    -0.007 A 
ATOM     13  C   UNL d   1       0.553   3.277  -1.822  0.00  0.00     0.037 A 
ATOM     14  C   UNL d   1       0.745   4.608  -2.201  0.00  0.00     0.035 A 
ATOM     15 CL   UNL d   1      -0.239   5.288  -3.440  0.00  0.00    -0.084 Cl
ATOM     16  C   UNL d   1       1.719   5.395  -1.589  0.00  0.00     0.024 A 
ATOM     17  C   UNL d   1       2.518   4.850  -0.586  0.00  0.00     0.003 A 
ATOM     18  C   UNL d   1       2.320   3.528  -0.186  0.00  0.00     0.014 A 
ENDBRANCH   2  12
BRANCH   7  19
ATOM     19  O   UNL d   1      -3.740   1.501  -0.077  0.00  0.00    -0.353 OA
ATOM     20  C   UNL d   1      -4.493   1.564   1.131  0.00  0.00     0.210 C 
ENDBRANCH   7  19
BRANCH   9  21
ATOM     21  O   UNL d   1      -3.753  -1.416   0.401  0.00  0.00    -0.353 OA
ATOM     22  C   UNL d   1      -4.789  -1.266  -0.564  0.00  0.00     0.210 C 
ENDBRANCH   9  21
TORSDOF 3
