REMARK  5 active torsions:
REMARK  status: ('A' for Active; 'I' for Inactive)
REMARK    1  A    between atoms: S_2  and  C_1 
REMARK    2  A    between atoms: C_6  and  S_2 
REMARK    3  A    between atoms: C_5  and  C_4 
REMARK       I    between atoms: N_10  and  C_5 
REMARK    4  A    between atoms: C_13  and  C_7 
REMARK    5  A    between atoms: O_14  and  C_13 
ROOT
ATOM      1  C   UNL d   1       1.367  -1.352  -0.515  0.00  0.00     0.017 A 
ATOM      2  C   UNL d   1       0.034  -0.825  -0.279  0.00  0.00     0.007 A 
ATOM      3  C   UNL d   1      -1.258  -1.485  -0.217  0.00  0.00     0.044 A 
ATOM      4  C   UNL d   1      -0.015   0.597  -0.077  0.00  0.00    -0.024 A 
ATOM      5  C   UNL d   1       2.501  -0.504  -0.499  0.00  0.00     0.020 A 
ATOM      6  C   UNL d   1      -2.457  -0.738  -0.084  0.00  0.00     0.018 A 
ATOM      7  C   UNL d   1       2.394   0.848  -0.237  0.00  0.00     0.002 A 
ATOM      8  C   UNL d   1      -2.443   0.636   0.055  0.00  0.00     0.002 A 
ATOM      9  C   UNL d   1      -1.227   1.291   0.078  0.00  0.00     0.012 A 
ATOM     10  C   UNL d   1       1.138   1.392  -0.041  0.00  0.00     0.012 A 
ENDROOT
BRANCH   1  11
ATOM     11  S   UNL d   1       1.798  -3.023  -1.027  0.00  0.00    -0.089 SA
BRANCH  11  12
ATOM     12  C   UNL d   1       2.046  -3.942   0.490  0.00  0.00     0.014 A 
ATOM     13  C   UNL d   1       1.753  -5.318   0.614  0.00  0.00    -0.018 A 
ATOM     14  C   UNL d   1       1.971  -5.940   1.869  0.00  0.00     0.011 A 
ATOM     15  C   UNL d   1       2.490  -5.244   2.957  0.00  0.00     0.001 A 
ATOM     16  C   UNL d   1       2.829  -3.910   2.813  0.00  0.00     0.001 A 
ATOM     17  C   UNL d   1       2.613  -3.273   1.592  0.00  0.00     0.019 A 
BRANCH  13  18
ATOM     18  C   UNL d   1       1.284  -6.272  -0.474  0.00  0.00     0.204 C 
BRANCH  18  19
ATOM     19  O   UNL d   1       0.922  -5.746  -1.734  0.00  0.00    -0.396 OA
ATOM     20  H   UNL d   1       0.393  -4.935  -1.569  0.00  0.00     0.209 HD
ENDBRANCH  18  19
ENDBRANCH  13  18
ENDBRANCH  11  12
ENDBRANCH   1  11
BRANCH   3  21
ATOM     21  C   UNL d   1      -1.504  -2.964  -0.291  0.00  0.00     0.252 C 
ATOM     22  O   UNL d   1      -1.000  -3.678  -1.151  0.00  0.00    -0.268 OA
ATOM     23  N   UNL d   1      -2.429  -3.452   0.618  0.00  0.00    -0.361 N 
ATOM     24  C   UNL d   1      -2.898  -4.817   0.586  0.00  0.00     0.149 C 
ATOM     25  H   UNL d   1      -2.784  -2.849   1.350  0.00  0.00     0.162 HD
ENDBRANCH   3  21
TORSDOF 5
