REMARK  4 active torsions:
REMARK  status: ('A' for Active; 'I' for Inactive)
REMARK    1  A    between atoms: O_2  and  C_1 
REMARK    2  A    between atoms: C_10  and  O_2 
REMARK    3  A    between atoms: C_4  and  C_10 
REMARK    4  A    between atoms: O_18  and  C_9 
ROOT
ATOM      1  C   UNL d   1       1.323   0.544  -0.002  0.00  0.00     0.124 A 
ATOM      2  C   UNL d   1       1.149  -0.836   0.124  0.00  0.00     0.041 A 
ATOM      3  N   UNL d   1      -0.094  -1.403   0.186  0.00  0.00    -0.367 N 
ATOM      4  HN  UNL d   1      -0.195  -2.416   0.259  1.00  0.00     0.165 HD
ATOM      5  C   UNL d   1       0.148   1.317  -0.022  0.00  0.00     0.102 A 
ATOM      6  C   UNL d   1      -1.183  -0.610   0.151  0.00  0.00     0.091 A 
ATOM      7  C   UNL d   1      -1.116   0.757   0.052  0.00  0.00     0.056 A 
ATOM      8  C   UNL d   1       2.226  -1.878   0.144  0.00  0.00     0.071 C 
ENDROOT
BRANCH   1   9
ATOM      9  O   UNL d   1       2.447   1.321  -0.113  0.00  0.00    -0.342 OA
BRANCH   9  10
ATOM     10  C   UNL d   1       3.727   0.723  -0.194  0.00  0.00     0.216 C 
BRANCH  10  11
ATOM     11  C   UNL d   1       4.766   1.793  -0.436  0.00  0.00    -0.012 A 
ATOM     12  C   UNL d   1       5.410   2.476   0.612  0.00  0.00     0.044 A 
ATOM     13  C   UNL d   1       6.416   3.410   0.348  0.00  0.00     0.048 A 
ATOM     14 CL   UNL d   1       5.007   2.193   2.268  0.00  0.00    -0.084 Cl
ATOM     15  C   UNL d   1       6.775   3.685  -0.968  0.00  0.00     0.035 A 
ATOM     16  C   UNL d   1       6.124   3.052  -2.023  0.00  0.00     0.024 A 
ATOM     17 CL   UNL d   1       8.036   4.809  -1.293  0.00  0.00    -0.084 Cl
ATOM     18  C   UNL d   1       5.121   2.116  -1.759  0.00  0.00     0.013 A 
ENDBRANCH  10  11
ENDBRANCH   9  10
ENDBRANCH   1   9
BRANCH   5  19
ATOM     19  O   UNL d   1       0.218   2.684  -0.122  0.00  0.00    -0.358 OA
ATOM     20  H   UNL d   1       1.175   2.893  -0.127  0.00  0.00     0.217 HD
ENDBRANCH   5  19
TORSDOF 4
