REMARK  5 active torsions:
REMARK  status: ('A' for Active; 'I' for Inactive)
REMARK       I    between atoms: N_2  and  C_1 
REMARK    1  A    between atoms: C_11  and  C_1 
REMARK    2  A    between atoms: C_5  and  N_2 
REMARK    3  A    between atoms: C_4  and  C_12 
REMARK    4  A    between atoms: O_14  and  C_4 
REMARK    5  A    between atoms: C_12  and  C_11 
ROOT
ATOM      1  C   UNL d   1       0.914  -0.788   0.403  0.00  0.00     0.222 C 
ATOM      2  N   UNL d   1       0.413  -1.032  -0.863  0.00  0.00    -0.327 N 
ATOM      3  O   UNL d   1       2.001  -1.160   0.841  0.00  0.00    -0.273 OA
ATOM      4  H   UNL d   1      -0.381  -0.464  -1.167  0.00  0.00     0.169 HD
ENDROOT
BRANCH   2   5
ATOM      5  C   UNL d   1       1.031  -1.823  -1.856  0.00  0.00     0.035 A 
ATOM      6  C   UNL d   1       2.016  -2.767  -1.563  0.00  0.00     0.037 A 
ATOM      7  C   UNL d   1       2.688  -3.465  -2.579  0.00  0.00    -0.054 A 
ATOM      8  C   UNL d   1       3.778  -4.428  -2.195  0.00  0.00     0.049 C 
ATOM      9  C   UNL d   1       2.335  -3.238  -3.922  0.00  0.00    -0.056 A 
ATOM     10  C   UNL d   1       1.298  -2.337  -4.209  0.00  0.00     0.009 A 
ATOM     11  C   UNL d   1       3.081  -3.901  -5.047  0.00  0.00     0.049 C 
ATOM     12  C   UNL d   1       0.644  -1.643  -3.184  0.00  0.00     0.030 A 
ENDBRANCH   2   5
BRANCH   1  13
ATOM     13  C   UNL d   1       0.012   0.061   1.276  0.00  0.00     0.113 C 
BRANCH  13  14
ATOM     14  C   UNL d   1       0.099   1.543   0.936  0.00  0.00     0.119 C 
BRANCH  14  15
ATOM     15  C   UNL d   1      -0.783   1.906  -0.229  0.00  0.00     0.139 C 
ATOM     16  O   UNL d   1      -1.292   1.095  -0.994  0.00  0.00    -0.650 OA
BRANCH  15  17
ATOM     17  O   UNL d   1      -0.936   3.239  -0.380  0.00  0.00    -0.776 OA
ATOM     18  H   UNL d   1      -0.451   3.774   0.276  0.00  0.00     0.167 HD
ENDBRANCH  15  17
ENDBRANCH  14  15
ENDBRANCH  13  14
ENDBRANCH   1  13
TORSDOF 5
