REMARK  6 active torsions:
REMARK  status: ('A' for Active; 'I' for Inactive)
REMARK    1  A    between atoms: C_20  and  C_1 
REMARK    2  A    between atoms: C_7  and  C_23 
REMARK       I    between atoms: N_12  and  C_7 
REMARK    3  A    between atoms: N_8  and  N_12 
REMARK    4  A    between atoms: S_16  and  C_20 
REMARK    5  A    between atoms: C_23  and  S_16 
REMARK    6  A    between atoms: C_18  and  C_17 
ROOT
ATOM      1  C   UNL d   1      -4.649   4.225  -0.119  0.00  0.00     0.245 C 
ATOM      2  N   UNL d   1      -3.578   5.081   0.093  0.00  0.00    -0.270 N 
ATOM      3  O   UNL d   1      -5.712   4.266   0.498  0.00  0.00    -0.271 OA
ATOM      4  H   UNL d   1      -2.726   4.956  -0.449  0.00  0.00     0.190 HD
ENDROOT
BRANCH   1   5
ATOM      5  C   UNL d   1      -4.457   3.250  -1.270  0.00  0.00     0.178 C 
BRANCH   5   6
ATOM      6  S   UNL d   1      -2.761   2.590  -1.405  0.00  0.00    -0.155 SA
BRANCH   6   7
ATOM      7  C   UNL d   1      -2.696   1.608   0.142  0.00  0.00     0.114 C 
BRANCH   7   8
ATOM      8  C   UNL d   1      -1.406   0.786   0.244  0.00  0.00    -0.036 A 
ATOM      9  C   UNL d   1      -0.168   1.432   0.537  0.00  0.00    -0.048 A 
ATOM     10  C   UNL d   1       1.042   0.694   0.470  0.00  0.00    -0.049 A 
ATOM     11  C   UNL d   1      -0.137   2.910   0.857  0.00  0.00     0.049 C 
ATOM     12  C   UNL d   1       2.391   1.347   0.696  0.00  0.00     0.049 C 
ATOM     13  C   UNL d   1       1.008  -0.704   0.223  0.00  0.00    -0.049 A 
ATOM     14  C   UNL d   1      -0.231  -1.380   0.079  0.00  0.00    -0.049 A 
ATOM     15  C   UNL d   1       2.328  -1.447   0.075  0.00  0.00     0.049 C 
ATOM     16  C   UNL d   1      -1.436  -0.629   0.037  0.00  0.00    -0.048 A 
ATOM     17  C   UNL d   1      -0.213  -2.889  -0.037  0.00  0.00     0.049 C 
ATOM     18  C   UNL d   1      -2.773  -1.296  -0.215  0.00  0.00     0.049 C 
ENDBRANCH   7   8
ENDBRANCH   6   7
ENDBRANCH   5   6
ENDBRANCH   1   5
BRANCH   2  19
ATOM     19  N   UNL d   1      -3.651   6.040   1.058  0.00  0.00    -0.308 N 
ATOM     20  C   UNL d   1      -2.595   6.772   1.209  0.00  0.00     0.118 C 
ATOM     21  HN  UNL d   1      -4.487   6.173   1.627  1.00  0.00     0.186 HD
BRANCH  20  22
ATOM     22  C   UNL d   1      -2.547   7.870   2.197  0.00  0.00    -0.018 A 
ATOM     23  C   UNL d   1      -3.643   8.146   3.022  0.00  0.00     0.038 A 
ATOM     24  C   UNL d   1      -3.583   9.211   3.930  0.00  0.00     0.056 A 
ATOM     25 CL   UNL d   1      -4.968   9.505   4.920  0.00  0.00    -0.083 Cl
ATOM     26  C   UNL d   1      -2.427   9.999   4.006  0.00  0.00     0.055 A 
ATOM     27  C   UNL d   1      -1.336   9.717   3.183  0.00  0.00     0.026 A 
ATOM     28 CL   UNL d   1      -2.290  11.341   5.089  0.00  0.00    -0.083 Cl
ATOM     29  C   UNL d   1      -1.392   8.655   2.279  0.00  0.00     0.014 A 
ENDBRANCH  20  22
ENDBRANCH   2  19
TORSDOF 6
