REMARK  4 active torsions:
REMARK  status: ('A' for Active; 'I' for Inactive)
REMARK    1  A    between atoms: C_2  and  C_1 
REMARK       I    between atoms: N_4  and  C_2 
REMARK    2  A    between atoms: C_3  and  N_6 
REMARK    3  A    between atoms: N_6  and  N_4 
REMARK    4  A    between atoms: O_15  and  C_12 
ROOT
ATOM      1  C   UNL d   1       0.340  -2.555  -0.187  0.00  0.00     0.271 C 
ATOM      2  N   UNL d   1      -1.008  -2.670   0.068  0.00  0.00    -0.264 N 
ATOM      3  O   UNL d   1       1.029  -3.544  -0.436  0.00  0.00    -0.266 OA
ATOM      4  H   UNL d   1      -1.606  -1.881   0.304  0.00  0.00     0.190 HD
ENDROOT
BRANCH   1   5
ATOM      5  C   UNL d   1       0.961  -1.187  -0.120  0.00  0.00     0.053 A 
ATOM      6  C   UNL d   1       0.281   0.043  -0.039  0.00  0.00     0.026 A 
ATOM      7  C   UNL d   1       1.007   1.240   0.040  0.00  0.00     0.023 A 
ATOM      8 BR   UNL d   1      -1.606   0.277  -0.064  0.00  0.00    -0.050 Br
ATOM      9  C   UNL d   1       2.399   1.230   0.026  0.00  0.00     0.038 A 
ATOM     10  C   UNL d   1       3.093   0.028  -0.070  0.00  0.00     0.069 A 
ATOM     11  C   UNL d   1       2.377  -1.169  -0.145  0.00  0.00     0.055 A 
BRANCH  10  12
ATOM     12  O   UNL d   1       4.452   0.166  -0.078  0.00  0.00    -0.356 OA
ATOM     13  C   UNL d   1       5.228  -1.023  -0.167  0.00  0.00     0.210 C 
ENDBRANCH  10  12
ENDBRANCH   1   5
BRANCH   2  14
ATOM     14  N   UNL d   1      -1.617  -3.929   0.034  0.00  0.00    -0.274 N 
ATOM     15  H   UNL d   1      -0.978  -4.709  -0.119  0.00  0.00     0.189 HD
BRANCH  14  16
ATOM     16  C   UNL d   1      -2.810  -4.136   0.680  0.00  0.00     0.184 C 
ATOM     17  S   UNL d   1      -3.724  -2.992   1.475  0.00  0.00    -0.040 SA
ATOM     18  N   UNL d   1      -3.255  -5.418   0.607  0.00  0.00    -0.375 N 
ATOM     19  H   UNL d   1      -2.969  -5.997  -0.171  0.00  0.00     0.158 HD
ATOM     20  H   UNL d   1      -4.190  -5.588   0.963  0.00  0.00     0.158 HD
ENDBRANCH  14  16
ENDBRANCH   2  14
TORSDOF 4
