REMARK  3 active torsions:
REMARK  status: ('A' for Active; 'I' for Inactive)
REMARK    1  A    between atoms: N_2  and  S_1 
REMARK    2  A    between atoms: C_5  and  S_1 
REMARK       I    between atoms: C_3  and  N_2 
REMARK       I    between atoms: N_4  and  C_3 
REMARK    3  A    between atoms: C_6  and  N_4 
ROOT
ATOM      1  N   UNL d   1      -0.586   2.013  -2.266  0.00  0.00    -0.232 N 
ATOM      2  C   UNL d   1       0.497   1.595  -1.484  0.00  0.00     0.330 C 
ATOM      3  N   UNL d   1       1.111   2.603  -0.823  0.00  0.00    -0.334 N 
ATOM      4  O   UNL d   1       0.809   0.424  -1.384  0.00  0.00    -0.246 OA
ATOM      5  H   UNL d   1      -0.960   2.947  -2.171  0.00  0.00     0.183 HD
ATOM      6  H   UNL d   1       0.949   3.551  -1.120  0.00  0.00     0.165 HD
ENDROOT
BRANCH   1   7
ATOM      7  S   UNL d   1      -1.651   0.963  -3.025  0.00  0.00     0.266 S 
ATOM      8  O   UNL d   1      -0.917   0.122  -3.948  0.00  0.00    -0.200 OA
ATOM      9  O   UNL d   1      -2.748   1.788  -3.481  0.00  0.00    -0.200 OA
BRANCH   7  10
ATOM     10  C   UNL d   1      -2.254  -0.009  -1.674  0.00  0.00     0.080 A 
ATOM     11  C   UNL d   1      -3.000   0.641  -0.686  0.00  0.00     0.026 A 
ATOM     12  C   UNL d   1      -3.335  -0.044   0.479  0.00  0.00     0.008 A 
ATOM     13  C   UNL d   1      -2.939  -1.376   0.655  0.00  0.00    -0.062 A 
ATOM     14  C   UNL d   1      -2.269  -2.041  -0.383  0.00  0.00     0.008 A 
ATOM     15  C   UNL d   1      -3.237  -2.063   1.956  0.00  0.00     0.048 C 
ATOM     16  C   UNL d   1      -1.925  -1.358  -1.553  0.00  0.00     0.026 A 
ENDBRANCH   7  10
ENDBRANCH   1   7
BRANCH   3  17
ATOM     17  C   UNL d   1       2.160   2.346   0.169  0.00  0.00     0.120 C 
ATOM     18  C   UNL d   1       2.767   3.665   0.620  0.00  0.00    -0.029 C 
ATOM     19  C   UNL d   1       1.939   4.546   1.350  0.00  0.00    -0.050 C 
ATOM     20  C   UNL d   1       4.119   3.979   0.485  0.00  0.00     0.010 C 
ATOM     21  C   UNL d   1       2.379   5.824   1.691  0.00  0.00     0.007 C 
ATOM     22  C   UNL d   1       0.711   3.939   1.994  0.00  0.00     0.039 C 
ATOM     23  C   UNL d   1       3.717   6.150   1.496  0.00  0.00     0.001 C 
ATOM     24  C   UNL d   1       4.596   5.205   0.959  0.00  0.00     0.001 C 
ATOM     25  C   UNL d   1       1.181   2.584   2.549  0.00  0.00     0.007 C 
ATOM     26  C   UNL d   1       1.589   1.622   1.415  0.00  0.00     0.030 C 
ENDBRANCH   3  17
TORSDOF 3
