REMARK  3 active torsions:
REMARK  status: ('A' for Active; 'I' for Inactive)
REMARK    1  A    between atoms: C_12  and  N_3 
REMARK    2  A    between atoms: C_14  and  N_5 
REMARK    3  A    between atoms: N_11  and  C_7 
ROOT
ATOM      1  C   UNL d   1      -0.027   0.647   0.067  0.00  0.00     0.104 C 
ATOM      2  C   UNL d   1      -0.044  -0.712   0.031  0.00  0.00     0.139 C 
ATOM      3  N   UNL d   1       1.188  -1.409  -0.034  0.00  0.00    -0.248 N 
ATOM      4  C   UNL d   1       2.433  -0.739  -0.173  0.00  0.00     0.342 C 
ATOM      5  N   UNL d   1       2.416   0.643  -0.022  0.00  0.00    -0.229 N 
ATOM      6  C   UNL d   1       1.277   1.307   0.381  0.00  0.00     0.272 C 
ATOM      7  C   UNL d   1      -1.265   1.445  -0.021  0.00  0.00     0.055 C 
ATOM      8  N   UNL d   1      -1.318  -1.345   0.103  0.00  0.00    -0.303 N 
ATOM      9  C   UNL d   1      -2.440   0.808  -0.100  0.00  0.00     0.105 C 
ATOM     10  C   UNL d   1      -2.521  -0.649  -0.036  0.00  0.00     0.251 C 
ATOM     11  O   UNL d   1       3.486  -1.359  -0.371  0.00  0.00    -0.245 OA
ATOM     12  O   UNL d   1       1.293   2.378   0.987  0.00  0.00    -0.266 OA
ATOM     13  O   UNL d   1      -3.634  -1.166  -0.077  0.00  0.00    -0.268 OA
ATOM     14  C   UNL d   1      -1.536  -2.734   0.479  0.00  0.00     0.161 C 
ENDROOT
BRANCH   3  15
ATOM     15  C   UNL d   1       1.323  -2.837  -0.131  0.00  0.00     0.045 A 
ATOM     16  C   UNL d   1       2.038  -3.523   0.868  0.00  0.00     0.030 A 
ATOM     17  C   UNL d   1       2.121  -4.915   0.852  0.00  0.00     0.002 A 
ATOM     18  C   UNL d   1       1.505  -5.632  -0.170  0.00  0.00     0.000 A 
ATOM     19  C   UNL d   1       0.842  -4.957  -1.197  0.00  0.00     0.002 A 
ATOM     20  C   UNL d   1       0.769  -3.561  -1.192  0.00  0.00     0.030 A 
ENDBRANCH   3  15
BRANCH   5  21
ATOM     21  C   UNL d   1       3.688   1.324   0.012  0.00  0.00     0.047 A 
ATOM     22  C   UNL d   1       4.599   1.165  -1.046  0.00  0.00     0.030 A 
ATOM     23  C   UNL d   1       5.838   1.813  -1.030  0.00  0.00     0.002 A 
ATOM     24  C   UNL d   1       6.193   2.617   0.050  0.00  0.00     0.000 A 
ATOM     25  C   UNL d   1       5.307   2.781   1.109  0.00  0.00     0.002 A 
ATOM     26  C   UNL d   1       4.062   2.146   1.087  0.00  0.00     0.030 A 
ENDBRANCH   5  21
BRANCH   7  27
ATOM     27  N   UNL d   1      -1.306   2.846  -0.092  0.00  0.00    -0.376 N 
ATOM     28  C   UNL d   1      -0.651   3.598  -1.184  0.00  0.00     0.149 C 
ATOM     29  C   UNL d   1      -1.346   4.957  -1.376  0.00  0.00     0.187 C 
ATOM     30  O   UNL d   1      -1.364   5.725  -0.163  0.00  0.00    -0.388 OA
ATOM     31  C   UNL d   1      -2.064   5.008   0.866  0.00  0.00     0.187 C 
ATOM     32  C   UNL d   1      -1.414   3.648   1.153  0.00  0.00     0.149 C 
ENDBRANCH   7  27
TORSDOF 3
