REMARK  5 active torsions:
REMARK  status: ('A' for Active; 'I' for Inactive)
REMARK    1  A    between atoms: C_2  and  S_1 
REMARK    2  A    between atoms: O_5  and  S_1 
REMARK    3  A    between atoms: C_12  and  O_5 
REMARK    4  A    between atoms: O_11  and  C_15 
REMARK    5  A    between atoms: C_16  and  O_11 
ROOT
ATOM      1  C   UNL d   1       0.700  -0.801   2.526  0.00  0.00     0.089 A 
ATOM      2  C   UNL d   1       1.637  -2.484   4.569  0.00  0.00     0.076 A 
ATOM      3  C   UNL d   1       2.039  -1.195   2.552  0.00  0.00     0.041 A 
ATOM      4  C   UNL d   1      -0.144  -1.217   3.554  0.00  0.00     0.041 A 
ATOM      5  C   UNL d   1       0.313  -2.056   4.572  0.00  0.00     0.040 A 
ATOM      6  C   UNL d   1       2.511  -2.021   3.579  0.00  0.00     0.040 A 
ENDROOT
BRANCH   1   7
ATOM      7  O   UNL d   1       0.299   0.019   1.501  0.00  0.00    -0.229 OA
BRANCH   7   8
ATOM      8  S   UNL d   1      -1.245  -0.026   0.950  0.00  0.00     0.304 S 
ATOM      9  O   UNL d   1      -1.470  -1.329   0.355  0.00  0.00    -0.193 OA
ATOM     10  O   UNL d   1      -2.161   0.479   1.960  0.00  0.00    -0.193 OA
BRANCH   8  11
ATOM     11  C   UNL d   1      -1.290   1.158  -0.372  0.00  0.00     0.109 A 
ATOM     12  C   UNL d   1      -1.043   2.509  -0.142  0.00  0.00     0.059 A 
ATOM     13  C   UNL d   1      -1.115   3.406  -1.213  0.00  0.00     0.050 A 
ATOM     14 CL   UNL d   1      -0.643   3.167   1.401  0.00  0.00    -0.083 Cl
ATOM     15  C   UNL d   1      -1.440   2.962  -2.500  0.00  0.00     0.041 A 
ATOM     16  C   UNL d   1      -1.712   1.609  -2.738  0.00  0.00    -0.039 A 
ATOM     17 CL   UNL d   1      -1.478   4.145  -3.757  0.00  0.00    -0.084 Cl
ATOM     18  C   UNL d   1      -1.636   0.712  -1.658  0.00  0.00     0.036 A 
ATOM     19  C   UNL d   1      -2.097   1.050  -4.080  0.00  0.00     0.050 C 
ENDBRANCH   8  11
ENDBRANCH   7   8
ENDBRANCH   1   7
BRANCH   2  20
ATOM     20  O   UNL d   1       2.007  -3.321   5.604  0.00  0.00    -0.311 OA
BRANCH  20  21
ATOM     21  C   UNL d   1       2.898  -4.341   5.355  0.00  0.00     0.076 A 
ATOM     22  C   UNL d   1       3.701  -4.756   6.421  0.00  0.00     0.037 A 
ATOM     23  C   UNL d   1       4.674  -5.738   6.217  0.00  0.00     0.003 A 
ATOM     24  C   UNL d   1       4.835  -6.311   4.955  0.00  0.00     0.000 A 
ATOM     25  C   UNL d   1       3.997  -5.937   3.907  0.00  0.00     0.003 A 
ATOM     26  C   UNL d   1       3.009  -4.980   4.118  0.00  0.00     0.037 A 
ENDBRANCH  20  21
ENDBRANCH   2  20
TORSDOF 5
