REMARK  6 active torsions:
REMARK  status: ('A' for Active; 'I' for Inactive)
REMARK    1  A    between atoms: N_5  and  C_1 
REMARK    2  A    between atoms: N_6  and  C_2 
REMARK    3  A    between atoms: C_9  and  N_5 
REMARK    4  A    between atoms: C_10  and  N_6 
REMARK    5  A    between atoms: C_11  and  C_9 
REMARK    6  A    between atoms: C_12  and  C_10 
ROOT
ATOM      1  C   UNL d   1       0.635  -1.458  -0.028  0.00  0.00     0.108 A 
ATOM      2  C   UNL d   1      -0.738  -1.365  -0.051  0.00  0.00     0.094 A 
ATOM      3  C   UNL d   1       0.781   0.019   0.063  0.00  0.00     0.251 A 
ATOM      4  C   UNL d   1      -0.695   0.117   0.045  0.00  0.00     0.247 A 
ATOM      5  O   UNL d   1       1.672   0.836   0.068  0.00  0.00    -0.281 OA
ATOM      6  O   UNL d   1      -1.451   1.060   0.072  0.00  0.00    -0.282 OA
ENDROOT
BRANCH   1   7
ATOM      7  N   UNL d   1       1.593  -2.368  -0.014  0.00  0.00    -0.381 N 
ATOM      8  H   UNL d   1       2.530  -2.065   0.263  0.00  0.00     0.160 HD
BRANCH   7   9
ATOM      9  C   UNL d   1       1.707  -3.375  -1.065  0.00  0.00     0.158 C 
BRANCH   9  10
ATOM     10  C   UNL d   1       1.578  -4.768  -0.510  0.00  0.00    -0.041 A 
ATOM     11  C   UNL d   1       0.321  -5.386  -0.463  0.00  0.00     0.009 A 
ATOM     12  C   UNL d   1       0.186  -6.694   0.001  0.00  0.00     0.001 A 
ATOM     13  C   UNL d   1       1.307  -7.399   0.427  0.00  0.00     0.000 A 
ATOM     14  C   UNL d   1       2.563  -6.794   0.401  0.00  0.00     0.001 A 
ATOM     15  C   UNL d   1       2.698  -5.481  -0.059  0.00  0.00     0.009 A 
ENDBRANCH   9  10
ENDBRANCH   7   9
ENDBRANCH   1   7
BRANCH   2  16
ATOM     16  N   UNL d   1      -1.799  -2.152  -0.057  0.00  0.00    -0.283 NA
ATOM     17  H   UNL d   1      -1.834  -2.897  -0.749  0.00  0.00     0.128 HD
BRANCH  16  18
ATOM     18  C   UNL d   1      -2.225  -2.742   1.228  0.00  0.00     0.131 C 
BRANCH  18  19
ATOM     19  C   UNL d   1      -3.705  -2.556   1.471  0.00  0.00    -0.045 A 
ATOM     20  C   UNL d   1      -4.412  -3.505   2.228  0.00  0.00     0.008 A 
ATOM     21  C   UNL d   1      -5.762  -3.312   2.533  0.00  0.00     0.001 A 
ATOM     22  C   UNL d   1      -6.421  -2.166   2.092  0.00  0.00     0.000 A 
ATOM     23  C   UNL d   1      -5.729  -1.211   1.351  0.00  0.00     0.001 A 
ATOM     24  C   UNL d   1      -4.380  -1.401   1.050  0.00  0.00     0.008 A 
ENDBRANCH  18  19
ENDBRANCH  16  18
ENDBRANCH   2  16
TORSDOF 6
