REMARK  4 active torsions:
REMARK  status: ('A' for Active; 'I' for Inactive)
REMARK    1  A    between atoms: C_10  and  C_4 
REMARK       I    between atoms: C_7  and  N_9 
REMARK    2  A    between atoms: C_11  and  C_7 
REMARK    3  A    between atoms: N_9  and  C_17 
REMARK    4  A    between atoms: O_25  and  C_20 
ROOT
ATOM      1  C   UNL d   1       3.701  -0.712  -0.284  0.00  0.00    -0.008 A 
ATOM      2  C   UNL d   1       4.589  -0.080   0.595  0.00  0.00     0.016 A 
ATOM      3  C   UNL d   1       4.207  -1.706  -1.125  0.00  0.00     0.016 A 
ATOM      4  C   UNL d   1       6.431  -1.474  -0.184  0.00  0.00     0.035 A 
ATOM      5  C   UNL d   1       5.943  -0.453   0.643  0.00  0.00     0.030 A 
ATOM      6  C   UNL d   1       5.551  -2.085  -1.075  0.00  0.00     0.030 A 
ENDROOT
BRANCH   4   7
ATOM      7  N   UNL d   1       7.792  -1.838  -0.062  0.00  0.00    -0.323 N 
ATOM      8  C   UNL d   1       8.434  -2.859  -0.749  0.00  0.00     0.256 C 
ATOM      9  O   UNL d   1       7.943  -3.597  -1.596  0.00  0.00    -0.267 OA
ATOM     10  H   UNL d   1       8.342  -1.276   0.572  0.00  0.00     0.169 HD
BRANCH   8  11
ATOM     11  C   UNL d   1       9.879  -3.042  -0.440  0.00  0.00     0.032 A 
ATOM     12  C   UNL d   1      10.413  -2.814   0.833  0.00  0.00     0.020 A 
ATOM     13  C   UNL d   1      11.785  -2.987   1.057  0.00  0.00     0.038 A 
ATOM     14  C   UNL d   1      12.622  -3.392   0.014  0.00  0.00     0.068 A 
ATOM     15  C   UNL d   1      12.078  -3.677  -1.238  0.00  0.00     0.038 A 
ATOM     16  C   UNL d   1      10.714  -3.499  -1.467  0.00  0.00     0.020 A 
BRANCH  14  17
ATOM     17  O   UNL d   1      13.969  -3.597   0.131  0.00  0.00    -0.356 OA
ATOM     18  C   UNL d   1      14.639  -2.705   1.016  0.00  0.00     0.210 C 
ENDBRANCH  14  17
ENDBRANCH   8  11
ENDBRANCH   4   7
BRANCH   1  19
ATOM     19  C   UNL d   1       2.292  -0.339  -0.311  0.00  0.00     0.060 A 
ATOM     20  N   UNL d   1       1.733   0.618   0.530  0.00  0.00    -0.335 N 
ATOM     21  C   UNL d   1       0.477   0.643   0.182  0.00  0.00     0.147 A 
ATOM     22  HN  UNL d   1       2.197   1.172   1.250  1.00  0.00     0.168 HD
ATOM     23  N   UNL d   1       0.195  -0.226  -0.816  0.00  0.00    -0.335 N 
ATOM     24  S   UNL d   1      -0.903   1.512   0.718  0.00  0.00    -0.092 SA
ATOM     25  C   UNL d   1       1.327  -0.878  -1.155  0.00  0.00     0.123 A 
ATOM     26  C   UNL d   1      -1.152  -0.245  -1.332  0.00  0.00     0.141 C 
ATOM     27  C   UNL d   1      -2.025   0.444  -0.280  0.00  0.00     0.102 C 
ENDBRANCH   1  19
TORSDOF 4
