REMARK  9 active torsions:
REMARK  status: ('A' for Active; 'I' for Inactive)
REMARK    1  A    between atoms: C_22  and  N_1 
REMARK    2  A    between atoms: S_13  and  C_2 
REMARK    3  A    between atoms: O_21  and  C_3 
REMARK    4  A    between atoms: C_8  and  C_9 
REMARK    5  A    between atoms: C_12  and  C_17 
REMARK    6  A    between atoms: C_17  and  S_13 
REMARK    7  A    between atoms: C_24  and  C_22 
REMARK    8  A    between atoms: C_26  and  C_24 
REMARK    9  A    between atoms: C_25  and  C_26 
ROOT
ATOM      1  N   UNL d   1      -0.299  -1.152  -0.004  0.00  0.00    -0.291 N 
ATOM      2  C   UNL d   1       0.922  -0.544   0.134  0.00  0.00     0.164 A 
ATOM      3  C   UNL d   1      -1.202  -0.117  -0.049  0.00  0.00     0.240 A 
ATOM      4  N   UNL d   1       0.772   0.761   0.139  0.00  0.00    -0.277 N 
ATOM      5  HN  UNL d   1       1.519   1.451   0.215  1.00  0.00     0.189 HD
ATOM      6  N   UNL d   1      -0.571   1.031   0.022  0.00  0.00    -0.263 N 
ATOM      7  HN  UNL d   1      -0.999   1.957  -0.004  1.00  0.00     0.190 HD
ENDROOT
BRANCH   2   8
ATOM      8  S   UNL d   1       2.430  -1.381   0.236  0.00  0.00    -0.086 SA
BRANCH   8   9
ATOM      9  C   UNL d   1       3.540  -0.051   0.813  0.00  0.00     0.141 C 
BRANCH   9  10
ATOM     10  C   UNL d   1       3.495   0.247   2.302  0.00  0.00     0.040 A 
ATOM     11  N   UNL d   1       3.022  -0.726   3.133  0.00  0.00    -0.366 N 
ATOM     12  C   UNL d   1       3.039  -0.501   4.467  0.00  0.00     0.104 A 
ATOM     13  HN  UNL d   1       2.663  -1.604   2.758  1.00  0.00     0.165 HD
ATOM     14  C   UNL d   1       3.530   0.655   5.052  0.00  0.00     0.064 A 
ATOM     15  C   UNL d   1       4.037   1.639   4.197  0.00  0.00     0.043 A 
ATOM     16  C   UNL d   1       4.030   1.435   2.814  0.00  0.00     0.058 A 
ATOM     17 CL   UNL d   1       4.726   2.657   1.816  0.00  0.00    -0.082 Cl
BRANCH  14  18
ATOM     18  C   UNL d   1       3.515   0.793   6.539  0.00  0.00     0.418 C 
ATOM     19  F   UNL d   1       4.037   1.969   6.982  0.00  0.00    -0.166 F 
ATOM     20  F   UNL d   1       2.257   0.722   7.056  0.00  0.00    -0.166 F 
ATOM     21  F   UNL d   1       4.228  -0.188   7.158  0.00  0.00    -0.166 F 
ENDBRANCH  14  18
ENDBRANCH   9  10
ENDBRANCH   8   9
ENDBRANCH   2   8
BRANCH   1  22
ATOM     22  C   UNL d   1      -0.624  -2.563   0.006  0.00  0.00     0.135 C 
BRANCH  22  23
ATOM     23  C   UNL d   1      -1.014  -3.138  -1.360  0.00  0.00     0.020 C 
BRANCH  23  24
ATOM     24  C   UNL d   1       0.146  -3.364  -2.337  0.00  0.00     0.001 C 
BRANCH  24  25
ATOM     25  C   UNL d   1       1.153  -4.404  -1.841  0.00  0.00    -0.004 C 
ATOM     26  C   UNL d   1       2.264  -4.643  -2.852  0.00  0.00     0.005 C 
ENDBRANCH  24  25
ENDBRANCH  23  24
ENDBRANCH  22  23
ENDBRANCH   1  22
BRANCH   3  27
ATOM     27  O   UNL d   1      -2.518  -0.212  -0.143  0.00  0.00    -0.331 OA
ATOM     28  H   UNL d   1      -2.783  -1.143  -0.147  0.00  0.00     0.221 HD
ENDBRANCH   3  27
TORSDOF 9
