REMARK  3 active torsions:
REMARK  status: ('A' for Active; 'I' for Inactive)
REMARK    1  A    between atoms: C_8  and  C_3 
REMARK    2  A    between atoms: O_11  and  C_4 
REMARK    3  A    between atoms: C_9  and  C_10 
ROOT
ATOM      1  N   UNL d   1      -0.005  -0.588  -0.903  0.00  0.00    -0.305 N 
ATOM      2  HN  UNL d   1      -0.027  -1.215  -1.708  1.00  0.00     0.171 HD
ATOM      3  C   UNL d   1       0.991  -0.435   0.045  0.00  0.00     0.133 A 
ATOM      4  C   UNL d   1      -0.909   0.268  -0.511  0.00  0.00     0.239 A 
ATOM      5  N   UNL d   1       0.705   0.474   0.997  0.00  0.00    -0.280 N 
ATOM      6  HN  UNL d   1       1.262   0.756   1.803  1.00  0.00     0.189 HD
ATOM      7  N   UNL d   1      -0.504   0.913   0.611  0.00  0.00    -0.259 N 
ATOM      8  C   UNL d   1      -1.162   1.958   1.345  0.00  0.00     0.181 C 
ENDROOT
BRANCH   3   9
ATOM      9  C   UNL d   1       2.255  -1.163   0.003  0.00  0.00     0.009 A 
ATOM     10  C   UNL d   1       2.555  -2.062  -1.022  0.00  0.00     0.016 A 
ATOM     11  C   UNL d   1       3.798  -2.716  -1.056  0.00  0.00     0.009 A 
ATOM     12  C   UNL d   1       4.778  -2.493  -0.067  0.00  0.00    -0.051 A 
ATOM     13  C   UNL d   1       4.453  -1.599   0.963  0.00  0.00     0.009 A 
ATOM     14  C   UNL d   1       3.217  -0.947   0.997  0.00  0.00     0.016 A 
BRANCH  12  15
ATOM     15  C   UNL d   1       6.140  -3.207  -0.126  0.00  0.00    -0.024 C 
ATOM     16  C   UNL d   1       7.087  -2.829   1.038  0.00  0.00     0.019 C 
ATOM     17  C   UNL d   1       5.931  -4.734  -0.066  0.00  0.00     0.019 C 
ATOM     18  C   UNL d   1       6.868  -2.844  -1.437  0.00  0.00     0.019 C 
ENDBRANCH  12  15
ENDBRANCH   3   9
BRANCH   4  19
ATOM     19  O   UNL d   1      -2.046   0.469  -1.147  0.00  0.00    -0.331 OA
ATOM     20  H   UNL d   1      -1.975  -0.157  -1.891  0.00  0.00     0.221 HD
ENDBRANCH   4  19
TORSDOF 3
