REMARK  6 active torsions:
REMARK  status: ('A' for Active; 'I' for Inactive)
REMARK    1  A    between atoms: C_3  and  N_1 
REMARK    2  A    between atoms: C_2  and  C_6 
REMARK       I    between atoms: N_12  and  C_2 
REMARK    3  A    between atoms: C_19  and  N_12 
REMARK    4  A    between atoms: O_20  and  C_13 
REMARK    5  A    between atoms: C_14  and  C_21 
REMARK    6  A    between atoms: C_21  and  C_19 
ROOT
ATOM      1  C   UNL d   1      -1.988  -4.815  -0.029  0.00  0.00     0.251 C 
ATOM      2  O   UNL d   1      -2.991  -4.868  -0.734  0.00  0.00    -0.268 OA
ATOM      3  N   UNL d   1      -1.557  -5.894   0.719  0.00  0.00    -0.357 N 
ATOM      4  H   UNL d   1      -0.696  -5.863   1.242  0.00  0.00     0.162 HD
ENDROOT
BRANCH   3   5
ATOM      5  C   UNL d   1      -2.296  -7.147   0.678  0.00  0.00     0.127 C 
BRANCH   5   6
ATOM      6  C   UNL d   1      -1.682  -8.224   1.575  0.00  0.00     0.058 C 
BRANCH   6   7
ATOM      7  C   UNL d   1      -2.452  -9.521   1.516  0.00  0.00    -0.057 A 
ATOM      8  C   UNL d   1      -2.143 -10.488   0.552  0.00  0.00     0.010 A 
ATOM      9  C   UNL d   1      -2.882 -11.672   0.476  0.00  0.00     0.037 A 
ATOM     10  C   UNL d   1      -3.928 -11.915   1.367  0.00  0.00     0.068 A 
ATOM     11  C   UNL d   1      -4.247 -10.953   2.324  0.00  0.00     0.037 A 
ATOM     12  C   UNL d   1      -3.513  -9.763   2.398  0.00  0.00     0.010 A 
BRANCH  10  13
ATOM     13  O   UNL d   1      -4.595 -13.095   1.180  0.00  0.00    -0.356 OA
ATOM     14  C   UNL d   1      -5.205 -13.648   2.341  0.00  0.00     0.210 C 
ENDBRANCH  10  13
ENDBRANCH   6   7
ENDBRANCH   5   6
ENDBRANCH   3   5
BRANCH   1  15
ATOM     15  C   UNL d   1      -1.195  -3.545   0.028  0.00  0.00     0.032 A 
ATOM     16  C   UNL d   1      -1.635  -2.467  -0.762  0.00  0.00     0.019 A 
ATOM     17  C   UNL d   1      -0.952  -1.246  -0.765  0.00  0.00     0.037 A 
ATOM     18  C   UNL d   1       0.189  -1.096   0.033  0.00  0.00     0.102 A 
ATOM     19  C   UNL d   1       0.638  -2.158   0.826  0.00  0.00     0.037 A 
ATOM     20  C   UNL d   1      -0.053  -3.378   0.825  0.00  0.00     0.019 A 
BRANCH  18  21
ATOM     21  N   UNL d   1       0.914   0.179   0.041  0.00  0.00    -0.116 N 
ATOM     22  O   UNL d   1       1.915   0.265   0.767  0.00  0.00    -0.532 OA
ATOM     23  O   UNL d   1       0.486   1.092  -0.680  0.00  0.00    -0.532 OA
ENDBRANCH  18  21
ENDBRANCH   1  15
TORSDOF 6
