REMARK  8 active torsions:
REMARK  status: ('A' for Active; 'I' for Inactive)
REMARK    1  A    between atoms: S_10  and  C_1 
REMARK    2  A    between atoms: S_14  and  C_5 
REMARK    3  A    between atoms: C_8  and  C_9 
REMARK    4  A    between atoms: C_12  and  C_8 
REMARK    5  A    between atoms: C_9  and  S_10 
REMARK    6  A    between atoms: C_11  and  C_9 
REMARK    7  A    between atoms: O_16  and  C_11 
REMARK    8  A    between atoms: O_17  and  C_12 
ROOT
ATOM      1  C   UNL d   1      -2.801   1.475  -0.154  0.00  0.00     0.162 C 
ENDROOT
BRANCH   1   2
ATOM      2  C   UNL d   1      -2.579   2.271  -1.443  0.00  0.00     0.136 C 
BRANCH   2   3
ATOM      3  C   UNL d   1      -3.047   3.688  -1.250  0.00  0.00     0.141 C 
ATOM      4  O   UNL d   1      -3.223   4.195  -0.148  0.00  0.00    -0.650 OA
BRANCH   3   5
ATOM      5  O   UNL d   1      -3.269   4.349  -2.402  0.00  0.00    -0.776 OA
ATOM      6  H   UNL d   1      -3.117   3.828  -3.214  0.00  0.00     0.167 HD
ENDBRANCH   3   5
ENDBRANCH   2   3
ENDBRANCH   1   2
BRANCH   1   7
ATOM      7  S   UNL d   1      -2.135  -0.236  -0.306  0.00  0.00    -0.087 SA
BRANCH   7   8
ATOM      8  C   UNL d   1      -0.420   0.042  -0.432  0.00  0.00     0.130 A 
ATOM      9  S   UNL d   1       0.651  -1.122  -1.093  0.00  0.00    -0.038 SA
ATOM     10  C   UNL d   1       1.903   0.021  -0.861  0.00  0.00     0.126 A 
ATOM     11  N   UNL d   1       1.514   1.154  -0.320  0.00  0.00    -0.287 N 
ATOM     12  N   UNL d   1       0.154   1.165  -0.064  0.00  0.00    -0.287 N 
ATOM     13  HN  UNL d   1       2.141   1.933  -0.114  1.00  0.00     0.188 HD
ATOM     14  HN  UNL d   1      -0.342   1.950   0.359  1.00  0.00     0.188 HD
BRANCH  10  15
ATOM     15  S   UNL d   1       3.557  -0.272  -1.323  0.00  0.00    -0.117 SA
ATOM     16  H   UNL d   1       3.370  -1.488  -1.855  0.00  0.00     0.109 HD
ENDBRANCH  10  15
ENDBRANCH   7   8
ENDBRANCH   1   7
BRANCH   1  17
ATOM     17  C   UNL d   1      -4.308   1.370   0.110  0.00  0.00     0.154 C 
ATOM     18  O   UNL d   1      -5.037   0.494  -0.330  0.00  0.00    -0.649 OA
BRANCH  17  19
ATOM     19  O   UNL d   1      -4.817   2.401   0.832  0.00  0.00    -0.775 OA
ATOM     20  H   UNL d   1      -4.203   3.165   0.963  0.00  0.00     0.167 HD
ENDBRANCH  17  19
ENDBRANCH   1  17
TORSDOF 8
