REMARK  5 active torsions:
REMARK  status: ('A' for Active; 'I' for Inactive)
REMARK    1  A    between atoms: C_2  and  S_1 
REMARK    2  A    between atoms: N_3  and  S_1 
REMARK    3  A    between atoms: C_4  and  N_3 
REMARK    4  A    between atoms: O_21  and  C_10 
REMARK    5  A    between atoms: O_22  and  C_14 
ROOT
ATOM      1  N   UNL d   1       0.500  -1.060   0.999  0.00  0.00    -0.178 NA
ATOM      2  H   UNL d   1       1.223  -0.607   0.429  0.00  0.00     0.146 HD
ENDROOT
BRANCH   1   3
ATOM      3  S   UNL d   1       0.193  -0.017   2.280  0.00  0.00     0.247 S 
ATOM      4  O   UNL d   1       0.197  -0.741   3.534  0.00  0.00    -0.205 OA
ATOM      5  O   UNL d   1       1.064   1.120   2.060  0.00  0.00    -0.205 OA
BRANCH   3   6
ATOM      6  C   UNL d   1      -1.455   0.625   2.097  0.00  0.00     0.098 A 
ATOM      7  C   UNL d   1      -1.783   1.632   3.032  0.00  0.00     0.052 A 
ATOM      8  C   UNL d   1      -3.048   2.224   3.041  0.00  0.00     0.057 A 
ATOM      9 CL   UNL d   1      -3.360   3.450   4.215  0.00  0.00    -0.083 Cl
ATOM     10  C   UNL d   1      -4.003   1.813   2.115  0.00  0.00     0.057 A 
ATOM     11  C   UNL d   1      -3.679   0.826   1.180  0.00  0.00     0.051 A 
ATOM     12 CL   UNL d   1      -5.596   2.477   2.063  0.00  0.00    -0.082 Cl
ATOM     13  C   UNL d   1      -2.406   0.232   1.156  0.00  0.00     0.058 A 
ATOM     14 CL   UNL d   1      -2.183  -0.928  -0.096  0.00  0.00    -0.083 Cl
ENDBRANCH   3   6
ENDBRANCH   1   3
BRANCH   1  15
ATOM     15  C   UNL d   1       0.906  -2.402   1.322  0.00  0.00     0.059 A 
ATOM     16  C   UNL d   1      -0.044  -3.369   1.652  0.00  0.00     0.065 A 
ATOM     17  C   UNL d   1       0.322  -4.710   1.865  0.00  0.00     0.091 A 
ATOM     18  C   UNL d   1       1.681  -5.047   1.785  0.00  0.00     0.070 A 
ATOM     19  C   UNL d   1       2.643  -4.055   1.510  0.00  0.00     0.065 A 
ATOM     20 CL   UNL d   1       2.331  -6.637   1.993  0.00  0.00    -0.081 Cl
ATOM     21  C   UNL d   1       2.264  -2.734   1.273  0.00  0.00     0.092 A 
BRANCH  17  22
ATOM     22  O   UNL d   1      -0.774  -5.485   2.124  0.00  0.00    -0.354 OA
ATOM     23  C   UNL d   1      -0.668  -6.896   2.192  0.00  0.00     0.210 C 
ENDBRANCH  17  22
BRANCH  21  24
ATOM     24  O   UNL d   1       3.114  -1.702   0.970  0.00  0.00    -0.354 OA
ATOM     25  C   UNL d   1       4.481  -2.030   0.752  0.00  0.00     0.210 C 
ENDBRANCH  21  24
ENDBRANCH   1  15
TORSDOF 5
