REMARK  5 active torsions:
REMARK  status: ('A' for Active; 'I' for Inactive)
REMARK    1  A    between atoms: C_7  and  N_1 
REMARK    2  A    between atoms: C_3  and  C_6 
REMARK    3  A    between atoms: S_5  and  C_8 
REMARK    4  A    between atoms: C_12  and  S_5 
REMARK    5  A    between atoms: C_14  and  C_12 
ROOT
ATOM      1  C   UNL d   1       2.681   0.097  -0.405  0.00  0.00     0.049 A 
ATOM      2  C   UNL d   1       3.361   1.285  -0.069  0.00  0.00     0.027 A 
ATOM      3  C   UNL d   1       3.398  -1.119  -0.388  0.00  0.00     0.031 A 
ATOM      4  C   UNL d   1       4.692   1.204   0.384  0.00  0.00     0.021 A 
ATOM      5  C   UNL d   1       5.370  -0.015   0.429  0.00  0.00     0.002 A 
ATOM      6  C   UNL d   1       4.728  -1.176   0.026  0.00  0.00     0.002 A 
ENDROOT
BRANCH   2   7
ATOM      7  S   UNL d   1       2.588   2.910  -0.171  0.00  0.00    -0.123 SA
BRANCH   7   8
ATOM      8  C   UNL d   1       3.822   3.775  -1.204  0.00  0.00     0.118 C 
BRANCH   8   9
ATOM      9  C   UNL d   1       3.525   5.244  -1.397  0.00  0.00    -0.049 A 
ATOM     10  C   UNL d   1       4.189   6.214  -0.626  0.00  0.00     0.009 A 
ATOM     11  C   UNL d   1       3.976   7.576  -0.858  0.00  0.00     0.024 A 
ATOM     12  C   UNL d   1       3.090   7.978  -1.854  0.00  0.00     0.034 A 
ATOM     13  C   UNL d   1       2.407   7.030  -2.612  0.00  0.00     0.024 A 
ATOM     14 CL   UNL d   1       2.848   9.654  -2.156  0.00  0.00    -0.084 Cl
ATOM     15  C   UNL d   1       2.621   5.668  -2.383  0.00  0.00     0.009 A 
ENDBRANCH   8   9
ENDBRANCH   7   8
ENDBRANCH   2   7
BRANCH   1  16
ATOM     16  N   UNL d   1       1.321   0.064  -0.791  0.00  0.00    -0.363 N 
ATOM     17  C   UNL d   1       0.547  -0.659  -0.037  0.00  0.00     0.107 C 
ATOM     18  HN  UNL d   1       0.971   0.573  -1.603  1.00  0.00     0.165 HD
BRANCH  17  19
ATOM     19  C   UNL d   1      -0.833  -0.910  -0.371  0.00  0.00     0.020 A 
ATOM     20  S   UNL d   1      -1.665  -2.151   0.469  0.00  0.00    -0.101 SA
ATOM     21  C   UNL d   1      -3.078  -1.927  -0.468  0.00  0.00     0.050 A 
ATOM     22  C   UNL d   1      -2.932  -0.906  -1.381  0.00  0.00     0.008 A 
ATOM     23  C   UNL d   1      -1.632  -0.321  -1.328  0.00  0.00     0.021 A 
ENDBRANCH  17  19
ENDBRANCH   1  16
TORSDOF 5
