REMARK  6 active torsions:
REMARK  status: ('A' for Active; 'I' for Inactive)
REMARK    1  A    between atoms: S_2  and  C_1 
REMARK    2  A    between atoms: N_7  and  S_2 
REMARK    3  A    between atoms: C_5  and  C_11 
REMARK    4  A    between atoms: C_11  and  N_7 
REMARK    5  A    between atoms: S_12  and  C_10 
REMARK    6  A    between atoms: C_16  and  S_12 
ROOT
ATOM      1  C   UNL d   1      -2.732  -2.933  -3.746  0.00  0.00    -0.005 A 
ATOM      2  C   UNL d   1      -3.330  -2.403  -4.917  0.00  0.00     0.014 A 
ATOM      3  C   UNL d   1      -2.102  -4.194  -3.851  0.00  0.00     0.043 A 
ATOM      4 CL   UNL d   1      -1.192  -4.900  -2.556  0.00  0.00    -0.084 Cl
ATOM      5  C   UNL d   1      -3.358  -3.166  -6.103  0.00  0.00     0.019 A 
ATOM      6  C   UNL d   1      -2.780  -4.429  -6.159  0.00  0.00     0.003 A 
ATOM      7  C   UNL d   1      -2.142  -4.938  -5.037  0.00  0.00     0.024 A 
ENDROOT
BRANCH   1   8
ATOM      8  C   UNL d   1      -2.738  -2.180  -2.433  0.00  0.00     0.146 C 
BRANCH   8   9
ATOM      9  N   UNL d   1      -4.041  -1.868  -1.823  0.00  0.00    -0.210 NA
ATOM     10  H   UNL d   1      -3.972  -1.258  -1.008  0.00  0.00     0.140 HD
BRANCH   9  11
ATOM     11  S   UNL d   1      -5.102  -3.124  -1.452  0.00  0.00     0.258 S 
ATOM     12  O   UNL d   1      -5.455  -3.827  -2.667  0.00  0.00    -0.204 OA
ATOM     13  O   UNL d   1      -6.098  -2.578  -0.560  0.00  0.00    -0.204 OA
BRANCH  11  14
ATOM     14  C   UNL d   1      -4.251  -4.310  -0.491  0.00  0.00     0.160 A 
ATOM     15  N   UNL d   1      -3.548  -3.994   0.666  0.00  0.00    -0.341 N 
ATOM     16  C   UNL d   1      -3.036  -5.138   1.072  0.00  0.00     0.183 A 
ATOM     17  HN  UNL d   1      -3.451  -3.078   1.105  1.00  0.00     0.167 HD
ATOM     18  N   UNL d   1      -3.324  -6.152   0.203  0.00  0.00    -0.354 N 
ATOM     19  C   UNL d   1      -4.101  -5.647  -0.795  0.00  0.00     0.134 A 
ATOM     20  C   UNL d   1      -2.856  -7.510   0.313  0.00  0.00     0.156 C 
ENDBRANCH  11  14
ENDBRANCH   9  11
ENDBRANCH   8   9
ENDBRANCH   1   8
BRANCH   2  21
ATOM     21  S   UNL d   1      -4.152  -0.812  -4.988  0.00  0.00    -0.090 SA
BRANCH  21  22
ATOM     22  C   UNL d   1      -2.924   0.302  -5.652  0.00  0.00     0.005 A 
ATOM     23  C   UNL d   1      -3.347   1.322  -6.518  0.00  0.00     0.020 A 
ATOM     24  C   UNL d   1      -2.460   2.317  -6.942  0.00  0.00     0.025 A 
ATOM     25  C   UNL d   1      -1.141   2.302  -6.497  0.00  0.00     0.034 A 
ATOM     26  C   UNL d   1      -0.697   1.281  -5.661  0.00  0.00     0.025 A 
ATOM     27 CL   UNL d   1      -0.062   3.559  -6.958  0.00  0.00    -0.084 Cl
ATOM     28  C   UNL d   1      -1.585   0.283  -5.246  0.00  0.00     0.020 A 
ENDBRANCH  21  22
ENDBRANCH   2  21
TORSDOF 6
