REMARK  5 active torsions:
REMARK  status: ('A' for Active; 'I' for Inactive)
REMARK    1  A    between atoms: N_2  and  C_1 
REMARK    2  A    between atoms: C_5  and  N_2 
REMARK    3  A    between atoms: C_7  and  N_4 
REMARK    4  A    between atoms: O_6  and  C_8 
REMARK    5  A    between atoms: C_8  and  C_7 
ROOT
ATOM      1  N   UNL d   1       0.532   0.753   0.889  0.00  0.00    -0.363 N 
ATOM      2  H   UNL d   1       1.334   0.510   0.330  0.00  0.00     0.162 HD
ENDROOT
BRANCH   1   3
ATOM      3  C   UNL d   1      -0.677   0.454   0.338  0.00  0.00     0.168 C 
ATOM      4  S   UNL d   1      -2.131   0.333   1.141  0.00  0.00    -0.041 SA
ATOM      5  N   UNL d   1      -0.670   0.263  -1.015  0.00  0.00    -0.365 N 
ATOM      6  H   UNL d   1      -1.607   0.150  -1.395  0.00  0.00     0.161 HD
BRANCH   5   7
ATOM      7  C   UNL d   1       0.288   0.806  -1.976  0.00  0.00     0.148 C 
BRANCH   7   8
ATOM      8  C   UNL d   1       0.140   0.143  -3.342  0.00  0.00     0.183 C 
BRANCH   8   9
ATOM      9  O   UNL d   1      -1.160   0.399  -3.868  0.00  0.00    -0.399 OA
ATOM     10  H   UNL d   1      -1.216  -0.058  -4.723  0.00  0.00     0.209 HD
ENDBRANCH   8   9
ENDBRANCH   7   8
ENDBRANCH   5   7
ENDBRANCH   1   3
BRANCH   1  11
ATOM     11  C   UNL d   1       0.844   1.181   2.261  0.00  0.00     0.083 C 
ATOM     12  C   UNL d   1       1.595   2.519   2.172  0.00  0.00     0.025 C 
ATOM     13  C   UNL d   1       2.665   2.787   3.223  0.00  0.00     0.002 C 
ATOM     14  C   UNL d   1       3.978   2.067   2.921  0.00  0.00     0.000 C 
ATOM     15  C   UNL d   1       3.997   0.599   3.325  0.00  0.00     0.000 C 
ATOM     16  C   UNL d   1       2.958  -0.274   2.627  0.00  0.00     0.002 C 
ATOM     17  C   UNL d   1       1.520   0.042   3.036  0.00  0.00     0.025 C 
ENDBRANCH   1  11
TORSDOF 5
