REMARK  2 active torsions:
REMARK  status: ('A' for Active; 'I' for Inactive)
REMARK    1  A    between atoms: N_5  and  C_1 
REMARK       I    between atoms: C_6  and  N_8 
REMARK    2  A    between atoms: C_11  and  C_6 
ROOT
ATOM      1  N   UNL d   1      -4.486   0.396   0.213  0.00  0.00    -0.360 N 
ATOM      2  C   UNL d   1      -8.433   1.526   0.487  0.00  0.00     0.253 C 
ATOM      3  N   UNL d   1      -7.071   1.786   0.680  0.00  0.00    -0.346 N 
ATOM      4  C   UNL d   1      -5.276   0.917  -0.915  0.00  0.00     0.145 C 
ATOM      5  C   UNL d   1      -6.229   2.060  -0.503  0.00  0.00     0.146 C 
ATOM      6  O   UNL d   1      -8.960   1.534  -0.624  0.00  0.00    -0.267 OA
ATOM      7  C   UNL d   1      -5.586   0.659   2.387  0.00  0.00     0.040 C 
ATOM      8  C   UNL d   1      -5.245  -0.295   1.248  0.00  0.00     0.126 C 
ATOM      9  C   UNL d   1      -6.387   1.898   1.971  0.00  0.00     0.127 C 
ENDROOT
BRANCH   1  10
ATOM     10  C   UNL d   1      -3.120   0.351   0.137  0.00  0.00     0.147 A 
ATOM     11  N   UNL d   1      -2.424   0.873  -0.850  0.00  0.00    -0.336 N 
ATOM     12  C   UNL d   1      -1.064   0.664  -0.684  0.00  0.00     0.051 A 
ATOM     13  HN  UNL d   1      -2.834   1.371  -1.640  1.00  0.00     0.168 HD
ATOM     14  C   UNL d   1      -0.044   1.078  -1.563  0.00  0.00     0.032 A 
ATOM     15  C   UNL d   1      -0.707  -0.027   0.472  0.00  0.00     0.036 A 
ATOM     16  C   UNL d   1       1.295   0.791  -1.267  0.00  0.00     0.026 A 
ATOM     17  C   UNL d   1       1.616   0.094  -0.107  0.00  0.00     0.035 A 
ATOM     18  C   UNL d   1       0.631  -0.328   0.782  0.00  0.00     0.045 A 
ATOM     19 CL   UNL d   1       3.270  -0.252   0.243  0.00  0.00    -0.084 Cl
ATOM     20  S   UNL d   1      -2.126  -0.389   1.355  0.00  0.00    -0.052 SA
ENDBRANCH   1  10
BRANCH   2  21
ATOM     21  C   UNL d   1      -9.319   1.252   1.651  0.00  0.00     0.032 A 
ATOM     22  C   UNL d   1     -10.520   1.960   1.768  0.00  0.00     0.017 A 
ATOM     23  C   UNL d   1     -11.369   1.731   2.857  0.00  0.00     0.007 A 
ATOM     24  C   UNL d   1     -11.025   0.795   3.842  0.00  0.00    -0.062 A 
ATOM     25  C   UNL d   1      -9.850   0.051   3.689  0.00  0.00     0.007 A 
ATOM     26  C   UNL d   1     -11.924   0.574   5.024  0.00  0.00     0.048 C 
ATOM     27  C   UNL d   1      -9.020   0.258   2.584  0.00  0.00     0.017 A 
ENDBRANCH   2  21
TORSDOF 2
