REMARK  3 active torsions:
REMARK  status: ('A' for Active; 'I' for Inactive)
REMARK    1  A    between atoms: N_3  and  C_1 
REMARK    2  A    between atoms: C_6  and  N_3 
REMARK    3  A    between atoms: N_11  and  C_6 
ROOT
ATOM      1  C   UNL d   1       0.068   1.216  -0.023  0.00  0.00     0.166 A 
ATOM      2  S   UNL d   1       1.120  -0.122  -0.017  0.00  0.00    -0.046 SA
ATOM      3  N   UNL d   1      -1.208   0.890  -0.016  0.00  0.00    -0.279 N 
ATOM      4  HN  UNL d   1      -1.967   1.571  -0.017  1.00  0.00     0.189 HD
ATOM      5  N   UNL d   1      -1.406  -0.478  -0.006  0.00  0.00    -0.303 N 
ATOM      6  HN  UNL d   1      -2.322  -0.927   0.000  1.00  0.00     0.186 HD
ATOM      7  C   UNL d   1      -0.262  -1.127  -0.007  0.00  0.00     0.160 A 
ENDROOT
BRANCH   1   8
ATOM      8  N   UNL d   1       0.467   2.534  -0.036  0.00  0.00    -0.313 N 
ATOM      9  H   UNL d   1      -0.331   3.152  -0.037  0.00  0.00     0.170 HD
BRANCH   8  10
ATOM     10  C   UNL d   1       1.702   3.123  -0.048  0.00  0.00     0.171 C 
ATOM     11  S   UNL d   1       3.240   2.490  -0.048  0.00  0.00    -0.041 SA
BRANCH  10  12
ATOM     12  N   UNL d   1       1.618   4.490  -0.061  0.00  0.00    -0.376 N 
ATOM     13  H   UNL d   1       0.756   5.015  -0.069  0.00  0.00     0.158 HD
ATOM     14  H   UNL d   1       2.485   5.016  -0.073  0.00  0.00     0.158 HD
ENDBRANCH  10  12
ENDBRANCH   8  10
ENDBRANCH   1   8
TORSDOF 3
