REMARK  1 active torsions:
REMARK  status: ('A' for Active; 'I' for Inactive)
REMARK    1  A    between atoms: C_8  and  C_4 
ROOT
ATOM      1  N   UNL d   1      -0.720  -0.951   0.378  0.00  0.00    -0.294 N 
ATOM      2  HN  UNL d   1      -1.219  -1.770   0.723  1.00  0.00     0.172 HD
ATOM      3  N   UNL d   1      -0.743   1.208  -0.502  0.00  0.00    -0.318 N 
ATOM      4  C   UNL d   1      -1.372   0.076  -0.051  0.00  0.00     0.121 A 
ATOM      5  C   UNL d   1       0.648  -0.931   0.367  0.00  0.00     0.328 A 
ATOM      6  C   UNL d   1       0.609   1.291  -0.515  0.00  0.00     0.181 A 
ATOM      7  N   UNL d   1       1.276   0.196  -0.086  0.00  0.00    -0.285 N 
ATOM      8  S   UNL d   1       1.389   2.666  -1.027  0.00  0.00    -0.040 SA
ATOM      9  O   UNL d   1       1.328  -1.877   0.753  0.00  0.00    -0.247 OA
ATOM     10  H   UNL d   1      -1.259   2.034  -0.775  0.00  0.00     0.170 HD
ATOM     11  H   UNL d   1       2.284   0.186  -0.068  0.00  0.00     0.173 HD
ENDROOT
BRANCH   4  12
ATOM     12  C   UNL d   1      -2.857   0.104  -0.048  0.00  0.00     0.008 A 
ATOM     13  C   UNL d   1      -3.574   0.804  -1.028  0.00  0.00     0.017 A 
ATOM     14  C   UNL d   1      -4.969   0.858  -0.969  0.00  0.00     0.025 A 
ATOM     15  C   UNL d   1      -5.646   0.205   0.061  0.00  0.00     0.034 A 
ATOM     16  C   UNL d   1      -4.942  -0.519   1.021  0.00  0.00     0.025 A 
ATOM     17 CL   UNL d   1      -7.361   0.298   0.144  0.00  0.00    -0.084 Cl
ATOM     18  C   UNL d   1      -3.546  -0.577   0.963  0.00  0.00     0.017 A 
ENDBRANCH   4  12
TORSDOF 1
