REMARK  5 active torsions:
REMARK  status: ('A' for Active; 'I' for Inactive)
REMARK    1  A    between atoms: S_7  and  C_1 
REMARK    2  A    between atoms: C_8  and  C_2 
REMARK    3  A    between atoms: C_13  and  S_7 
REMARK    4  A    between atoms: C_9  and  O_10 
REMARK    5  A    between atoms: O_10  and  C_14 
ROOT
ATOM      1  C   UNL d   1       1.108   0.769   0.118  0.00  0.00     0.051 A 
ATOM      2  C   UNL d   1      -0.264   1.168   0.050  0.00  0.00     0.076 A 
ATOM      3  N   UNL d   1      -1.059   0.080   0.100  0.00  0.00    -0.299 N 
ATOM      4  HN  UNL d   1      -2.078   0.055   0.105  1.00  0.00     0.187 HD
ATOM      5  N   UNL d   1      -0.217  -0.960   0.140  0.00  0.00    -0.310 N 
ATOM      6  C   UNL d   1       1.095  -0.603   0.159  0.00  0.00     0.128 A 
ATOM      7  H   UNL d   1      -0.612  -1.895   0.147  0.00  0.00     0.186 HD
ENDROOT
BRANCH   2   8
ATOM      8  C   UNL d   1      -0.859   2.506  -0.048  0.00  0.00    -0.006 A 
ATOM      9  C   UNL d   1      -0.241   3.536  -0.768  0.00  0.00     0.016 A 
ATOM     10  C   UNL d   1      -0.797   4.820  -0.814  0.00  0.00     0.038 A 
ATOM     11  C   UNL d   1      -1.992   5.089  -0.150  0.00  0.00     0.074 A 
ATOM     12  C   UNL d   1      -2.656   4.054   0.508  0.00  0.00     0.038 A 
ATOM     13  C   UNL d   1      -2.091   2.776   0.566  0.00  0.00     0.016 A 
BRANCH  11  14
ATOM     14  O   UNL d   1      -2.616   6.304  -0.115  0.00  0.00    -0.290 OA
BRANCH  14  15
ATOM     15  C   UNL d   1      -1.750   7.425  -0.201  0.00  0.00     0.505 C 
ATOM     16  F   UNL d   1      -1.459   7.660  -1.504  0.00  0.00    -0.184 F 
ATOM     17  F   UNL d   1      -2.439   8.506   0.246  0.00  0.00    -0.184 F 
ENDBRANCH  14  15
ENDBRANCH  11  14
ENDBRANCH   2   8
BRANCH   1  18
ATOM     18  S   UNL d   1       2.555   1.745   0.088  0.00  0.00    -0.087 SA
BRANCH  18  19
ATOM     19  C   UNL d   1       2.806   2.132   1.809  0.00  0.00     0.005 A 
ATOM     20  C   UNL d   1       3.696   1.364   2.567  0.00  0.00     0.020 A 
ATOM     21  C   UNL d   1       3.985   1.716   3.889  0.00  0.00     0.025 A 
ATOM     22  C   UNL d   1       3.386   2.841   4.453  0.00  0.00     0.034 A 
ATOM     23  C   UNL d   1       2.493   3.610   3.710  0.00  0.00     0.025 A 
ATOM     24 CL   UNL d   1       3.769   3.293   6.068  0.00  0.00    -0.084 Cl
ATOM     25  C   UNL d   1       2.204   3.257   2.387  0.00  0.00     0.020 A 
ENDBRANCH  18  19
ENDBRANCH   1  18
TORSDOF 5
