REMARK  9 active torsions:
REMARK  status: ('A' for Active; 'I' for Inactive)
REMARK    1  A    between atoms: C_8  and  N_1 
REMARK    2  A    between atoms: S_9  and  C_2 
REMARK    3  A    between atoms: C_7  and  C_10 
REMARK    4  A    between atoms: C_20  and  S_9 
REMARK    5  A    between atoms: C_11  and  C_20 
REMARK       I    between atoms: N_12  and  C_11 
REMARK    6  A    between atoms: C_23  and  N_12 
REMARK    7  A    between atoms: O_24  and  C_25 
REMARK    8  A    between atoms: C_28  and  O_24 
REMARK    9  A    between atoms: C_31  and  C_28 
ROOT
ATOM      1  N   UNL d   1       0.877  -0.766  -0.123  0.00  0.00    -0.241 N 
ATOM      2  C   UNL d   1       0.807   0.557  -0.443  0.00  0.00     0.170 A 
ATOM      3  C   UNL d   1      -0.426  -1.101   0.189  0.00  0.00     0.347 A 
ATOM      4  N   UNL d   1      -0.368   1.105  -0.324  0.00  0.00    -0.275 N 
ATOM      5  HN  UNL d   1      -0.633   2.075  -0.496  1.00  0.00     0.189 HD
ATOM      6  N   UNL d   1      -1.159   0.078   0.081  0.00  0.00    -0.249 N 
ATOM      7  O   UNL d   1      -0.908  -2.174   0.517  0.00  0.00    -0.245 OA
ATOM      8  H   UNL d   1      -2.159   0.163   0.209  0.00  0.00     0.192 HD
ENDROOT
BRANCH   2   9
ATOM      9  S   UNL d   1       2.098   1.517  -1.093  0.00  0.00    -0.083 SA
BRANCH   9  10
ATOM     10  C   UNL d   1       2.143   0.854  -2.780  0.00  0.00     0.185 C 
BRANCH  10  11
ATOM     11  C   UNL d   1       1.006   1.280  -3.699  0.00  0.00     0.231 C 
ATOM     12  N   UNL d   1       0.037   2.091  -3.148  0.00  0.00    -0.327 N 
ATOM     13  H   UNL d   1       0.214   2.438  -2.208  0.00  0.00     0.169 HD
ATOM     14  O   UNL d   1       1.014   0.877  -4.863  0.00  0.00    -0.272 OA
BRANCH  12  15
ATOM     15  C   UNL d   1      -1.208   2.442  -3.706  0.00  0.00     0.034 A 
ATOM     16  C   UNL d   1      -1.695   1.908  -4.899  0.00  0.00     0.030 A 
ATOM     17  C   UNL d   1      -2.967   2.250  -5.365  0.00  0.00     0.018 A 
ATOM     18  C   UNL d   1      -3.777   3.139  -4.649  0.00  0.00     0.048 A 
ATOM     19  C   UNL d   1      -3.281   3.688  -3.458  0.00  0.00     0.018 A 
ATOM     20  C   UNL d   1      -2.010   3.337  -2.988  0.00  0.00     0.030 A 
BRANCH  18  21
ATOM     21  C   UNL d   1      -5.162   3.488  -5.135  0.00  0.00     0.417 C 
ATOM     22  F   UNL d   1      -5.511   2.854  -6.289  0.00  0.00    -0.166 F 
ATOM     23  F   UNL d   1      -6.126   3.164  -4.228  0.00  0.00    -0.166 F 
ATOM     24  F   UNL d   1      -5.310   4.819  -5.380  0.00  0.00    -0.166 F 
ENDBRANCH  18  21
ENDBRANCH  12  15
ENDBRANCH  10  11
ENDBRANCH   9  10
ENDBRANCH   2   9
BRANCH   1  25
ATOM     25  C   UNL d   1       1.969  -1.668  -0.159  0.00  0.00     0.046 A 
ATOM     26  C   UNL d   1       1.774  -3.029  -0.433  0.00  0.00     0.033 A 
ATOM     27  C   UNL d   1       2.865  -3.888  -0.616  0.00  0.00     0.039 A 
ATOM     28  C   UNL d   1       4.168  -3.413  -0.496  0.00  0.00     0.069 A 
ATOM     29  C   UNL d   1       4.373  -2.080  -0.159  0.00  0.00     0.039 A 
ATOM     30  C   UNL d   1       3.283  -1.229   0.036  0.00  0.00     0.033 A 
BRANCH  28  31
ATOM     31  O   UNL d   1       5.153  -4.330  -0.726  0.00  0.00    -0.347 OA
BRANCH  31  32
ATOM     32  C   UNL d   1       6.471  -3.932  -0.357  0.00  0.00     0.214 C 
BRANCH  32  33
ATOM     33  C   UNL d   1       7.347  -5.155  -0.336  0.00  0.00    -0.034 A 
ATOM     34  C   UNL d   1       8.214  -5.439  -1.398  0.00  0.00     0.009 A 
ATOM     35  C   UNL d   1       9.027  -6.571  -1.353  0.00  0.00     0.001 A 
ATOM     36  C   UNL d   1       8.973  -7.426  -0.252  0.00  0.00     0.000 A 
ATOM     37  C   UNL d   1       8.100  -7.161   0.800  0.00  0.00     0.001 A 
ATOM     38  C   UNL d   1       7.286  -6.029   0.757  0.00  0.00     0.009 A 
ENDBRANCH  32  33
ENDBRANCH  31  32
ENDBRANCH  28  31
ENDBRANCH   1  25
TORSDOF 9
