REMARK  2 active torsions:
REMARK  status: ('A' for Active; 'I' for Inactive)
REMARK    1  A    between atoms: C_7  and  C_5 
REMARK    2  A    between atoms: O_11  and  C_7 
ROOT
ATOM      1  C   UNL d   1      -0.488  -0.887  -0.019  0.00  0.00     0.066 A 
ATOM      2  N   UNL d   1       0.771  -1.493   0.013  0.00  0.00    -0.318 N 
ATOM      3  C   UNL d   1       1.780  -0.550   0.052  0.00  0.00     0.297 A 
ATOM      4  C   UNL d   1      -0.371   0.504   0.000  0.00  0.00     0.048 A 
ATOM      5  C   UNL d   1      -1.744  -1.475  -0.035  0.00  0.00     0.065 A 
ATOM      6  C   UNL d   1       1.058   0.825   0.025  0.00  0.00     0.252 A 
ATOM      7  O   UNL d   1       2.974  -0.737   0.104  0.00  0.00    -0.264 OA
ATOM      8  O   UNL d   1       1.561   1.924   0.021  0.00  0.00    -0.281 OA
ATOM      9  C   UNL d   1      -2.868  -0.630   0.001  0.00  0.00     0.021 A 
ATOM     10  C   UNL d   1      -1.458   1.357   0.020  0.00  0.00     0.018 A 
ATOM     11  C   UNL d   1      -2.725   0.771   0.026  0.00  0.00     0.002 A 
ATOM     12  H   UNL d   1       0.963  -2.483   0.111  0.00  0.00     0.169 HD
ENDROOT
BRANCH   5  13
ATOM     13  C   UNL d   1      -1.960  -2.936  -0.051  0.00  0.00     0.178 C 
ATOM     14  O   UNL d   1      -2.875  -3.471   0.547  0.00  0.00    -0.646 OA
BRANCH  13  15
ATOM     15  O   UNL d   1      -1.069  -3.605  -0.810  0.00  0.00    -0.773 OA
ATOM     16  H   UNL d   1      -0.555  -3.053  -1.431  0.00  0.00     0.167 HD
ENDBRANCH  13  15
ENDBRANCH   5  13
TORSDOF 2
