REMARK  6 active torsions:
REMARK  status: ('A' for Active; 'I' for Inactive)
REMARK    1  A    between atoms: C_5  and  S_1 
REMARK    2  A    between atoms: N_9  and  S_1 
REMARK       I    between atoms: C_2  and  N_6 
REMARK    3  A    between atoms: C_3  and  C_2 
REMARK    4  A    between atoms: S_10  and  C_4 
REMARK    5  A    between atoms: N_6  and  C_7 
REMARK    6  A    between atoms: C_19  and  S_10 
ROOT
ATOM      1  C   UNL d   1      -1.041   3.547  -5.002  0.00  0.00     0.259 C 
ATOM      2  N   UNL d   1      -0.466   3.146  -3.807  0.00  0.00    -0.322 N 
ATOM      3  O   UNL d   1      -1.488   2.793  -5.863  0.00  0.00    -0.267 OA
ATOM      4  H   UNL d   1      -0.160   3.879  -3.183  0.00  0.00     0.169 HD
ENDROOT
BRANCH   1   5
ATOM      5  C   UNL d   1      -0.973   5.009  -5.349  0.00  0.00     0.066 A 
ATOM      6  C   UNL d   1      -1.007   6.090  -4.468  0.00  0.00     0.090 A 
ATOM      7  N   UNL d   1      -0.823   7.377  -4.880  0.00  0.00    -0.359 N 
ATOM      8  C   UNL d   1      -0.619   7.616  -6.191  0.00  0.00     0.089 A 
ATOM      9  HN  UNL d   1      -0.840   8.144  -4.209  1.00  0.00     0.166 HD
ATOM     10  C   UNL d   1      -0.604   6.618  -7.142  0.00  0.00     0.018 A 
ATOM     11  C   UNL d   1      -0.791   5.306  -6.713  0.00  0.00     0.021 A 
BRANCH   6  12
ATOM     12  S   UNL d   1      -1.274   5.965  -2.718  0.00  0.00    -0.072 SA
BRANCH  12  13
ATOM     13  C   UNL d   1       0.364   6.183  -2.028  0.00  0.00     0.007 A 
ATOM     14  C   UNL d   1       1.543   6.138  -2.785  0.00  0.00     0.019 A 
ATOM     15  C   UNL d   1       2.792   6.153  -2.160  0.00  0.00     0.001 A 
ATOM     16  C   UNL d   1       2.877   6.225  -0.773  0.00  0.00     0.000 A 
ATOM     17  C   UNL d   1       1.713   6.304  -0.010  0.00  0.00     0.001 A 
ATOM     18  C   UNL d   1       0.463   6.285  -0.635  0.00  0.00     0.019 A 
ENDBRANCH  12  13
ENDBRANCH   6  12
ENDBRANCH   1   5
BRANCH   2  19
ATOM     19  C   UNL d   1      -0.061   1.833  -3.440  0.00  0.00     0.042 C 
ATOM     20  C   UNL d   1      -0.357   0.692  -4.202  0.00  0.00     0.055 C 
ATOM     21  C   UNL d   1       0.220  -0.549  -3.880  0.00  0.00     0.081 C 
ATOM     22  C   UNL d   1       1.147  -0.653  -2.843  0.00  0.00     0.026 C 
ATOM     23  C   UNL d   1       1.385   0.450  -2.039  0.00  0.00     0.010 C 
ATOM     24  C   UNL d   1       0.719   1.667  -2.272  0.00  0.00    -0.035 C 
ATOM     25  C   UNL d   1       0.851   2.730  -1.219  0.00  0.00     0.050 C 
BRANCH  21  26
ATOM     26  S   UNL d   1      -0.415  -2.055  -4.600  0.00  0.00     0.260 S 
ATOM     27  O   UNL d   1      -1.787  -1.807  -4.974  0.00  0.00    -0.200 OA
ATOM     28  O   UNL d   1      -0.083  -3.131  -3.684  0.00  0.00    -0.200 OA
BRANCH  26  29
ATOM     29  N   UNL d   1       0.494  -2.283  -6.011  0.00  0.00    -0.315 N 
ATOM     30  C   UNL d   1       0.223  -1.375  -7.132  0.00  0.00     0.162 C 
ATOM     31  C   UNL d   1       1.902  -2.669  -5.861  0.00  0.00     0.162 C 
ENDBRANCH  26  29
ENDBRANCH  21  26
ENDBRANCH   2  19
TORSDOF 6
