REMARK  9 active torsions:
REMARK  status: ('A' for Active; 'I' for Inactive)
REMARK    1  A    between atoms: C_5  and  C_1 
REMARK    2  A    between atoms: C_4  and  C_7 
REMARK       I    between atoms: N_11  and  C_5 
REMARK       I    between atoms: C_7  and  N_12 
REMARK    3  A    between atoms: C_8  and  C_19 
REMARK    4  A    between atoms: C_9  and  C_20 
REMARK    5  A    between atoms: N_12  and  N_11 
REMARK    6  A    between atoms: O_17  and  C_14 
REMARK    7  A    between atoms: C_19  and  O_17 
REMARK    8  A    between atoms: C_20  and  O_29 
REMARK    9  A    between atoms: O_29  and  C_28 
ROOT
ATOM      1  C   UNL d   1      -6.461   0.328  -0.038  0.00  0.00     0.069 A 
ATOM      2  C   UNL d   1      -6.540  -0.715   0.908  0.00  0.00     0.085 A 
ATOM      3  C   UNL d   1      -7.633   0.716  -0.715  0.00  0.00     0.056 A 
ATOM      4  C   UNL d   1      -7.747  -1.424   1.046  0.00  0.00     0.040 A 
ATOM      5  C   UNL d   1      -8.846   0.058  -0.498  0.00  0.00     0.070 A 
ATOM      6  C   UNL d   1      -8.892  -1.044   0.345  0.00  0.00     0.039 A 
ENDROOT
BRANCH   1   7
ATOM      7  C   UNL d   1      -5.179   1.064  -0.312  0.00  0.00     0.273 C 
ATOM      8  N   UNL d   1      -5.048   1.609  -1.583  0.00  0.00    -0.263 N 
ATOM      9  H   UNL d   1      -5.756   1.550  -2.311  0.00  0.00     0.190 HD
ATOM     10  O   UNL d   1      -4.298   1.179   0.536  0.00  0.00    -0.266 OA
BRANCH   8  11
ATOM     11  N   UNL d   1      -3.907   2.361  -1.909  0.00  0.00    -0.262 N 
ATOM     12  C   UNL d   1      -3.977   3.258  -2.966  0.00  0.00     0.288 C 
ATOM     13  O   UNL d   1      -5.007   3.398  -3.628  0.00  0.00    -0.264 OA
ATOM     14  H   UNL d   1      -3.083   2.281  -1.312  0.00  0.00     0.190 HD
BRANCH  12  15
ATOM     15  C   UNL d   1      -2.756   4.014  -3.246  0.00  0.00     0.126 A 
ATOM     16  N   UNL d   1      -1.595   3.791  -2.605  0.00  0.00    -0.256 N 
ATOM     17  O   UNL d   1      -0.681   4.681  -3.147  0.00  0.00    -0.242 OA
ATOM     18  HN  UNL d   1      -1.422   3.105  -1.870  1.00  0.00     0.195 HD
ATOM     19  C   UNL d   1      -1.290   5.439  -4.099  0.00  0.00     0.075 A 
ATOM     20  C   UNL d   1      -2.600   5.051  -4.208  0.00  0.00     0.071 A 
ATOM     21  C   UNL d   1      -0.459   6.459  -4.767  0.00  0.00     0.079 C 
ENDBRANCH  12  15
ENDBRANCH   8  11
ENDBRANCH   1   7
BRANCH   2  22
ATOM     22  O   UNL d   1      -5.431  -1.040   1.650  0.00  0.00    -0.341 OA
BRANCH  22  23
ATOM     23  C   UNL d   1      -5.697  -1.613   2.944  0.00  0.00     0.293 C 
BRANCH  23  24
ATOM     24  C   UNL d   1      -4.529  -1.489   3.919  0.00  0.00     0.408 C 
ATOM     25  F   UNL d   1      -3.435  -0.912   3.390  0.00  0.00    -0.169 F 
ATOM     26  F   UNL d   1      -4.894  -0.766   5.007  0.00  0.00    -0.169 F 
ATOM     27  F   UNL d   1      -4.165  -2.715   4.373  0.00  0.00    -0.169 F 
ENDBRANCH  23  24
ENDBRANCH  22  23
ENDBRANCH   2  22
BRANCH   5  28
ATOM     28  O   UNL d   1      -9.917   0.562  -1.179  0.00  0.00    -0.342 OA
BRANCH  28  29
ATOM     29  C   UNL d   1     -11.200   0.371  -0.560  0.00  0.00     0.293 C 
BRANCH  29  30
ATOM     30  C   UNL d   1     -12.184   1.461  -0.974  0.00  0.00     0.408 C 
ATOM     31  F   UNL d   1     -11.666   2.326  -1.872  0.00  0.00    -0.169 F 
ATOM     32  F   UNL d   1     -13.297   0.921  -1.523  0.00  0.00    -0.169 F 
ATOM     33  F   UNL d   1     -12.577   2.182   0.103  0.00  0.00    -0.169 F 
ENDBRANCH  29  30
ENDBRANCH  28  29
ENDBRANCH   5  28
TORSDOF 9
