REMARK  7 active torsions:
REMARK  status: ('A' for Active; 'I' for Inactive)
REMARK       I    between atoms: N_3  and  C_1 
REMARK       I    between atoms: N_5  and  C_1 
REMARK    1  A    between atoms: C_2  and  C_4 
REMARK    2  A    between atoms: O_12  and  C_2 
REMARK    3  A    between atoms: C_8  and  N_3 
REMARK    4  A    between atoms: C_10  and  N_5 
REMARK    5  A    between atoms: O_11  and  C_14 
REMARK    6  A    between atoms: C_15  and  O_11 
REMARK    7  A    between atoms: C_14  and  C_13 
ROOT
ATOM      1  C   UNL d   1       1.114   0.635  -0.355  0.00  0.00     0.325 C 
ATOM      2  N   UNL d   1       2.457   0.346  -0.539  0.00  0.00    -0.309 N 
ATOM      3  N   UNL d   1       0.289  -0.124  -1.159  0.00  0.00    -0.309 N 
ATOM      4  O   UNL d   1       0.718   1.508   0.411  0.00  0.00    -0.247 OA
ATOM      5  H   UNL d   1       2.706  -0.171  -1.369  0.00  0.00     0.170 HD
ATOM      6  H   UNL d   1       0.708  -0.879  -1.682  0.00  0.00     0.170 HD
ENDROOT
BRANCH   3   7
ATOM      7  C   UNL d   1      -1.118   0.006  -1.244  0.00  0.00     0.036 A 
ATOM      8  C   UNL d   1      -1.850   0.951  -0.518  0.00  0.00     0.030 A 
ATOM      9  C   UNL d   1      -3.240   1.011  -0.603  0.00  0.00     0.011 A 
ATOM     10  C   UNL d   1      -3.932   0.137  -1.440  0.00  0.00    -0.034 A 
ATOM     11  C   UNL d   1      -3.205  -0.793  -2.194  0.00  0.00     0.011 A 
ATOM     12  C   UNL d   1      -1.809  -0.859  -2.096  0.00  0.00     0.030 A 
BRANCH  10  13
ATOM     13  C   UNL d   1      -5.438   0.165  -1.474  0.00  0.00     0.214 C 
BRANCH  13  14
ATOM     14  O   UNL d   1      -5.914  -0.718  -0.460  0.00  0.00    -0.347 OA
BRANCH  14  15
ATOM     15  C   UNL d   1      -7.269  -0.867  -0.356  0.00  0.00     0.069 A 
ATOM     16  C   UNL d   1      -8.228  -0.198  -1.117  0.00  0.00     0.037 A 
ATOM     17  C   UNL d   1      -9.588  -0.454  -0.917  0.00  0.00     0.003 A 
ATOM     18  C   UNL d   1      -9.995  -1.379   0.042  0.00  0.00     0.000 A 
ATOM     19  C   UNL d   1      -9.042  -2.047   0.808  0.00  0.00     0.003 A 
ATOM     20  C   UNL d   1      -7.685  -1.787   0.611  0.00  0.00     0.037 A 
ENDBRANCH  14  15
ENDBRANCH  13  14
ENDBRANCH  10  13
ENDBRANCH   3   7
BRANCH   2  21
ATOM     21  C   UNL d   1       3.497   1.049   0.115  0.00  0.00     0.037 A 
ATOM     22  C   UNL d   1       3.281   1.795   1.281  0.00  0.00     0.048 A 
ATOM     23  C   UNL d   1       4.275   2.621   1.798  0.00  0.00     0.039 A 
ATOM     24  C   UNL d   1       5.540   2.627   1.207  0.00  0.00     0.018 A 
ATOM     25  C   UNL d   1       5.792   1.823   0.093  0.00  0.00     0.003 A 
ATOM     26  C   UNL d   1       4.774   1.035  -0.452  0.00  0.00     0.029 A 
BRANCH  23  27
ATOM     27  C   UNL d   1       4.034   3.475   2.988  0.00  0.00     0.176 C 
ATOM     28  O   UNL d   1       4.920   3.772   3.761  0.00  0.00    -0.646 OA
BRANCH  27  29
ATOM     29  O   UNL d   1       2.765   3.934   3.111  0.00  0.00    -0.773 OA
ATOM     30  H   UNL d   1       2.159   3.736   2.371  0.00  0.00     0.167 HD
ENDBRANCH  27  29
ENDBRANCH  23  27
ENDBRANCH   2  21
TORSDOF 7
