REMARK  1 active torsions:
REMARK  status: ('A' for Active; 'I' for Inactive)
REMARK    1  A    between atoms: C_12  and  N_1 
ROOT
ATOM      1  N   UNL d   1       0.059  -1.620   0.010  0.00  0.00    -0.346 N 
ATOM      2  C   UNL d   1      -0.700   0.482   0.021  0.00  0.00     0.005 A 
ATOM      3  C   UNL d   1       0.728   0.511   0.021  0.00  0.00     0.005 A 
ATOM      4  C   UNL d   1      -1.095  -0.858   0.022  0.00  0.00     0.046 A 
ATOM      5  C   UNL d   1       1.181  -0.810   0.021  0.00  0.00     0.046 A 
ATOM      6  C   UNL d   1      -2.451  -1.231   0.026  0.00  0.00     0.032 A 
ATOM      7  C   UNL d   1       2.552  -1.123   0.023  0.00  0.00     0.032 A 
ATOM      8  C   UNL d   1      -1.690   1.487   0.016  0.00  0.00     0.038 A 
ATOM      9  C   UNL d   1       1.673   1.560   0.015  0.00  0.00     0.038 A 
ATOM     10  C   UNL d   1       3.034   1.253   0.009  0.00  0.00     0.035 A 
ATOM     11  C   UNL d   1      -3.037   1.120   0.013  0.00  0.00     0.035 A 
ATOM     12  C   UNL d   1       3.470  -0.067   0.014  0.00  0.00     0.026 A 
ATOM     13  C   UNL d   1      -3.414  -0.218   0.020  0.00  0.00     0.026 A 
ATOM     14 CL   UNL d   1       4.189   2.531  -0.008  0.00  0.00    -0.084 Cl
ATOM     15 CL   UNL d   1      -4.247   2.345  -0.004  0.00  0.00    -0.084 Cl
ENDROOT
BRANCH   1  16
ATOM     16  C   UNL d   1       0.082  -3.074  -0.068  0.00  0.00     0.125 C 
ATOM     17  C   UNL d   1       0.023  -3.738   1.297  0.00  0.00     0.027 C 
ENDBRANCH   1  16
TORSDOF 1
