REMARK  4 active torsions:
REMARK  status: ('A' for Active; 'I' for Inactive)
REMARK       I    between atoms: C_2  and  N_6 
REMARK    1  A    between atoms: C_4  and  C_2 
REMARK    2  A    between atoms: N_6  and  C_10 
REMARK    3  A    between atoms: C_18  and  C_8 
REMARK    4  A    between atoms: C_11  and  C_12 
ROOT
ATOM      1  C   UNL d   1       3.176  -0.704  -0.864  0.00  0.00     0.245 C 
ATOM      2  N   UNL d   1       2.027  -1.469  -0.804  0.00  0.00    -0.324 N 
ATOM      3  O   UNL d   1       4.271  -1.056  -1.281  0.00  0.00    -0.268 OA
ATOM      4  H   UNL d   1       1.211  -1.052  -0.378  0.00  0.00     0.169 HD
ENDROOT
BRANCH   1   5
ATOM      5  C   UNL d   1       2.947   0.698  -0.394  0.00  0.00     0.075 C 
ATOM      6  C   UNL d   1       3.954   1.580  -0.489  0.00  0.00     0.017 C 
BRANCH   6   7
ATOM      7  C   UNL d   1       3.830   3.029  -0.277  0.00  0.00    -0.036 A 
ATOM      8  C   UNL d   1       2.980   3.613   0.664  0.00  0.00     0.012 A 
ATOM      9  C   UNL d   1       2.874   5.009   0.754  0.00  0.00     0.009 A 
ATOM     10  C   UNL d   1       3.615   5.867  -0.080  0.00  0.00    -0.051 A 
ATOM     11  C   UNL d   1       4.506   5.264  -0.981  0.00  0.00     0.009 A 
ATOM     12  C   UNL d   1       4.614   3.870  -1.070  0.00  0.00     0.012 A 
BRANCH  10  13
ATOM     13  C   UNL d   1       3.416   7.392  -0.017  0.00  0.00    -0.024 C 
ATOM     14  C   UNL d   1       4.320   8.181  -0.992  0.00  0.00     0.019 C 
ATOM     15  C   UNL d   1       1.954   7.728  -0.384  0.00  0.00     0.019 C 
ATOM     16  C   UNL d   1       3.715   7.914   1.403  0.00  0.00     0.019 C 
ENDBRANCH  10  13
ENDBRANCH   6   7
ENDBRANCH   1   5
BRANCH   2  17
ATOM     17  C   UNL d   1       1.833  -2.749  -1.375  0.00  0.00     0.037 A 
ATOM     18  C   UNL d   1       2.827  -3.456  -2.060  0.00  0.00     0.069 A 
ATOM     19  C   UNL d   1       2.493  -4.670  -2.628  0.00  0.00     0.107 A 
ATOM     20  C   UNL d   1       1.224  -5.190  -2.543  0.00  0.00     0.105 A 
ATOM     21  O   UNL d   1       3.335  -5.478  -3.330  0.00  0.00    -0.323 OA
ATOM     22  O   UNL d   1       1.106  -6.383  -3.183  0.00  0.00    -0.323 OA
ATOM     23  C   UNL d   1       0.221  -4.532  -1.869  0.00  0.00     0.042 A 
ATOM     24  C   UNL d   1       2.468  -6.595  -3.610  0.00  0.00     0.352 A 
ATOM     25  C   UNL d   1       0.536  -3.304  -1.274  0.00  0.00     0.032 A 
ENDBRANCH   2  17
TORSDOF 4
