REMARK  6 active torsions:
REMARK  status: ('A' for Active; 'I' for Inactive)
REMARK    1  A    between atoms: N_2  and  C_1 
REMARK       I    between atoms: C_3  and  N_2 
REMARK    2  A    between atoms: C_5  and  C_3 
REMARK    3  A    between atoms: C_6  and  C_7 
REMARK    4  A    between atoms: O_13  and  C_6 
REMARK    5  A    between atoms: O_15  and  C_8 
REMARK    6  A    between atoms: O_16  and  C_12 
ROOT
ATOM      1  C   UNL d   1       1.375  -0.275   0.147  0.00  0.00     0.071 A 
ATOM      2  C   UNL d   1       0.287  -1.108  -0.132  0.00  0.00     0.069 A 
ATOM      3  C   UNL d   1       1.153   1.105   0.303  0.00  0.00     0.095 A 
ATOM      4  C   UNL d   1      -0.135   1.632   0.234  0.00  0.00     0.042 A 
ATOM      5  C   UNL d   1      -1.010  -0.588  -0.190  0.00  0.00     0.070 A 
ATOM      6  C   UNL d   1      -1.214   0.784  -0.014  0.00  0.00     0.039 A 
ENDROOT
BRANCH   1   7
ATOM      7  N   UNL d   1       2.688  -0.755   0.349  0.00  0.00    -0.321 N 
ATOM      8  C   UNL d   1       3.152  -2.036   0.169  0.00  0.00     0.246 C 
ATOM      9  O   UNL d   1       2.541  -2.994  -0.288  0.00  0.00    -0.268 OA
ATOM     10  H   UNL d   1       3.327  -0.056   0.708  0.00  0.00     0.169 HD
BRANCH   8  11
ATOM     11  C   UNL d   1       4.564  -2.176   0.599  0.00  0.00     0.081 C 
ATOM     12  C   UNL d   1       5.143  -3.383   0.538  0.00  0.00     0.086 C 
BRANCH  12  13
ATOM     13  C   UNL d   1       6.536  -3.518   0.993  0.00  0.00     0.165 C 
ATOM     14  O   UNL d   1       7.225  -2.587   1.371  0.00  0.00    -0.647 OA
BRANCH  13  15
ATOM     15  O   UNL d   1       6.962  -4.794   0.946  0.00  0.00    -0.773 OA
ATOM     16  H   UNL d   1       6.310  -5.447   0.635  0.00  0.00     0.167 HD
ENDBRANCH  13  15
ENDBRANCH  12  13
ENDBRANCH   8  11
ENDBRANCH   1   7
BRANCH   3  17
ATOM     17  O   UNL d   1       2.177   1.966   0.613  0.00  0.00    -0.354 OA
ATOM     18  C   UNL d   1       3.025   2.224  -0.510  0.00  0.00     0.210 C 
ENDBRANCH   3  17
BRANCH   5  19
ATOM     19  O   UNL d   1      -2.152  -1.317  -0.390  0.00  0.00    -0.356 OA
ATOM     20  C   UNL d   1      -2.021  -2.734  -0.336  0.00  0.00     0.210 C 
ENDBRANCH   5  19
TORSDOF 6
