REMARK  8 active torsions:
REMARK  status: ('A' for Active; 'I' for Inactive)
REMARK    1  A    between atoms: C_3  and  C_1 
REMARK       I    between atoms: C_2  and  N_5 
REMARK       I    between atoms: N_7  and  C_2 
REMARK       I    between atoms: N_6  and  C_3 
REMARK    2  A    between atoms: N_5  and  C_4 
REMARK    3  A    between atoms: C_13  and  N_6 
REMARK    4  A    between atoms: C_14  and  N_7 
REMARK    5  A    between atoms: C_8  and  C_13 
REMARK    6  A    between atoms: O_15  and  C_16 
REMARK    7  A    between atoms: C_17  and  O_15 
REMARK    8  A    between atoms: C_23  and  C_17 
ROOT
ATOM      1  C   UNL d   1       2.580  -2.361  -0.742  0.00  0.00     0.325 C 
ATOM      2  N   UNL d   1       1.238  -2.568  -0.587  0.00  0.00    -0.308 N 
ATOM      3  N   UNL d   1       3.113  -1.145  -0.516  0.00  0.00    -0.309 N 
ATOM      4  O   UNL d   1       3.408  -3.245  -1.001  0.00  0.00    -0.247 OA
ATOM      5  H   UNL d   1       0.615  -1.774  -0.709  0.00  0.00     0.170 HD
ATOM      6  H   UNL d   1       4.118  -1.250  -0.436  0.00  0.00     0.170 HD
ENDROOT
BRANCH   2   7
ATOM      7  C   UNL d   1       0.646  -3.843  -0.821  0.00  0.00     0.052 C 
ATOM      8  C   UNL d   1      -0.602  -3.974  -1.468  0.00  0.00     0.058 C 
ATOM      9  C   UNL d   1      -0.951  -5.238  -1.976  0.00  0.00     0.019 C 
ATOM     10  C   UNL d   1      -0.157  -6.364  -1.724  0.00  0.00     0.001 C 
ATOM     11  C   UNL d   1       0.968  -6.253  -0.921  0.00  0.00     0.002 C 
ATOM     12  C   UNL d   1       1.363  -5.000  -0.472  0.00  0.00     0.030 C 
BRANCH   8  13
ATOM     13  C   UNL d   1      -1.531  -2.800  -1.595  0.00  0.00     0.253 C 
ATOM     14  N   UNL d   1      -2.839  -3.039  -1.997  0.00  0.00    -0.356 N 
ATOM     15  H   UNL d   1      -3.157  -3.983  -2.138  0.00  0.00     0.162 HD
ATOM     16  O   UNL d   1      -1.142  -1.679  -1.266  0.00  0.00    -0.268 OA
BRANCH  14  17
ATOM     17  C   UNL d   1      -3.881  -2.074  -1.704  0.00  0.00     0.127 C 
BRANCH  17  18
ATOM     18  C   UNL d   1      -4.936  -1.958  -2.761  0.00  0.00     0.003 A 
ATOM     19  C   UNL d   1      -5.814  -3.127  -3.142  0.00  0.00     0.007 A 
ATOM     20  C   UNL d   1      -4.842  -2.562  -4.141  0.00  0.00     0.007 A 
ENDBRANCH  17  18
ENDBRANCH  14  17
ENDBRANCH   8  13
ENDBRANCH   2   7
BRANCH   3  21
ATOM     21  C   UNL d   1       2.639   0.159  -0.394  0.00  0.00     0.036 A 
ATOM     22  C   UNL d   1       3.518   1.047   0.235  0.00  0.00     0.032 A 
ATOM     23  C   UNL d   1       3.201   2.395   0.376  0.00  0.00     0.039 A 
ATOM     24  C   UNL d   1       2.006   2.885  -0.147  0.00  0.00     0.069 A 
ATOM     25  C   UNL d   1       1.134   2.006  -0.791  0.00  0.00     0.039 A 
ATOM     26  C   UNL d   1       1.445   0.644  -0.920  0.00  0.00     0.032 A 
BRANCH  24  27
ATOM     27  O   UNL d   1       1.607   4.195  -0.104  0.00  0.00    -0.347 OA
BRANCH  27  28
ATOM     28  C   UNL d   1       2.531   5.107   0.492  0.00  0.00     0.214 C 
BRANCH  28  29
ATOM     29  C   UNL d   1       2.062   6.527   0.306  0.00  0.00    -0.034 A 
ATOM     30  C   UNL d   1       2.103   7.432   1.375  0.00  0.00     0.009 A 
ATOM     31  C   UNL d   1       1.738   8.765   1.187  0.00  0.00     0.001 A 
ATOM     32  C   UNL d   1       1.337   9.206  -0.072  0.00  0.00     0.000 A 
ATOM     33  C   UNL d   1       1.298   8.317  -1.144  0.00  0.00     0.001 A 
ATOM     34  C   UNL d   1       1.663   6.984  -0.958  0.00  0.00     0.009 A 
ENDBRANCH  28  29
ENDBRANCH  27  28
ENDBRANCH  24  27
ENDBRANCH   3  21
TORSDOF 8
