REMARK  0 active torsions:
REMARK  status: ('A' for Active; 'I' for Inactive)
ROOT
ATOM      1  C   UNL d   1       1.146   2.189  -0.699  0.00  0.00     0.203 C 
ATOM      2  C   UNL d   1      -0.381   2.288  -0.266  0.00  0.00     0.210 C 
ATOM      3  C   UNL d   1       1.443   0.768  -0.312  0.00  0.00     0.007 A 
ATOM      4  C   UNL d   1      -0.819   0.942   0.021  0.00  0.00     0.026 A 
ATOM      5  C   UNL d   1       0.272   0.098   0.006  0.00  0.00    -0.001 A 
ATOM      6  S   UNL d   1       2.192   3.421   0.084  0.00  0.00    -0.116 SA
ATOM      7  O   UNL d   1       1.257   2.301  -2.124  0.00  0.00    -0.357 OA
ATOM      8  O   UNL d   1      -1.029   3.333  -0.253  0.00  0.00    -0.288 OA
ATOM      9  C   UNL d   1       0.202  -1.254   0.234  0.00  0.00    -0.024 A 
ATOM     10  C   UNL d   1       2.663   0.092  -0.322  0.00  0.00     0.012 A 
ATOM     11  C   UNL d   1      -2.097   0.443   0.251  0.00  0.00     0.016 A 
ATOM     12  C   UNL d   1       2.643   4.128  -1.517  0.00  0.00     0.104 C 
ATOM     13  C   UNL d   1       2.625  -1.285  -0.043  0.00  0.00     0.002 A 
ATOM     14  C   UNL d   1      -2.210  -0.946   0.439  0.00  0.00     0.002 A 
ATOM     15  C   UNL d   1       1.512   3.676  -2.421  0.00  0.00     0.181 C 
ATOM     16  C   UNL d   1       1.416  -1.960   0.210  0.00  0.00     0.012 A 
ATOM     17  C   UNL d   1      -1.082  -1.788   0.436  0.00  0.00     0.012 A 
ENDROOT
TORSDOF 0
