REMARK  5 active torsions:
REMARK  status: ('A' for Active; 'I' for Inactive)
REMARK    1  A    between atoms: C_3  and  N_1 
REMARK       I    between atoms: C_2  and  N_8 
REMARK    2  A    between atoms: O_13  and  C_2 
REMARK    3  A    between atoms: N_8  and  N_4 
REMARK    4  A    between atoms: C_11  and  C_12 
REMARK    5  A    between atoms: C_17  and  O_13 
ROOT
ATOM      1  N   UNL d   1       1.370  -3.522   3.531  0.00  0.00    -0.307 N 
ATOM      2  HN  UNL d   1       1.893  -2.683   3.279  1.00  0.00     0.186 HD
ATOM      3  C   UNL d   1       0.341  -3.897   2.852  0.00  0.00     0.118 C 
ENDROOT
BRANCH   3   4
ATOM      4  C   UNL d   1      -0.084  -3.108   1.675  0.00  0.00    -0.017 A 
ATOM      5  C   UNL d   1      -1.208  -3.499   0.948  0.00  0.00     0.048 A 
ATOM      6  C   UNL d   1      -1.594  -2.727  -0.159  0.00  0.00     0.103 A 
ATOM      7  C   UNL d   1      -0.869  -1.586  -0.535  0.00  0.00     0.036 A 
ATOM      8  C   UNL d   1       0.255  -1.212   0.199  0.00  0.00     0.003 A 
ATOM      9  C   UNL d   1       0.647  -1.972   1.300  0.00  0.00     0.013 A 
BRANCH   6  10
ATOM     10  N   UNL d   1      -2.777  -3.118  -0.937  0.00  0.00    -0.116 N 
ATOM     11  O   UNL d   1      -3.389  -4.132  -0.577  0.00  0.00    -0.532 OA
ATOM     12  O   UNL d   1      -3.090  -2.410  -1.905  0.00  0.00    -0.532 OA
ENDBRANCH   6  10
ENDBRANCH   3   4
BRANCH   1  13
ATOM     13  N   UNL d   1       1.732  -4.283   4.593  0.00  0.00    -0.246 N 
ATOM     14  C   UNL d   1       2.934  -4.045   5.213  0.00  0.00     0.379 C 
ATOM     15  O   UNL d   1       3.714  -3.135   4.953  0.00  0.00    -0.237 OA
ATOM     16  H   UNL d   1       1.235  -5.132   4.829  0.00  0.00     0.192 HD
BRANCH  14  17
ATOM     17  O   UNL d   1       3.176  -5.030   6.118  0.00  0.00    -0.303 OA
BRANCH  17  18
ATOM     18  C   UNL d   1       4.531  -5.093   6.585  0.00  0.00     0.176 C 
ATOM     19  C   UNL d   1       5.314  -5.993   5.647  0.00  0.00     0.034 C 
ENDBRANCH  17  18
ENDBRANCH  14  17
ENDBRANCH   1  13
TORSDOF 5
