REMARK  4 active torsions:
REMARK  status: ('A' for Active; 'I' for Inactive)
REMARK       I    between atoms: N_2  and  C_1 
REMARK    1  A    between atoms: C_8  and  C_1 
REMARK    2  A    between atoms: C_3  and  C_6 
REMARK    3  A    between atoms: O_12  and  C_3 
REMARK    4  A    between atoms: C_15  and  O_12 
ROOT
ATOM      1  C   UNL d   1       1.008  -0.185   0.006  0.00  0.00     0.253 C 
ATOM      2  N   UNL d   1       0.106  -1.252  -0.101  0.00  0.00    -0.348 N 
ATOM      3  C   UNL d   1      -0.496  -1.483  -1.412  0.00  0.00     0.127 C 
ATOM      4  C   UNL d   1      -0.041  -2.324   0.887  0.00  0.00     0.127 C 
ATOM      5  C   UNL d   1      -2.057  -3.196  -0.406  0.00  0.00     0.088 C 
ATOM      6  O   UNL d   1       1.142   0.675  -0.862  0.00  0.00    -0.267 OA
ATOM      7  C   UNL d   1      -1.942  -1.956  -1.300  0.00  0.00     0.034 C 
ATOM      8  C   UNL d   1      -1.468  -2.867   0.970  0.00  0.00     0.034 C 
ENDROOT
BRANCH   1   9
ATOM      9  C   UNL d   1       1.834  -0.038   1.227  0.00  0.00     0.032 A 
ATOM     10  C   UNL d   1       2.706  -1.048   1.646  0.00  0.00     0.017 A 
ATOM     11  C   UNL d   1       3.463  -0.872   2.805  0.00  0.00     0.001 A 
ATOM     12  C   UNL d   1       3.377   0.324   3.521  0.00  0.00     0.000 A 
ATOM     13  C   UNL d   1       2.545   1.351   3.074  0.00  0.00     0.001 A 
ATOM     14  C   UNL d   1       1.776   1.174   1.924  0.00  0.00     0.017 A 
ENDBRANCH   1   9
BRANCH   5  15
ATOM     15  C   UNL d   1      -1.385  -4.416  -1.028  0.00  0.00     0.263 C 
ATOM     16  O   UNL d   1      -0.639  -5.180  -0.430  0.00  0.00    -0.265 OA
BRANCH  15  17
ATOM     17  O   UNL d   1      -1.747  -4.543  -2.333  0.00  0.00    -0.322 OA
BRANCH  17  18
ATOM     18  C   UNL d   1      -1.074  -5.559  -3.090  0.00  0.00     0.174 C 
ATOM     19  C   UNL d   1      -1.891  -6.835  -3.107  0.00  0.00     0.034 C 
ENDBRANCH  17  18
ENDBRANCH  15  17
ENDBRANCH   5  15
TORSDOF 4
