REMARK  7 active torsions:
REMARK  status: ('A' for Active; 'I' for Inactive)
REMARK    1  A    between atoms: C_8  and  N_1 
REMARK    2  A    between atoms: C_5  and  C_2 
REMARK    3  A    between atoms: O_15  and  C_5 
REMARK    4  A    between atoms: O_18  and  C_7 
REMARK    5  A    between atoms: C_16  and  C_8 
REMARK    6  A    between atoms: O_19  and  C_10 
REMARK    7  A    between atoms: C_14  and  C_16 
ROOT
ATOM      1  C   UNL d   1       0.418  -2.295   0.014  0.00  0.00     0.130 C 
ENDROOT
BRANCH   1   2
ATOM      2  N   UNL d   1      -0.004  -0.907  -0.017  0.00  0.00    -0.351 N 
ATOM      3  C   UNL d   1      -0.249  -0.131   1.096  0.00  0.00     0.220 C 
ATOM      4  C   UNL d   1      -0.792   1.196   0.618  0.00  0.00     0.119 C 
ATOM      5  O   UNL d   1      -0.122  -0.454   2.266  0.00  0.00    -0.273 OA
ATOM      6  C   UNL d   1      -0.403   1.224  -0.861  0.00  0.00     0.110 C 
ATOM      7  C   UNL d   1      -0.357  -0.245  -1.246  0.00  0.00     0.141 C 
BRANCH   6   8
ATOM      8  C   UNL d   1       0.942   1.886  -1.071  0.00  0.00     0.145 C 
ATOM      9  O   UNL d   1       1.946   1.322  -1.479  0.00  0.00    -0.650 OA
BRANCH   8  10
ATOM     10  O   UNL d   1       0.932   3.213  -0.810  0.00  0.00    -0.776 OA
ATOM     11  H   UNL d   1       0.074   3.576  -0.515  0.00  0.00     0.167 HD
ENDBRANCH   8  10
ENDBRANCH   6   8
ENDBRANCH   1   2
BRANCH   1  12
ATOM     12  C   UNL d   1       1.944  -2.476  -0.049  0.00  0.00     0.058 C 
BRANCH  12  13
ATOM     13  C   UNL d   1       2.397  -3.925  -0.053  0.00  0.00    -0.054 A 
ATOM     14  C   UNL d   1       1.631  -4.941  -0.650  0.00  0.00     0.046 A 
ATOM     15  C   UNL d   1       2.031  -6.286  -0.645  0.00  0.00     0.102 A 
ATOM     16  C   UNL d   1       3.272  -6.615  -0.079  0.00  0.00     0.101 A 
ATOM     17  C   UNL d   1       4.052  -5.607   0.503  0.00  0.00     0.040 A 
ATOM     18  C   UNL d   1       3.627  -4.276   0.511  0.00  0.00     0.010 A 
BRANCH  15  19
ATOM     19  O   UNL d   1       1.246  -7.295  -1.138  0.00  0.00    -0.353 OA
ATOM     20  C   UNL d   1      -0.028  -6.950  -1.670  0.00  0.00     0.210 C 
ENDBRANCH  15  19
BRANCH  16  21
ATOM     21  O   UNL d   1       3.830  -7.864   0.027  0.00  0.00    -0.353 OA
ATOM     22  C   UNL d   1       3.529  -8.788  -1.012  0.00  0.00     0.210 C 
ENDBRANCH  16  21
ENDBRANCH  12  13
ENDBRANCH   1  12
TORSDOF 7
