REMARK  5 active torsions:
REMARK  status: ('A' for Active; 'I' for Inactive)
REMARK    1  A    between atoms: N_2  and  S_1 
REMARK    2  A    between atoms: C_9  and  S_1 
REMARK    3  A    between atoms: C_3  and  N_2 
REMARK       I    between atoms: C_4  and  N_14 
REMARK       I    between atoms: N_10  and  C_4 
REMARK    4  A    between atoms: C_13  and  N_10 
REMARK    5  A    between atoms: N_14  and  C_25 
ROOT
ATOM      1  C   UNL d   1      -0.031  -1.039   1.064  0.00  0.00     0.075 A 
ATOM      2  C   UNL d   1      -0.477  -2.234   0.487  0.00  0.00     0.027 A 
ATOM      3  C   UNL d   1       0.145  -0.957   2.442  0.00  0.00     0.027 A 
ATOM      4  C   UNL d   1      -0.445  -3.316   2.672  0.00  0.00     0.036 A 
ATOM      5  C   UNL d   1      -0.694  -3.364   1.293  0.00  0.00     0.031 A 
ATOM      6  C   UNL d   1      -0.077  -2.087   3.236  0.00  0.00     0.031 A 
ENDROOT
BRANCH   1   7
ATOM      7  S   UNL d   1       0.545   0.302   0.032  0.00  0.00     0.248 S 
ATOM      8  O   UNL d   1       1.542   1.035   0.780  0.00  0.00    -0.205 OA
ATOM      9  O   UNL d   1       0.885  -0.300  -1.246  0.00  0.00    -0.205 OA
BRANCH   7  10
ATOM     10  N   UNL d   1      -0.809   1.235  -0.250  0.00  0.00    -0.151 NA
ATOM     11  H   UNL d   1      -1.527   0.691  -0.711  0.00  0.00     0.149 HD
BRANCH  10  12
ATOM     12  C   UNL d   1      -1.354   1.841   0.878  0.00  0.00     0.171 A 
ATOM     13  N   UNL d   1      -0.772   2.938   1.367  0.00  0.00    -0.336 N 
ATOM     14  C   UNL d   1      -1.405   3.526   2.399  0.00  0.00     0.009 A 
ATOM     15  HN  UNL d   1       0.097   3.307   0.982  1.00  0.00     0.168 HD
ATOM     16  C   UNL d   1      -0.819   4.794   2.946  0.00  0.00     0.068 C 
ATOM     17  C   UNL d   1      -2.576   3.017   2.932  0.00  0.00     0.049 A 
ATOM     18  C   UNL d   1      -3.079   1.867   2.348  0.00  0.00     0.009 A 
ATOM     19  N   UNL d   1      -2.478   1.269   1.300  0.00  0.00    -0.336 N 
ATOM     20  C   UNL d   1      -4.353   1.257   2.848  0.00  0.00     0.068 C 
ATOM     21  HN  UNL d   1      -2.861   0.432   0.859  1.00  0.00     0.168 HD
ENDBRANCH  10  12
ENDBRANCH   7  10
ENDBRANCH   1   7
BRANCH   4  22
ATOM     22  N   UNL d   1      -0.483  -4.536   3.401  0.00  0.00    -0.309 N 
ATOM     23  C   UNL d   1      -0.082  -4.697   4.721  0.00  0.00     0.325 C 
ATOM     24  N   UNL d   1       0.117  -6.032   5.057  0.00  0.00    -0.309 N 
ATOM     25  O   UNL d   1       0.123  -3.760   5.483  0.00  0.00    -0.247 OA
ATOM     26  H   UNL d   1      -0.163  -6.733   4.389  0.00  0.00     0.170 HD
ATOM     27  H   UNL d   1      -0.697  -5.370   2.876  0.00  0.00     0.170 HD
BRANCH  24  28
ATOM     28  C   UNL d   1       0.793  -6.502   6.216  0.00  0.00     0.037 A 
ATOM     29  C   UNL d   1       1.296  -5.650   7.205  0.00  0.00     0.036 A 
ATOM     30  C   UNL d   1       2.066  -6.128   8.272  0.00  0.00    -0.059 A 
ATOM     31  C   UNL d   1       2.688  -5.154   9.230  0.00  0.00     0.048 C 
ATOM     32  C   UNL d   1       2.326  -7.494   8.361  0.00  0.00     0.013 A 
ATOM     33  C   UNL d   1       1.801  -8.380   7.412  0.00  0.00    -0.059 A 
ATOM     34  C   UNL d   1       1.037  -7.877   6.342  0.00  0.00     0.036 A 
ATOM     35  C   UNL d   1       2.135  -9.840   7.518  0.00  0.00     0.048 C 
ENDBRANCH  24  28
ENDBRANCH   4  22
TORSDOF 5
