REMARK  6 active torsions:
REMARK  status: ('A' for Active; 'I' for Inactive)
REMARK    1  A    between atoms: C_4  and  C_1 
REMARK       I    between atoms: N_5  and  C_1 
REMARK    2  A    between atoms: C_2  and  C_3 
REMARK       I    between atoms: N_6  and  C_2 
REMARK    3  A    between atoms: C_14  and  N_5 
REMARK    4  A    between atoms: C_13  and  N_6 
REMARK    5  A    between atoms: C_9  and  C_13 
REMARK    6  A    between atoms: C_10  and  C_14 
ROOT
ATOM      1  C   UNL d   1       0.570  -0.176   2.349  0.00  0.00     0.047 A 
ATOM      2  C   UNL d   1       0.429  -0.590   1.023  0.00  0.00     0.047 A 
ATOM      3  C   UNL d   1      -0.382  -0.581   3.298  0.00  0.00     0.018 A 
ATOM      4  C   UNL d   1      -0.596  -1.480   0.656  0.00  0.00     0.018 A 
ATOM      5  C   UNL d   1      -1.527  -1.890   1.608  0.00  0.00     0.001 A 
ATOM      6  C   UNL d   1      -1.439  -1.418   2.914  0.00  0.00     0.001 A 
ENDROOT
BRANCH   1   7
ATOM      7  C   UNL d   1       1.759   0.626   2.766  0.00  0.00     0.253 C 
ATOM      8  N   UNL d   1       1.570   1.532   3.789  0.00  0.00    -0.349 N 
ATOM      9  H   UNL d   1       0.661   1.663   4.207  0.00  0.00     0.163 HD
ATOM     10  O   UNL d   1       2.840   0.477   2.204  0.00  0.00    -0.268 OA
BRANCH   8  11
ATOM     11  C   UNL d   1       2.634   2.438   4.200  0.00  0.00     0.114 C 
ATOM     12  C   UNL d   1       3.428   1.823   5.354  0.00  0.00     0.037 C 
BRANCH  11  13
ATOM     13  C   UNL d   1       2.037   3.814   4.448  0.00  0.00    -0.033 A 
ATOM     14  C   UNL d   1       1.351   4.430   3.383  0.00  0.00     0.049 A 
ATOM     15  C   UNL d   1       0.835   5.717   3.508  0.00  0.00     0.102 A 
ATOM     16  O   UNL d   1       0.208   6.234   2.406  0.00  0.00    -0.346 OA
ATOM     17  C   UNL d   1       0.983   6.414   4.705  0.00  0.00     0.102 A 
ATOM     18  C   UNL d   1       0.200   7.662   2.463  0.00  0.00     0.202 C 
ATOM     19  C   UNL d   1      -0.290   8.152   3.817  0.00  0.00     0.202 C 
ATOM     20  O   UNL d   1       0.542   7.697   4.890  0.00  0.00    -0.346 OA
ATOM     21  C   UNL d   1       1.640   5.814   5.777  0.00  0.00     0.040 A 
ATOM     22  C   UNL d   1       2.163   4.521   5.652  0.00  0.00     0.012 A 
ENDBRANCH  11  13
ENDBRANCH   8  11
ENDBRANCH   1   7
BRANCH   2  23
ATOM     23  C   UNL d   1       1.191   0.016  -0.088  0.00  0.00     0.253 C 
ATOM     24  N   UNL d   1       1.011   1.376  -0.197  0.00  0.00    -0.349 N 
ATOM     25  H   UNL d   1       0.438   1.867   0.472  0.00  0.00     0.163 HD
ATOM     26  O   UNL d   1       1.781  -0.691  -0.895  0.00  0.00    -0.268 OA
BRANCH  24  27
ATOM     27  C   UNL d   1       1.587   2.149  -1.272  0.00  0.00     0.114 C 
ATOM     28  C   UNL d   1       2.868   2.846  -0.809  0.00  0.00     0.037 C 
BRANCH  27  29
ATOM     29  C   UNL d   1       0.537   3.084  -1.846  0.00  0.00    -0.033 C 
ATOM     30  C   UNL d   1      -0.326   2.582  -2.835  0.00  0.00     0.049 C 
ATOM     31  C   UNL d   1      -1.129   3.450  -3.567  0.00  0.00     0.102 C 
ATOM     32  O   UNL d   1      -1.825   2.921  -4.622  0.00  0.00    -0.346 OA
ATOM     33  C   UNL d   1      -1.145   4.814  -3.280  0.00  0.00     0.102 C 
ATOM     34  C   UNL d   1      -1.777   3.868  -5.690  0.00  0.00     0.202 C 
ATOM     35  C   UNL d   1      -2.362   5.206  -5.253  0.00  0.00     0.202 C 
ATOM     36  O   UNL d   1      -1.793   5.740  -4.051  0.00  0.00    -0.346 OA
ATOM     37  C   UNL d   1      -0.416   5.296  -2.197  0.00  0.00     0.040 C 
ATOM     38  C   UNL d   1       0.425   4.436  -1.483  0.00  0.00     0.012 C 
ENDBRANCH  27  29
ENDBRANCH  24  27
ENDBRANCH   2  23
TORSDOF 6
