REMARK  3 active torsions:
REMARK  status: ('A' for Active; 'I' for Inactive)
REMARK       I    between atoms: C_3  and  N_1 
REMARK    1  A    between atoms: C_9  and  C_3 
REMARK    2  A    between atoms: C_10  and  N_7 
REMARK    3  A    between atoms: O_19  and  C_14 
ROOT
ATOM      1  N   UNL d   1      -2.603   0.236  -0.075  0.00  0.00    -0.279 N 
ATOM      2  C   UNL d   1      -2.069  -0.772  -0.909  0.00  0.00     0.155 C 
ATOM      3  C   UNL d   1      -3.671   0.097   0.854  0.00  0.00     0.261 C 
ATOM      4  S   UNL d   1      -0.453  -0.324  -1.421  0.00  0.00    -0.056 SA
ATOM      5  C   UNL d   1      -1.955   1.603  -0.250  0.00  0.00     0.075 C 
ATOM      6  C   UNL d   1      -0.693   1.342  -1.097  0.00  0.00     0.005 C 
ATOM      7  N   UNL d   1      -2.686  -1.858  -1.252  0.00  0.00    -0.334 N 
ATOM      8  HN  UNL d   1      -3.593  -2.054  -0.827  1.00  0.00     0.168 HD
ATOM      9  O   UNL d   1      -3.899   0.915   1.739  0.00  0.00    -0.267 OA
ATOM     10  C   UNL d   1       0.203   2.231  -1.560  0.00  0.00     0.029 C 
ATOM     11  C   UNL d   1      -2.900   2.519  -1.074  0.00  0.00     0.037 C 
ATOM     12  C   UNL d   1      -1.463   2.313   1.044  0.00  0.00     0.037 C 
ATOM     13  C   UNL d   1      -4.000   3.181  -0.255  0.00  0.00     0.003 C 
ATOM     14  C   UNL d   1      -2.440   3.218   1.798  0.00  0.00     0.003 C 
ATOM     15  C   UNL d   1      -3.442   3.966   0.926  0.00  0.00     0.000 C 
ENDROOT
BRANCH   7  16
ATOM     16  C   UNL d   1      -2.168  -2.791  -2.189  0.00  0.00     0.067 C 
ATOM     17  C   UNL d   1      -2.234  -4.186  -2.006  0.00  0.00     0.094 C 
ATOM     18  C   UNL d   1      -1.666  -5.045  -2.966  0.00  0.00     0.039 C 
ATOM     19  C   UNL d   1      -1.020  -4.546  -4.096  0.00  0.00     0.003 C 
ATOM     20  C   UNL d   1      -1.036  -3.183  -4.336  0.00  0.00     0.002 C 
ATOM     21  C   UNL d   1      -1.663  -2.335  -3.425  0.00  0.00     0.032 C 
BRANCH  17  22
ATOM     22  O   UNL d   1      -2.943  -4.859  -1.045  0.00  0.00    -0.354 OA
ATOM     23  C   UNL d   1      -2.800  -4.429   0.298  0.00  0.00     0.210 C 
ENDBRANCH  17  22
ENDBRANCH   7  16
BRANCH   3  24
ATOM     24  C   UNL d   1      -4.593  -1.063   0.910  0.00  0.00     0.034 A 
ATOM     25  C   UNL d   1      -4.977  -1.524   2.189  0.00  0.00     0.041 A 
ATOM     26  C   UNL d   1      -5.920  -2.545   2.312  0.00  0.00     0.035 A 
ATOM     27 CL   UNL d   1      -6.407  -3.081   3.873  0.00  0.00    -0.084 Cl
ATOM     28  C   UNL d   1      -6.482  -3.121   1.177  0.00  0.00     0.024 A 
ATOM     29  C   UNL d   1      -6.141  -2.634  -0.084  0.00  0.00     0.003 A 
ATOM     30  C   UNL d   1      -5.236  -1.581  -0.211  0.00  0.00     0.017 A 
ENDBRANCH   3  24
TORSDOF 3
