REMARK  4 active torsions:
REMARK  status: ('A' for Active; 'I' for Inactive)
REMARK    1  A    between atoms: C_16  and  N_1 
REMARK    2  A    between atoms: C_7  and  C_5 
REMARK    3  A    between atoms: C_9  and  C_11 
REMARK    4  A    between atoms: C_10  and  C_12 
ROOT
ATOM      1  N   UNL d   1       2.342  -0.669  -0.023  0.00  0.00    -0.220 N 
ATOM      2  N   UNL d   1       2.324   0.708   0.080  0.00  0.00    -0.289 N 
ATOM      3  HN  UNL d   1       3.201   1.221   0.158  1.00  0.00     0.188 HD
ATOM      4  C   UNL d   1       1.186  -1.452   0.024  0.00  0.00     0.278 C 
ATOM      5  C   UNL d   1       1.194   1.354   0.076  0.00  0.00     0.070 C 
ATOM      6  C   UNL d   1      -0.098  -0.733   0.015  0.00  0.00     0.046 A 
ATOM      7  C   UNL d   1      -0.117   0.654  -0.049  0.00  0.00     0.009 A 
ATOM      8  O   UNL d   1       1.135  -2.684   0.071  0.00  0.00    -0.265 OA
ATOM      9  C   UNL d   1      -1.298  -1.467   0.010  0.00  0.00     0.018 A 
ATOM     10  C   UNL d   1      -1.354   1.292  -0.236  0.00  0.00     0.015 A 
ATOM     11  C   UNL d   1      -2.524  -0.814  -0.077  0.00  0.00     0.001 A 
ATOM     12  C   UNL d   1      -2.550   0.567  -0.215  0.00  0.00     0.001 A 
ENDROOT
BRANCH   5  13
ATOM     13  C   UNL d   1       1.279   2.852   0.185  0.00  0.00    -0.006 C 
ATOM     14  C   UNL d   1       2.348   3.523  -0.428  0.00  0.00     0.030 C 
ATOM     15  C   UNL d   1       2.407   4.928  -0.438  0.00  0.00     0.049 C 
ATOM     16  C   UNL d   1       1.349   5.657   0.134  0.00  0.00     0.032 C 
ATOM     17  C   UNL d   1       0.290   5.003   0.779  0.00  0.00     0.049 C 
ATOM     18  C   UNL d   1       0.313   3.603   0.866  0.00  0.00     0.030 C 
BRANCH  15  19
ATOM     19  C   UNL d   1       3.567   5.664  -1.070  0.00  0.00     0.417 C 
ATOM     20  F   UNL d   1       4.538   4.847  -1.556  0.00  0.00    -0.166 F 
ATOM     21  F   UNL d   1       3.174   6.447  -2.112  0.00  0.00    -0.166 F 
ATOM     22  F   UNL d   1       4.184   6.500  -0.189  0.00  0.00    -0.166 F 
ENDBRANCH  15  19
BRANCH  17  23
ATOM     23  C   UNL d   1      -0.882   5.787   1.322  0.00  0.00     0.417 C 
ATOM     24  F   UNL d   1      -1.881   4.993   1.800  0.00  0.00    -0.166 F 
ATOM     25  F   UNL d   1      -0.537   6.620   2.337  0.00  0.00    -0.166 F 
ATOM     26  F   UNL d   1      -1.461   6.567   0.367  0.00  0.00    -0.166 F 
ENDBRANCH  17  23
ENDBRANCH   5  13
BRANCH   1  27
ATOM     27  C   UNL d   1       3.654  -1.238  -0.160  0.00  0.00     0.060 A 
ATOM     28  C   UNL d   1       3.856  -2.501  -0.741  0.00  0.00     0.031 A 
ATOM     29  C   UNL d   1       5.138  -3.047  -0.877  0.00  0.00     0.002 A 
ATOM     30  C   UNL d   1       6.246  -2.340  -0.424  0.00  0.00     0.000 A 
ATOM     31  C   UNL d   1       6.074  -1.083   0.148  0.00  0.00     0.002 A 
ATOM     32  C   UNL d   1       4.791  -0.532   0.265  0.00  0.00     0.031 A 
ENDBRANCH   1  27
TORSDOF 4
