REMARK  3 active torsions:
REMARK  status: ('A' for Active; 'I' for Inactive)
REMARK    1  A    between atoms: C_6  and  C_1 
REMARK    2  A    between atoms: N_12  and  C_2 
REMARK    3  A    between atoms: C_10  and  N_3 
REMARK       I    between atoms: N_8  and  C_6 
REMARK       I    between atoms: C_9  and  N_8 
ROOT
ATOM      1  C   UNL d   1      -0.201   1.183   0.140  0.00  0.00     0.089 C 
ATOM      2  C   UNL d   1       1.101   0.701   0.206  0.00  0.00     0.118 C 
ATOM      3  N   UNL d   1       0.995  -0.709   0.120  0.00  0.00    -0.245 N 
ATOM      4  N   UNL d   1      -0.270  -1.079  -0.208  0.00  0.00    -0.303 N 
ATOM      5  HN  UNL d   1      -0.600  -2.010  -0.465  1.00  0.00     0.186 HD
ATOM      6  C   UNL d   1      -0.982   0.037  -0.120  0.00  0.00     0.128 C 
ENDROOT
BRANCH   1   7
ATOM      7  C   UNL d   1      -0.753   2.528   0.224  0.00  0.00     0.263 C 
ATOM      8  N   UNL d   1       0.120   3.521   0.610  0.00  0.00    -0.294 N 
ATOM      9  C   UNL d   1      -0.182   4.867   0.526  0.00  0.00     0.220 C 
ATOM     10  H   UNL d   1       1.052   3.236   0.871  0.00  0.00     0.172 HD
ATOM     11  O   UNL d   1      -1.292   5.351   0.351  0.00  0.00    -0.274 OA
ATOM     12  C   UNL d   1       1.021   5.761   0.666  0.00  0.00     0.117 C 
ATOM     13  O   UNL d   1      -1.939   2.705  -0.021  0.00  0.00    -0.267 OA
ENDBRANCH   1   7
BRANCH   2  14
ATOM     14  N   UNL d   1       2.289   1.385   0.240  0.00  0.00    -0.286 NA
ATOM     15  H   UNL d   1       2.352   2.228  -0.330  0.00  0.00     0.125 HD
ATOM     16  H   UNL d   1       3.132   0.841   0.038  0.00  0.00     0.125 HD
ENDBRANCH   2  14
BRANCH   3  17
ATOM     17  C   UNL d   1       1.985  -1.725   0.280  0.00  0.00     0.058 A 
ATOM     18  C   UNL d   1       3.149  -1.512   1.028  0.00  0.00     0.031 A 
ATOM     19  C   UNL d   1       4.082  -2.544   1.179  0.00  0.00     0.002 A 
ATOM     20  C   UNL d   1       3.856  -3.793   0.602  0.00  0.00     0.000 A 
ATOM     21  C   UNL d   1       2.692  -4.020  -0.127  0.00  0.00     0.002 A 
ATOM     22  C   UNL d   1       1.757  -2.994  -0.283  0.00  0.00     0.031 A 
ENDBRANCH   3  17
TORSDOF 3
