REMARK  3 active torsions:
REMARK  status: ('A' for Active; 'I' for Inactive)
REMARK    1  A    between atoms: N_6  and  C_1 
REMARK       I    between atoms: C_5  and  N_6 
REMARK       I    between atoms: N_11  and  C_5 
REMARK    2  A    between atoms: C_18  and  N_11 
REMARK    3  A    between atoms: C_17  and  C_18 
ROOT
ATOM      1  C   UNL d   1      -0.252  -3.720  -0.218  0.00  0.00     0.321 C 
ATOM      2  N   UNL d   1      -0.073  -4.943  -0.816  0.00  0.00    -0.308 N 
ATOM      3  N   UNL d   1      -1.549  -3.605   0.259  0.00  0.00    -0.339 N 
ATOM      4  O   UNL d   1       0.547  -2.809  -0.094  0.00  0.00    -0.247 OA
ATOM      5  H   UNL d   1      -0.921  -5.476  -0.938  0.00  0.00     0.170 HD
ATOM      6  H   UNL d   1      -1.932  -4.447   0.661  0.00  0.00     0.164 HD
ENDROOT
BRANCH   2   7
ATOM      7  C   UNL d   1       1.096  -5.557  -1.269  0.00  0.00     0.054 A 
ATOM      8  C   UNL d   1       2.482  -5.111  -1.312  0.00  0.00     0.008 A 
ATOM      9  C   UNL d   1       3.336  -6.164  -1.683  0.00  0.00     0.017 A 
ATOM     10  C   UNL d   1       3.119  -3.869  -1.045  0.00  0.00     0.015 A 
ATOM     11  C   UNL d   1       4.742  -6.031  -1.697  0.00  0.00     0.020 A 
ATOM     12  S   UNL d   1       2.465  -7.579  -2.115  0.00  0.00    -0.099 SA
ATOM     13  C   UNL d   1       5.318  -4.806  -1.373  0.00  0.00     0.001 A 
ATOM     14  C   UNL d   1       4.511  -3.725  -1.072  0.00  0.00     0.001 A 
ATOM     15  C   UNL d   1       0.979  -6.847  -1.756  0.00  0.00     0.081 A 
ENDBRANCH   2   7
BRANCH   3  16
ATOM     16  C   UNL d   1      -1.932  -2.375   0.922  0.00  0.00     0.163 C 
BRANCH  16  17
ATOM     17  C   UNL d   1      -3.384  -2.395   1.326  0.00  0.00    -0.038 A 
ATOM     18  C   UNL d   1      -3.754  -2.063   2.639  0.00  0.00     0.048 A 
ATOM     19  C   UNL d   1      -5.096  -2.067   2.958  0.00  0.00     0.105 A 
ATOM     20  O   UNL d   1      -5.624  -1.763   4.173  0.00  0.00    -0.323 OA
ATOM     21  C   UNL d   1      -6.061  -2.388   2.033  0.00  0.00     0.105 A 
ATOM     22  C   UNL d   1      -7.035  -1.885   3.894  0.00  0.00     0.352 A 
ATOM     23  O   UNL d   1      -7.317  -2.330   2.551  0.00  0.00    -0.323 OA
ATOM     24  C   UNL d   1      -5.741  -2.716   0.735  0.00  0.00     0.040 A 
ATOM     25  C   UNL d   1      -4.388  -2.709   0.378  0.00  0.00     0.012 A 
ENDBRANCH  16  17
ENDBRANCH   3  16
TORSDOF 3
