REMARK  3 active torsions:
REMARK  status: ('A' for Active; 'I' for Inactive)
REMARK    1  A    between atoms: C_4  and  C_1 
REMARK    2  A    between atoms: C_7  and  C_4 
REMARK       I    between atoms: N_8  and  C_7 
REMARK    3  A    between atoms: C_10  and  N_8 
ROOT
ATOM      1  C   UNL d   1       3.594   0.752  -0.504  0.00  0.00     0.150 C 
ENDROOT
BRANCH   1   2
ATOM      2  C   UNL d   1       2.464  -0.204  -0.245  0.00  0.00    -0.001 C 
ATOM      3  S   UNL d   1       1.561  -0.102   1.204  0.00  0.00    -0.093 SA
ATOM      4  C   UNL d   1       0.887  -1.666   0.986  0.00  0.00     0.016 A 
ATOM      5  C   UNL d   1       0.048  -2.362   1.878  0.00  0.00     0.019 A 
ATOM      6  C   UNL d   1       1.308  -2.229  -0.220  0.00  0.00    -0.012 A 
ATOM      7  C   UNL d   1      -0.274  -3.692   1.601  0.00  0.00     0.001 A 
ATOM      8  C   UNL d   1       0.201  -4.307   0.452  0.00  0.00     0.001 A 
ATOM      9  C   UNL d   1       0.956  -3.580  -0.474  0.00  0.00     0.013 A 
ATOM     10  C   UNL d   1       2.063  -1.285  -1.015  0.00  0.00    -0.037 C 
ATOM     11  C   UNL d   1       2.469  -1.521  -2.435  0.00  0.00     0.050 C 
ENDBRANCH   1   2
BRANCH   1  12
ATOM     12  C   UNL d   1       3.163   2.087  -1.073  0.00  0.00     0.226 C 
ATOM     13  N   UNL d   1       2.385   2.825  -0.196  0.00  0.00    -0.327 N 
ATOM     14  H   UNL d   1       1.968   2.309   0.575  0.00  0.00     0.169 HD
ATOM     15  O   UNL d   1       3.581   2.472  -2.163  0.00  0.00    -0.273 OA
BRANCH  13  16
ATOM     16  C   UNL d   1       2.082   4.197  -0.256  0.00  0.00     0.034 A 
ATOM     17  C   UNL d   1       2.657   5.082  -1.169  0.00  0.00     0.029 A 
ATOM     18  C   UNL d   1       2.351   6.446  -1.119  0.00  0.00     0.002 A 
ATOM     19  C   UNL d   1       1.464   6.930  -0.162  0.00  0.00     0.000 A 
ATOM     20  C   UNL d   1       0.881   6.054   0.748  0.00  0.00     0.002 A 
ATOM     21  C   UNL d   1       1.190   4.694   0.704  0.00  0.00     0.029 A 
ENDBRANCH  13  16
ENDBRANCH   1  12
TORSDOF 3
