REMARK  7 active torsions:
REMARK  status: ('A' for Active; 'I' for Inactive)
REMARK    1  A    between atoms: C_2  and  C_1 
REMARK       I    between atoms: N_4  and  C_1 
REMARK    2  A    between atoms: C_3  and  N_5 
REMARK    3  A    between atoms: N_12  and  C_3 
REMARK    4  A    between atoms: C_9  and  N_4 
REMARK    5  A    between atoms: N_5  and  C_11 
REMARK    6  A    between atoms: O_13  and  C_7 
REMARK    7  A    between atoms: C_19  and  N_12 
ROOT
ATOM      1  C   UNL d   1      -1.142   1.291  -0.736  0.00  0.00     0.037 A 
ATOM      2  C   UNL d   1      -1.790   1.114   0.489  0.00  0.00     0.059 A 
ATOM      3  C   UNL d   1      -3.188   1.176   0.612  0.00  0.00     0.036 A 
ATOM      4  C   UNL d   1      -3.308   1.669  -1.749  0.00  0.00     0.004 A 
ATOM      5  C   UNL d   1      -1.917   1.571  -1.861  0.00  0.00     0.029 A 
ATOM      6  C   UNL d   1      -3.942   1.464  -0.518  0.00  0.00     0.029 A 
ENDROOT
BRANCH   1   7
ATOM      7  N   UNL d   1       0.255   1.125  -0.902  0.00  0.00    -0.323 N 
ATOM      8  C   UNL d   1       1.178   0.919   0.110  0.00  0.00     0.259 C 
ATOM      9  O   UNL d   1       0.960   1.078   1.312  0.00  0.00    -0.267 OA
ATOM     10  H   UNL d   1       0.588   1.183  -1.854  0.00  0.00     0.169 HD
BRANCH   8  11
ATOM     11  C   UNL d   1       2.558   0.482  -0.271  0.00  0.00     0.065 A 
ATOM     12  C   UNL d   1       3.571   0.476   0.707  0.00  0.00     0.081 A 
ATOM     13  C   UNL d   1       4.856   0.025   0.411  0.00  0.00     0.037 A 
ATOM     14  C   UNL d   1       5.152  -0.434  -0.870  0.00  0.00     0.003 A 
ATOM     15  C   UNL d   1       4.161  -0.444  -1.849  0.00  0.00     0.001 A 
ATOM     16  C   UNL d   1       2.868   0.005  -1.554  0.00  0.00     0.020 A 
BRANCH  12  17
ATOM     17  O   UNL d   1       3.379   0.889   2.001  0.00  0.00    -0.360 OA
ATOM     18  H   UNL d   1       2.421   1.083   2.113  0.00  0.00     0.217 HD
ENDBRANCH  12  17
ENDBRANCH   8  11
ENDBRANCH   1   7
BRANCH   3  19
ATOM     19  N   UNL d   1      -3.683   0.839   1.889  0.00  0.00    -0.333 N 
ATOM     20  H   UNL d   1      -2.952   0.677   2.566  0.00  0.00     0.168 HD
BRANCH  19  21
ATOM     21  C   UNL d   1      -4.932   0.620   2.397  0.00  0.00     0.172 C 
ATOM     22  S   UNL d   1      -6.417   1.115   1.823  0.00  0.00    -0.041 SA
BRANCH  21  23
ATOM     23  N   UNL d   1      -4.946  -0.146   3.541  0.00  0.00    -0.367 N 
ATOM     24  H   UNL d   1      -5.884  -0.346   3.873  0.00  0.00     0.161 HD
BRANCH  23  25
ATOM     25  C   UNL d   1      -3.866  -0.933   4.127  0.00  0.00     0.117 C 
ATOM     26  C   UNL d   1      -3.461  -2.105   3.248  0.00  0.00     0.026 C 
ENDBRANCH  23  25
ENDBRANCH  21  23
ENDBRANCH  19  21
ENDBRANCH   3  19
TORSDOF 7
