REMARK  2 active torsions:
REMARK  status: ('A' for Active; 'I' for Inactive)
REMARK    1  A    between atoms: N_4  and  C_1 
REMARK    2  A    between atoms: O_11  and  C_2 
ROOT
ATOM      1  C   UNL d   1      -1.839  -1.233  -0.094  0.00  0.00     0.212 A 
ATOM      2  C   UNL d   1      -0.616  -1.798  -0.105  0.00  0.00     0.120 A 
ATOM      3  C   UNL d   1      -2.121   0.201  -0.006  0.00  0.00     0.324 A 
ATOM      4  O   UNL d   1      -1.012   1.038  -0.045  0.00  0.00    -0.273 OA
ATOM      5  C   UNL d   1       0.525  -0.858  -0.030  0.00  0.00     0.034 A 
ATOM      6  C   UNL d   1       0.292   0.517  -0.038  0.00  0.00     0.092 A 
ATOM      7  O   UNL d   1      -3.249   0.670   0.088  0.00  0.00    -0.257 OA
ATOM      8  C   UNL d   1       1.859  -1.289   0.027  0.00  0.00     0.017 A 
ATOM      9  C   UNL d   1       1.331   1.449  -0.020  0.00  0.00     0.038 A 
ATOM     10  C   UNL d   1       2.911  -0.367   0.057  0.00  0.00     0.001 A 
ATOM     11  C   UNL d   1       2.647   1.001   0.024  0.00  0.00     0.003 A 
ENDROOT
BRANCH   1  12
ATOM     12  N   UNL d   1      -3.009  -2.034  -0.198  0.00  0.00    -0.106 N 
ATOM     13  O   UNL d   1      -3.442  -2.249  -1.338  0.00  0.00    -0.531 OA
ATOM     14  O   UNL d   1      -3.485  -2.482   0.854  0.00  0.00    -0.531 OA
ENDBRANCH   1  12
BRANCH   2  15
ATOM     15  O   UNL d   1      -0.204  -3.102  -0.193  0.00  0.00    -0.352 OA
ATOM     16  C   UNL d   1      -1.080  -4.213  -0.302  0.00  0.00     0.210 C 
ENDBRANCH   2  15
TORSDOF 2
