REMARK  6 active torsions:
REMARK  status: ('A' for Active; 'I' for Inactive)
REMARK    1  A    between atoms: C_4  and  C_1 
REMARK    2  A    between atoms: C_9  and  C_3 
REMARK       I    between atoms: N_7  and  C_4 
REMARK    3  A    between atoms: C_15  and  N_7 
REMARK    4  A    between atoms: C_10  and  C_13 
REMARK    5  A    between atoms: C_13  and  S_14 
REMARK    6  A    between atoms: S_14  and  C_16 
ROOT
ATOM      1  C   UNL d   1      -4.269   0.715  -0.223  0.00  0.00     0.035 A 
ATOM      2  C   UNL d   1      -4.996   3.449  -0.124  0.00  0.00     0.001 A 
ATOM      3  C   UNL d   1      -3.320   1.714  -0.452  0.00  0.00     0.031 A 
ATOM      4  C   UNL d   1      -5.600   1.097  -0.027  0.00  0.00     0.031 A 
ATOM      5  C   UNL d   1      -5.961   2.448   0.010  0.00  0.00     0.021 A 
ATOM      6  C   UNL d   1      -3.680   3.070  -0.398  0.00  0.00     0.021 A 
ENDROOT
BRANCH   1   7
ATOM      7  N   UNL d   1      -3.978  -0.666  -0.136  0.00  0.00    -0.323 N 
ATOM      8  C   UNL d   1      -2.741  -1.272  -0.244  0.00  0.00     0.258 C 
ATOM      9  O   UNL d   1      -1.693  -0.681  -0.500  0.00  0.00    -0.267 OA
ATOM     10  H   UNL d   1      -4.751  -1.252   0.130  0.00  0.00     0.169 HD
BRANCH   8  11
ATOM     11  C   UNL d   1      -2.702  -2.718   0.012  0.00  0.00     0.064 A 
ATOM     12  C   UNL d   1      -1.480  -3.448   0.206  0.00  0.00     0.053 A 
ATOM     13  C   UNL d   1      -1.803  -4.771   0.399  0.00  0.00     0.062 A 
ATOM     14  O   UNL d   1      -3.156  -4.904   0.356  0.00  0.00    -0.318 OA
ATOM     15  C   UNL d   1      -3.703  -3.678   0.103  0.00  0.00     0.065 A 
ATOM     16  C   UNL d   1      -5.177  -3.724  -0.017  0.00  0.00     0.077 C 
BRANCH  13  17
ATOM     17  C   UNL d   1      -1.011  -6.034   0.618  0.00  0.00    -0.002 C 
ATOM     18  C   UNL d   1       0.502  -5.763   0.523  0.00  0.00     0.021 C 
ATOM     19  C   UNL d   1      -1.320  -6.609   2.011  0.00  0.00     0.021 C 
ATOM     20  C   UNL d   1      -1.387  -7.069  -0.459  0.00  0.00     0.021 C 
ENDBRANCH  13  17
ENDBRANCH   8  11
ENDBRANCH   1   7
BRANCH   2  21
ATOM     21  S   UNL d   1      -5.391   5.185   0.048  0.00  0.00    -0.125 SA
BRANCH  21  22
ATOM     22  C   UNL d   1      -6.484   5.126   1.510  0.00  0.00     0.121 C 
BRANCH  22  23
ATOM     23  C   UNL d   1      -6.871   6.488   2.023  0.00  0.00    -0.008 A 
ATOM     24  C   UNL d   1      -8.196   6.929   1.913  0.00  0.00     0.145 A 
ATOM     25  C   UNL d   1      -8.589   8.164   2.430  0.00  0.00     0.073 A 
ATOM     26  F   UNL d   1      -9.104   6.135   1.321  0.00  0.00    -0.204 F 
ATOM     27 CL   UNL d   1     -10.226   8.685   2.308  0.00  0.00    -0.081 Cl
ATOM     28  C   UNL d   1      -7.657   8.981   3.067  0.00  0.00     0.027 A 
ATOM     29  C   UNL d   1      -6.331   8.558   3.182  0.00  0.00     0.002 A 
ATOM     30  C   UNL d   1      -5.940   7.319   2.665  0.00  0.00     0.011 A 
ENDBRANCH  22  23
ENDBRANCH  21  22
ENDBRANCH   2  21
TORSDOF 6
