REMARK  2 active torsions:
REMARK  status: ('A' for Active; 'I' for Inactive)
REMARK       I    between atoms: N_2  and  C_1 
REMARK    1  A    between atoms: C_15  and  C_1 
REMARK    2  A    between atoms: C_4  and  N_3 
ROOT
ATOM      1  C   UNL d   1      -1.086  -5.272   0.135  0.00  0.00     0.103 A 
ATOM      2  N   UNL d   1      -1.274  -5.657   1.418  0.00  0.00    -0.351 N 
ATOM      3  HN  UNL d   1      -0.859  -5.124   2.183  1.00  0.00     0.166 HD
ATOM      4  N   UNL d   1      -3.986  -9.637   1.319  0.00  0.00    -0.191 NA
ATOM      5  C   UNL d   1      -3.365  -8.698   1.038  0.00  0.00     0.101 C 
ATOM      6  C   UNL d   1      -2.601  -7.542   0.695  0.00  0.00     0.060 A 
ATOM      7  C   UNL d   1      -1.648  -6.018  -0.902  0.00  0.00     0.050 A 
ATOM      8  C   UNL d   1      -2.020  -6.760   1.674  0.00  0.00     0.112 A 
ATOM      9  C   UNL d   1      -2.405  -7.162  -0.626  0.00  0.00     0.028 A 
ENDROOT
BRANCH   1  10
ATOM     10  N   UNL d   1      -0.304  -4.168  -0.109  0.00  0.00    -0.364 N 
ATOM     11  C   UNL d   1      -0.527  -3.256  -1.242  0.00  0.00     0.144 C 
ATOM     12  C   UNL d   1      -0.687  -1.788  -0.780  0.00  0.00     0.146 C 
ATOM     13  N   UNL d   1       0.325  -1.400   0.208  0.00  0.00    -0.345 N 
ATOM     14  C   UNL d   1       1.052  -0.230   0.013  0.00  0.00     0.253 C 
ATOM     15  C   UNL d   1       0.352  -2.298   1.372  0.00  0.00     0.146 C 
ATOM     16  O   UNL d   1       0.864   0.510  -0.949  0.00  0.00    -0.267 OA
ATOM     17  C   UNL d   1       0.661  -3.731   0.911  0.00  0.00     0.144 C 
BRANCH  14  18
ATOM     18  C   UNL d   1       2.082   0.192   0.998  0.00  0.00     0.032 A 
ATOM     19  C   UNL d   1       3.062  -0.681   1.483  0.00  0.00     0.017 A 
ATOM     20  C   UNL d   1       3.970  -0.246   2.451  0.00  0.00     0.001 A 
ATOM     21  C   UNL d   1       3.943   1.078   2.889  0.00  0.00     0.000 A 
ATOM     22  C   UNL d   1       3.022   1.975   2.347  0.00  0.00     0.001 A 
ATOM     23  C   UNL d   1       2.095   1.534   1.402  0.00  0.00     0.017 A 
ENDBRANCH  14  18
ENDBRANCH   1  10
TORSDOF 2
