REMARK  7 active torsions:
REMARK  status: ('A' for Active; 'I' for Inactive)
REMARK    1  A    between atoms: O_3  and  S_1 
REMARK    2  A    between atoms: C_7  and  S_1 
REMARK    3  A    between atoms: S_2  and  O_8 
REMARK    4  A    between atoms: C_9  and  S_2 
REMARK    5  A    between atoms: C_4  and  O_3 
REMARK    6  A    between atoms: C_18  and  C_6 
REMARK    7  A    between atoms: O_8  and  C_18 
ROOT
ATOM      1  C   UNL d   1       0.864   2.309   1.005  0.00  0.00     0.147 C 
ATOM      2  C   UNL d   1       1.601   1.533   2.117  0.00  0.00     0.022 C 
ATOM      3  C   UNL d   1       2.634   0.576   1.455  0.00  0.00     0.018 C 
ATOM      4  C   UNL d   1       3.187   2.910   1.412  0.00  0.00    -0.011 C 
ATOM      5  C   UNL d   1       2.007   3.184   0.441  0.00  0.00     0.038 C 
ATOM      6  C   UNL d   1       2.470   2.631   2.727  0.00  0.00     0.012 C 
ATOM      7  C   UNL d   1       3.795   1.526   1.120  0.00  0.00     0.012 C 
ENDROOT
BRANCH   3   8
ATOM      8  C   UNL d   1       2.966  -0.611   2.353  0.00  0.00     0.195 C 
BRANCH   8   9
ATOM      9  O   UNL d   1       1.787  -1.405   2.371  0.00  0.00    -0.272 OA
BRANCH   9  10
ATOM     10  S   UNL d   1       1.736  -2.820   3.167  0.00  0.00     0.298 S 
ATOM     11  O   UNL d   1       0.389  -3.340   3.113  0.00  0.00    -0.193 OA
ATOM     12  O   UNL d   1       2.862  -3.618   2.709  0.00  0.00    -0.193 OA
BRANCH  10  13
ATOM     13  C   UNL d   1       2.052  -2.365   4.853  0.00  0.00     0.086 A 
ATOM     14  C   UNL d   1       1.198  -1.454   5.484  0.00  0.00     0.026 A 
ATOM     15  C   UNL d   1       1.522  -0.994   6.761  0.00  0.00     0.008 A 
ATOM     16  C   UNL d   1       2.692  -1.434   7.398  0.00  0.00    -0.062 A 
ATOM     17  C   UNL d   1       3.509  -2.381   6.766  0.00  0.00     0.008 A 
ATOM     18  C   UNL d   1       3.059  -0.902   8.753  0.00  0.00     0.048 C 
ATOM     19  C   UNL d   1       3.191  -2.849   5.493  0.00  0.00     0.026 A 
ENDBRANCH  10  13
ENDBRANCH   9  10
ENDBRANCH   8   9
ENDBRANCH   3   8
BRANCH   1  20
ATOM     20  O   UNL d   1       0.250   1.464   0.033  0.00  0.00    -0.266 OA
BRANCH  20  21
ATOM     21  S   UNL d   1      -1.117   0.695   0.521  0.00  0.00     0.298 S 
ATOM     22  O   UNL d   1      -2.152   1.694   0.680  0.00  0.00    -0.193 OA
ATOM     23  O   UNL d   1      -0.755  -0.172   1.626  0.00  0.00    -0.193 OA
BRANCH  21  24
ATOM     24  C   UNL d   1      -1.648  -0.394  -0.780  0.00  0.00     0.086 A 
ATOM     25  C   UNL d   1      -1.317  -0.203  -2.121  0.00  0.00     0.026 A 
ATOM     26  C   UNL d   1      -1.670  -1.194  -3.053  0.00  0.00     0.008 A 
ATOM     27  C   UNL d   1      -2.329  -2.367  -2.645  0.00  0.00    -0.062 A 
ATOM     28  C   UNL d   1      -2.710  -2.505  -1.308  0.00  0.00     0.008 A 
ATOM     29  C   UNL d   1      -2.576  -3.492  -3.609  0.00  0.00     0.048 C 
ATOM     30  C   UNL d   1      -2.374  -1.524  -0.383  0.00  0.00     0.026 A 
ENDBRANCH  21  24
ENDBRANCH  20  21
ENDBRANCH   1  20
TORSDOF 7
