REMARK  4 active torsions:
REMARK  status: ('A' for Active; 'I' for Inactive)
REMARK    1  A    between atoms: C_3  and  C_1 
REMARK    2  A    between atoms: C_7  and  C_1 
REMARK    3  A    between atoms: C_9  and  C_2 
REMARK    4  A    between atoms: N_4  and  C_3 
ROOT
ATOM      1  C   UNL d   1       0.951  -0.061   0.063  0.00  0.00     0.039 C 
ATOM      2  C   UNL d   1       0.265   1.099   0.032  0.00  0.00     0.033 C 
ENDROOT
BRANCH   1   3
ATOM      3  C   UNL d   1       2.471  -0.061   0.063  0.00  0.00    -0.036 C 
BRANCH   3   4
ATOM      4  N   UNL d   1       3.732  -0.061   0.063  0.00  0.00    -0.365 N 
ATOM      5  HN2 UNL d   1       2.712  -0.061   0.063  1.00  0.00     0.165 HD
ATOM      6  HN1 UNL d   1       4.752  -0.061   0.063  1.00  0.00     0.165 HD
ENDBRANCH   3   4
ENDBRANCH   1   3
BRANCH   1   7
ATOM      7  C   UNL d   1       0.247  -1.350   0.110  0.00  0.00     0.005 A 
ATOM      8  C   UNL d   1      -0.100  -2.063  -1.049  0.00  0.00     0.045 A 
ATOM      9 CL   UNL d   1       0.269  -1.466  -2.630  0.00  0.00    -0.083 Cl
ATOM     10  C   UNL d   1      -0.766  -3.288  -0.953  0.00  0.00     0.024 A 
ATOM     11  C   UNL d   1      -1.093  -3.811   0.298  0.00  0.00     0.002 A 
ATOM     12  C   UNL d   1      -0.757  -3.110   1.455  0.00  0.00     0.001 A 
ATOM     13  C   UNL d   1      -0.092  -1.886   1.363  0.00  0.00     0.014 A 
ENDBRANCH   1   7
BRANCH   2  14
ATOM     14  C   UNL d   1       0.905   2.419  -0.024  0.00  0.00    -0.035 A 
ATOM     15  C   UNL d   1       1.237   2.987  -1.260  0.00  0.00     0.013 A 
ATOM     16  C   UNL d   1       1.872   4.232  -1.316  0.00  0.00     0.024 A 
ATOM     17  C   UNL d   1       2.178   4.909  -0.136  0.00  0.00     0.034 A 
ATOM     18  C   UNL d   1       1.859   4.348   1.099  0.00  0.00     0.024 A 
ATOM     19 CL   UNL d   1       2.954   6.443  -0.205  0.00  0.00    -0.084 Cl
ATOM     20  C   UNL d   1       1.223   3.103   1.156  0.00  0.00     0.013 A 
ENDBRANCH   2  14
TORSDOF 4
