REMARK  3 active torsions:
REMARK  status: ('A' for Active; 'I' for Inactive)
REMARK    1  A    between atoms: S_10  and  C_1 
REMARK    2  A    between atoms: C_6  and  S_10 
REMARK    3  A    between atoms: C_14  and  C_11 
ROOT
ATOM      1  C   UNL d   1       1.730  -3.357  -0.065  0.00  0.00     0.149 A 
ATOM      2  N   UNL d   1       2.243  -4.077  -1.082  0.00  0.00    -0.336 N 
ATOM      3  HN  UNL d   1       1.698  -4.264  -1.924  1.00  0.00     0.168 HD
ATOM      4  C   UNL d   1       3.504  -4.541  -0.947  0.00  0.00     0.047 A 
ATOM      5  N   UNL d   1       2.380  -3.074   1.074  0.00  0.00    -0.346 N 
ATOM      6  HN  UNL d   1       1.945  -2.536   1.823  1.00  0.00     0.167 HD
ATOM      7  C   UNL d   1       4.249  -4.281   0.190  0.00  0.00     0.047 A 
ATOM      8  C   UNL d   1       3.634  -3.539   1.171  0.00  0.00     0.092 A 
ENDROOT
BRANCH   1   9
ATOM      9  S   UNL d   1       0.028  -2.871  -0.191  0.00  0.00    -0.050 SA
BRANCH   9  10
ATOM     10  C   UNL d   1       0.128  -1.237  -0.791  0.00  0.00     0.055 A 
ATOM     11  C   UNL d   1       0.609  -0.792  -2.005  0.00  0.00     0.041 A 
ATOM     12  N   UNL d   1       0.382   0.557  -2.010  0.00  0.00    -0.304 N 
ATOM     13  C   UNL d   1       1.229  -1.478  -3.161  0.00  0.00     0.071 C 
ATOM     14  N   UNL d   1      -0.205   1.016  -0.895  0.00  0.00    -0.304 N 
ATOM     15  H   UNL d   1       0.587   1.222  -2.748  0.00  0.00     0.186 HD
ATOM     16  C   UNL d   1      -0.377  -0.080  -0.143  0.00  0.00     0.041 A 
ATOM     17  HN  UNL d   1      -0.462   1.978  -0.671  1.00  0.00     0.186 HD
ATOM     18  C   UNL d   1      -1.040   0.031   1.180  0.00  0.00     0.071 C 
ENDBRANCH   9  10
ENDBRANCH   1   9
BRANCH   4  19
ATOM     19  C   UNL d   1       4.031  -5.311  -2.087  0.00  0.00     0.006 A 
ATOM     20  C   UNL d   1       3.571  -5.091  -3.388  0.00  0.00     0.101 A 
ATOM     21  N   UNL d   1       4.040  -5.713  -4.501  0.00  0.00    -0.374 N 
ATOM     22  C   UNL d   1       5.011  -6.629  -4.319  0.00  0.00     0.087 A 
ATOM     23  HN  UNL d   1       3.675  -5.498  -5.429  1.00  0.00     0.164 HD
ATOM     24  C   UNL d   1       5.524  -6.958  -3.078  0.00  0.00     0.018 A 
ATOM     25  C   UNL d   1       5.024  -6.295  -1.956  0.00  0.00     0.016 A 
ENDBRANCH   4  19
TORSDOF 3
