REMARK  5 active torsions:
REMARK  status: ('A' for Active; 'I' for Inactive)
REMARK    1  A    between atoms: C_9  and  C_4 
REMARK    2  A    between atoms: N_7  and  C_10 
REMARK    3  A    between atoms: N_8  and  C_14 
REMARK       I    between atoms: N_16  and  C_9 
REMARK    4  A    between atoms: C_24  and  N_16 
REMARK    5  A    between atoms: C_25  and  N_16 
ROOT
ATOM      1  C   UNL d   1      -0.624   0.714  -0.203  0.00  0.00     0.005 A 
ATOM      2  C   UNL d   1      -1.130  -0.595  -0.039  0.00  0.00     0.029 A 
ATOM      3  C   UNL d   1       1.226  -0.722  -0.085  0.00  0.00     0.028 A 
ATOM      4  C   UNL d   1      -1.544   1.761  -0.168  0.00  0.00     0.046 C 
ATOM      5  C   UNL d   1       0.835   0.613  -0.320  0.00  0.00    -0.010 A 
ATOM      6  C   UNL d   1       0.005  -1.522   0.086  0.00  0.00     0.194 A 
ATOM      7  C   UNL d   1      -3.377   0.125  -0.072  0.00  0.00     0.104 C 
ATOM      8  C   UNL d   1      -2.473  -0.928   0.026  0.00  0.00     0.052 C 
ATOM      9  C   UNL d   1      -2.925   1.456  -0.173  0.00  0.00     0.054 C 
ATOM     10  C   UNL d   1       2.533  -1.177  -0.077  0.00  0.00     0.052 A 
ATOM     11  C   UNL d   1       3.517  -0.235  -0.379  0.00  0.00     0.103 A 
ATOM     12  C   UNL d   1       1.823   1.516  -0.681  0.00  0.00     0.016 A 
ATOM     13  O   UNL d   1      -0.058  -2.717   0.294  0.00  0.00    -0.287 OA
ATOM     14  C   UNL d   1       3.167   1.092  -0.716  0.00  0.00     0.037 A 
ENDROOT
BRANCH   4  15
ATOM     15  C   UNL d   1      -1.185   3.201  -0.122  0.00  0.00     0.254 C 
ATOM     16  N   UNL d   1      -1.791   4.026   0.847  0.00  0.00    -0.349 N 
ATOM     17  O   UNL d   1      -0.434   3.622  -0.996  0.00  0.00    -0.267 OA
BRANCH  16  18
ATOM     18  C   UNL d   1      -1.623   5.479   0.695  0.00  0.00     0.121 C 
ATOM     19  C   UNL d   1      -0.695   6.092   1.733  0.00  0.00     0.026 C 
ENDBRANCH  16  18
BRANCH  16  20
ATOM     20  C   UNL d   1      -2.380   3.543   2.112  0.00  0.00     0.121 C 
ATOM     21  C   UNL d   1      -3.778   4.085   2.385  0.00  0.00     0.026 C 
ENDBRANCH  16  20
ENDBRANCH   4  15
BRANCH   7  22
ATOM     22  N   UNL d   1      -4.818  -0.144  -0.016  0.00  0.00    -0.116 N 
ATOM     23  O   UNL d   1      -5.183  -1.325  -0.054  0.00  0.00    -0.532 OA
ATOM     24  O   UNL d   1      -5.577   0.829   0.077  0.00  0.00    -0.532 OA
ENDBRANCH   7  22
BRANCH  11  25
ATOM     25  N   UNL d   1       4.930  -0.631  -0.341  0.00  0.00    -0.116 N 
ATOM     26  O   UNL d   1       5.199  -1.763   0.087  0.00  0.00    -0.532 OA
ATOM     27  O   UNL d   1       5.770   0.195  -0.723  0.00  0.00    -0.532 OA
ENDBRANCH  11  25
TORSDOF 5
