REMARK  6 active torsions:
REMARK  status: ('A' for Active; 'I' for Inactive)
REMARK    1  A    between atoms: N_4  and  C_1 
REMARK    2  A    between atoms: C_3  and  N_4 
REMARK    3  A    between atoms: C_10  and  N_6 
REMARK    4  A    between atoms: C_9  and  C_10 
REMARK    5  A    between atoms: O_12  and  C_9 
REMARK    6  A    between atoms: O_13  and  C_9 
ROOT
ATOM      1  C   UNL d   1       1.013   0.520   0.172  0.00  0.00     0.172 C 
ATOM      2  S   UNL d   1       0.257   0.405   1.658  0.00  0.00    -0.041 SA
ATOM      3  N   UNL d   1       2.355   0.271   0.147  0.00  0.00    -0.362 N 
ATOM      4  H   UNL d   1       2.758   0.184   1.076  0.00  0.00     0.162 HD
ENDROOT
BRANCH   1   5
ATOM      5  N   UNL d   1       0.442   0.787  -1.047  0.00  0.00    -0.332 N 
ATOM      6  H   UNL d   1       0.798   0.205  -1.799  0.00  0.00     0.168 HD
BRANCH   5   7
ATOM      7  C   UNL d   1      -0.798   1.417  -1.341  0.00  0.00     0.058 A 
ATOM      8  C   UNL d   1      -1.462   1.110  -2.548  0.00  0.00     0.082 A 
ATOM      9  C   UNL d   1      -2.680   1.738  -2.860  0.00  0.00     0.058 A 
ATOM     10 CL   UNL d   1      -0.756  -0.057  -3.627  0.00  0.00    -0.080 Cl
ATOM     11 CL   UNL d   1      -3.559   1.394  -4.309  0.00  0.00    -0.082 Cl
ATOM     12  C   UNL d   1      -3.223   2.685  -1.990  0.00  0.00     0.026 A 
ATOM     13  C   UNL d   1      -2.555   3.017  -0.816  0.00  0.00     0.004 A 
ATOM     14  C   UNL d   1      -1.346   2.394  -0.500  0.00  0.00     0.031 A 
ENDBRANCH   5   7
ENDBRANCH   1   5
BRANCH   3  15
ATOM     15  C   UNL d   1       3.319   0.561  -0.913  0.00  0.00     0.182 C 
BRANCH  15  16
ATOM     16  C   UNL d   1       3.726   2.053  -1.006  0.00  0.00     0.275 C 
BRANCH  16  17
ATOM     17  O   UNL d   1       4.177   2.459   0.295  0.00  0.00    -0.364 OA
ATOM     18  C   UNL d   1       4.434   3.856   0.359  0.00  0.00     0.204 C 
ENDBRANCH  16  17
BRANCH  16  19
ATOM     19  O   UNL d   1       4.792   2.237  -1.942  0.00  0.00    -0.364 OA
ATOM     20  C   UNL d   1       4.422   2.024  -3.293  0.00  0.00     0.204 C 
ENDBRANCH  16  19
ENDBRANCH  15  16
ENDBRANCH   3  15
TORSDOF 6
