REMARK  5 active torsions:
REMARK  status: ('A' for Active; 'I' for Inactive)
REMARK    1  A    between atoms: C_14  and  C_1 
REMARK    2  A    between atoms: N_9  and  C_2 
REMARK    3  A    between atoms: C_16  and  C_3 
REMARK    4  A    between atoms: C_4  and  C_13 
REMARK       I    between atoms: C_13  and  N_9 
REMARK    5  A    between atoms: C_17  and  C_15 
ROOT
ATOM      1  C   UNL d   1       1.163   0.920   0.993  0.00  0.00     0.147 C 
ATOM      2  C   UNL d   1       0.084  -0.933   0.333  0.00  0.00     0.138 C 
ATOM      3  C   UNL d   1       0.866  -0.430   1.372  0.00  0.00     0.053 C 
ATOM      4  N   UNL d   1       0.580   1.214  -0.184  0.00  0.00    -0.292 N 
ATOM      5  HN  UNL d   1       0.673   2.076  -0.720  1.00  0.00     0.187 HD
ATOM      6  N   UNL d   1      -0.152   0.131  -0.504  0.00  0.00    -0.280 N 
ATOM      7  C   UNL d   1      -0.913   0.230  -1.726  0.00  0.00     0.179 C 
ENDROOT
BRANCH   2   8
ATOM      8  N   UNL d   1      -0.275  -2.281   0.249  0.00  0.00    -0.306 N 
ATOM      9  C   UNL d   1      -1.579  -2.761  -0.077  0.00  0.00     0.275 C 
ATOM     10  O   UNL d   1      -2.482  -1.965  -0.293  0.00  0.00    -0.266 OA
ATOM     11  H   UNL d   1       0.375  -2.929   0.679  0.00  0.00     0.170 HD
BRANCH   9  12
ATOM     12  C   UNL d   1      -1.707  -4.195   0.005  0.00  0.00     0.120 A 
ATOM     13  N   UNL d   1      -2.889  -4.901   0.030  0.00  0.00    -0.291 N 
ATOM     14  N   UNL d   1      -2.714  -6.222   0.204  0.00  0.00    -0.302 N 
ATOM     15  C   UNL d   1      -4.255  -4.429  -0.018  0.00  0.00     0.178 C 
ATOM     16  C   UNL d   1      -1.393  -6.408   0.263  0.00  0.00     0.036 A 
ATOM     17  HN  UNL d   1      -3.440  -6.935   0.275  1.00  0.00     0.186 HD
ATOM     18  C   UNL d   1      -0.723  -5.172   0.101  0.00  0.00     0.064 A 
BRANCH  16  19
ATOM     19  C   UNL d   1      -0.820  -7.798   0.511  0.00  0.00    -0.007 C 
ATOM     20  C   UNL d   1       0.716  -7.759   0.665  0.00  0.00     0.021 C 
ATOM     21  C   UNL d   1      -1.406  -8.387   1.813  0.00  0.00     0.021 C 
ATOM     22  C   UNL d   1      -1.156  -8.744  -0.657  0.00  0.00     0.021 C 
ENDBRANCH  16  19
ENDBRANCH   9  12
ENDBRANCH   2   8
BRANCH   3  23
ATOM     23  C   UNL d   1       1.127  -1.138   2.626  0.00  0.00    -0.020 A 
ATOM     24  C   UNL d   1       2.357  -1.031   3.284  0.00  0.00     0.012 A 
ATOM     25  C   UNL d   1       2.516  -1.543   4.577  0.00  0.00     0.001 A 
ATOM     26  C   UNL d   1       1.471  -2.221   5.200  0.00  0.00     0.000 A 
ATOM     27  C   UNL d   1       0.265  -2.397   4.531  0.00  0.00     0.001 A 
ATOM     28  C   UNL d   1       0.089  -1.845   3.261  0.00  0.00     0.012 A 
ENDBRANCH   3  23
BRANCH   1  29
ATOM     29  C   UNL d   1       1.987   1.971   1.710  0.00  0.00     0.434 C 
ATOM     30  F   UNL d   1       2.221   1.679   3.016  0.00  0.00    -0.165 F 
ATOM     31  F   UNL d   1       3.207   2.124   1.129  0.00  0.00    -0.165 F 
ATOM     32  F   UNL d   1       1.387   3.190   1.702  0.00  0.00    -0.165 F 
ENDBRANCH   1  29
TORSDOF 5
