REMARK  2 active torsions:
REMARK  status: ('A' for Active; 'I' for Inactive)
REMARK       I    between atoms: N_2  and  C_1 
REMARK       I    between atoms: N_6  and  C_1 
REMARK    1  A    between atoms: C_3  and  N_2 
REMARK    2  A    between atoms: C_10  and  N_6 
ROOT
ATOM      1  C   UNL d   1       0.891  -0.568   0.309  0.00  0.00     0.321 C 
ATOM      2  N   UNL d   1       0.425  -0.531  -0.989  0.00  0.00    -0.338 N 
ATOM      3  N   UNL d   1       0.118   0.209   1.144  0.00  0.00    -0.309 N 
ATOM      4  O   UNL d   1       1.875  -1.221   0.628  0.00  0.00    -0.247 OA
ATOM      5  H   UNL d   1      -0.277   0.152  -1.222  0.00  0.00     0.164 HD
ATOM      6  H   UNL d   1      -0.691   0.646   0.731  0.00  0.00     0.170 HD
ENDROOT
BRANCH   2   7
ATOM      7  C   UNL d   1       1.110  -1.180  -2.102  0.00  0.00     0.094 C 
ATOM      8  C   UNL d   1       1.234  -2.717  -1.998  0.00  0.00     0.064 C 
ATOM      9  C   UNL d   1       2.413  -2.979  -2.888  0.00  0.00    -0.050 A 
ATOM     10  C   UNL d   1       2.825  -4.192  -3.413  0.00  0.00     0.007 A 
ATOM     11  C   UNL d   1       3.150  -1.809  -3.107  0.00  0.00    -0.050 A 
ATOM     12  C   UNL d   1       3.997  -4.223  -4.172  0.00  0.00     0.001 A 
ATOM     13  C   UNL d   1       4.742  -3.051  -4.385  0.00  0.00     0.001 A 
ATOM     14  C   UNL d   1       4.321  -1.833  -3.846  0.00  0.00     0.007 A 
ATOM     15  C   UNL d   1       2.530  -0.640  -2.401  0.00  0.00     0.064 C 
ENDBRANCH   2   7
BRANCH   3  16
ATOM     16  C   UNL d   1       0.316   0.450   2.522  0.00  0.00     0.036 A 
ATOM     17  C   UNL d   1       1.359  -0.102   3.268  0.00  0.00     0.029 A 
ATOM     18  C   UNL d   1       1.496   0.190   4.629  0.00  0.00     0.002 A 
ATOM     19  C   UNL d   1       0.591   1.040   5.259  0.00  0.00     0.000 A 
ATOM     20  C   UNL d   1      -0.454   1.597   4.527  0.00  0.00     0.002 A 
ATOM     21  C   UNL d   1      -0.593   1.302   3.167  0.00  0.00     0.029 A 
ENDBRANCH   3  16
TORSDOF 2
