REMARK  8 active torsions:
REMARK  status: ('A' for Active; 'I' for Inactive)
REMARK    1  A    between atoms: C_10  and  C_1 
REMARK    2  A    between atoms: C_11  and  C_2 
REMARK    3  A    between atoms: C_12  and  C_3 
REMARK    4  A    between atoms: C_13  and  C_4 
REMARK    5  A    between atoms: O_23  and  C_10 
REMARK    6  A    between atoms: O_22  and  C_11 
REMARK    7  A    between atoms: O_25  and  C_12 
REMARK    8  A    between atoms: O_24  and  C_13 
ROOT
ATOM      1  C   UNL d   1       1.146  -0.439   1.142  0.00  0.00     0.113 C 
ATOM      2  C   UNL d   1       1.022   0.543  -1.177  0.00  0.00     0.113 C 
ATOM      3  C   UNL d   1      -0.667   1.400   0.602  0.00  0.00     0.111 C 
ATOM      4  C   UNL d   1      -0.529  -1.489  -0.545  0.00  0.00     0.111 C 
ATOM      5  C   UNL d   1       0.123   0.588   1.642  0.00  0.00     0.164 C 
ATOM      6  C   UNL d   1       0.079  -0.580  -1.621  0.00  0.00     0.164 C 
ATOM      7  C   UNL d   1       1.953   0.089  -0.049  0.00  0.00     0.056 C 
ATOM      8  C   UNL d   1       0.413  -1.704   0.661  0.00  0.00     0.055 C 
ATOM      9  C   UNL d   1       0.206   1.733  -0.629  0.00  0.00     0.055 C 
ATOM     10  C   UNL d   1      -1.858  -0.873  -0.061  0.00  0.00     0.029 C 
ATOM     11  C   UNL d   1      -1.930   0.638   0.134  0.00  0.00     0.029 C 
ATOM     12  O   UNL d   1      -0.144   0.673   2.842  0.00  0.00    -0.295 OA
ATOM     13  O   UNL d   1      -0.306  -0.650  -2.790  0.00  0.00    -0.295 OA
ENDROOT
BRANCH   1  14
ATOM     14  C   UNL d   1       2.124  -0.829   2.264  0.00  0.00     0.275 C 
ATOM     15  O   UNL d   1       2.264  -1.964   2.694  0.00  0.00    -0.264 OA
BRANCH  14  16
ATOM     16  O   UNL d   1       2.850   0.250   2.671  0.00  0.00    -0.326 OA
ATOM     17  C   UNL d   1       3.777  -0.035   3.724  0.00  0.00     0.213 C 
ENDBRANCH  14  16
ENDBRANCH   1  14
BRANCH   3  18
ATOM     18  C   UNL d   1      -1.128   2.727   1.235  0.00  0.00     0.274 C 
ATOM     19  O   UNL d   1      -2.293   3.089   1.340  0.00  0.00    -0.264 OA
BRANCH  18  20
ATOM     20  O   UNL d   1      -0.059   3.469   1.644  0.00  0.00    -0.326 OA
ATOM     21  C   UNL d   1      -0.411   4.715   2.253  0.00  0.00     0.213 C 
ENDBRANCH  18  20
ENDBRANCH   3  18
BRANCH   2  22
ATOM     22  C   UNL d   1       1.872   1.025  -2.358  0.00  0.00     0.275 C 
ATOM     23  O   UNL d   1       1.857   2.167  -2.799  0.00  0.00    -0.264 OA
BRANCH  22  24
ATOM     24  O   UNL d   1       2.676   0.028  -2.821  0.00  0.00    -0.326 OA
ATOM     25  C   UNL d   1       3.491   0.402  -3.936  0.00  0.00     0.213 C 
ENDBRANCH  22  24
ENDBRANCH   2  22
BRANCH   4  26
ATOM     26  C   UNL d   1      -0.838  -2.872  -1.141  0.00  0.00     0.274 C 
ATOM     27  O   UNL d   1      -1.944  -3.408  -1.132  0.00  0.00    -0.264 OA
BRANCH  26  28
ATOM     28  O   UNL d   1       0.288  -3.460  -1.638  0.00  0.00    -0.326 OA
ATOM     29  C   UNL d   1       0.052  -4.745  -2.221  0.00  0.00     0.213 C 
ENDBRANCH  26  28
ENDBRANCH   4  26
TORSDOF 8
