REMARK  4 active torsions:
REMARK  status: ('A' for Active; 'I' for Inactive)
REMARK    1  A    between atoms: C_5  and  C_1 
REMARK       I    between atoms: N_7  and  C_5 
REMARK    2  A    between atoms: C_12  and  N_7 
REMARK    3  A    between atoms: C_8  and  C_12 
REMARK    4  A    between atoms: O_13  and  C_8 
ROOT
ATOM      1  C   UNL d   1       2.409  -0.054   0.001  0.00  0.00     0.096 A 
ATOM      2  S   UNL d   1       1.647   1.480   0.003  0.00  0.00    -0.082 SA
ATOM      3  C   UNL d   1       1.467  -1.067  -0.003  0.00  0.00     0.068 A 
ATOM      4  C   UNL d   1       0.106  -0.588  -0.002  0.00  0.00     0.004 A 
ATOM      5  C   UNL d   1       0.067   0.807   0.001  0.00  0.00     0.017 A 
ATOM      6 CL   UNL d   1       1.810  -2.756  -0.007  0.00  0.00    -0.082 Cl
ATOM      7  C   UNL d   1      -1.134  -1.282  -0.003  0.00  0.00     0.014 A 
ATOM      8  C   UNL d   1      -1.151   1.515   0.001  0.00  0.00     0.020 A 
ATOM      9  C   UNL d   1      -2.346  -0.584  -0.003  0.00  0.00     0.001 A 
ATOM     10  C   UNL d   1      -2.352   0.802  -0.001  0.00  0.00     0.001 A 
ENDROOT
BRANCH   1  11
ATOM     11  C   UNL d   1       3.861  -0.172   0.000  0.00  0.00     0.260 C 
ATOM     12  N   UNL d   1       4.583   1.004   0.004  0.00  0.00    -0.346 N 
ATOM     13  H   UNL d   1       4.109   1.902   0.006  0.00  0.00     0.163 HD
ATOM     14  O   UNL d   1       4.464  -1.245  -0.002  0.00  0.00    -0.267 OA
BRANCH  12  15
ATOM     15  C   UNL d   1       6.032   0.977   0.002  0.00  0.00     0.232 C 
BRANCH  15  16
ATOM     16  C   UNL d   1       6.640   2.370   0.010  0.00  0.00     0.158 C 
ATOM     17  O   UNL d   1       5.990   3.407   0.016  0.00  0.00    -0.649 OA
BRANCH  16  18
ATOM     18  O   UNL d   1       7.994   2.357   0.010  0.00  0.00    -0.775 OA
ATOM     19  H   UNL d   1       8.388   1.463   0.005  0.00  0.00     0.167 HD
ENDBRANCH  16  18
ENDBRANCH  15  16
ENDBRANCH  12  15
ENDBRANCH   1  11
TORSDOF 4
