REMARK  1 active torsions:
REMARK  status: ('A' for Active; 'I' for Inactive)
REMARK    1  A    between atoms: C_6  and  N_5 
ROOT
ATOM      1  C   UNL d   1       1.968   0.769  -1.336  0.00  0.00     0.141 C 
ATOM      2  N   UNL d   1       1.435   1.125  -2.454  0.00  0.00    -0.370 N 
ATOM      3  HN  UNL d   1       1.047   2.051  -2.639  1.00  0.00     0.161 HD
ATOM      4  S   UNL d   1       2.487  -0.897  -1.208  0.00  0.00    -0.088 SA
ATOM      5  N   UNL d   1       2.146   1.525  -0.214  0.00  0.00    -0.337 N 
ATOM      6  C   UNL d   1       1.457   0.024  -3.428  0.00  0.00     0.137 C 
ATOM      7  C   UNL d   1       1.567  -1.315  -2.711  0.00  0.00     0.069 C 
ATOM      8  C   UNL d   1       0.211  -1.898  -2.336  0.00  0.00     0.023 C 
ATOM      9  H   UNL d   1       2.413   1.044   0.632  0.00  0.00     0.168 HD
ENDROOT
BRANCH   5  10
ATOM     10  C   UNL d   1       2.152   2.927  -0.164  0.00  0.00     0.034 A 
ATOM     11  C   UNL d   1       1.670   3.585   0.976  0.00  0.00     0.036 A 
ATOM     12  C   UNL d   1       1.568   4.986   1.015  0.00  0.00    -0.060 A 
ATOM     13  C   UNL d   1       0.985   5.689   2.203  0.00  0.00     0.048 C 
ATOM     14  C   UNL d   1       1.979   5.733  -0.096  0.00  0.00     0.007 A 
ATOM     15  C   UNL d   1       2.466   5.095  -1.229  0.00  0.00     0.003 A 
ATOM     16  C   UNL d   1       2.536   3.703  -1.267  0.00  0.00     0.029 A 
ENDBRANCH   5  10
TORSDOF 1
