REMARK  5 active torsions:
REMARK  status: ('A' for Active; 'I' for Inactive)
REMARK    1  A    between atoms: C_7  and  N_1 
REMARK    2  A    between atoms: S_10  and  C_2 
REMARK    3  A    between atoms: C_17  and  S_10 
REMARK    4  A    between atoms: C_13  and  C_17 
REMARK    5  A    between atoms: C_16  and  C_13 
ROOT
ATOM      1  N   UNL d   1       2.429  -0.760  -0.064  0.00  0.00    -0.258 N 
ATOM      2  C   UNL d   1       2.354   0.633  -0.158  0.00  0.00     0.155 A 
ATOM      3  C   UNL d   1       1.258  -1.524   0.042  0.00  0.00     0.266 A 
ATOM      4  N   UNL d   1       1.244   1.300  -0.103  0.00  0.00    -0.335 N 
ATOM      5  HN  UNL d   1       1.252   2.320  -0.128  1.00  0.00     0.168 HD
ATOM      6  C   UNL d   1      -0.016  -0.783   0.045  0.00  0.00     0.059 A 
ATOM      7  C   UNL d   1       0.040   0.604  -0.009  0.00  0.00     0.049 A 
ATOM      8  O   UNL d   1       1.215  -2.749   0.149  0.00  0.00    -0.267 OA
ATOM      9  C   UNL d   1      -1.247  -1.451   0.076  0.00  0.00     0.019 A 
ATOM     10  C   UNL d   1      -1.154   1.331  -0.035  0.00  0.00     0.030 A 
ATOM     11  C   UNL d   1      -2.433  -0.718   0.038  0.00  0.00     0.001 A 
ATOM     12  C   UNL d   1      -2.386   0.674  -0.017  0.00  0.00     0.002 A 
ENDROOT
BRANCH   2  13
ATOM     13  S   UNL d   1       3.817   1.569  -0.482  0.00  0.00    -0.085 SA
BRANCH  13  14
ATOM     14  C   UNL d   1       3.117   3.235  -0.628  0.00  0.00     0.166 C 
BRANCH  14  15
ATOM     15  C   UNL d   1       4.122   4.287  -1.070  0.00  0.00     0.169 C 
ATOM     16  O   UNL d   1       5.314   4.067  -1.266  0.00  0.00    -0.291 OA
BRANCH  15  17
ATOM     17  C   UNL d   1       3.597   5.673  -1.306  0.00  0.00     0.011 A 
ATOM     18  C   UNL d   1       2.279   6.036  -0.987  0.00  0.00     0.017 A 
ATOM     19  C   UNL d   1       1.806   7.318  -1.285  0.00  0.00     0.025 A 
ATOM     20  C   UNL d   1       2.646   8.245  -1.898  0.00  0.00     0.034 A 
ATOM     21  C   UNL d   1       3.966   7.911  -2.189  0.00  0.00     0.025 A 
ATOM     22 CL   UNL d   1       2.041   9.802  -2.309  0.00  0.00    -0.084 Cl
ATOM     23  C   UNL d   1       4.442   6.629  -1.891  0.00  0.00     0.017 A 
ENDBRANCH  15  17
ENDBRANCH  14  15
ENDBRANCH  13  14
ENDBRANCH   2  13
BRANCH   1  24
ATOM     24  C   UNL d   1       3.668  -1.474  -0.120  0.00  0.00     0.046 A 
ATOM     25  C   UNL d   1       4.700  -1.214   0.791  0.00  0.00     0.055 A 
ATOM     26  C   UNL d   1       5.936  -1.858   0.664  0.00  0.00     0.058 A 
ATOM     27 CL   UNL d   1       7.165  -1.468   1.816  0.00  0.00    -0.082 Cl
ATOM     28  C   UNL d   1       6.145  -2.775  -0.371  0.00  0.00     0.055 A 
ATOM     29  C   UNL d   1       5.101  -3.080  -1.247  0.00  0.00     0.028 A 
ATOM     30 CL   UNL d   1       7.664  -3.555  -0.630  0.00  0.00    -0.083 Cl
ATOM     31  C   UNL d   1       3.865  -2.444  -1.113  0.00  0.00     0.032 A 
ENDBRANCH   1  24
TORSDOF 5
