REMARK  5 active torsions:
REMARK  status: ('A' for Active; 'I' for Inactive)
REMARK    1  A    between atoms: S_14  and  C_3 
REMARK    2  A    between atoms: C_20  and  S_14 
REMARK    3  A    between atoms: C_15  and  C_20 
REMARK       I    between atoms: N_19  and  C_15 
REMARK    4  A    between atoms: N_23  and  N_19 
REMARK    5  A    between atoms: O_24  and  C_21 
ROOT
ATOM      1  N   UNL d   1       0.926   0.648  -0.011  0.00  0.00    -0.120 N 
ATOM      2  C   UNL d   1       1.675  -0.514  -0.037  0.00  0.00     0.720 A 
ATOM      3  C   UNL d   1       1.856   1.664  -0.032  0.00  0.00     0.183 A 
ATOM      4  N   UNL d   1       2.956  -0.202  -0.107  0.00  0.00    -0.128 N 
ATOM      5  HN  UNL d   1       3.731  -0.864  -0.148  1.00  0.00     0.205 HD
ATOM      6  N   UNL d   1       1.082  -1.738  -0.009  0.00  0.00    -0.130 N 
ATOM      7  HN  UNL d   1       1.671  -2.571  -0.008  1.00  0.00     0.205 HD
ATOM      8  N   UNL d   1       3.067   1.165  -0.117  0.00  0.00    -0.265 N 
ATOM      9  HN  UNL d   1       3.935   1.698  -0.178  1.00  0.00     0.189 HD
ATOM     10  N   UNL d   1      -0.165  -1.879   0.017  0.00  0.00    -0.284 N 
ATOM     11  HN  UNL d   1      -0.579  -2.810   0.040  1.00  0.00     0.187 HD
ATOM     12  C   UNL d   1      -0.476   0.576   0.006  0.00  0.00     0.087 A 
ATOM     13  C   UNL d   1      -0.988  -0.730   0.014  0.00  0.00     0.079 A 
ATOM     14  C   UNL d   1      -2.374  -0.911   0.016  0.00  0.00     0.070 A 
ATOM     15  C   UNL d   1      -1.335   1.674  -0.006  0.00  0.00     0.036 A 
ATOM     16  C   UNL d   1      -3.248   0.181   0.008  0.00  0.00     0.070 A 
ATOM     17  C   UNL d   1      -2.720   1.470  -0.002  0.00  0.00     0.039 A 
ENDROOT
BRANCH   3  18
ATOM     18  S   UNL d   1       1.547   3.365   0.039  0.00  0.00    -0.082 SA
BRANCH  18  19
ATOM     19  C   UNL d   1       2.326   3.909  -1.511  0.00  0.00     0.186 C 
BRANCH  19  20
ATOM     20  C   UNL d   1       1.688   3.215  -2.703  0.00  0.00     0.241 C 
ATOM     21  O   UNL d   1       0.473   3.197  -2.904  0.00  0.00    -0.271 OA
ATOM     22  N   UNL d   1       2.594   2.571  -3.537  0.00  0.00    -0.293 N 
ATOM     23  H   UNL d   1       3.600   2.675  -3.407  0.00  0.00     0.183 HD
BRANCH  22  24
ATOM     24  N   UNL d   1       2.125   1.897  -4.684  0.00  0.00    -0.247 NA
ATOM     25  H   UNL d   1       1.116   2.089  -4.760  0.00  0.00     0.143 HD
ATOM     26  H   UNL d   1       2.177   0.890  -4.506  0.00  0.00     0.143 HD
ENDBRANCH  22  24
ENDBRANCH  19  20
ENDBRANCH  18  19
ENDBRANCH   3  18
BRANCH  16  27
ATOM     27  O   UNL d   1      -4.575  -0.142   0.010  0.00  0.00    -0.356 OA
ATOM     28  C   UNL d   1      -5.500   0.941  -0.001  0.00  0.00     0.210 C 
ENDBRANCH  16  27
TORSDOF 5
