REMARK  4 active torsions:
REMARK  status: ('A' for Active; 'I' for Inactive)
REMARK    1  A    between atoms: C_7  and  C_6 
REMARK    2  A    between atoms: O_19  and  C_9 
REMARK    3  A    between atoms: O_20  and  C_10 
REMARK    4  A    between atoms: O_21  and  C_11 
ROOT
ATOM      1  N   UNL d   1       0.863   1.074  -0.462  0.00  0.00    -0.326 N 
ATOM      2  HN  UNL d   1       0.841   2.024  -0.833  1.00  0.00     0.180 HD
ATOM      3  C   UNL d   1      -0.092   0.205  -0.473  0.00  0.00     0.038 C 
ATOM      4  C   UNL d   1       0.425  -1.427   0.219  0.00  0.00     0.293 C 
ATOM      5  N   UNL d   1       1.926   0.437   0.163  0.00  0.00    -0.229 NA
ATOM      6  C   UNL d   1       1.926  -1.060   0.189  0.00  0.00     0.148 C 
ATOM      7  N   UNL d   1      -0.246  -2.607  -0.689  0.00  0.00     0.100 N 
ATOM      8  C   UNL d   1      -1.700   0.197  -1.188  0.00  0.00     0.038 C 
ATOM      9  C   UNL d   1      -1.838  -2.820  -0.974  0.00  0.00     0.274 C 
ATOM     10  C   UNL d   1      -0.463  -1.580  -1.567  0.00  0.00     0.274 C 
ATOM     11  C   UNL d   1      -2.640  -1.260  -1.724  0.00  0.00     0.041 C 
ATOM     12  C   UNL d   1      -1.603  -0.767  -0.178  0.00  0.00     0.041 C 
ATOM     13  H   UNL d   1       2.830   0.809  -0.147  0.00  0.00     0.147 HD
ENDROOT
BRANCH   6  14
ATOM     14  C   UNL d   1       2.494  -1.658   1.464  0.00  0.00    -0.031 A 
ATOM     15  C   UNL d   1       2.239  -1.045   2.703  0.00  0.00     0.048 A 
ATOM     16  C   UNL d   1       2.292  -1.767   3.905  0.00  0.00     0.104 A 
ATOM     17  C   UNL d   1       2.688  -3.122   3.878  0.00  0.00     0.135 A 
ATOM     18  C   UNL d   1       3.033  -3.706   2.639  0.00  0.00     0.104 A 
ATOM     19  C   UNL d   1       2.953  -2.975   1.450  0.00  0.00     0.048 A 
BRANCH  16  20
ATOM     20  O   UNL d   1       1.938  -1.202   5.103  0.00  0.00    -0.353 OA
ATOM     21  C   UNL d   1       1.311   0.078   5.085  0.00  0.00     0.210 C 
ENDBRANCH  16  20
BRANCH  17  22
ATOM     22  O   UNL d   1       2.800  -3.956   4.963  0.00  0.00    -0.351 OA
ATOM     23  C   UNL d   1       2.105  -3.626   6.157  0.00  0.00     0.210 C 
ENDBRANCH  17  22
BRANCH  18  24
ATOM     24  O   UNL d   1       3.462  -5.002   2.468  0.00  0.00    -0.353 OA
ATOM     25  C   UNL d   1       2.600  -5.981   3.044  0.00  0.00     0.210 C 
ENDBRANCH  18  24
ENDBRANCH   6  14
TORSDOF 4
