REMARK  3 active torsions:
REMARK  status: ('A' for Active; 'I' for Inactive)
REMARK    1  A    between atoms: C_2  and  C_1 
REMARK       I    between atoms: N_6  and  C_2 
REMARK    2  A    between atoms: C_18  and  C_5 
REMARK    3  A    between atoms: C_10  and  N_9 
ROOT
ATOM      1  C   UNL d   1       0.205  -2.649   0.334  0.00  0.00     0.258 C 
ATOM      2  N   UNL d   1      -0.654  -3.726   0.069  0.00  0.00    -0.346 N 
ATOM      3  N   UNL d   1      -2.744  -5.638  -0.321  0.00  0.00    -0.266 NA
ATOM      4  O   UNL d   1       0.409  -1.782  -0.507  0.00  0.00    -0.267 OA
ATOM      5  C   UNL d   1      -1.365  -3.781  -1.221  0.00  0.00     0.141 C 
ATOM      6  C   UNL d   1      -0.686  -5.005   0.799  0.00  0.00     0.141 C 
ATOM      7  C   UNL d   1      -2.794  -4.368  -1.081  0.00  0.00     0.117 C 
ATOM      8  C   UNL d   1      -2.146  -5.460   1.011  0.00  0.00     0.117 C 
ENDROOT
BRANCH   1   9
ATOM      9  C   UNL d   1       0.836  -2.573   1.645  0.00  0.00     0.092 C 
ATOM     10  C   UNL d   1       2.174  -2.168   2.000  0.00  0.00     0.083 C 
ATOM     11  N   UNL d   1       2.333  -2.248   3.335  0.00  0.00    -0.259 N 
ATOM     12  O   UNL d   1       1.125  -2.590   3.866  0.00  0.00    -0.241 OA
ATOM     13  HN  UNL d   1       3.196  -2.083   3.853  1.00  0.00     0.195 HD
ATOM     14  C   UNL d   1       0.216  -2.736   2.876  0.00  0.00     0.090 C 
ATOM     15  C   UNL d   1      -1.156  -3.005   3.353  0.00  0.00     0.080 C 
BRANCH  10  16
ATOM     16  C   UNL d   1       3.324  -1.722   1.199  0.00  0.00    -0.006 A 
ATOM     17  C   UNL d   1       3.544  -2.134  -0.120  0.00  0.00     0.014 A 
ATOM     18  C   UNL d   1       4.691  -1.718  -0.813  0.00  0.00     0.001 A 
ATOM     19  C   UNL d   1       5.631  -0.891  -0.199  0.00  0.00     0.000 A 
ATOM     20  C   UNL d   1       5.424  -0.464   1.107  0.00  0.00     0.001 A 
ATOM     21  C   UNL d   1       4.281  -0.874   1.795  0.00  0.00     0.014 A 
ENDBRANCH  10  16
ENDBRANCH   1   9
BRANCH   3  22
ATOM     22  C   UNL d   1      -3.980  -6.302  -0.301  0.00  0.00     0.082 A 
ATOM     23  N   UNL d   1      -4.804  -6.218   0.765  0.00  0.00    -0.357 N 
ATOM     24  C   UNL d   1      -5.955  -6.930   0.723  0.00  0.00     0.089 A 
ATOM     25  HN  UNL d   1      -4.569  -5.640   1.572  1.00  0.00     0.166 HD
ATOM     26  C   UNL d   1      -6.327  -7.750  -0.331  0.00  0.00     0.017 A 
ATOM     27  C   UNL d   1      -5.468  -7.840  -1.415  0.00  0.00     0.005 A 
ATOM     28  C   UNL d   1      -4.290  -7.101  -1.402  0.00  0.00     0.042 A 
ENDBRANCH   3  22
TORSDOF 3
