REMARK  3 active torsions:
REMARK  status: ('A' for Active; 'I' for Inactive)
REMARK    1  A    between atoms: C_12  and  C_3 
REMARK    2  A    between atoms: C_11  and  C_4 
REMARK    3  A    between atoms: C_10  and  C_7 
ROOT
ATOM      1  N   UNL d   1       1.331   0.347  -0.148  0.00  0.00    -0.338 N 
ATOM      2  HN  UNL d   1       2.289   0.654  -0.312  1.00  0.00     0.167 HD
ATOM      3  C   UNL d   1       1.001  -0.977  -0.108  0.00  0.00     0.073 A 
ATOM      4  C   UNL d   1      -0.310  -1.394   0.149  0.00  0.00     0.086 A 
ATOM      5  N   UNL d   1      -1.282  -0.458   0.275  0.00  0.00    -0.296 N 
ATOM      6  HN  UNL d   1      -2.252  -0.742   0.409  1.00  0.00     0.187 HD
ATOM      7  C   UNL d   1       0.328   1.230   0.040  0.00  0.00     0.131 A 
ATOM      8  N   UNL d   1      -0.956   0.864   0.220  0.00  0.00    -0.284 N 
ATOM      9  HN  UNL d   1      -1.682   1.575   0.316  1.00  0.00     0.188 HD
ENDROOT
BRANCH   7  10
ATOM     10  C   UNL d   1       0.660   2.663   0.151  0.00  0.00     0.009 A 
ATOM     11  C   UNL d   1       1.992   3.119   0.130  0.00  0.00     0.017 A 
ATOM     12  C   UNL d   1       2.309   4.474   0.297  0.00  0.00     0.025 A 
ATOM     13  C   UNL d   1       1.290   5.405   0.481  0.00  0.00     0.034 A 
ATOM     14  C   UNL d   1      -0.037   4.995   0.489  0.00  0.00     0.025 A 
ATOM     15 CL   UNL d   1       1.678   7.066   0.707  0.00  0.00    -0.084 Cl
ATOM     16  C   UNL d   1      -0.347   3.639   0.326  0.00  0.00     0.017 A 
ENDBRANCH   7  10
BRANCH   3  17
ATOM     17  C   UNL d   1       2.164  -1.886  -0.287  0.00  0.00    -0.007 A 
ATOM     18  C   UNL d   1       3.392  -1.593   0.331  0.00  0.00     0.014 A 
ATOM     19  C   UNL d   1       4.450  -2.507   0.325  0.00  0.00     0.001 A 
ATOM     20  C   UNL d   1       4.300  -3.740  -0.304  0.00  0.00     0.000 A 
ATOM     21  C   UNL d   1       3.122  -4.027  -0.984  0.00  0.00     0.001 A 
ATOM     22  C   UNL d   1       2.080  -3.094  -1.006  0.00  0.00     0.014 A 
ENDBRANCH   3  17
BRANCH   4  23
ATOM     23  C   UNL d   1      -0.781  -2.780   0.347  0.00  0.00    -0.006 A 
ATOM     24  C   UNL d   1      -0.069  -3.707   1.135  0.00  0.00     0.014 A 
ATOM     25  C   UNL d   1      -0.468  -5.045   1.220  0.00  0.00     0.001 A 
ATOM     26  C   UNL d   1      -1.620  -5.470   0.569  0.00  0.00     0.000 A 
ATOM     27  C   UNL d   1      -2.384  -4.557  -0.152  0.00  0.00     0.001 A 
ATOM     28  C   UNL d   1      -1.967  -3.227  -0.263  0.00  0.00     0.014 A 
ENDBRANCH   4  23
TORSDOF 3
