REMARK  2 active torsions:
REMARK  status: ('A' for Active; 'I' for Inactive)
REMARK    1  A    between atoms: C_4  and  C_1 
REMARK    2  A    between atoms: C_6  and  C_4 
REMARK       I    between atoms: N_8  and  C_6 
ROOT
ATOM      1  C   UNL d   1       1.509  -0.646   0.609  0.00  0.00    -0.009 A 
ATOM      2  C   UNL d   1       0.833  -0.084   1.668  0.00  0.00     0.083 A 
ATOM      3  S   UNL d   1       0.410   1.534   1.448  0.00  0.00    -0.077 SA
ATOM      4  C   UNL d   1       1.536   0.287  -0.511  0.00  0.00    -0.010 A 
ATOM      5  C   UNL d   1       0.995   1.531  -0.166  0.00  0.00     0.017 A 
ATOM      6 CL   UNL d   1       0.375  -0.831   3.154  0.00  0.00    -0.076 Cl
ATOM      7  C   UNL d   1       2.006   0.130  -1.842  0.00  0.00     0.013 A 
ATOM      8  C   UNL d   1       0.949   2.604  -1.078  0.00  0.00     0.020 A 
ATOM      9  C   UNL d   1       1.936   1.184  -2.759  0.00  0.00     0.001 A 
ATOM     10  C   UNL d   1       1.421   2.412  -2.376  0.00  0.00     0.001 A 
ENDROOT
BRANCH   1  11
ATOM     11  C   UNL d   1       2.072  -2.045   0.568  0.00  0.00     0.144 C 
BRANCH  11  12
ATOM     12  C   UNL d   1       3.578  -2.076   0.313  0.00  0.00     0.223 C 
ATOM     13  N   UNL d   1       4.457  -1.855   1.371  0.00  0.00    -0.361 N 
ATOM     14  C   UNL d   1       5.881  -1.998   1.111  0.00  0.00     0.152 C 
ATOM     15  C   UNL d   1       4.076  -1.849   2.773  0.00  0.00     0.152 C 
ATOM     16  O   UNL d   1       3.991  -2.314  -0.825  0.00  0.00    -0.273 OA
ENDBRANCH  11  12
ENDBRANCH   1  11
TORSDOF 2
