REMARK  5 active torsions:
REMARK  status: ('A' for Active; 'I' for Inactive)
REMARK    1  A    between atoms: S_2  and  C_1 
REMARK    2  A    between atoms: C_5  and  S_2 
REMARK       I    between atoms: C_3  and  N_4 
REMARK    3  A    between atoms: C_9  and  C_3 
REMARK    4  A    between atoms: N_4  and  C_8 
REMARK    5  A    between atoms: O_22  and  C_19 
ROOT
ATOM      1  C   UNL d   1      -1.851  -2.609   0.580  0.00  0.00     0.032 A 
ATOM      2  C   UNL d   1      -2.297  -2.591  -0.754  0.00  0.00     0.052 A 
ATOM      3  C   UNL d   1      -2.379  -3.577   1.445  0.00  0.00     0.021 A 
ATOM      4  C   UNL d   1      -3.325  -3.451  -1.166  0.00  0.00     0.031 A 
ATOM      5  C   UNL d   1      -3.399  -4.436   1.030  0.00  0.00     0.002 A 
ATOM      6  C   UNL d   1      -3.890  -4.355  -0.269  0.00  0.00     0.002 A 
ENDROOT
BRANCH   2   7
ATOM      7  N   UNL d   1      -1.738  -1.701  -1.694  0.00  0.00    -0.322 N 
ATOM      8  C   UNL d   1      -1.147  -2.170  -2.858  0.00  0.00     0.256 C 
ATOM      9  O   UNL d   1      -0.991  -3.341  -3.172  0.00  0.00    -0.267 OA
ATOM     10  H   UNL d   1      -1.315  -0.858  -1.318  0.00  0.00     0.169 HD
BRANCH   8  11
ATOM     11  C   UNL d   1      -0.611  -1.099  -3.740  0.00  0.00     0.032 A 
ATOM     12  C   UNL d   1       0.643  -1.241  -4.343  0.00  0.00     0.020 A 
ATOM     13  C   UNL d   1       1.145  -0.210  -5.148  0.00  0.00     0.038 A 
ATOM     14  C   UNL d   1       0.386   0.951  -5.360  0.00  0.00     0.068 A 
ATOM     15  C   UNL d   1      -0.885   1.053  -4.802  0.00  0.00     0.038 A 
ATOM     16  C   UNL d   1      -1.388   0.033  -3.983  0.00  0.00     0.020 A 
BRANCH  14  17
ATOM     17  O   UNL d   1       0.769   2.030  -6.102  0.00  0.00    -0.356 OA
ATOM     18  C   UNL d   1       2.167   2.206  -6.283  0.00  0.00     0.210 C 
ENDBRANCH  14  17
ENDBRANCH   8  11
ENDBRANCH   2   7
BRANCH   1  19
ATOM     19  S   UNL d   1      -0.489  -1.590   1.147  0.00  0.00    -0.085 SA
BRANCH  19  20
ATOM     20  C   UNL d   1      -1.325  -0.349   2.150  0.00  0.00     0.051 A 
ATOM     21  C   UNL d   1      -1.521  -0.526   3.532  0.00  0.00     0.068 A 
ATOM     22 CL   UNL d   1      -1.033  -1.934   4.405  0.00  0.00    -0.081 Cl
ATOM     23  C   UNL d   1      -2.107   0.501   4.266  0.00  0.00     0.113 A 
ATOM     24  N   UNL d   1      -2.492   1.685   3.742  0.00  0.00    -0.372 N 
ATOM     25  C   UNL d   1      -2.277   1.850   2.419  0.00  0.00     0.113 A 
ATOM     26  HN  UNL d   1      -2.920   2.414   4.313  1.00  0.00     0.164 HD
ATOM     27  C   UNL d   1      -1.712   0.883   1.592  0.00  0.00     0.068 A 
ATOM     28 CL   UNL d   1      -1.492   1.289  -0.076  0.00  0.00    -0.081 Cl
ENDBRANCH  19  20
ENDBRANCH   1  19
TORSDOF 5
