REMARK  5 active torsions:
REMARK  status: ('A' for Active; 'I' for Inactive)
REMARK    1  A    between atoms: N_4  and  C_2 
REMARK    2  A    between atoms: C_8  and  C_3 
REMARK    3  A    between atoms: O_21  and  C_8 
REMARK    4  A    between atoms: C_10  and  C_15 
REMARK       I    between atoms: N_20  and  C_10 
REMARK    5  A    between atoms: C_23  and  O_21 
ROOT
ATOM      1  C   UNL d   1       1.029  -0.031  -0.055  0.00  0.00     0.099 A 
ATOM      2  C   UNL d   1       0.270   1.153  -0.076  0.00  0.00     0.104 A 
ATOM      3  C   UNL d   1       0.346  -1.256   0.005  0.00  0.00     0.065 A 
ATOM      4  N   UNL d   1      -1.085   1.115  -0.052  0.00  0.00    -0.349 N 
ATOM      5  HN  UNL d   1      -1.618   1.984  -0.080  1.00  0.00     0.167 HD
ATOM      6  C   UNL d   1       2.458   0.044  -0.120  0.00  0.00     0.104 C 
ATOM      7  N   UNL d   1       3.618   0.112  -0.139  0.00  0.00    -0.191 NA
ATOM      8  C   UNL d   1      -1.052  -1.274   0.041  0.00  0.00     0.044 A 
ATOM      9  C   UNL d   1      -1.731  -0.071   0.007  0.00  0.00     0.007 A 
ATOM     10  C   UNL d   1      -3.229  -0.017   0.029  0.00  0.00     0.068 C 
ENDROOT
BRANCH   2  11
ATOM     11  N   UNL d   1       0.883   2.404  -0.221  0.00  0.00    -0.268 NA
ATOM     12  C   UNL d   1       0.026   3.450  -0.788  0.00  0.00     0.098 C 
ATOM     13  C   UNL d   1       0.945   4.515  -1.391  0.00  0.00     0.029 C 
ATOM     14  C   UNL d   1       1.942   5.069  -0.359  0.00  0.00     0.080 C 
ATOM     15  C   UNL d   1       2.648   3.937   0.407  0.00  0.00     0.029 C 
ATOM     16  C   UNL d   1       1.659   2.891   0.932  0.00  0.00     0.098 C 
BRANCH  14  17
ATOM     17  C   UNL d   1       1.272   6.047   0.597  0.00  0.00     0.219 C 
ATOM     18  O   UNL d   1       1.248   5.919   1.816  0.00  0.00    -0.273 OA
ATOM     19  N   UNL d   1       0.696   7.134   0.010  0.00  0.00    -0.370 N 
ATOM     20  H   UNL d   1       0.849   7.379  -0.959  0.00  0.00     0.159 HD
ATOM     21  H   UNL d   1       0.307   7.838   0.626  0.00  0.00     0.159 HD
ENDBRANCH  14  17
ENDBRANCH   2  11
BRANCH   3  22
ATOM     22  C   UNL d   1       1.016  -2.581   0.104  0.00  0.00     0.295 C 
ATOM     23  O   UNL d   1       0.498  -3.537   0.656  0.00  0.00    -0.259 OA
BRANCH  22  24
ATOM     24  O   UNL d   1       2.229  -2.562  -0.485  0.00  0.00    -0.318 OA
BRANCH  24  25
ATOM     25  C   UNL d   1       3.126  -3.637  -0.164  0.00  0.00     0.174 C 
ATOM     26  C   UNL d   1       3.376  -4.489  -1.391  0.00  0.00     0.034 C 
ENDBRANCH  24  25
ENDBRANCH  22  24
ENDBRANCH   3  22
TORSDOF 5
