REMARK  2 active torsions:
REMARK  status: ('A' for Active; 'I' for Inactive)
REMARK    1  A    between atoms: C_14  and  C_6 
REMARK    2  A    between atoms: N_7  and  C_12 
ROOT
ATOM      1  C   UNL d   1      -1.266   0.344  -0.025  0.00  0.00     0.058 C 
ATOM      2  C   UNL d   1       1.297   0.344  -0.026  0.00  0.00     0.058 C 
ATOM      3  N   UNL d   1       0.013  -1.651  -0.069  0.00  0.00    -0.361 N 
ATOM      4  C   UNL d   1       1.240  -1.009  -0.002  0.00  0.00     0.023 C 
ATOM      5  C   UNL d   1      -1.211  -1.007  -0.013  0.00  0.00     0.023 C 
ATOM      6  C   UNL d   1       0.012   1.167  -0.176  0.00  0.00     0.110 C 
ATOM      7  C   UNL d   1      -2.504   1.047   0.073  0.00  0.00     0.098 C 
ATOM      8  C   UNL d   1       2.529   1.057   0.076  0.00  0.00     0.098 C 
ATOM      9  N   UNL d   1       3.525   1.645   0.167  0.00  0.00    -0.192 NA
ATOM     10  N   UNL d   1      -3.506   1.621   0.155  0.00  0.00    -0.192 NA
ATOM     11  C   UNL d   1       2.444  -1.914   0.091  0.00  0.00     0.069 C 
ATOM     12  C   UNL d   1      -2.444  -1.875   0.040  0.00  0.00     0.069 C 
ATOM     13  H   UNL d   1       0.015  -2.668  -0.009  0.00  0.00     0.165 HD
ENDROOT
BRANCH   6  14
ATOM     14  C   UNL d   1       0.006   1.906  -1.521  0.00  0.00    -0.044 A 
ATOM     15  C   UNL d   1       0.052   1.190  -2.733  0.00  0.00     0.011 A 
ATOM     16  C   UNL d   1       0.103   1.865  -3.953  0.00  0.00     0.036 A 
ATOM     17  C   UNL d   1       0.081   3.265  -3.970  0.00  0.00     0.102 A 
ATOM     18  C   UNL d   1       0.016   3.991  -2.776  0.00  0.00     0.036 A 
ATOM     19  C   UNL d   1      -0.024   3.310  -1.557  0.00  0.00     0.011 A 
BRANCH  17  20
ATOM     20  N   UNL d   1       0.117   3.980  -5.251  0.00  0.00    -0.116 N 
ATOM     21  O   UNL d   1       0.083   5.218  -5.222  0.00  0.00    -0.532 OA
ATOM     22  O   UNL d   1       0.176   3.303  -6.288  0.00  0.00    -0.532 OA
ENDBRANCH  17  20
ENDBRANCH   6  14
TORSDOF 2
