REMARK  2 active torsions:
REMARK  status: ('A' for Active; 'I' for Inactive)
REMARK    1  A    between atoms: C_7  and  C_3 
REMARK    2  A    between atoms: N_9  and  C_8 
ROOT
ATOM      1  N   UNL d   1       1.991  -1.220  -0.307  0.00  0.00    -0.271 NA
ATOM      2  N   UNL d   1       2.049   1.162  -0.206  0.00  0.00    -0.271 NA
ATOM      3  C   UNL d   1       2.613  -0.070   0.342  0.00  0.00     0.170 C 
ATOM      4  C   UNL d   1       0.641   1.209  -0.149  0.00  0.00     0.022 A 
ATOM      5  C   UNL d   1       0.585  -1.213  -0.210  0.00  0.00     0.022 A 
ATOM      6  C   UNL d   1      -0.101   0.013  -0.163  0.00  0.00     0.017 A 
ATOM      7  C   UNL d   1      -1.510   0.047  -0.117  0.00  0.00    -0.022 A 
ATOM      8  C   UNL d   1      -0.139  -2.408  -0.250  0.00  0.00     0.024 A 
ATOM      9  C   UNL d   1      -0.028   2.435  -0.187  0.00  0.00     0.024 A 
ATOM     10  C   UNL d   1      -1.421   2.476  -0.142  0.00  0.00     0.003 A 
ATOM     11  C   UNL d   1      -1.531  -2.387  -0.166  0.00  0.00     0.003 A 
ATOM     12  C   UNL d   1      -2.213  -1.170  -0.100  0.00  0.00     0.012 A 
ATOM     13  C   UNL d   1      -2.157   1.290  -0.092  0.00  0.00     0.012 A 
ATOM     14  H   UNL d   1       2.424  -2.103  -0.088  0.00  0.00     0.129 HD
ATOM     15  H   UNL d   1       2.493   2.002   0.132  0.00  0.00     0.129 HD
ENDROOT
BRANCH   3  16
ATOM     16  C   UNL d   1       2.573  -0.131   1.882  0.00  0.00    -0.026 A 
ATOM     17  C   UNL d   1       2.448  -1.343   2.576  0.00  0.00     0.012 A 
ATOM     18  C   UNL d   1       2.482  -1.399   3.981  0.00  0.00     0.030 A 
ATOM     19  C   UNL d   1       2.669  -0.261   4.778  0.00  0.00     0.029 A 
ATOM     20  C   UNL d   1       2.777   0.947   4.076  0.00  0.00     0.030 A 
ATOM     21  C   UNL d   1       2.735   1.016   2.670  0.00  0.00     0.012 A 
BRANCH  19  22
ATOM     22  N   UNL d   1       2.824  -0.327   6.159  0.00  0.00    -0.390 N 
ATOM     23  C   UNL d   1       2.394   0.771   7.023  0.00  0.00     0.149 C 
ATOM     24  C   UNL d   1       2.957  -1.609   6.847  0.00  0.00     0.149 C 
ENDBRANCH  19  22
ENDBRANCH   3  16
TORSDOF 2
