REMARK  5 active torsions:
REMARK  status: ('A' for Active; 'I' for Inactive)
REMARK    1  A    between atoms: C_2  and  S_1 
REMARK    2  A    between atoms: C_5  and  S_1 
REMARK    3  A    between atoms: N_4  and  C_3 
REMARK    4  A    between atoms: C_6  and  C_5 
REMARK    5  A    between atoms: O_14  and  C_6 
ROOT
ATOM      1  C   UNL d   1       0.527   1.554   0.813  0.00  0.00     0.092 A 
ATOM      2  C   UNL d   1      -0.022   1.476   2.096  0.00  0.00     0.124 A 
ATOM      3  C   UNL d   1       0.788   2.822   0.272  0.00  0.00     0.026 A 
ATOM      4  C   UNL d   1      -0.333   2.636   2.825  0.00  0.00     0.037 A 
ATOM      5  C   UNL d   1      -0.086   3.887   2.265  0.00  0.00     0.003 A 
ATOM      6  C   UNL d   1       0.468   3.979   0.988  0.00  0.00     0.002 A 
ENDROOT
BRANCH   1   7
ATOM      7  S   UNL d   1       1.130   0.126  -0.057  0.00  0.00     0.187 S 
ATOM      8  O   UNL d   1       1.572  -0.807   0.964  0.00  0.00    -0.222 OA
ATOM      9  O   UNL d   1       2.106   0.582  -1.030  0.00  0.00    -0.222 OA
BRANCH   7  10
ATOM     10  C   UNL d   1      -0.192  -0.639  -0.931  0.00  0.00     0.255 C 
BRANCH  10  11
ATOM     11  C   UNL d   1      -0.867   0.279  -1.887  0.00  0.00     0.154 C 
ATOM     12  O   UNL d   1      -0.707   1.484  -1.973  0.00  0.00    -0.649 OA
BRANCH  11  13
ATOM     13  O   UNL d   1      -1.774  -0.361  -2.669  0.00  0.00    -0.776 OA
ATOM     14  H   UNL d   1      -1.864  -1.324  -2.522  0.00  0.00     0.167 HD
ENDBRANCH  11  13
ENDBRANCH  10  11
ENDBRANCH   7  10
ENDBRANCH   1   7
BRANCH   2  15
ATOM     15  N   UNL d   1      -0.378   0.210   2.706  0.00  0.00    -0.114 N 
ATOM     16  O   UNL d   1      -1.158  -0.509   2.066  0.00  0.00    -0.532 OA
ATOM     17  O   UNL d   1       0.047  -0.016   3.845  0.00  0.00    -0.532 OA
ENDBRANCH   2  15
TORSDOF 5
