REMARK  8 active torsions:
REMARK  status: ('A' for Active; 'I' for Inactive)
REMARK    1  A    between atoms: C_4  and  C_1 
REMARK    2  A    between atoms: C_6  and  C_1 
REMARK    3  A    between atoms: N_8  and  N_2 
REMARK    4  A    between atoms: O_12  and  C_4 
REMARK    5  A    between atoms: C_14  and  C_6 
REMARK    6  A    between atoms: C_13  and  N_8 
REMARK    7  A    between atoms: S_11  and  C_14 
REMARK    8  A    between atoms: C_15  and  O_12 
ROOT
ATOM      1  C   UNL d   1      -0.745  -3.883  -1.327  0.00  0.00     0.134 C 
ATOM      2  N   UNL d   1      -0.003  -4.459  -2.003  0.00  0.00    -0.184 NA
ATOM      3  S   UNL d   1      -1.819  -2.978  -0.387  0.00  0.00    -0.043 SA
ENDROOT
BRANCH   3   4
ATOM      4  C   UNL d   1      -1.003  -1.365  -0.554  0.00  0.00     0.175 C 
BRANCH   4   5
ATOM      5  C   UNL d   1       0.312  -1.296   0.191  0.00  0.00     0.193 C 
ATOM      6  O   UNL d   1       0.785  -2.163   0.913  0.00  0.00    -0.290 OA
BRANCH   5   7
ATOM      7  C   UNL d   1       1.087  -0.019   0.007  0.00  0.00     0.170 C 
ATOM      8  N   UNL d   1       0.376   1.073  -0.090  0.00  0.00    -0.292 N 
ATOM      9  HN  UNL d   1      -0.639   1.056   0.002  1.00  0.00     0.187 HD
BRANCH   8  10
ATOM     10  N   UNL d   1       1.049   2.233  -0.318  0.00  0.00    -0.300 N 
ATOM     11  H   UNL d   1       2.023   2.330   0.001  0.00  0.00     0.187 HD
BRANCH  10  12
ATOM     12  C   UNL d   1       0.348   3.456  -0.284  0.00  0.00     0.048 A 
ATOM     13  C   UNL d   1      -1.043   3.530  -0.147  0.00  0.00     0.031 A 
ATOM     14  C   UNL d   1      -1.703   4.761  -0.182  0.00  0.00     0.002 A 
ATOM     15  C   UNL d   1      -0.982   5.935  -0.390  0.00  0.00     0.000 A 
ATOM     16  C   UNL d   1       0.398   5.876  -0.566  0.00  0.00     0.002 A 
ATOM     17  C   UNL d   1       1.055   4.644  -0.519  0.00  0.00     0.031 A 
ENDBRANCH  10  12
ENDBRANCH   8  10
BRANCH   7  18
ATOM     18  C   UNL d   1       2.596  -0.030  -0.116  0.00  0.00     0.315 C 
ATOM     19  O   UNL d   1       3.293   0.863   0.341  0.00  0.00    -0.257 OA
BRANCH  18  20
ATOM     20  O   UNL d   1       2.965  -1.039  -0.927  0.00  0.00    -0.317 OA
BRANCH  20  21
ATOM     21  C   UNL d   1       4.309  -0.970  -1.423  0.00  0.00     0.175 C 
ATOM     22  C   UNL d   1       4.264  -0.315  -2.790  0.00  0.00     0.034 C 
ENDBRANCH  20  21
ENDBRANCH  18  20
ENDBRANCH   7  18
ENDBRANCH   5   7
ENDBRANCH   4   5
ENDBRANCH   3   4
TORSDOF 8
