REMARK  6 active torsions:
REMARK  status: ('A' for Active; 'I' for Inactive)
REMARK    1  A    between atoms: C_4  and  C_1 
REMARK    2  A    between atoms: C_10  and  C_2 
REMARK    3  A    between atoms: C_9  and  C_6 
REMARK    4  A    between atoms: C_8  and  C_14 
REMARK    5  A    between atoms: C_12  and  C_9 
REMARK    6  A    between atoms: O_21  and  C_10 
ROOT
ATOM      1  C   UNL d   1       1.821  -2.588   0.124  0.00  0.00     0.041 C 
ATOM      2  C   UNL d   1       1.173  -3.770   0.055  0.00  0.00     0.096 C 
ATOM      3  C   UNL d   1       1.895  -4.987  -0.074  0.00  0.00     0.103 C 
ATOM      4  N   UNL d   1       2.463  -5.999  -0.156  0.00  0.00    -0.191 NA
ENDROOT
BRANCH   2   5
ATOM      5  C   UNL d   1      -0.327  -3.776   0.042  0.00  0.00     0.202 C 
ATOM      6  O   UNL d   1      -0.971  -2.790  -0.309  0.00  0.00    -0.286 OA
BRANCH   5   7
ATOM      7  C   UNL d   1      -1.060  -5.025   0.415  0.00  0.00     0.016 A 
ATOM      8  C   UNL d   1      -0.577  -5.885   1.410  0.00  0.00     0.031 A 
ATOM      9  C   UNL d   1      -1.233  -7.091   1.703  0.00  0.00     0.048 A 
ATOM     10  C   UNL d   1      -2.426  -7.396   1.033  0.00  0.00     0.016 A 
ATOM     11  C   UNL d   1      -2.948  -6.514   0.085  0.00  0.00     0.002 A 
ATOM     12  C   UNL d   1      -2.266  -5.333  -0.227  0.00  0.00     0.015 A 
BRANCH   9  13
ATOM     13  C   UNL d   1      -0.656  -8.051   2.717  0.00  0.00     0.417 C 
ATOM     14  F   UNL d   1       0.517  -7.618   3.260  0.00  0.00    -0.166 F 
ATOM     15  F   UNL d   1      -1.495  -8.264   3.765  0.00  0.00    -0.166 F 
ATOM     16  F   UNL d   1      -0.394  -9.275   2.185  0.00  0.00    -0.166 F 
ENDBRANCH   9  13
ENDBRANCH   5   7
ENDBRANCH   2   5
BRANCH   1  17
ATOM     17  C   UNL d   1       3.245  -2.443   0.024  0.00  0.00     0.006 A 
ATOM     18  C   UNL d   1       4.212  -2.261   1.066  0.00  0.00     0.073 A 
ATOM     19  C   UNL d   1       5.450  -2.181   0.431  0.00  0.00     0.022 A 
ATOM     20  C   UNL d   1       6.833  -2.050   0.967  0.00  0.00     0.069 C 
ATOM     21  N   UNL d   1       5.251  -2.321  -0.917  0.00  0.00    -0.362 N 
ATOM     22  C   UNL d   1       3.920  -2.504  -1.185  0.00  0.00     0.017 A 
ATOM     23  H   UNL d   1       5.989  -2.331  -1.610  0.00  0.00     0.165 HD
ATOM     24  C   UNL d   1       3.458  -2.740  -2.580  0.00  0.00     0.069 C 
BRANCH  18  25
ATOM     25  C   UNL d   1       4.056  -2.216   2.519  0.00  0.00     0.295 C 
ATOM     26  O   UNL d   1       4.676  -1.436   3.233  0.00  0.00    -0.259 OA
BRANCH  25  27
ATOM     27  O   UNL d   1       3.248  -3.211   2.990  0.00  0.00    -0.322 OA
ATOM     28  C   UNL d   1       3.346  -3.457   4.398  0.00  0.00     0.213 C 
ENDBRANCH  25  27
ENDBRANCH  18  25
ENDBRANCH   1  17
TORSDOF 6
