REMARK  8 active torsions:
REMARK  status: ('A' for Active; 'I' for Inactive)
REMARK    1  A    between atoms: C_2  and  S_1 
REMARK    2  A    between atoms: N_7  and  S_1 
REMARK    3  A    between atoms: O_19  and  C_6 
REMARK    4  A    between atoms: C_15  and  N_7 
REMARK    5  A    between atoms: C_8  and  C_20 
REMARK    6  A    between atoms: C_21  and  C_15 
REMARK    7  A    between atoms: S_18  and  C_21 
REMARK    8  A    between atoms: C_20  and  S_18 
ROOT
ATOM      1  S   UNL d   1       0.880   0.354  -0.142  0.00  0.00     0.261 S 
ATOM      2  O   UNL d   1       0.542  -0.746  -1.018  0.00  0.00    -0.200 OA
ATOM      3  O   UNL d   1       0.319   0.432   1.185  0.00  0.00    -0.200 OA
ENDROOT
BRANCH   1   4
ATOM      4  C   UNL d   1       0.657   1.854  -1.087  0.00  0.00     0.114 A 
ATOM      5  C   UNL d   1       1.216   1.734  -2.391  0.00  0.00     0.052 A 
ATOM      6  C   UNL d   1       1.157   2.768  -3.317  0.00  0.00     0.035 A 
ATOM      7 CL   UNL d   1       1.865   2.578  -4.871  0.00  0.00    -0.084 Cl
ATOM      8  C   UNL d   1       0.525   3.948  -2.982  0.00  0.00     0.026 A 
ATOM      9  C   UNL d   1      -0.037   4.072  -1.712  0.00  0.00     0.040 A 
ATOM     10  C   UNL d   1       0.014   3.046  -0.735  0.00  0.00     0.091 A 
BRANCH  10  11
ATOM     11  O   UNL d   1      -0.624   3.509   0.371  0.00  0.00    -0.354 OA
ATOM     12  C   UNL d   1      -0.680   2.830   1.602  0.00  0.00     0.210 C 
ENDBRANCH  10  11
ENDBRANCH   1   4
BRANCH   1  13
ATOM     13  N   UNL d   1       2.551   0.299   0.058  0.00  0.00    -0.315 N 
ATOM     14  H   UNL d   1       3.042   0.076  -0.814  0.00  0.00     0.172 HD
BRANCH  13  15
ATOM     15  C   UNL d   1       3.195   1.353   0.870  0.00  0.00     0.142 C 
BRANCH  15  16
ATOM     16  C   UNL d   1       4.719   1.194   0.813  0.00  0.00     0.094 C 
BRANCH  16  17
ATOM     17  S   UNL d   1       5.242   1.314  -0.930  0.00  0.00    -0.161 SA
BRANCH  17  18
ATOM     18  C   UNL d   1       7.051   1.175  -0.733  0.00  0.00     0.139 C 
BRANCH  18  19
ATOM     19  C   UNL d   1       7.646   1.241  -2.090  0.00  0.00     0.061 A 
ATOM     20  O   UNL d   1       7.993   2.480  -2.546  0.00  0.00    -0.326 OA
ATOM     21  C   UNL d   1       8.365   2.333  -3.843  0.00  0.00     0.142 A 
ATOM     22  C   UNL d   1       8.292   1.012  -4.219  0.00  0.00     0.027 A 
ATOM     23  C   UNL d   1       7.849   0.300  -3.080  0.00  0.00     0.035 A 
ENDBRANCH  18  19
ENDBRANCH  17  18
ENDBRANCH  16  17
ENDBRANCH  15  16
ENDBRANCH  13  15
ENDBRANCH   1  13
TORSDOF 8
