REMARK  1 active torsions:
REMARK  status: ('A' for Active; 'I' for Inactive)
REMARK    1  A    between atoms: C_10  and  C_4 
ROOT
ATOM      1  C   UNL d   1       1.724   0.623   0.495  0.00  0.00    -0.006 C 
ATOM      2  C   UNL d   1       0.955  -0.614   0.848  0.00  0.00     0.189 C 
ATOM      3  C   UNL d   1      -0.445  -0.340   0.526  0.00  0.00     0.021 A 
ATOM      4  C   UNL d   1       2.981   0.763   0.044  0.00  0.00    -0.010 C 
ATOM      5  C   UNL d   1      -0.598   1.023   0.277  0.00  0.00    -0.040 A 
ATOM      6  C   UNL d   1       0.701   1.750   0.449  0.00  0.00     0.082 C 
ATOM      7  O   UNL d   1       1.343  -1.622   1.401  0.00  0.00    -0.287 OA
ATOM      8  C   UNL d   1      -1.484  -1.245   0.432  0.00  0.00     0.016 A 
ATOM      9  C   UNL d   1      -1.840   1.524  -0.075  0.00  0.00     0.008 A 
ATOM     10  C   UNL d   1      -2.731  -0.748   0.056  0.00  0.00     0.001 A 
ATOM     11  C   UNL d   1      -2.907   0.626  -0.193  0.00  0.00     0.001 A 
ENDROOT
BRANCH   4  12
ATOM     12  C   UNL d   1       4.077  -0.220  -0.333  0.00  0.00     0.012 C 
ATOM     13  C   UNL d   1       4.000  -1.693   0.113  0.00  0.00     0.035 C 
ATOM     14  C   UNL d   1       3.155  -2.567  -0.775  0.00  0.00    -0.030 C 
ATOM     15  C   UNL d   1       2.728  -2.189  -1.988  0.00  0.00    -0.031 C 
ATOM     16  C   UNL d   1       3.094  -0.873  -2.603  0.00  0.00     0.027 C 
ATOM     17  C   UNL d   1       4.248  -0.175  -1.869  0.00  0.00     0.012 C 
ENDBRANCH   4  12
TORSDOF 1
