REMARK  6 active torsions:
REMARK  status: ('A' for Active; 'I' for Inactive)
REMARK    1  A    between atoms: C_2  and  C_1 
REMARK    2  A    between atoms: C_14  and  C_8 
REMARK    3  A    between atoms: C_23  and  C_10 
REMARK    4  A    between atoms: C_13  and  O_18 
REMARK    5  A    between atoms: C_17  and  C_13 
REMARK    6  A    between atoms: O_18  and  C_23 
ROOT
ATOM      1  C   UNL d   1      -0.719   0.876  -0.108  0.00  0.00     0.128 A 
ATOM      2  C   UNL d   1      -0.966  -0.205   0.699  0.00  0.00     0.074 A 
ATOM      3  N   UNL d   1       0.738  -0.726  -0.697  0.00  0.00    -0.260 N 
ATOM      4  HN  UNL d   1       1.490  -1.222  -1.173  1.00  0.00     0.195 HD
ATOM      5  C   UNL d   1      -0.038  -1.196   0.293  0.00  0.00     0.068 A 
ATOM      6  O   UNL d   1       0.311   0.568  -0.942  0.00  0.00    -0.235 OA
ENDROOT
BRANCH   1   7
ATOM      7  C   UNL d   1      -1.465   2.158  -0.076  0.00  0.00     0.075 A 
ATOM      8  N   UNL d   1      -2.480   2.372   0.842  0.00  0.00    -0.349 N 
ATOM      9  C   UNL d   1      -2.991   3.573   0.668  0.00  0.00     0.075 A 
ATOM     10  HN  UNL d   1      -2.785   1.700   1.547  1.00  0.00     0.166 HD
ATOM     11  S   UNL d   1      -2.273   4.500  -0.598  0.00  0.00    -0.084 SA
ATOM     12  C   UNL d   1      -1.205   3.202  -0.936  0.00  0.00     0.084 A 
BRANCH   9  13
ATOM     13  C   UNL d   1      -4.064   4.200   1.511  0.00  0.00     0.243 C 
BRANCH  13  14
ATOM     14  O   UNL d   1      -4.937   3.192   2.052  0.00  0.00    -0.314 OA
BRANCH  14  15
ATOM     15  C   UNL d   1      -5.964   2.815   1.246  0.00  0.00     0.266 C 
ATOM     16  O   UNL d   1      -6.091   3.181   0.083  0.00  0.00    -0.264 OA
BRANCH  15  17
ATOM     17  C   UNL d   1      -6.998   1.950   1.981  0.00  0.00     0.037 C 
ATOM     18  C   UNL d   1      -6.601   1.641   3.433  0.00  0.00     0.025 C 
ATOM     19  C   UNL d   1      -8.324   2.726   1.982  0.00  0.00     0.025 C 
ATOM     20  C   UNL d   1      -7.178   0.627   1.224  0.00  0.00     0.025 C 
ENDBRANCH  15  17
ENDBRANCH  14  15
ENDBRANCH  13  14
ENDBRANCH   9  13
ENDBRANCH   1   7
BRANCH   5  21
ATOM     21  C   UNL d   1       0.100  -2.557   0.811  0.00  0.00    -0.006 A 
ATOM     22  C   UNL d   1      -0.338  -2.876   2.105  0.00  0.00     0.039 A 
ATOM     23  C   UNL d   1      -0.238  -4.186   2.589  0.00  0.00     0.056 A 
ATOM     24 CL   UNL d   1      -0.808  -4.491   4.193  0.00  0.00    -0.083 Cl
ATOM     25  C   UNL d   1       0.303  -5.191   1.782  0.00  0.00     0.055 A 
ATOM     26  C   UNL d   1       0.747  -4.880   0.495  0.00  0.00     0.026 A 
ATOM     27 CL   UNL d   1       0.446  -6.829   2.311  0.00  0.00    -0.083 Cl
ATOM     28  C   UNL d   1       0.649  -3.571   0.014  0.00  0.00     0.015 A 
ENDBRANCH   5  21
TORSDOF 6
