REMARK  2 active torsions:
REMARK  status: ('A' for Active; 'I' for Inactive)
REMARK    1  A    between atoms: C_4  and  N_1 
REMARK    2  A    between atoms: C_8  and  C_2 
ROOT
ATOM      1  C   UNL d   1      -1.061  -2.253   3.016  0.00  0.00     0.031 A 
ATOM      2  C   UNL d   1      -0.060  -1.343   3.385  0.00  0.00     0.050 A 
ATOM      3  C   UNL d   1       0.276  -0.767   1.051  0.00  0.00     0.104 A 
ATOM      4  C   UNL d   1       0.618  -0.609   2.401  0.00  0.00     0.060 A 
ATOM      5  C   UNL d   1      -1.403  -2.391   1.658  0.00  0.00     0.019 A 
ATOM      6  C   UNL d   1      -0.738  -1.653   0.674  0.00  0.00     0.037 A 
ATOM      7 CL   UNL d   1       0.349  -0.998   5.026  0.00  0.00    -0.083 Cl
ENDROOT
BRANCH   1   8
ATOM      8  C   UNL d   1      -1.848  -3.073   3.972  0.00  0.00     0.157 C 
ATOM      9  O   UNL d   1      -3.057  -3.194   3.784  0.00  0.00    -0.293 OA
ATOM     10  C   UNL d   1      -1.155  -3.796   5.096  0.00  0.00     0.097 C 
ENDBRANCH   1   8
BRANCH   3  11
ATOM     11  N   UNL d   1       0.974   0.020   0.026  0.00  0.00    -0.116 N 
ATOM     12  O   UNL d   1       1.882   0.773   0.402  0.00  0.00    -0.532 OA
ATOM     13  O   UNL d   1       0.615  -0.120  -1.151  0.00  0.00    -0.532 OA
ENDBRANCH   3  11
TORSDOF 2
