REMARK  10 active torsions:
REMARK  status: ('A' for Active; 'I' for Inactive)
REMARK    1  A    between atoms: O_7  and  C_2 
REMARK    2  A    between atoms: C_3  and  C_14 
REMARK    3  A    between atoms: C_4  and  C_15 
REMARK    4  A    between atoms: C_14  and  O_7 
REMARK    5  A    between atoms: O_12  and  C_8 
REMARK    6  A    between atoms: S_10  and  C_9 
REMARK    7  A    between atoms: C_13  and  S_10 
REMARK    8  A    between atoms: C_11  and  C_13 
REMARK    9  A    between atoms: C_19  and  C_11 
REMARK   10  A    between atoms: C_15  and  O_12 
ROOT
ATOM      1  C   UNL d   1      -0.578  -0.030  -0.011  0.00  0.00     0.112 A 
ATOM      2  C   UNL d   1       0.060   1.237   0.019  0.00  0.00     0.109 A 
ATOM      3  C   UNL d   1      -2.005  -0.170   0.059  0.00  0.00     0.105 C 
ATOM      4  N   UNL d   1      -3.167  -0.238   0.099  0.00  0.00    -0.191 NA
ATOM      5  C   UNL d   1       0.200  -1.210  -0.085  0.00  0.00     0.092 A 
ATOM      6  C   UNL d   1       1.474   1.287   0.046  0.00  0.00     0.036 A 
ATOM      7  C   UNL d   1       1.590  -1.133   0.003  0.00  0.00     0.040 A 
ATOM      8  C   UNL d   1       2.219   0.102   0.051  0.00  0.00     0.024 A 
ENDROOT
BRANCH   2   9
ATOM      9  O   UNL d   1      -0.556   2.463   0.086  0.00  0.00    -0.339 OA
BRANCH   9  10
ATOM     10  C   UNL d   1      -1.792   2.681  -0.613  0.00  0.00     0.293 C 
BRANCH  10  11
ATOM     11  C   UNL d   1      -1.923   4.124  -1.106  0.00  0.00     0.408 C 
ATOM     12  F   UNL d   1      -0.800   4.850  -0.906  0.00  0.00    -0.169 F 
ATOM     13  F   UNL d   1      -2.194   4.156  -2.432  0.00  0.00    -0.169 F 
ATOM     14  F   UNL d   1      -2.934   4.765  -0.474  0.00  0.00    -0.169 F 
ENDBRANCH  10  11
ENDBRANCH   9  10
ENDBRANCH   2   9
BRANCH   5  15
ATOM     15  O   UNL d   1      -0.460  -2.413  -0.245  0.00  0.00    -0.341 OA
BRANCH  15  16
ATOM     16  C   UNL d   1       0.342  -3.496  -0.757  0.00  0.00     0.293 C 
BRANCH  16  17
ATOM     17  C   UNL d   1      -0.477  -4.653  -1.324  0.00  0.00     0.408 C 
ATOM     18  F   UNL d   1      -1.804  -4.505  -1.148  0.00  0.00    -0.169 F 
ATOM     19  F   UNL d   1      -0.250  -4.787  -2.652  0.00  0.00    -0.169 F 
ATOM     20  F   UNL d   1      -0.113  -5.821  -0.742  0.00  0.00    -0.169 F 
ENDBRANCH  16  17
ENDBRANCH  15  16
ENDBRANCH   5  15
BRANCH   6  21
ATOM     21  S   UNL d   1       2.460   2.784  -0.055  0.00  0.00    -0.119 SA
BRANCH  21  22
ATOM     22  C   UNL d   1       2.049   3.635   1.496  0.00  0.00     0.163 C 
BRANCH  22  23
ATOM     23  C   UNL d   1       2.362   2.860   2.766  0.00  0.00     0.169 C 
ATOM     24  O   UNL d   1       2.823   1.720   2.788  0.00  0.00    -0.291 OA
BRANCH  23  25
ATOM     25  C   UNL d   1       2.081   3.544   4.071  0.00  0.00     0.010 A 
ATOM     26  C   UNL d   1       1.676   4.885   4.143  0.00  0.00     0.015 A 
ATOM     27  C   UNL d   1       1.423   5.480   5.382  0.00  0.00     0.001 A 
ATOM     28  C   UNL d   1       1.572   4.747   6.555  0.00  0.00     0.000 A 
ATOM     29  C   UNL d   1       1.978   3.415   6.496  0.00  0.00     0.001 A 
ATOM     30  C   UNL d   1       2.234   2.816   5.260  0.00  0.00     0.015 A 
ENDBRANCH  23  25
ENDBRANCH  22  23
ENDBRANCH  21  22
ENDBRANCH   6  21
TORSDOF 10
