REMARK  7 active torsions:
REMARK  status: ('A' for Active; 'I' for Inactive)
REMARK    1  A    between atoms: S_14  and  C_2 
REMARK    2  A    between atoms: C_3  and  S_13 
REMARK    3  A    between atoms: C_15  and  C_4 
REMARK    4  A    between atoms: S_13  and  C_15 
REMARK    5  A    between atoms: C_19  and  S_14 
REMARK    6  A    between atoms: C_16  and  C_19 
REMARK       I    between atoms: N_17  and  C_16 
REMARK    7  A    between atoms: C_21  and  N_17 
ROOT
ATOM      1  N   UNL d   1       1.090   0.066  -0.090  0.00  0.00    -0.319 N 
ATOM      2  C   UNL d   1       0.229   1.071  -0.413  0.00  0.00     0.162 C 
ATOM      3  C   UNL d   1       0.290  -1.056   0.085  0.00  0.00     0.109 C 
ATOM      4  N   UNL d   1      -1.003   0.688  -0.213  0.00  0.00    -0.278 N 
ATOM      5  HN  UNL d   1      -1.835   1.275  -0.270  1.00  0.00     0.189 HD
ATOM      6  N   UNL d   1      -0.973  -0.651   0.086  0.00  0.00    -0.286 N 
ATOM      7  HN  UNL d   1      -1.786  -1.237   0.278  1.00  0.00     0.188 HD
ATOM      8  C   UNL d   1       2.520   0.172   0.035  0.00  0.00     0.159 C 
ENDROOT
BRANCH   2   9
ATOM      9  S   UNL d   1       0.715   2.488  -1.284  0.00  0.00    -0.083 SA
BRANCH   9  10
ATOM     10  C   UNL d   1      -0.791   3.486  -1.371  0.00  0.00     0.185 C 
BRANCH  10  11
ATOM     11  C   UNL d   1      -1.890   3.028  -2.326  0.00  0.00     0.231 C 
ATOM     12  N   UNL d   1      -1.994   1.677  -2.564  0.00  0.00    -0.327 N 
ATOM     13  H   UNL d   1      -1.573   1.072  -1.864  0.00  0.00     0.169 HD
ATOM     14  O   UNL d   1      -2.682   3.866  -2.765  0.00  0.00    -0.272 OA
BRANCH  12  15
ATOM     15  C   UNL d   1      -2.919   1.049  -3.412  0.00  0.00     0.034 A 
ATOM     16  C   UNL d   1      -3.469   1.669  -4.535  0.00  0.00     0.031 A 
ATOM     17  C   UNL d   1      -4.377   0.977  -5.342  0.00  0.00     0.026 A 
ATOM     18  C   UNL d   1      -4.744  -0.327  -5.013  0.00  0.00     0.034 A 
ATOM     19  C   UNL d   1      -4.202  -0.951  -3.893  0.00  0.00     0.026 A 
ATOM     20 CL   UNL d   1      -5.868  -1.175  -6.001  0.00  0.00    -0.084 Cl
ATOM     21  C   UNL d   1      -3.274  -0.270  -3.105  0.00  0.00     0.031 A 
ENDBRANCH  12  15
ENDBRANCH  10  11
ENDBRANCH   9  10
ENDBRANCH   2   9
BRANCH   3  22
ATOM     22  C   UNL d   1       0.711  -2.498   0.082  0.00  0.00     0.157 C 
BRANCH  22  23
ATOM     23  S   UNL d   1       2.208  -2.868   1.027  0.00  0.00    -0.119 SA
BRANCH  23  24
ATOM     24  C   UNL d   1       2.547  -4.514   0.551  0.00  0.00     0.035 A 
ATOM     25  C   UNL d   1       3.606  -4.941  -0.226  0.00  0.00     0.023 A 
ATOM     26  N   UNL d   1       3.556  -6.317  -0.242  0.00  0.00    -0.358 N 
ATOM     27  C   UNL d   1       4.684  -4.201  -0.931  0.00  0.00     0.069 C 
ATOM     28  C   UNL d   1       2.494  -6.773   0.503  0.00  0.00     0.044 A 
ATOM     29  H   UNL d   1       4.225  -6.918  -0.705  0.00  0.00     0.166 HD
ATOM     30  C   UNL d   1       1.827  -5.654   1.003  0.00  0.00     0.009 A 
ATOM     31  C   UNL d   1       2.092  -8.084   0.790  0.00  0.00     0.030 A 
ATOM     32  C   UNL d   1       0.696  -5.856   1.823  0.00  0.00     0.015 A 
ATOM     33  C   UNL d   1       0.276  -7.157   2.110  0.00  0.00     0.001 A 
ATOM     34  C   UNL d   1       0.969  -8.253   1.606  0.00  0.00     0.002 A 
ENDBRANCH  23  24
ENDBRANCH  22  23
ENDBRANCH   3  22
TORSDOF 7
