REMARK  4 active torsions:
REMARK  status: ('A' for Active; 'I' for Inactive)
REMARK    1  A    between atoms: C_8  and  N_1 
REMARK    2  A    between atoms: S_10  and  C_2 
REMARK    3  A    between atoms: C_23  and  S_10 
REMARK    4  A    between atoms: C_24  and  C_23 
ROOT
ATOM      1  N   UNL d   1       2.422   0.775  -0.093  0.00  0.00    -0.258 N 
ATOM      2  C   UNL d   1       2.399  -0.622  -0.014  0.00  0.00     0.155 A 
ATOM      3  C   UNL d   1       1.221   1.499  -0.095  0.00  0.00     0.266 A 
ATOM      4  N   UNL d   1       1.311  -1.319   0.061  0.00  0.00    -0.335 N 
ATOM      5  HN  UNL d   1       1.355  -2.335   0.135  1.00  0.00     0.168 HD
ATOM      6  C   UNL d   1      -0.026   0.718  -0.032  0.00  0.00     0.059 A 
ATOM      7  C   UNL d   1       0.077  -0.665   0.041  0.00  0.00     0.051 A 
ATOM      8  C   UNL d   1      -1.278   1.349  -0.064  0.00  0.00     0.021 A 
ATOM      9  C   UNL d   1      -1.091  -1.432   0.063  0.00  0.00     0.054 A 
ATOM     10  O   UNL d   1       1.130   2.725  -0.129  0.00  0.00    -0.267 OA
ATOM     11  C   UNL d   1      -2.341  -0.811   0.017  0.00  0.00     0.036 A 
ATOM     12  C   UNL d   1      -2.440   0.578  -0.041  0.00  0.00     0.025 A 
ATOM     13 CL   UNL d   1      -3.770  -1.768   0.021  0.00  0.00    -0.084 Cl
ENDROOT
BRANCH   2  14
ATOM     14  S   UNL d   1       3.916  -1.526  -0.087  0.00  0.00    -0.089 SA
BRANCH  14  15
ATOM     15  C   UNL d   1       3.312  -3.173  -0.536  0.00  0.00     0.121 C 
BRANCH  15  16
ATOM     16  C   UNL d   1       4.360  -4.269  -0.568  0.00  0.00    -0.047 A 
ATOM     17  C   UNL d   1       5.342  -4.409   0.426  0.00  0.00     0.033 A 
ATOM     18  C   UNL d   1       6.206  -5.513   0.439  0.00  0.00     0.056 A 
ATOM     19 CL   UNL d   1       7.380  -5.601   1.705  0.00  0.00    -0.083 Cl
ATOM     20  C   UNL d   1       6.084  -6.506  -0.536  0.00  0.00     0.055 A 
ATOM     21  C   UNL d   1       5.114  -6.381  -1.530  0.00  0.00     0.026 A 
ATOM     22 CL   UNL d   1       7.075  -7.922  -0.552  0.00  0.00    -0.083 Cl
ATOM     23  C   UNL d   1       4.260  -5.274  -1.545  0.00  0.00     0.010 A 
ENDBRANCH  15  16
ENDBRANCH  14  15
ENDBRANCH   2  14
BRANCH   1  24
ATOM     24  C   UNL d   1       3.626   1.536  -0.240  0.00  0.00     0.046 A 
ATOM     25  C   UNL d   1       3.768   2.395  -1.341  0.00  0.00     0.055 A 
ATOM     26  C   UNL d   1       4.950   3.116  -1.537  0.00  0.00     0.058 A 
ATOM     27 CL   UNL d   1       5.057   4.111  -2.946  0.00  0.00    -0.082 Cl
ATOM     28  C   UNL d   1       5.996   3.002  -0.617  0.00  0.00     0.055 A 
ATOM     29  C   UNL d   1       5.846   2.183   0.504  0.00  0.00     0.028 A 
ATOM     30 CL   UNL d   1       7.497   3.835  -0.811  0.00  0.00    -0.083 Cl
ATOM     31  C   UNL d   1       4.665   1.457   0.696  0.00  0.00     0.032 A 
ENDBRANCH   1  24
TORSDOF 4
