REMARK  4 active torsions:
REMARK  status: ('A' for Active; 'I' for Inactive)
REMARK    1  A    between atoms: C_9  and  N_3 
REMARK    2  A    between atoms: C_8  and  C_9 
REMARK       I    between atoms: N_12  and  C_8 
REMARK    3  A    between atoms: C_17  and  N_12 
REMARK    4  A    between atoms: C_18  and  C_13 
ROOT
ATOM      1  C   UNL d   1      -1.369  -1.514  -3.795  0.00  0.00     0.118 C 
ATOM      2  C   UNL d   1      -1.708  -1.179  -2.386  0.00  0.00     0.269 C 
ATOM      3  N   UNL d   1      -1.370  -2.131  -1.404  0.00  0.00    -0.308 N 
ATOM      4  C   UNL d   1      -0.392  -2.407  -4.022  0.00  0.00    -0.034 C 
ATOM      5  C   UNL d   1      -0.344  -3.049  -1.662  0.00  0.00     0.012 C 
ATOM      6  C   UNL d   1       0.156  -3.154  -2.905  0.00  0.00     0.033 C 
ATOM      7  C   UNL d   1      -2.069  -0.817  -4.821  0.00  0.00     0.105 C 
ATOM      8  N   UNL d   1      -2.642  -0.302  -5.686  0.00  0.00    -0.191 NA
ATOM      9  O   UNL d   1      -2.219  -0.094  -2.117  0.00  0.00    -0.266 OA
ATOM     10  C   UNL d   1       0.213  -2.700  -5.367  0.00  0.00     0.050 C 
ATOM     11  C   UNL d   1       0.261  -3.859  -0.545  0.00  0.00     0.068 C 
ENDROOT
BRANCH   3  12
ATOM     12  C   UNL d   1      -1.835  -1.842  -0.039  0.00  0.00     0.235 C 
BRANCH  12  13
ATOM     13  C   UNL d   1      -3.346  -1.502   0.104  0.00  0.00     0.240 C 
ATOM     14  N   UNL d   1      -3.572  -0.134   0.111  0.00  0.00    -0.326 N 
ATOM     15  H   UNL d   1      -2.808   0.418  -0.272  0.00  0.00     0.169 HD
ATOM     16  O   UNL d   1      -4.197  -2.384   0.178  0.00  0.00    -0.271 OA
BRANCH  14  17
ATOM     17  C   UNL d   1      -4.771   0.583   0.294  0.00  0.00     0.034 A 
ATOM     18  C   UNL d   1      -6.010   0.003   0.547  0.00  0.00     0.030 A 
ATOM     19  C   UNL d   1      -7.147   0.811   0.719  0.00  0.00     0.010 A 
ATOM     20  C   UNL d   1      -7.066   2.213   0.657  0.00  0.00    -0.055 A 
ATOM     21  C   UNL d   1      -5.814   2.786   0.411  0.00  0.00     0.010 A 
ATOM     22  C   UNL d   1      -4.686   1.980   0.222  0.00  0.00     0.030 A 
BRANCH  20  23
ATOM     23  C   UNL d   1      -8.294   3.103   0.771  0.00  0.00     0.010 C 
ATOM     24  C   UNL d   1      -9.211   2.912  -0.441  0.00  0.00     0.015 C 
ATOM     25  C   UNL d   1      -9.062   2.921   2.085  0.00  0.00     0.015 C 
ENDBRANCH  20  23
ENDBRANCH  14  17
ENDBRANCH  12  13
ENDBRANCH   3  12
TORSDOF 4
