REMARK  3 active torsions:
REMARK  status: ('A' for Active; 'I' for Inactive)
REMARK    1  A    between atoms: C_13  and  C_1 
REMARK       I    between atoms: C_9  and  N_15 
REMARK    2  A    between atoms: C_12  and  C_9 
REMARK    3  A    between atoms: N_15  and  N_10 
ROOT
ATOM      1  N   UNL d   1      -8.696   1.103   1.330  0.00  0.00    -0.197 NA
ATOM      2  C   UNL d   1      -8.547  -0.036   1.158  0.00  0.00     0.068 C 
ATOM      3  C   UNL d   1      -8.319  -1.454   0.889  0.00  0.00     0.228 C 
ENDROOT
BRANCH   3   4
ATOM      4  C   UNL d   1      -6.854  -1.821   0.863  0.00  0.00     0.249 C 
ATOM      5  N   UNL d   1      -5.970  -0.870   0.370  0.00  0.00    -0.270 N 
ATOM      6  H   UNL d   1      -6.255   0.080   0.135  0.00  0.00     0.190 HD
ATOM      7  O   UNL d   1      -6.517  -2.961   1.201  0.00  0.00    -0.271 OA
BRANCH   5   8
ATOM      8  N   UNL d   1      -4.645  -1.193   0.313  0.00  0.00    -0.308 N 
ATOM      9  C   UNL d   1      -3.821  -0.275  -0.080  0.00  0.00     0.124 C 
ATOM     10  HN  UNL d   1      -4.316  -2.123   0.572  1.00  0.00     0.186 HD
BRANCH   9  11
ATOM     11  C   UNL d   1      -2.358  -0.501  -0.146  0.00  0.00     0.054 C 
ATOM     12  C   UNL d   1      -1.403   0.585  -0.448  0.00  0.00     0.198 C 
ATOM     13  C   UNL d   1       0.022   0.270  -0.235  0.00  0.00     0.049 A 
ATOM     14  O   UNL d   1      -1.775   1.685  -0.837  0.00  0.00    -0.286 OA
ATOM     15  C   UNL d   1       0.991   1.278  -0.233  0.00  0.00     0.018 A 
ATOM     16  C   UNL d   1       0.390  -1.058  -0.022  0.00  0.00     0.089 A 
ATOM     17  C   UNL d   1       2.333   0.944  -0.038  0.00  0.00     0.001 A 
ATOM     18  C   UNL d   1       2.705  -0.393   0.129  0.00  0.00     0.003 A 
ATOM     19  C   UNL d   1       1.734  -1.395   0.137  0.00  0.00     0.038 A 
ATOM     20  O   UNL d   1      -0.529  -2.075   0.060  0.00  0.00    -0.321 OA
ATOM     21  C   UNL d   1      -1.859  -1.723   0.083  0.00  0.00     0.159 C 
ENDBRANCH   9  11
ENDBRANCH   5   8
ENDBRANCH   3   4
TORSDOF 3
