REMARK  2 active torsions:
REMARK  status: ('A' for Active; 'I' for Inactive)
REMARK    1  A    between atoms: C_5  and  C_1 
REMARK    2  A    between atoms: N_13  and  C_10 
ROOT
ATOM      1  C   UNL d   1       1.976  -1.623  -0.353  0.00  0.00     0.198 C 
ATOM      2  N   UNL d   1       1.103  -2.411  -1.175  0.00  0.00    -0.336 N 
ATOM      3  C   UNL d   1       0.482  -1.904  -2.284  0.00  0.00     0.255 C 
ATOM      4  N   UNL d   1       2.849  -0.819  -1.193  0.00  0.00    -0.267 NA
ATOM      5  C   UNL d   1       1.113  -0.724  -2.905  0.00  0.00     0.053 A 
ATOM      6  C   UNL d   1       2.267  -0.205  -2.305  0.00  0.00     0.026 A 
ATOM      7  O   UNL d   1      -0.523  -2.426  -2.747  0.00  0.00    -0.268 OA
ATOM      8  C   UNL d   1       0.599  -0.182  -4.087  0.00  0.00     0.019 A 
ATOM      9  C   UNL d   1       2.933   0.842  -2.950  0.00  0.00     0.024 A 
ATOM     10  C   UNL d   1       1.259   0.883  -4.698  0.00  0.00     0.001 A 
ATOM     11  C   UNL d   1       2.426   1.392  -4.133  0.00  0.00     0.002 A 
ATOM     12  H   UNL d   1       0.591  -3.160  -0.731  0.00  0.00     0.164 HD
ATOM     13  H   UNL d   1       3.433  -0.190  -0.650  0.00  0.00     0.130 HD
ENDROOT
BRANCH   1  14
ATOM     14  C   UNL d   1       2.845  -2.523   0.499  0.00  0.00     0.001 A 
ATOM     15  C   UNL d   1       2.822  -2.536   1.895  0.00  0.00     0.045 A 
ATOM     16  C   UNL d   1       3.671  -3.392   2.620  0.00  0.00     0.053 A 
ATOM     17 CL   UNL d   1       1.760  -1.521   2.806  0.00  0.00    -0.084 Cl
ATOM     18  C   UNL d   1       4.574  -4.265   1.992  0.00  0.00     0.031 A 
ATOM     19  C   UNL d   1       4.581  -4.248   0.593  0.00  0.00     0.030 A 
ATOM     20  C   UNL d   1       3.740  -3.402  -0.138  0.00  0.00     0.014 A 
BRANCH  18  21
ATOM     21  N   UNL d   1       5.379  -5.123   2.727  0.00  0.00    -0.390 N 
ATOM     22  C   UNL d   1       5.956  -4.689   3.996  0.00  0.00     0.149 C 
ATOM     23  C   UNL d   1       6.005  -6.286   2.109  0.00  0.00     0.149 C 
ENDBRANCH  18  21
ENDBRANCH   1  14
TORSDOF 2
