REMARK  10 active torsions:
REMARK  status: ('A' for Active; 'I' for Inactive)
REMARK    1  A    between atoms: C_11  and  N_1 
REMARK    2  A    between atoms: C_10  and  N_2 
REMARK    3  A    between atoms: C_4  and  C_3 
REMARK    4  A    between atoms: O_25  and  C_5 
REMARK    5  A    between atoms: O_26  and  C_6 
REMARK    6  A    between atoms: O_27  and  C_7 
REMARK    7  A    between atoms: C_22  and  C_10 
REMARK    8  A    between atoms: C_23  and  C_11 
REMARK    9  A    between atoms: N_14  and  C_12 
REMARK   10  A    between atoms: N_15  and  C_13 
ROOT
ATOM      1  N   UNL d   1       1.235   0.680  -0.205  0.00  0.00     0.131 N 
ATOM      2  N   UNL d   1      -1.243   0.632  -0.192  0.00  0.00     0.131 N 
ATOM      3  C   UNL d   1      -0.018   1.386   0.188  0.00  0.00     0.490 C 
ATOM      4  C   UNL d   1      -1.210  -0.741   0.358  0.00  0.00     0.278 C 
ATOM      5  C   UNL d   1       1.268  -0.641   0.434  0.00  0.00     0.278 C 
ATOM      6  C   UNL d   1       0.074  -1.489   0.038  0.00  0.00     0.061 C 
ENDROOT
BRANCH   3   7
ATOM      7  C   UNL d   1      -0.042   2.867  -0.245  0.00  0.00     0.010 C 
ATOM      8  C   UNL d   1       0.006   3.883   0.726  0.00  0.00     0.051 C 
ATOM      9  C   UNL d   1      -0.075   5.247   0.379  0.00  0.00     0.104 C 
ATOM     10  C   UNL d   1      -0.095   5.629  -0.975  0.00  0.00     0.135 C 
ATOM     11  C   UNL d   1      -0.082   4.617  -1.953  0.00  0.00     0.104 C 
ATOM     12  C   UNL d   1      -0.155   3.269  -1.581  0.00  0.00     0.051 C 
BRANCH   9  13
ATOM     13  O   UNL d   1      -0.060   6.214   1.355  0.00  0.00    -0.353 OA
ATOM     14  C   UNL d   1      -0.813   5.912   2.528  0.00  0.00     0.210 C 
ENDBRANCH   9  13
BRANCH  10  15
ATOM     15  O   UNL d   1      -0.163   6.903  -1.474  0.00  0.00    -0.351 OA
ATOM     16  C   UNL d   1      -0.382   8.001  -0.607  0.00  0.00     0.210 C 
ENDBRANCH  10  15
BRANCH  11  17
ATOM     17  O   UNL d   1      -0.049   4.815  -3.314  0.00  0.00    -0.353 OA
ATOM     18  C   UNL d   1       0.838   5.843  -3.756  0.00  0.00     0.210 C 
ENDBRANCH  11  17
ENDBRANCH   3   7
BRANCH   2  19
ATOM     19  C   UNL d   1      -2.450   1.324   0.338  0.00  0.00     0.314 C 
BRANCH  19  20
ATOM     20  C   UNL d   1      -3.768   0.661  -0.015  0.00  0.00    -0.030 A 
ATOM     21  C   UNL d   1      -4.639   0.211   0.983  0.00  0.00     0.011 A 
ATOM     22  C   UNL d   1      -5.873  -0.368   0.639  0.00  0.00     0.030 A 
ATOM     23  C   UNL d   1      -6.282  -0.514  -0.693  0.00  0.00     0.029 A 
ATOM     24  C   UNL d   1      -5.386  -0.064  -1.675  0.00  0.00     0.030 A 
ATOM     25  C   UNL d   1      -4.151   0.516  -1.344  0.00  0.00     0.011 A 
BRANCH  23  26
ATOM     26  N   UNL d   1      -7.503  -1.073  -1.035  0.00  0.00    -0.390 N 
ATOM     27  C   UNL d   1      -8.174  -2.054  -0.194  0.00  0.00     0.149 C 
ATOM     28  C   UNL d   1      -8.240  -0.615  -2.206  0.00  0.00     0.149 C 
ENDBRANCH  23  26
ENDBRANCH  19  20
ENDBRANCH   2  19
BRANCH   1  29
ATOM     29  C   UNL d   1       1.435   0.612  -1.665  0.00  0.00     0.314 C 
BRANCH  29  30
ATOM     30  C   UNL d   1       2.626  -0.182  -2.165  0.00  0.00    -0.030 A 
ATOM     31  C   UNL d   1       2.446  -1.248  -3.052  0.00  0.00     0.011 A 
ATOM     32  C   UNL d   1       3.547  -1.927  -3.590  0.00  0.00     0.030 A 
ATOM     33  C   UNL d   1       4.862  -1.565  -3.269  0.00  0.00     0.029 A 
ATOM     34  C   UNL d   1       5.022  -0.494  -2.374  0.00  0.00     0.030 A 
ATOM     35  C   UNL d   1       3.929   0.189  -1.827  0.00  0.00     0.011 A 
BRANCH  33  36
ATOM     36  N   UNL d   1       5.975  -2.243  -3.753  0.00  0.00    -0.390 N 
ATOM     37  C   UNL d   1       5.860  -3.610  -4.243  0.00  0.00     0.149 C 
ATOM     38  C   UNL d   1       7.070  -1.458  -4.320  0.00  0.00     0.149 C 
ENDBRANCH  33  36
ENDBRANCH  29  30
ENDBRANCH   1  29
TORSDOF 10
