REMARK  2 active torsions:
REMARK  status: ('A' for Active; 'I' for Inactive)
REMARK    1  A    between atoms: C_2  and  C_1 
REMARK    2  A    between atoms: C_14  and  C_5 
ROOT
ATOM      1  C   UNL d   1       1.316   0.762  -0.012  0.00  0.00     0.093 A 
ATOM      2  N   UNL d   1       1.414  -0.616  -0.137  0.00  0.00    -0.346 N 
ATOM      3  HN  UNL d   1       2.284  -1.128  -0.283  1.00  0.00     0.167 HD
ATOM      4  C   UNL d   1       0.219  -1.171  -0.040  0.00  0.00     0.086 A 
ATOM      5  S   UNL d   1      -1.073  -0.056   0.214  0.00  0.00    -0.081 SA
ATOM      6  C   UNL d   1       0.040   1.242   0.199  0.00  0.00     0.086 A 
ENDROOT
BRANCH   1   7
ATOM      7  C   UNL d   1       2.504   1.663  -0.111  0.00  0.00     0.191 A 
ATOM      8  N   UNL d   1       2.458   2.974   0.061  0.00  0.00    -0.276 N 
ATOM      9  N   UNL d   1       3.732   3.455  -0.153  0.00  0.00    -0.281 N 
ATOM     10  HN  UNL d   1       1.634   3.524   0.305  1.00  0.00     0.189 HD
ATOM     11  C   UNL d   1       4.471   2.410  -0.450  0.00  0.00     0.136 A 
ATOM     12  HN  UNL d   1       4.038   4.426  -0.093  1.00  0.00     0.189 HD
ATOM     13  O   UNL d   1       3.775   1.235  -0.423  0.00  0.00    -0.276 OA
ATOM     14  C   UNL d   1       5.894   2.348  -0.824  0.00  0.00     0.099 C 
ENDBRANCH   1   7
BRANCH   4  15
ATOM     15  C   UNL d   1      -0.022  -2.618  -0.069  0.00  0.00     0.013 A 
ATOM     16  C   UNL d   1      -1.205  -3.192  -0.530  0.00  0.00     0.101 A 
ATOM     17  N   UNL d   1      -1.459  -4.525  -0.550  0.00  0.00    -0.374 N 
ATOM     18  C   UNL d   1      -0.482  -5.336  -0.092  0.00  0.00     0.087 A 
ATOM     19  HN  UNL d   1      -2.345  -4.896  -0.894  1.00  0.00     0.164 HD
ATOM     20  C   UNL d   1       0.737  -4.877   0.375  0.00  0.00     0.018 A 
ATOM     21  C   UNL d   1       0.968  -3.502   0.379  0.00  0.00     0.017 A 
ENDBRANCH   4  15
TORSDOF 2
