REMARK  4 active torsions:
REMARK  status: ('A' for Active; 'I' for Inactive)
REMARK    1  A    between atoms: S_8  and  C_1 
REMARK    2  A    between atoms: C_7  and  C_11 
REMARK       I    between atoms: N_9  and  C_7 
REMARK    3  A    between atoms: C_11  and  S_8 
REMARK    4  A    between atoms: C_12  and  N_9 
ROOT
ATOM      1  C   UNL d   1      -4.620  -1.585   0.207  0.00  0.00     0.186 C 
ENDROOT
BRANCH   1   2
ATOM      2  C   UNL d   1      -6.101  -1.331  -0.001  0.00  0.00     0.231 C 
ATOM      3  N   UNL d   1      -6.910  -1.934   0.950  0.00  0.00    -0.327 N 
ATOM      4  H   UNL d   1      -6.443  -2.302   1.776  0.00  0.00     0.169 HD
ATOM      5  O   UNL d   1      -6.484  -0.640  -0.942  0.00  0.00    -0.272 OA
BRANCH   3   6
ATOM      6  C   UNL d   1      -8.321  -1.989   0.937  0.00  0.00     0.034 A 
ATOM      7  C   UNL d   1      -9.100  -1.575  -0.150  0.00  0.00     0.032 A 
ATOM      8  C   UNL d   1     -10.494  -1.681  -0.112  0.00  0.00     0.044 A 
ATOM      9  C   UNL d   1     -11.109  -2.204   1.013  0.00  0.00     0.116 A 
ATOM     10  C   UNL d   1     -10.357  -2.623   2.105  0.00  0.00     0.044 A 
ATOM     11  F   UNL d   1     -12.444  -2.314   1.048  0.00  0.00    -0.206 F 
ATOM     12  C   UNL d   1      -8.962  -2.517   2.066  0.00  0.00     0.032 A 
ENDBRANCH   3   6
ENDBRANCH   1   2
BRANCH   1  13
ATOM     13  S   UNL d   1      -3.900  -0.244   1.182  0.00  0.00    -0.077 SA
BRANCH  13  14
ATOM     14  C   UNL d   1      -4.303  -0.754   2.793  0.00  0.00     0.188 A 
ATOM     15  N   UNL d   1      -4.754  -1.961   3.092  0.00  0.00    -0.329 N 
ATOM     16  C   UNL d   1      -4.761  -1.970   4.466  0.00  0.00     0.068 A 
ATOM     17  HN  UNL d   1      -5.030  -2.708   2.455  1.00  0.00     0.168 HD
ATOM     18  C   UNL d   1      -5.042  -2.989   5.385  0.00  0.00     0.032 A 
ATOM     19  C   UNL d   1      -4.394  -0.723   4.944  0.00  0.00     0.105 A 
ATOM     20  C   UNL d   1      -4.928  -2.694   6.753  0.00  0.00     0.002 A 
ATOM     21  C   UNL d   1      -4.572  -1.412   7.192  0.00  0.00     0.003 A 
ATOM     22  C   UNL d   1      -4.302  -0.380   6.287  0.00  0.00     0.040 A 
ATOM     23  O   UNL d   1      -4.113   0.067   3.873  0.00  0.00    -0.285 OA
ENDBRANCH  13  14
ENDBRANCH   1  13
TORSDOF 4
