REMARK  8 active torsions:
REMARK  status: ('A' for Active; 'I' for Inactive)
REMARK    1  A    between atoms: S_6  and  C_1 
REMARK    2  A    between atoms: C_3  and  S_6 
REMARK    3  A    between atoms: C_18  and  C_4 
REMARK    4  A    between atoms: C_22  and  C_9 
REMARK    5  A    between atoms: C_14  and  C_20 
REMARK    6  A    between atoms: C_15  and  C_19 
REMARK    7  A    between atoms: O_33  and  C_22 
REMARK    8  A    between atoms: C_36  and  O_33 
ROOT
ATOM      1  N   UNL d   1      -4.032   3.240  -0.838  0.00  0.00    -0.320 N 
ATOM      2  C   UNL d   1      -3.200   2.644   0.059  0.00  0.00     0.167 A 
ATOM      3  C   UNL d   1      -5.304   3.143  -0.326  0.00  0.00     0.132 A 
ATOM      4  N   UNL d   1      -5.227   2.473   0.812  0.00  0.00    -0.283 N 
ATOM      5  HN  UNL d   1      -6.015   2.229   1.413  1.00  0.00     0.188 HD
ATOM      6  N   UNL d   1      -3.900   2.157   1.054  0.00  0.00    -0.278 N 
ATOM      7  HN  UNL d   1      -3.535   1.643   1.856  1.00  0.00     0.189 HD
ATOM      8  H   UNL d   1      -3.744   3.747  -1.658  0.00  0.00     0.169 HD
ENDROOT
BRANCH   2   9
ATOM      9  S   UNL d   1      -1.498   2.854  -0.083  0.00  0.00    -0.034 SA
BRANCH   9  10
ATOM     10  C   UNL d   1      -0.912   1.165   0.037  0.00  0.00     0.087 A 
ATOM     11  C   UNL d   1      -0.041   0.758   1.043  0.00  0.00     0.005 A 
ATOM     12  C   UNL d   1       0.540  -0.490   0.832  0.00  0.00     0.118 A 
ATOM     13  C   UNL d   1       0.308   1.608   2.228  0.00  0.00     0.054 C 
ATOM     14  N   UNL d   1       0.247  -1.285  -0.225  0.00  0.00    -0.341 N 
ATOM     15  C   UNL d   1      -0.631  -0.808  -1.113  0.00  0.00     0.078 A 
ATOM     16  HN  UNL d   1       0.676  -2.204  -0.337  1.00  0.00     0.167 HD
ATOM     17  N   UNL d   1      -1.210   0.398  -1.035  0.00  0.00    -0.340 N 
ATOM     18  C   UNL d   1      -0.928  -1.646  -2.318  0.00  0.00     0.089 C 
ATOM     19  HN  UNL d   1      -1.853   0.724  -1.757  1.00  0.00     0.167 HD
BRANCH  12  20
ATOM     20  C   UNL d   1       1.622  -1.009   1.744  0.00  0.00     0.310 C 
ATOM     21  O   UNL d   1       2.342  -0.301   2.432  0.00  0.00    -0.258 OA
BRANCH  20  22
ATOM     22  O   UNL d   1       1.667  -2.369   1.713  0.00  0.00    -0.317 OA
BRANCH  22  23
ATOM     23  C   UNL d   1       2.571  -2.985   2.644  0.00  0.00     0.175 C 
ATOM     24  C   UNL d   1       3.970  -3.099   2.061  0.00  0.00     0.034 C 
ENDBRANCH  22  23
ENDBRANCH  20  22
ENDBRANCH  12  20
ENDBRANCH   9  10
ENDBRANCH   2   9
BRANCH   3  25
ATOM     25  C   UNL d   1      -6.495   3.745  -0.934  0.00  0.00     0.011 A 
ATOM     26  C   UNL d   1      -6.620   3.879  -2.325  0.00  0.00     0.031 A 
ATOM     27  C   UNL d   1      -7.761   4.462  -2.908  0.00  0.00     0.049 A 
ATOM     28  C   UNL d   1      -8.789   4.927  -2.075  0.00  0.00     0.032 A 
ATOM     29  C   UNL d   1      -8.695   4.806  -0.680  0.00  0.00     0.049 A 
ATOM     30  C   UNL d   1      -7.547   4.207  -0.124  0.00  0.00     0.031 A 
BRANCH  27  31
ATOM     31  C   UNL d   1      -7.866   4.570  -4.412  0.00  0.00     0.417 C 
ATOM     32  F   UNL d   1      -9.030   5.128  -4.842  0.00  0.00    -0.166 F 
ATOM     33  F   UNL d   1      -6.866   5.327  -4.941  0.00  0.00    -0.166 F 
ATOM     34  F   UNL d   1      -7.779   3.357  -5.024  0.00  0.00    -0.166 F 
ENDBRANCH  27  31
BRANCH  29  35
ATOM     35  C   UNL d   1      -9.804   5.313   0.215  0.00  0.00     0.417 C 
ATOM     36  F   UNL d   1     -10.859   5.832  -0.476  0.00  0.00    -0.166 F 
ATOM     37  F   UNL d   1     -10.324   4.340   1.011  0.00  0.00    -0.166 F 
ATOM     38  F   UNL d   1      -9.386   6.304   1.049  0.00  0.00    -0.166 F 
ENDBRANCH  29  35
ENDBRANCH   3  25
TORSDOF 8
