REMARK  6 active torsions:
REMARK  status: ('A' for Active; 'I' for Inactive)
REMARK    1  A    between atoms: C_5  and  C_1 
REMARK       I    between atoms: N_8  and  C_1 
REMARK    2  A    between atoms: N_2  and  N_8 
REMARK    3  A    between atoms: O_20  and  C_4 
REMARK    4  A    between atoms: N_9  and  C_6 
REMARK    5  A    between atoms: O_21  and  C_7 
REMARK    6  A    between atoms: C_18  and  C_17 
ROOT
ATOM      1  N   UNL d   1       0.644   2.045   1.248  0.00  0.00    -0.308 N 
ATOM      2  HN  UNL d   1       1.654   2.101   1.377  1.00  0.00     0.186 HD
ATOM      3  C   UNL d   1      -0.149   2.952   1.713  0.00  0.00     0.118 C 
ENDROOT
BRANCH   1   4
ATOM      4  N   UNL d   1       0.065   1.009   0.577  0.00  0.00    -0.266 N 
ATOM      5  C   UNL d   1       0.878   0.016   0.045  0.00  0.00     0.270 C 
ATOM      6  O   UNL d   1       2.103   0.004   0.097  0.00  0.00    -0.266 OA
ATOM      7  H   UNL d   1      -0.931   1.028   0.397  0.00  0.00     0.190 HD
BRANCH   5   8
ATOM      8  C   UNL d   1       0.176  -1.096  -0.658  0.00  0.00     0.033 A 
ATOM      9  C   UNL d   1       0.851  -1.766  -1.678  0.00  0.00     0.019 A 
ATOM     10  C   UNL d   1       0.256  -2.856  -2.331  0.00  0.00     0.030 A 
ATOM     11  C   UNL d   1      -1.019  -3.334  -1.984  0.00  0.00     0.029 A 
ATOM     12  C   UNL d   1      -1.671  -2.637  -0.950  0.00  0.00     0.030 A 
ATOM     13  C   UNL d   1      -1.095  -1.535  -0.294  0.00  0.00     0.019 A 
BRANCH  11  14
ATOM     14  N   UNL d   1      -1.578  -4.464  -2.565  0.00  0.00    -0.390 N 
ATOM     15  C   UNL d   1      -3.025  -4.615  -2.708  0.00  0.00     0.149 C 
ATOM     16  C   UNL d   1      -0.794  -5.385  -3.385  0.00  0.00     0.149 C 
ENDBRANCH  11  14
ENDBRANCH   5   8
ENDBRANCH   1   4
BRANCH   3  17
ATOM     17  C   UNL d   1       0.377   4.121   2.452  0.00  0.00    -0.017 A 
ATOM     18  C   UNL d   1      -0.518   5.069   2.962  0.00  0.00     0.052 A 
ATOM     19  C   UNL d   1      -0.032   6.184   3.655  0.00  0.00     0.102 A 
ATOM     20  C   UNL d   1       1.353   6.328   3.825  0.00  0.00     0.099 A 
ATOM     21  C   UNL d   1       2.246   5.381   3.324  0.00  0.00     0.040 A 
ATOM     22  C   UNL d   1       1.758   4.273   2.636  0.00  0.00     0.016 A 
BRANCH  19  23
ATOM     23  O   UNL d   1      -0.812   7.174   4.193  0.00  0.00    -0.353 OA
ATOM     24  C   UNL d   1      -2.220   7.059   4.053  0.00  0.00     0.210 C 
ENDBRANCH  19  23
BRANCH  20  25
ATOM     25  O   UNL d   1       1.835   7.420   4.498  0.00  0.00    -0.358 OA
ATOM     26  H   UNL d   1       2.805   7.381   4.517  0.00  0.00     0.217 HD
ENDBRANCH  20  25
ENDBRANCH   3  17
TORSDOF 6
