REMARK  4 active torsions:
REMARK  status: ('A' for Active; 'I' for Inactive)
REMARK    1  A    between atoms: C_17  and  C_2 
REMARK    2  A    between atoms: N_14  and  C_7 
REMARK    3  A    between atoms: C_10  and  C_15 
REMARK    4  A    between atoms: N_11  and  N_14 
ROOT
ATOM      1  C   UNL d   1       0.482  -0.373   0.028  0.00  0.00     0.141 C 
ATOM      2  C   UNL d   1      -0.352  -1.424  -0.043  0.00  0.00     0.085 C 
ATOM      3  N   UNL d   1      -1.522   0.968   0.102  0.00  0.00    -0.153 N 
ATOM      4  C   UNL d   1      -0.156   0.957   0.049  0.00  0.00     0.282 C 
ATOM      5  N   UNL d   1      -1.717  -1.323  -0.160  0.00  0.00    -0.188 N 
ATOM      6  HN  UNL d   1      -2.286  -2.158  -0.304  1.00  0.00     0.184 HD
ATOM      7  C   UNL d   1      -2.274  -0.155  -0.085  0.00  0.00     0.700 C 
ATOM      8  C   UNL d   1       1.897  -0.464   0.060  0.00  0.00     0.107 C 
ATOM      9  N   UNL d   1       3.053  -0.556   0.072  0.00  0.00    -0.191 NA
ATOM     10  O   UNL d   1       0.478   2.006   0.002  0.00  0.00    -0.266 OA
ATOM     11  H   UNL d   1      -1.952   1.879   0.055  0.00  0.00     0.187 HD
ENDROOT
BRANCH   2  12
ATOM     12  C   UNL d   1       0.159  -2.811  -0.015  0.00  0.00    -0.007 A 
ATOM     13  C   UNL d   1       0.392  -3.446   1.212  0.00  0.00     0.014 A 
ATOM     14  C   UNL d   1       0.836  -4.769   1.246  0.00  0.00     0.001 A 
ATOM     15  C   UNL d   1       1.046  -5.465   0.056  0.00  0.00     0.000 A 
ATOM     16  C   UNL d   1       0.812  -4.841  -1.169  0.00  0.00     0.001 A 
ATOM     17  C   UNL d   1       0.367  -3.517  -1.206  0.00  0.00     0.014 A 
ENDBRANCH   2  12
BRANCH   7  18
ATOM     18  N   UNL d   1      -3.631   0.049  -0.230  0.00  0.00    -0.132 N 
ATOM     19  H   UNL d   1      -4.024   0.780   0.359  0.00  0.00     0.205 HD
BRANCH  18  20
ATOM     20  N   UNL d   1      -4.557  -0.866  -0.672  0.00  0.00    -0.296 N 
ATOM     21  C   UNL d   1      -4.181  -1.587  -1.687  0.00  0.00     0.126 C 
ATOM     22  HN  UNL d   1      -5.473  -0.972  -0.235  1.00  0.00     0.186 HD
BRANCH  21  23
ATOM     23  C   UNL d   1      -5.043  -2.592  -2.254  0.00  0.00     0.021 A 
ATOM     24  S   UNL d   1      -4.488  -3.492  -3.599  0.00  0.00    -0.101 SA
ATOM     25  C   UNL d   1      -5.946  -4.380  -3.682  0.00  0.00     0.050 A 
ATOM     26  C   UNL d   1      -6.838  -4.001  -2.704  0.00  0.00     0.008 A 
ATOM     27  C   UNL d   1      -6.315  -2.966  -1.876  0.00  0.00     0.021 A 
ENDBRANCH  21  23
ENDBRANCH  18  20
ENDBRANCH   7  18
TORSDOF 4
