REMARK  2 active torsions:
REMARK  status: ('A' for Active; 'I' for Inactive)
REMARK    1  A    between atoms: C_4  and  C_3 
REMARK    2  A    between atoms: O_15  and  C_7 
ROOT
ATOM      1  N   UNL d   1       1.136   1.341  -0.048  0.00  0.00    -0.352 N 
ATOM      2  HN  UNL d   1       1.102   2.360  -0.073  1.00  0.00     0.166 HD
ATOM      3  C   UNL d   1       2.335   0.694  -0.038  0.00  0.00     0.119 A 
ATOM      4  C   UNL d   1      -0.022  -0.784   0.011  0.00  0.00     0.025 A 
ATOM      5  C   UNL d   1       0.000   0.627  -0.025  0.00  0.00     0.045 A 
ATOM      6  C   UNL d   1       1.234  -1.423   0.022  0.00  0.00     0.080 A 
ATOM      7  C   UNL d   1       2.413  -0.691   0.002  0.00  0.00     0.071 A 
ATOM      8  C   UNL d   1      -1.274  -1.449   0.032  0.00  0.00     0.040 A 
ATOM      9  C   UNL d   1      -1.203   1.320  -0.044  0.00  0.00     0.032 A 
ATOM     10  C   UNL d   1      -2.464  -0.723   0.004  0.00  0.00     0.035 A 
ATOM     11  C   UNL d   1      -2.434   0.662  -0.034  0.00  0.00     0.026 A 
ATOM     12 CL   UNL d   1      -3.972  -1.550   0.012  0.00  0.00    -0.084 Cl
ENDROOT
BRANCH   3  13
ATOM     13  C   UNL d   1       3.626   1.499  -0.087  0.00  0.00     0.432 C 
ATOM     14  F   UNL d   1       3.445   2.850  -0.110  0.00  0.00    -0.165 F 
ATOM     15  F   UNL d   1       4.437   1.252   0.982  0.00  0.00    -0.165 F 
ATOM     16  F   UNL d   1       4.378   1.208  -1.190  0.00  0.00    -0.165 F 
ENDBRANCH   3  13
BRANCH   6  17
ATOM     17  O   UNL d   1       1.401  -2.782   0.044  0.00  0.00    -0.360 OA
ATOM     18  H   UNL d   1       0.550  -3.231  -0.064  0.00  0.00     0.217 HD
ENDBRANCH   6  17
TORSDOF 2
