REMARK  2 active torsions:
REMARK  status: ('A' for Active; 'I' for Inactive)
REMARK    1  A    between atoms: C_10  and  C_3 
REMARK       I    between atoms: N_14  and  C_10 
REMARK    2  A    between atoms: N_15  and  N_14 
ROOT
ATOM      1  C   UNL d   1      -0.207  -0.774   0.004  0.00  0.00     0.067 A 
ATOM      2  S   UNL d   1       2.106  -0.087   0.060  0.00  0.00     0.068 SA
ATOM      3  C   UNL d   1      -2.603  -0.662  -0.061  0.00  0.00     0.035 A 
ATOM      4  C   UNL d   1      -0.162   0.731   0.041  0.00  0.00     0.067 A 
ATOM      5  C   UNL d   1      -1.440  -1.464  -0.047  0.00  0.00     0.049 A 
ATOM      6  N   UNL d   1       1.011  -1.336   0.019  0.00  0.00    -0.310 N 
ATOM      7  HN  UNL d   1       1.223  -2.334   0.008  1.00  0.00     0.176 HD
ATOM      8  N   UNL d   1       1.085   1.224   0.076  0.00  0.00    -0.310 N 
ATOM      9  HN  UNL d   1       1.353   2.208   0.106  1.00  0.00     0.176 HD
ATOM     10  C   UNL d   1      -2.558   0.760  -0.026  0.00  0.00     0.019 A 
ATOM     11  C   UNL d   1      -1.355   1.492   0.030  0.00  0.00     0.033 A 
ENDROOT
BRANCH   3  12
ATOM     12  C   UNL d   1      -3.906  -1.378  -0.193  0.00  0.00     0.265 C 
ATOM     13  O   UNL d   1      -3.961  -2.459  -0.769  0.00  0.00    -0.266 OA
ATOM     14  N   UNL d   1      -5.018  -0.764   0.373  0.00  0.00    -0.290 N 
ATOM     15  H   UNL d   1      -4.909  -0.009   1.044  0.00  0.00     0.183 HD
BRANCH  14  16
ATOM     16  N   UNL d   1      -6.257  -1.444   0.332  0.00  0.00    -0.247 NA
ATOM     17  H   UNL d   1      -6.066  -2.384  -0.048  0.00  0.00     0.143 HD
ATOM     18  H   UNL d   1      -6.836  -1.006  -0.390  0.00  0.00     0.143 HD
ENDBRANCH  14  16
ENDBRANCH   3  12
TORSDOF 2
