REMARK  7 active torsions:
REMARK  status: ('A' for Active; 'I' for Inactive)
REMARK    1  A    between atoms: N_2  and  C_1 
REMARK    2  A    between atoms: S_9  and  C_3 
REMARK    3  A    between atoms: C_10  and  C_4 
REMARK       I    between atoms: C_6  and  N_11 
REMARK       I    between atoms: N_14  and  C_6 
REMARK    4  A    between atoms: C_12  and  S_9 
REMARK    5  A    between atoms: O_21  and  C_10 
REMARK    6  A    between atoms: N_11  and  C_13 
REMARK    7  A    between atoms: C_20  and  N_14 
ROOT
ATOM      1  C   UNL d   1      -0.945   4.179  -0.964  0.00  0.00     0.028 A 
ATOM      2  C   UNL d   1       0.312   4.079  -1.587  0.00  0.00     0.034 A 
ATOM      3  C   UNL d   1      -1.263   5.388  -0.324  0.00  0.00     0.021 A 
ATOM      4  C   UNL d   1       1.182   5.184  -1.626  0.00  0.00     0.025 A 
ATOM      5  C   UNL d   1      -0.362   6.458  -0.300  0.00  0.00     0.001 A 
ATOM      6  C   UNL d   1       0.849   6.366  -0.974  0.00  0.00     0.002 A 
ENDROOT
BRANCH   1   7
ATOM      7  S   UNL d   1      -2.248   2.987  -1.255  0.00  0.00    -0.068 SA
BRANCH   7   8
ATOM      8  C   UNL d   1      -2.290   1.961   0.196  0.00  0.00     0.108 A 
ATOM      9  C   UNL d   1      -2.847   2.297   1.423  0.00  0.00     0.137 A 
ATOM     10  C   UNL d   1      -2.938   1.360   2.461  0.00  0.00     0.058 A 
ATOM     11  C   UNL d   1      -2.481   0.064   2.236  0.00  0.00     0.057 A 
ATOM     12  C   UNL d   1      -1.952  -0.220   0.985  0.00  0.00     0.106 A 
ATOM     13  N   UNL d   1      -1.861   0.687  -0.025  0.00  0.00    -0.357 N 
ATOM     14  HN  UNL d   1      -1.479   0.418  -0.932  1.00  0.00     0.166 HD
BRANCH   9  15
ATOM     15  N   UNL d   1      -3.442   3.584   1.647  0.00  0.00    -0.113 N 
ATOM     16  O   UNL d   1      -2.930   4.293   2.527  0.00  0.00    -0.532 OA
ATOM     17  O   UNL d   1      -4.456   3.869   1.001  0.00  0.00    -0.532 OA
ENDBRANCH   9  15
BRANCH  11  18
ATOM     18  C   UNL d   1      -2.608  -0.944   3.310  0.00  0.00     0.294 C 
ATOM     19  O   UNL d   1      -3.047  -0.678   4.417  0.00  0.00    -0.259 OA
BRANCH  18  20
ATOM     20  O   UNL d   1      -2.197  -2.163   2.886  0.00  0.00    -0.322 OA
ATOM     21  C   UNL d   1      -2.290  -3.187   3.881  0.00  0.00     0.213 C 
ENDBRANCH  18  20
ENDBRANCH  11  18
ENDBRANCH   7   8
ENDBRANCH   1   7
BRANCH   2  22
ATOM     22  N   UNL d   1       0.801   2.876  -2.165  0.00  0.00    -0.209 NA
ATOM     23  C   UNL d   1       1.473   2.022  -1.276  0.00  0.00     0.303 C 
ATOM     24  N   UNL d   1       2.509   1.383  -1.946  0.00  0.00    -0.313 N 
ATOM     25  O   UNL d   1       1.270   1.984  -0.069  0.00  0.00    -0.253 OA
ATOM     26  H   UNL d   1       2.360   1.186  -2.924  0.00  0.00     0.170 HD
ATOM     27  H   UNL d   1       1.419   3.058  -2.945  0.00  0.00     0.138 HD
BRANCH  24  28
ATOM     28  C   UNL d   1       3.799   1.140  -1.425  0.00  0.00     0.035 A 
ATOM     29  C   UNL d   1       4.170   1.435  -0.112  0.00  0.00     0.030 A 
ATOM     30  C   UNL d   1       5.508   1.348   0.287  0.00  0.00     0.009 A 
ATOM     31  C   UNL d   1       6.498   0.961  -0.621  0.00  0.00    -0.062 A 
ATOM     32  C   UNL d   1       6.122   0.620  -1.923  0.00  0.00     0.009 A 
ATOM     33  C   UNL d   1       7.947   1.017  -0.233  0.00  0.00     0.048 C 
ATOM     34  C   UNL d   1       4.781   0.697  -2.318  0.00  0.00     0.030 A 
ENDBRANCH  24  28
ENDBRANCH   2  22
TORSDOF 7
