REMARK  2 active torsions:
REMARK  status: ('A' for Active; 'I' for Inactive)
REMARK    1  A    between atoms: C_15  and  N_1 
REMARK    2  A    between atoms: C_19  and  C_15 
ROOT
ATOM      1  N   UNL d   1       3.031   0.636   0.153  0.00  0.00    -0.250 N 
ATOM      2  C   UNL d   1      -0.623   0.484  -0.077  0.00  0.00     0.062 A 
ATOM      3  N   UNL d   1       1.830   1.400  -0.150  0.00  0.00    -0.289 N 
ATOM      4  C   UNL d   1       0.795   0.473  -0.058  0.00  0.00     0.083 A 
ATOM      5  C   UNL d   1       1.324  -0.827   0.108  0.00  0.00     0.078 A 
ATOM      6  C   UNL d   1       2.757  -0.744   0.232  0.00  0.00     0.276 C 
ATOM      7  C   UNL d   1      -1.259  -0.729  -0.029  0.00  0.00     0.136 A 
ATOM      8  N   UNL d   1      -2.800   0.956  -0.110  0.00  0.00    -0.301 N 
ATOM      9  HN  UNL d   1      -3.697   1.440  -0.141  1.00  0.00     0.187 HD
ATOM     10  N   UNL d   1      -2.583  -0.384  -0.072  0.00  0.00    -0.280 N 
ATOM     11  C   UNL d   1      -1.563   1.508  -0.097  0.00  0.00     0.038 A 
ATOM     12  N   UNL d   1      -0.749  -1.969   0.058  0.00  0.00    -0.349 N 
ATOM     13  HN  UNL d   1      -1.327  -2.810   0.056  1.00  0.00     0.167 HD
ATOM     14  C   UNL d   1       0.593  -2.001   0.149  0.00  0.00     0.109 A 
ATOM     15  O   UNL d   1       3.589  -1.627   0.368  0.00  0.00    -0.266 OA
ATOM     16  C   UNL d   1       1.806   2.829   0.051  0.00  0.00     0.178 C 
ATOM     17  C   UNL d   1      -3.698  -1.298  -0.039  0.00  0.00     0.179 C 
ATOM     18  C   UNL d   1      -1.486   2.984  -0.059  0.00  0.00     0.071 C 
ENDROOT
BRANCH   1  19
ATOM     19  C   UNL d   1       4.385   1.136   0.013  0.00  0.00     0.191 C 
BRANCH  19  20
ATOM     20  C   UNL d   1       4.941   1.659   1.319  0.00  0.00    -0.038 A 
ATOM     21  C   UNL d   1       5.058   0.819   2.440  0.00  0.00     0.009 A 
ATOM     22  C   UNL d   1       5.506   1.321   3.663  0.00  0.00     0.001 A 
ATOM     23  C   UNL d   1       5.860   2.663   3.776  0.00  0.00     0.000 A 
ATOM     24  C   UNL d   1       5.799   3.495   2.659  0.00  0.00     0.001 A 
ATOM     25  C   UNL d   1       5.350   2.994   1.435  0.00  0.00     0.009 A 
ENDBRANCH  19  20
ENDBRANCH   1  19
TORSDOF 2
