REMARK  2 active torsions:
REMARK  status: ('A' for Active; 'I' for Inactive)
REMARK       I    between atoms: N_2  and  C_1 
REMARK    1  A    between atoms: C_5  and  C_1 
REMARK       I    between atoms: C_6  and  N_2 
REMARK       I    between atoms: N_12  and  C_6 
REMARK    2  A    between atoms: C_16  and  N_12 
ROOT
ATOM      1  C   UNL d   1       1.017   3.378   3.363  0.00  0.00     0.265 C 
ATOM      2  N   UNL d   1       0.420   2.712   2.306  0.00  0.00    -0.275 N 
ATOM      3  C   UNL d   1       1.006   1.887   1.368  0.00  0.00     0.327 C 
ATOM      4  N   UNL d   1       2.340   1.634   1.559  0.00  0.00    -0.309 N 
ATOM      5  O   UNL d   1       2.170   3.146   3.721  0.00  0.00    -0.267 OA
ATOM      6  O   UNL d   1       0.305   1.485   0.443  0.00  0.00    -0.247 OA
ATOM      7  H   UNL d   1      -0.534   2.935   2.053  0.00  0.00     0.173 HD
ATOM      8  H   UNL d   1       2.719   1.974   2.442  0.00  0.00     0.170 HD
ENDROOT
BRANCH   4   9
ATOM      9  C   UNL d   1       3.240   1.021   0.665  0.00  0.00     0.039 A 
ATOM     10  C   UNL d   1       2.872   0.628  -0.627  0.00  0.00     0.069 A 
ATOM     11  C   UNL d   1       3.893   0.136  -1.431  0.00  0.00     0.106 A 
ATOM     12  O   UNL d   1       3.794  -0.252  -2.734  0.00  0.00    -0.296 OA
ATOM     13  C   UNL d   1       5.211  -0.016  -1.041  0.00  0.00     0.068 A 
ATOM     14  C   UNL d   1       5.073  -0.609  -3.067  0.00  0.00     0.120 A 
ATOM     15  C   UNL d   1       5.289  -1.027  -4.466  0.00  0.00     0.098 C 
ATOM     16  N   UNL d   1       5.953  -0.502  -2.089  0.00  0.00    -0.338 N 
ATOM     17  HN  UNL d   1       6.948  -0.726  -2.107  1.00  0.00     0.168 HD
ATOM     18  C   UNL d   1       5.570   0.339   0.264  0.00  0.00     0.035 A 
ATOM     19  C   UNL d   1       4.570   0.865   1.102  0.00  0.00     0.032 A 
ENDBRANCH   4   9
BRANCH   1  20
ATOM     20  C   UNL d   1       0.191   4.377   4.082  0.00  0.00     0.109 A 
ATOM     21  C   UNL d   1       0.504   4.718   5.398  0.00  0.00     0.135 A 
ATOM     22  F   UNL d   1       1.502   4.110   6.056  0.00  0.00    -0.205 F 
ATOM     23  C   UNL d   1      -0.230   5.685   6.087  0.00  0.00     0.043 A 
ATOM     24  C   UNL d   1      -1.294   6.332   5.460  0.00  0.00     0.006 A 
ATOM     25  C   UNL d   1      -1.624   5.998   4.149  0.00  0.00     0.043 A 
ATOM     26  C   UNL d   1      -0.884   5.027   3.472  0.00  0.00     0.135 A 
ATOM     27  F   UNL d   1      -1.236   4.734   2.211  0.00  0.00    -0.205 F 
ENDBRANCH   1  20
TORSDOF 2
