REMARK  1 active torsions:
REMARK  status: ('A' for Active; 'I' for Inactive)
REMARK    1  A    between atoms: C_5  and  C_4 
ROOT
ATOM      1  C   UNL d   1      -0.755  -0.770   0.027  0.00  0.00     0.058 C 
ATOM      2  C   UNL d   1      -0.922   0.747   0.004  0.00  0.00     0.174 C 
ATOM      3  N   UNL d   1       0.624  -1.113   0.076  0.00  0.00    -0.280 NA
ATOM      4  C   UNL d   1      -1.745  -1.673  -0.031  0.00  0.00     0.046 C 
ATOM      5  C   UNL d   1       0.443   1.430  -0.037  0.00  0.00     0.064 C 
ATOM      6  C   UNL d   1       1.363  -0.651  -1.140  0.00  0.00     0.096 C 
ATOM      7  C   UNL d   1       1.314  -0.547   1.274  0.00  0.00     0.096 C 
ATOM      8  O   UNL d   1      -1.976   1.359   0.056  0.00  0.00    -0.291 OA
ATOM      9  C   UNL d   1       1.178   0.877  -1.274  0.00  0.00     0.027 C 
ATOM     10  C   UNL d   1       1.181   0.991   1.241  0.00  0.00     0.027 C 
ENDROOT
BRANCH   4  11
ATOM     11  C   UNL d   1      -3.118  -1.349  -0.157  0.00  0.00     0.006 A 
ATOM     12  S   UNL d   1      -3.841  -1.283  -1.716  0.00  0.00    -0.102 SA
ATOM     13  C   UNL d   1      -5.383  -0.943  -1.064  0.00  0.00     0.050 A 
ATOM     14  C   UNL d   1      -5.361  -0.878   0.310  0.00  0.00     0.008 A 
ATOM     15  C   UNL d   1      -4.054  -1.106   0.833  0.00  0.00     0.019 A 
ENDBRANCH   4  11
TORSDOF 1
