REMARK  7 active torsions:
REMARK  status: ('A' for Active; 'I' for Inactive)
REMARK    1  A    between atoms: C_14  and  N_5 
REMARK    2  A    between atoms: C_22  and  N_11 
REMARK    3  A    between atoms: C_19  and  C_12 
REMARK    4  A    between atoms: C_15  and  C_14 
REMARK       I    between atoms: N_17  and  C_15 
REMARK    5  A    between atoms: C_21  and  N_17 
REMARK    6  A    between atoms: C_31  and  C_22 
REMARK    7  A    between atoms: C_32  and  C_31 
ROOT
ATOM      1  N   UNL d   1       1.196  -0.238  -0.270  0.00  0.00    -0.203 N 
ATOM      2  C   UNL d   1       1.238   1.140  -0.495  0.00  0.00     0.136 A 
ATOM      3  C   UNL d   1      -1.200  -0.198  -0.231  0.00  0.00     0.062 A 
ATOM      4  C   UNL d   1      -1.122   1.103  -0.535  0.00  0.00     0.118 A 
ATOM      5  N   UNL d   1       0.057   1.844  -0.700  0.00  0.00    -0.318 N 
ATOM      6  C   UNL d   1       0.019  -0.999  -0.123  0.00  0.00     0.278 A 
ATOM      7  N   UNL d   1       2.428  -0.786  -0.129  0.00  0.00    -0.289 N 
ATOM      8  HN  UNL d   1       2.657  -1.771   0.006  1.00  0.00     0.188 HD
ATOM      9  C   UNL d   1       2.571   1.467  -0.401  0.00  0.00     0.082 A 
ATOM     10  C   UNL d   1      -2.546   1.559  -0.599  0.00  0.00     0.271 A 
ATOM     11  N   UNL d   1      -3.336   0.474  -0.244  0.00  0.00    -0.342 N 
ATOM     12  C   UNL d   1       3.282   0.246  -0.207  0.00  0.00     0.062 A 
ATOM     13  C   UNL d   1      -2.554  -0.700   0.060  0.00  0.00     0.173 A 
ATOM     14  O   UNL d   1       0.027  -2.204   0.095  0.00  0.00    -0.265 OA
ATOM     15  O   UNL d   1      -2.921   2.668  -0.931  0.00  0.00    -0.266 OA
ENDROOT
BRANCH   5  16
ATOM     16  C   UNL d   1       0.039   3.302  -0.393  0.00  0.00     0.234 C 
BRANCH  16  17
ATOM     17  C   UNL d   1       1.058   4.161  -1.138  0.00  0.00     0.240 C 
ATOM     18  N   UNL d   1       0.751   4.475  -2.459  0.00  0.00    -0.326 N 
ATOM     19  H   UNL d   1      -0.163   4.193  -2.803  0.00  0.00     0.169 HD
ATOM     20  O   UNL d   1       2.014   4.632  -0.518  0.00  0.00    -0.271 OA
BRANCH  18  21
ATOM     21  C   UNL d   1       1.506   5.358  -3.273  0.00  0.00     0.035 A 
ATOM     22  C   UNL d   1       2.846   5.677  -3.017  0.00  0.00     0.032 A 
ATOM     23  C   UNL d   1       3.535   6.600  -3.812  0.00  0.00     0.044 A 
ATOM     24  C   UNL d   1       2.890   7.209  -4.872  0.00  0.00     0.116 A 
ATOM     25  C   UNL d   1       1.567   6.891  -5.169  0.00  0.00     0.044 A 
ATOM     26  F   UNL d   1       3.540   8.109  -5.621  0.00  0.00    -0.206 F 
ATOM     27  C   UNL d   1       0.880   5.957  -4.382  0.00  0.00     0.032 A 
ENDBRANCH  18  21
ENDBRANCH  16  17
ENDBRANCH   5  16
BRANCH  12  28
ATOM     28  C   UNL d   1       4.738   0.060  -0.109  0.00  0.00    -0.008 A 
ATOM     29  C   UNL d   1       5.622   1.068  -0.527  0.00  0.00     0.014 A 
ATOM     30  C   UNL d   1       7.007   0.878  -0.470  0.00  0.00     0.001 A 
ATOM     31  C   UNL d   1       7.529  -0.320   0.009  0.00  0.00     0.000 A 
ATOM     32  C   UNL d   1       6.668  -1.327   0.440  0.00  0.00     0.001 A 
ATOM     33  C   UNL d   1       5.282  -1.138   0.381  0.00  0.00     0.014 A 
ENDBRANCH  12  28
BRANCH  11  34
ATOM     34  C   UNL d   1      -4.789   0.493  -0.133  0.00  0.00     0.126 C 
BRANCH  34  35
ATOM     35  C   UNL d   1      -5.270   0.838   1.280  0.00  0.00     0.020 C 
BRANCH  35  36
ATOM     36  C   UNL d   1      -6.792   0.712   1.411  0.00  0.00    -0.003 C 
ATOM     37  C   UNL d   1      -7.267   1.058   2.816  0.00  0.00     0.005 C 
ENDBRANCH  35  36
ENDBRANCH  34  35
ENDBRANCH  11  34
TORSDOF 7
