REMARK  8 active torsions:
REMARK  status: ('A' for Active; 'I' for Inactive)
REMARK    1  A    between atoms: N_2  and  S_1 
REMARK    2  A    between atoms: C_9  and  S_1 
REMARK    3  A    between atoms: C_6  and  N_2 
REMARK    4  A    between atoms: C_5  and  C_4 
REMARK       I    between atoms: N_13  and  C_5 
REMARK    5  A    between atoms: C_7  and  O_14 
REMARK    6  A    between atoms: C_22  and  N_13 
REMARK    7  A    between atoms: O_14  and  C_23 
REMARK    8  A    between atoms: C_15  and  C_22 
ROOT
ATOM      1  C   UNL d   1      -4.815   3.842  -4.515  0.00  0.00     0.100 A 
ATOM      2  C   UNL d   1      -3.990   2.751  -4.196  0.00  0.00     0.098 A 
ATOM      3  C   UNL d   1      -4.234   5.122  -4.821  0.00  0.00     0.104 C 
ATOM      4  N   UNL d   1      -3.758   6.147  -5.074  0.00  0.00    -0.191 NA
ATOM      5  C   UNL d   1      -6.204   3.654  -4.543  0.00  0.00     0.057 A 
ATOM      6 CL   UNL d   1      -7.301   4.937  -4.919  0.00  0.00    -0.083 Cl
ATOM      7  C   UNL d   1      -4.547   1.479  -3.994  0.00  0.00     0.039 A 
ATOM      8  C   UNL d   1      -5.929   1.308  -4.005  0.00  0.00     0.005 A 
ATOM      9  C   UNL d   1      -6.757   2.397  -4.268  0.00  0.00     0.025 A 
ENDROOT
BRANCH   2  10
ATOM     10  O   UNL d   1      -2.626   2.961  -4.155  0.00  0.00    -0.309 OA
BRANCH  10  11
ATOM     11  C   UNL d   1      -1.866   2.304  -3.211  0.00  0.00     0.076 A 
ATOM     12  C   UNL d   1      -0.558   1.994  -3.593  0.00  0.00     0.039 A 
ATOM     13  C   UNL d   1       0.294   1.330  -2.709  0.00  0.00     0.028 A 
ATOM     14  C   UNL d   1      -0.171   0.970  -1.441  0.00  0.00     0.080 A 
ATOM     15  C   UNL d   1      -1.463   1.318  -1.032  0.00  0.00     0.028 A 
ATOM     16  C   UNL d   1      -2.303   2.003  -1.915  0.00  0.00     0.039 A 
BRANCH  14  17
ATOM     17  S   UNL d   1       0.933   0.146  -0.306  0.00  0.00     0.263 S 
ATOM     18  O   UNL d   1       2.281   0.412  -0.753  0.00  0.00    -0.200 OA
ATOM     19  O   UNL d   1       0.487   0.487   1.030  0.00  0.00    -0.200 OA
BRANCH  17  20
ATOM     20  N   UNL d   1       0.569  -1.468  -0.534  0.00  0.00    -0.280 N 
ATOM     21  H   UNL d   1       0.016  -1.919   0.191  0.00  0.00     0.179 HD
BRANCH  20  22
ATOM     22  C   UNL d   1       0.796  -2.127  -1.771  0.00  0.00     0.058 A 
ATOM     23  C   UNL d   1       2.018  -2.718  -2.145  0.00  0.00     0.059 A 
ATOM     24  C   UNL d   1       2.068  -3.446  -3.347  0.00  0.00     0.019 A 
ATOM     25  C   UNL d   1       0.976  -3.492  -4.214  0.00  0.00     0.001 A 
ATOM     26  C   UNL d   1      -0.214  -2.873  -3.855  0.00  0.00     0.002 A 
ATOM     27  C   UNL d   1      -0.312  -2.222  -2.627  0.00  0.00     0.031 A 
BRANCH  23  28
ATOM     28  C   UNL d   1       3.224  -2.696  -1.266  0.00  0.00     0.253 C 
ATOM     29  N   UNL d   1       4.484  -2.485  -1.799  0.00  0.00    -0.356 N 
ATOM     30  H   UNL d   1       5.223  -2.530  -1.107  0.00  0.00     0.162 HD
ATOM     31  O   UNL d   1       3.103  -2.906  -0.061  0.00  0.00    -0.268 OA
BRANCH  29  32
ATOM     32  C   UNL d   1       4.854  -2.259  -3.179  0.00  0.00     0.127 C 
BRANCH  32  33
ATOM     33  C   UNL d   1       6.124  -1.489  -3.324  0.00  0.00     0.003 A 
ATOM     34  C   UNL d   1       6.289  -0.077  -2.823  0.00  0.00     0.007 A 
ATOM     35  C   UNL d   1       6.128  -0.330  -4.295  0.00  0.00     0.007 A 
ENDBRANCH  32  33
ENDBRANCH  29  32
ENDBRANCH  23  28
ENDBRANCH  20  22
ENDBRANCH  17  20
ENDBRANCH  14  17
ENDBRANCH  10  11
ENDBRANCH   2  10
TORSDOF 8
