REMARK  7 active torsions:
REMARK  status: ('A' for Active; 'I' for Inactive)
REMARK       I    between atoms: N_4  and  C_1 
REMARK    1  A    between atoms: C_5  and  C_1 
REMARK    2  A    between atoms: C_2  and  C_5 
REMARK    3  A    between atoms: C_6  and  C_2 
REMARK    4  A    between atoms: C_9  and  C_2 
REMARK    5  A    between atoms: C_3  and  C_6 
REMARK    6  A    between atoms: O_11  and  C_3 
REMARK    7  A    between atoms: C_10  and  N_4 
ROOT
ATOM      1  C   UNL d   1      -1.233   0.535   0.877  0.00  0.00     0.037 C 
ENDROOT
BRANCH   1   2
ATOM      2  C   UNL d   1       0.297   0.745   0.882  0.00  0.00     0.113 C 
BRANCH   2   3
ATOM      3  C   UNL d   1       1.098  -0.000  -0.171  0.00  0.00     0.222 C 
ATOM      4  N   UNL d   1       2.452   0.257  -0.011  0.00  0.00    -0.327 N 
ATOM      5  H   UNL d   1       2.703   0.920   0.713  0.00  0.00     0.169 HD
ATOM      6  O   UNL d   1       0.574  -0.692  -1.035  0.00  0.00    -0.273 OA
BRANCH   4   7
ATOM      7  C   UNL d   1       3.531  -0.276  -0.741  0.00  0.00     0.034 A 
ATOM      8  C   UNL d   1       3.397  -1.266  -1.713  0.00  0.00     0.029 A 
ATOM      9  C   UNL d   1       4.524  -1.755  -2.382  0.00  0.00     0.002 A 
ATOM     10  C   UNL d   1       5.790  -1.254  -2.086  0.00  0.00     0.000 A 
ATOM     11  C   UNL d   1       5.933  -0.266  -1.117  0.00  0.00     0.002 A 
ATOM     12  C   UNL d   1       4.809   0.218  -0.444  0.00  0.00     0.029 A 
ENDBRANCH   4   7
ENDBRANCH   2   3
ENDBRANCH   1   2
BRANCH   1  13
ATOM     13  C   UNL d   1      -1.674  -0.939   1.037  0.00  0.00     0.119 C 
BRANCH  13  14
ATOM     14  C   UNL d   1      -1.345  -1.565   2.373  0.00  0.00     0.140 C 
ATOM     15  O   UNL d   1      -0.438  -1.222   3.113  0.00  0.00    -0.650 OA
BRANCH  14  16
ATOM     16  O   UNL d   1      -2.135  -2.630   2.654  0.00  0.00    -0.776 OA
ATOM     17  H   UNL d   1      -2.794  -2.829   1.965  0.00  0.00     0.167 HD
ENDBRANCH  14  16
ENDBRANCH  13  14
ENDBRANCH   1  13
BRANCH   1  18
ATOM     18  C   UNL d   1      -1.964   1.466   1.860  0.00  0.00    -0.053 A 
ATOM     19  C   UNL d   1      -1.280   2.309   2.755  0.00  0.00     0.007 A 
ATOM     20  C   UNL d   1      -1.965   3.175   3.611  0.00  0.00     0.001 A 
ATOM     21  C   UNL d   1      -3.353   3.204   3.606  0.00  0.00     0.000 A 
ATOM     22  C   UNL d   1      -4.055   2.373   2.738  0.00  0.00     0.001 A 
ATOM     23  C   UNL d   1      -3.369   1.521   1.866  0.00  0.00     0.007 A 
ENDBRANCH   1  18
TORSDOF 7
