REMARK  4 active torsions:
REMARK  status: ('A' for Active; 'I' for Inactive)
REMARK    1  A    between atoms: N_3  and  C_1 
REMARK    2  A    between atoms: C_2  and  N_3 
REMARK    3  A    between atoms: N_10  and  C_2 
REMARK    4  A    between atoms: N_13  and  N_10 
ROOT
ATOM      1  C   UNL d   1       0.392   0.388  -0.167  0.00  0.00     0.069 A 
ATOM      2  C   UNL d   1      -0.898  -0.137   0.035  0.00  0.00     0.039 A 
ATOM      3  C   UNL d   1       1.459  -0.514  -0.306  0.00  0.00     0.039 A 
ATOM      4  C   UNL d   1      -1.111  -1.514   0.163  0.00  0.00     0.028 A 
ATOM      5  C   UNL d   1       1.243  -1.895  -0.170  0.00  0.00     0.028 A 
ATOM      6  C   UNL d   1      -0.037  -2.404   0.073  0.00  0.00    -0.059 A 
ATOM      7 BR   UNL d   1      -2.423   0.999   0.154  0.00  0.00    -0.049 Br
ATOM      8 BR   UNL d   1       3.190  -0.003  -0.917  0.00  0.00    -0.049 Br
ATOM      9  C   UNL d   1      -0.280  -3.883   0.152  0.00  0.00     0.048 C 
ENDROOT
BRANCH   1  10
ATOM     10  N   UNL d   1       0.517   1.791  -0.346  0.00  0.00    -0.330 N 
ATOM     11  H   UNL d   1      -0.357   2.259  -0.559  0.00  0.00     0.168 HD
BRANCH  10  12
ATOM     12  C   UNL d   1       1.349   2.657   0.341  0.00  0.00     0.186 C 
ATOM     13  S   UNL d   1       2.241   2.360   1.720  0.00  0.00    -0.040 SA
BRANCH  12  14
ATOM     14  N   UNL d   1       1.342   3.943  -0.182  0.00  0.00    -0.300 N 
ATOM     15  H   UNL d   1       1.984   4.614   0.245  0.00  0.00     0.183 HD
BRANCH  14  16
ATOM     16  N   UNL d   1       0.753   4.260  -1.421  0.00  0.00    -0.248 NA
ATOM     17  H   UNL d   1      -0.252   4.387  -1.294  0.00  0.00     0.143 HD
ATOM     18  H   UNL d   1       0.885   3.466  -2.056  0.00  0.00     0.143 HD
ENDBRANCH  14  16
ENDBRANCH  12  14
ENDBRANCH  10  12
ENDBRANCH   1  10
TORSDOF 4
