REMARK  4 active torsions:
REMARK  status: ('A' for Active; 'I' for Inactive)
REMARK    1  A    between atoms: N_9  and  C_3 
REMARK    2  A    between atoms: C_7  and  C_4 
REMARK    3  A    between atoms: C_17  and  N_10 
REMARK    4  A    between atoms: C_22  and  C_17 
ROOT
ATOM      1  N   UNL d   1       0.328   1.318  -0.080  0.00  0.00    -0.350 N 
ATOM      2  HN  UNL d   1      -0.476   1.945  -0.091  1.00  0.00     0.166 HD
ATOM      3  C   UNL d   1       2.545  -0.422  -0.026  0.00  0.00     0.045 A 
ATOM      4  C   UNL d   1       0.873   0.940   1.099  0.00  0.00     0.119 A 
ATOM      5  C   UNL d   1       0.846   0.868  -1.238  0.00  0.00     0.067 A 
ATOM      6  C   UNL d   1       1.980   0.014  -1.275  0.00  0.00     0.019 A 
ATOM      7  C   UNL d   1       1.959   0.076   1.146  0.00  0.00     0.064 A 
ATOM      8  C   UNL d   1       0.250   1.258  -2.451  0.00  0.00     0.061 A 
ATOM      9 CL   UNL d   1      -1.141   2.300  -2.465  0.00  0.00    -0.082 Cl
ATOM     10  C   UNL d   1       2.485  -0.325  -2.562  0.00  0.00     0.016 A 
ATOM     11  C   UNL d   1       1.858   0.049  -3.750  0.00  0.00     0.003 A 
ATOM     12  C   UNL d   1       0.728   0.839  -3.693  0.00  0.00     0.026 A 
ENDROOT
BRANCH   3  13
ATOM     13  N   UNL d   1       3.581  -1.346   0.110  0.00  0.00    -0.377 N 
ATOM     14  C   UNL d   1       3.785  -2.468  -0.821  0.00  0.00     0.153 C 
ATOM     15  C   UNL d   1       4.174  -3.762  -0.075  0.00  0.00     0.292 C 
ATOM     16  N   UNL d   1       5.323  -3.634   0.849  0.00  0.00     0.095 N 
ATOM     17  C   UNL d   1       5.015  -2.526   1.787  0.00  0.00     0.292 C 
ATOM     18  C   UNL d   1       4.648  -1.172   1.121  0.00  0.00     0.153 C 
BRANCH  16  19
ATOM     19  C   UNL d   1       6.602  -3.384   0.159  0.00  0.00     0.311 C 
BRANCH  19  20
ATOM     20  C   UNL d   1       7.000  -4.451  -0.840  0.00  0.00    -0.030 A 
ATOM     21  C   UNL d   1       7.184  -4.123  -2.192  0.00  0.00     0.009 A 
ATOM     22  C   UNL d   1       7.557  -5.102  -3.116  0.00  0.00     0.001 A 
ATOM     23  C   UNL d   1       7.758  -6.415  -2.696  0.00  0.00     0.000 A 
ATOM     24  C   UNL d   1       7.582  -6.753  -1.356  0.00  0.00     0.001 A 
ATOM     25  C   UNL d   1       7.207  -5.775  -0.430  0.00  0.00     0.009 A 
ENDBRANCH  19  20
ENDBRANCH  16  19
ENDBRANCH   3  13
BRANCH   4  26
ATOM     26  C   UNL d   1       0.275   1.444   2.403  0.00  0.00     0.432 C 
ATOM     27  F   UNL d   1      -0.780   2.294   2.255  0.00  0.00    -0.165 F 
ATOM     28  F   UNL d   1      -0.176   0.428   3.197  0.00  0.00    -0.165 F 
ATOM     29  F   UNL d   1       1.188   2.118   3.166  0.00  0.00    -0.165 F 
ENDBRANCH   4  26
TORSDOF 4
