REMARK  6 active torsions:
REMARK  status: ('A' for Active; 'I' for Inactive)
REMARK    1  A    between atoms: C_14  and  C_1 
REMARK    2  A    between atoms: C_5  and  N_3 
REMARK    3  A    between atoms: N_7  and  C_5 
REMARK    4  A    between atoms: C_9  and  N_7 
REMARK    5  A    between atoms: O_21  and  C_12 
REMARK    6  A    between atoms: O_20  and  C_13 
ROOT
ATOM      1  C   UNL d   1      -0.420  -0.960  -0.625  0.00  0.00     0.139 C 
ATOM      2  N   UNL d   1      -1.202   0.208  -1.111  0.00  0.00    -0.216 NA
ATOM      3  N   UNL d   1      -1.431  -1.627   0.269  0.00  0.00    -0.227 NA
ATOM      4  C   UNL d   1      -0.382   1.308  -1.329  0.00  0.00     0.236 C 
ATOM      5  C   UNL d   1       0.745  -0.177   0.042  0.00  0.00     0.000 A 
ATOM      6  C   UNL d   1       0.838   1.079  -0.574  0.00  0.00     0.036 A 
ATOM      7  C   UNL d   1      -2.279   0.485  -0.147  0.00  0.00     0.116 C 
ATOM      8  C   UNL d   1      -1.999  -0.497   0.995  0.00  0.00     0.115 C 
ATOM      9  O   UNL d   1      -0.687   2.377  -1.841  0.00  0.00    -0.274 OA
ATOM     10  C   UNL d   1       1.730  -0.545   0.945  0.00  0.00     0.012 A 
ATOM     11  C   UNL d   1       1.862   1.982  -0.357  0.00  0.00     0.017 A 
ATOM     12  C   UNL d   1       2.792   0.347   1.175  0.00  0.00     0.001 A 
ATOM     13  C   UNL d   1       2.865   1.591   0.520  0.00  0.00     0.001 A 
ENDROOT
BRANCH   3  14
ATOM     14  C   UNL d   1      -2.484  -2.475  -0.320  0.00  0.00     0.155 C 
ATOM     15  S   UNL d   1      -2.698  -2.766  -1.975  0.00  0.00    -0.047 SA
BRANCH  14  16
ATOM     16  N   UNL d   1      -3.425  -2.921   0.651  0.00  0.00    -0.333 N 
ATOM     17  H   UNL d   1      -3.379  -2.534   1.577  0.00  0.00     0.168 HD
BRANCH  16  18
ATOM     18  C   UNL d   1      -4.640  -3.618   0.328  0.00  0.00     0.101 A 
ATOM     19  C   UNL d   1      -4.550  -4.900  -0.282  0.00  0.00     0.099 A 
ATOM     20  C   UNL d   1      -5.677  -5.508  -0.846  0.00  0.00     0.063 A 
ATOM     21  C   UNL d   1      -6.911  -4.877  -0.771  0.00  0.00     0.039 A 
ATOM     22  C   UNL d   1      -7.037  -3.670  -0.090  0.00  0.00     0.063 A 
ATOM     23 CL   UNL d   1      -8.288  -5.588  -1.520  0.00  0.00    -0.084 Cl
ATOM     24  C   UNL d   1      -5.923  -3.039   0.481  0.00  0.00     0.099 A 
BRANCH  19  25
ATOM     25  O   UNL d   1      -3.317  -5.511  -0.226  0.00  0.00    -0.353 OA
ATOM     26  C   UNL d   1      -3.055  -6.506  -1.208  0.00  0.00     0.210 C 
ENDBRANCH  19  25
BRANCH  24  27
ATOM     27  O   UNL d   1      -6.249  -1.815   0.993  0.00  0.00    -0.353 OA
ATOM     28  C   UNL d   1      -5.608  -1.388   2.177  0.00  0.00     0.210 C 
ENDBRANCH  24  27
ENDBRANCH  16  18
ENDBRANCH  14  16
ENDBRANCH   3  14
BRANCH   1  29
ATOM     29  C   UNL d   1       0.314  -1.840  -1.662  0.00  0.00    -0.015 A 
ATOM     30  C   UNL d   1       1.157  -2.887  -1.222  0.00  0.00     0.011 A 
ATOM     31  C   UNL d   1       2.067  -3.498  -2.089  0.00  0.00     0.001 A 
ATOM     32  C   UNL d   1       2.104  -3.127  -3.430  0.00  0.00     0.000 A 
ATOM     33  C   UNL d   1       1.219  -2.164  -3.907  0.00  0.00     0.001 A 
ATOM     34  C   UNL d   1       0.341  -1.517  -3.031  0.00  0.00     0.011 A 
ENDBRANCH   1  29
TORSDOF 6
