REMARK  2 active torsions:
REMARK  status: ('A' for Active; 'I' for Inactive)
REMARK       I    between atoms: C_2  and  N_3 
REMARK    1  A    between atoms: C_6  and  C_2 
REMARK       I    between atoms: N_3  and  C_5 
REMARK       I    between atoms: C_5  and  N_13 
REMARK    2  A    between atoms: N_13  and  C_15 
ROOT
ATOM      1  C   UNL d   1      -4.060   6.112   0.664  0.00  0.00     0.261 C 
ATOM      2  N   UNL d   1      -2.887   5.820  -0.003  0.00  0.00    -0.275 N 
ATOM      3  C   UNL d   1      -2.191   4.640  -0.013  0.00  0.00     0.327 C 
ATOM      4  N   UNL d   1      -2.920   3.497   0.173  0.00  0.00    -0.309 N 
ATOM      5  O   UNL d   1      -4.921   5.278   0.929  0.00  0.00    -0.267 OA
ATOM      6  O   UNL d   1      -0.976   4.719  -0.180  0.00  0.00    -0.247 OA
ATOM      7  H   UNL d   1      -2.237   6.582  -0.145  0.00  0.00     0.173 HD
ATOM      8  H   UNL d   1      -3.891   3.637   0.445  0.00  0.00     0.170 HD
ENDROOT
BRANCH   4   9
ATOM      9  C   UNL d   1      -2.434   2.175   0.083  0.00  0.00     0.037 A 
ATOM     10  C   UNL d   1      -1.137   1.873  -0.338  0.00  0.00     0.054 A 
ATOM     11  C   UNL d   1      -0.769   0.543  -0.398  0.00  0.00     0.075 A 
ATOM     12  S   UNL d   1       0.787  -0.065  -0.898  0.00  0.00     0.197 S 
ATOM     13  C   UNL d   1      -1.611  -0.512  -0.068  0.00  0.00    -0.014 A 
ATOM     14  C   UNL d   1       0.302  -1.718  -0.650  0.00  0.00     0.115 A 
ATOM     15  O   UNL d   1       1.770   0.316   0.094  0.00  0.00    -0.218 OA
ATOM     16  O   UNL d   1       0.946   0.197  -2.312  0.00  0.00    -0.218 OA
ATOM     17  C   UNL d   1      -0.969  -1.815  -0.218  0.00  0.00     0.025 A 
ATOM     18  C   UNL d   1      -2.902  -0.227   0.342  0.00  0.00     0.015 A 
ATOM     19  C   UNL d   1      -3.311   1.119   0.413  0.00  0.00     0.030 A 
ENDBRANCH   4   9
BRANCH   1  20
ATOM     20  C   UNL d   1      -4.303   7.567   0.899  0.00  0.00     0.054 A 
ATOM     21  C   UNL d   1      -3.303   8.472   1.290  0.00  0.00     0.049 A 
ATOM     22 CL   UNL d   1      -1.689   7.992   1.680  0.00  0.00    -0.083 Cl
ATOM     23  C   UNL d   1      -3.594   9.836   1.402  0.00  0.00     0.025 A 
ATOM     24  C   UNL d   1      -4.882  10.304   1.147  0.00  0.00     0.002 A 
ATOM     25  C   UNL d   1      -5.888   9.408   0.794  0.00  0.00     0.001 A 
ATOM     26  C   UNL d   1      -5.604   8.044   0.674  0.00  0.00     0.019 A 
ENDBRANCH   1  20
TORSDOF 2
