REMARK  4 active torsions:
REMARK  status: ('A' for Active; 'I' for Inactive)
REMARK    1  A    between atoms: S_9  and  C_2 
REMARK    2  A    between atoms: N_4  and  C_3 
REMARK    3  A    between atoms: C_5  and  S_9 
REMARK    4  A    between atoms: C_17  and  C_6 
ROOT
ATOM      1  N   UNL d   1      -1.090   0.085  -0.231  0.00  0.00    -0.320 N 
ATOM      2  C   UNL d   1      -0.251   1.156  -0.176  0.00  0.00     0.167 A 
ATOM      3  C   UNL d   1      -0.299  -1.032  -0.119  0.00  0.00     0.132 A 
ATOM      4  N   UNL d   1       0.958  -0.625  -0.015  0.00  0.00    -0.283 N 
ATOM      5  HN  UNL d   1       1.772  -1.232   0.075  1.00  0.00     0.188 HD
ATOM      6  N   UNL d   1       0.985   0.752  -0.048  0.00  0.00    -0.278 N 
ATOM      7  HN  UNL d   1       1.813   1.345   0.016  1.00  0.00     0.189 HD
ATOM      8  H   UNL d   1      -2.090   0.125  -0.341  0.00  0.00     0.169 HD
ENDROOT
BRANCH   2   9
ATOM      9  S   UNL d   1      -0.836   2.769  -0.197  0.00  0.00    -0.032 SA
BRANCH   9  10
ATOM     10  C   UNL d   1      -0.813   3.031  -1.959  0.00  0.00     0.110 A 
ATOM     11  C   UNL d   1      -0.053   4.000  -2.606  0.00  0.00     0.138 A 
ATOM     12  C   UNL d   1      -0.143   4.179  -3.993  0.00  0.00     0.059 A 
ATOM     13  C   UNL d   1      -1.011   3.362  -4.703  0.00  0.00     0.028 A 
ATOM     14  C   UNL d   1      -1.738   2.408  -4.009  0.00  0.00     0.108 A 
ATOM     15 BR   UNL d   1      -1.210   3.564  -6.565  0.00  0.00    -0.050 Br
ATOM     16  N   UNL d   1      -1.664   2.229  -2.663  0.00  0.00    -0.357 N 
ATOM     17  HN  UNL d   1      -2.227   1.518  -2.194  1.00  0.00     0.166 HD
BRANCH  11  18
ATOM     18  N   UNL d   1       0.833   4.870  -1.876  0.00  0.00    -0.113 N 
ATOM     19  O   UNL d   1       0.323   5.642  -1.057  0.00  0.00    -0.532 OA
ATOM     20  O   UNL d   1       2.030   4.837  -2.192  0.00  0.00    -0.532 OA
ENDBRANCH  11  18
ENDBRANCH   9  10
ENDBRANCH   2   9
BRANCH   3  21
ATOM     21  C   UNL d   1      -0.765  -2.421  -0.126  0.00  0.00     0.009 A 
ATOM     22  C   UNL d   1      -2.117  -2.771  -0.262  0.00  0.00     0.015 A 
ATOM     23  C   UNL d   1      -2.509  -4.114  -0.287  0.00  0.00     0.001 A 
ATOM     24  C   UNL d   1      -1.558  -5.125  -0.174  0.00  0.00     0.000 A 
ATOM     25  C   UNL d   1      -0.213  -4.797  -0.026  0.00  0.00     0.001 A 
ATOM     26  C   UNL d   1       0.177  -3.455  -0.001  0.00  0.00     0.015 A 
ENDBRANCH   3  21
TORSDOF 4
