REMARK  2 active torsions:
REMARK  status: ('A' for Active; 'I' for Inactive)
REMARK    1  A    between atoms: N_2  and  C_1 
REMARK    2  A    between atoms: C_7  and  N_4 
ROOT
ATOM      1  N   UNL d   1      -3.893  -0.127   0.016  0.00  0.00    -0.381 N 
ATOM      2  N   UNL d   1      -6.492  -1.231  -0.561  0.00  0.00    -0.378 N 
ATOM      3  C   UNL d   1      -4.690  -0.771   1.087  0.00  0.00     0.142 C 
ATOM      4  C   UNL d   1      -4.755   0.481  -1.026  0.00  0.00     0.142 C 
ATOM      5  C   UNL d   1      -5.653  -1.824   0.497  0.00  0.00     0.143 C 
ATOM      6  C   UNL d   1      -5.724  -0.564  -1.630  0.00  0.00     0.143 C 
ENDROOT
BRANCH   1   7
ATOM      7  C   UNL d   1      -2.504  -0.107  -0.019  0.00  0.00     0.012 A 
ATOM      8  C   UNL d   1      -1.703   0.498  -0.918  0.00  0.00     0.037 A 
ATOM      9  C   UNL d   1      -0.317   0.239  -0.576  0.00  0.00    -0.028 A 
ATOM     10  C   UNL d   1       0.842   0.650  -1.210  0.00  0.00     0.012 A 
ATOM     11  C   UNL d   1      -0.270  -0.555   0.571  0.00  0.00    -0.042 A 
ATOM     12  C   UNL d   1       2.066   0.247  -0.670  0.00  0.00     0.001 A 
ATOM     13  C   UNL d   1       2.112  -0.554   0.483  0.00  0.00     0.001 A 
ATOM     14  C   UNL d   1       0.936  -0.963   1.116  0.00  0.00     0.008 A 
ATOM     15  C   UNL d   1      -1.664  -0.838   1.035  0.00  0.00     0.096 A 
ENDBRANCH   1   7
BRANCH   2  16
ATOM     16  C   UNL d   1      -7.869  -1.290  -0.557  0.00  0.00     0.031 A 
ATOM     17  C   UNL d   1      -8.605  -1.316   0.637  0.00  0.00     0.053 A 
ATOM     18  C   UNL d   1     -10.002  -1.365   0.635  0.00  0.00     0.036 A 
ATOM     19 CL   UNL d   1     -10.854  -1.384   2.131  0.00  0.00    -0.084 Cl
ATOM     20  C   UNL d   1     -10.709  -1.391  -0.560  0.00  0.00     0.024 A 
ATOM     21  C   UNL d   1     -10.008  -1.366  -1.760  0.00  0.00     0.004 A 
ATOM     22  C   UNL d   1      -8.609  -1.316  -1.752  0.00  0.00     0.029 A 
ENDBRANCH   2  16
TORSDOF 2
