REMARK  4 active torsions:
REMARK  status: ('A' for Active; 'I' for Inactive)
REMARK    1  A    between atoms: C_2  and  S_1 
REMARK    2  A    between atoms: N_8  and  S_1 
REMARK    3  A    between atoms: N_5  and  C_9 
REMARK    4  A    between atoms: C_16  and  N_8 
ROOT
ATOM      1  S   UNL d   1       1.007  -0.106  -0.141  0.00  0.00     0.270 S 
ATOM      2  O   UNL d   1       0.398  -1.417  -0.186  0.00  0.00    -0.200 OA
ATOM      3  O   UNL d   1       2.444   0.047  -0.092  0.00  0.00    -0.200 OA
ENDROOT
BRANCH   1   4
ATOM      4  C   UNL d   1       0.386   0.701   1.344  0.00  0.00     0.128 A 
ATOM      5  S   UNL d   1      -1.136   0.136   1.879  0.00  0.00    -0.075 SA
ATOM      6  C   UNL d   1      -1.184   1.217   3.207  0.00  0.00     0.017 A 
ATOM      7  C   UNL d   1      -2.209   1.324   4.169  0.00  0.00     0.021 A 
ATOM      8  C   UNL d   1      -0.053   2.034   3.239  0.00  0.00    -0.009 A 
ATOM      9  C   UNL d   1      -2.105   2.294   5.169  0.00  0.00     0.025 A 
ATOM     10  C   UNL d   1      -1.000   3.128   5.213  0.00  0.00     0.035 A 
ATOM     11  C   UNL d   1       0.027   3.007   4.272  0.00  0.00     0.037 A 
ATOM     12 CL   UNL d   1      -0.892   4.334   6.437  0.00  0.00    -0.084 Cl
ATOM     13  C   UNL d   1       0.868   1.723   2.157  0.00  0.00    -0.020 A 
ATOM     14  C   UNL d   1       2.165   2.450   1.974  0.00  0.00     0.051 C 
ENDBRANCH   1   4
BRANCH   1  15
ATOM     15  N   UNL d   1       0.418   0.728  -1.477  0.00  0.00    -0.280 N 
ATOM     16  H   UNL d   1      -0.425   0.344  -1.898  0.00  0.00     0.179 HD
BRANCH  15  17
ATOM     17  C   UNL d   1       0.782   2.075  -1.695  0.00  0.00     0.045 A 
ATOM     18  C   UNL d   1      -0.015   3.115  -1.218  0.00  0.00     0.066 A 
ATOM     19  C   UNL d   1       0.382   4.438  -1.457  0.00  0.00     0.105 A 
ATOM     20  C   UNL d   1       1.545   4.721  -2.189  0.00  0.00     0.036 A 
ATOM     21  C   UNL d   1       2.323   3.669  -2.672  0.00  0.00     0.005 A 
ATOM     22  C   UNL d   1       1.946   2.349  -2.416  0.00  0.00     0.030 A 
BRANCH  19  23
ATOM     23  N   UNL d   1      -0.424   5.546  -0.929  0.00  0.00    -0.116 N 
ATOM     24  O   UNL d   1      -1.437   5.256  -0.280  0.00  0.00    -0.532 OA
ATOM     25  O   UNL d   1      -0.040   6.697  -1.160  0.00  0.00    -0.532 OA
ENDBRANCH  19  23
ENDBRANCH  15  17
ENDBRANCH   1  15
TORSDOF 4
