REMARK  5 active torsions:
REMARK  status: ('A' for Active; 'I' for Inactive)
REMARK    1  A    between atoms: C_16  and  C_2 
REMARK    2  A    between atoms: N_14  and  N_6 
REMARK    3  A    between atoms: C_9  and  C_11 
REMARK    4  A    between atoms: C_10  and  C_12 
REMARK    5  A    between atoms: C_15  and  N_14 
ROOT
ATOM      1  N   UNL d   1      -1.939   2.704   0.935  0.00  0.00    -0.205 NA
ATOM      2  H   UNL d   1      -2.257   2.149   1.737  0.00  0.00     0.153 HD
ENDROOT
BRANCH   1   3
ATOM      3  N   UNL d   1      -0.701   2.387   0.490  0.00  0.00    -0.309 N 
ATOM      4  C   UNL d   1      -0.557   1.475  -0.423  0.00  0.00     0.150 A 
ATOM      5  C   UNL d   1      -1.488   0.640  -1.206  0.00  0.00     0.099 A 
ATOM      6  C   UNL d   1       0.819   1.053  -0.839  0.00  0.00     0.335 A 
ATOM      7  N   UNL d   1      -0.795  -0.174  -1.946  0.00  0.00    -0.254 N 
ATOM      8  O   UNL d   1       0.603   0.064  -1.753  0.00  0.00    -0.193 OA
ATOM      9  HN  UNL d   1      -1.189  -0.878  -2.571  1.00  0.00     0.195 HD
ATOM     10  O   UNL d   1       1.873   1.479  -0.421  0.00  0.00    -0.255 OA
ATOM     11  HN  UNL d   1       0.117   2.862   0.872  1.00  0.00     0.181 HD
BRANCH   5  12
ATOM     12  C   UNL d   1      -2.958   0.602  -1.196  0.00  0.00    -0.005 A 
ATOM     13  C   UNL d   1      -3.748   1.744  -1.081  0.00  0.00     0.014 A 
ATOM     14  C   UNL d   1      -5.137   1.632  -0.977  0.00  0.00     0.001 A 
ATOM     15  C   UNL d   1      -5.747   0.383  -1.070  0.00  0.00     0.000 A 
ATOM     16  C   UNL d   1      -4.972  -0.753  -1.291  0.00  0.00     0.001 A 
ATOM     17  C   UNL d   1      -3.581  -0.646  -1.352  0.00  0.00     0.014 A 
ENDBRANCH   5  12
ENDBRANCH   1   3
BRANCH   1  18
ATOM     18  C   UNL d   1      -2.171   4.085   1.194  0.00  0.00     0.029 A 
ATOM     19  C   UNL d   1      -1.477   5.093   0.507  0.00  0.00     0.041 A 
ATOM     20  C   UNL d   1      -1.786   6.452   0.686  0.00  0.00     0.050 A 
ATOM     21  C   UNL d   1      -2.819   6.803   1.566  0.00  0.00     0.032 A 
ATOM     22  C   UNL d   1      -3.553   5.815   2.240  0.00  0.00     0.050 A 
ATOM     23  C   UNL d   1      -3.233   4.461   2.026  0.00  0.00     0.041 A 
BRANCH  20  24
ATOM     24  C   UNL d   1      -1.023   7.501  -0.089  0.00  0.00     0.417 C 
ATOM     25  F   UNL d   1      -1.428   8.773   0.183  0.00  0.00    -0.166 F 
ATOM     26  F   UNL d   1       0.313   7.473   0.161  0.00  0.00    -0.166 F 
ATOM     27  F   UNL d   1      -1.160   7.349  -1.435  0.00  0.00    -0.166 F 
ENDBRANCH  20  24
BRANCH  22  28
ATOM     28  C   UNL d   1      -4.685   6.181   3.170  0.00  0.00     0.417 C 
ATOM     29  F   UNL d   1      -4.859   7.522   3.315  0.00  0.00    -0.166 F 
ATOM     30  F   UNL d   1      -5.882   5.692   2.743  0.00  0.00    -0.166 F 
ATOM     31  F   UNL d   1      -4.505   5.687   4.425  0.00  0.00    -0.166 F 
ENDBRANCH  22  28
ENDBRANCH   1  18
TORSDOF 5
