REMARK  4 active torsions:
REMARK  status: ('A' for Active; 'I' for Inactive)
REMARK    1  A    between atoms: N_6  and  S_1 
REMARK    2  A    between atoms: C_9  and  S_1 
REMARK    3  A    between atoms: N_2  and  C_10 
REMARK    4  A    between atoms: C_15  and  N_6 
ROOT
ATOM      1  S   UNL d   1       1.126  -0.018   0.016  0.00  0.00     0.245 S 
ATOM      2  O   UNL d   1       1.000   0.931   1.105  0.00  0.00    -0.206 OA
ATOM      3  O   UNL d   1       2.392  -0.215  -0.653  0.00  0.00    -0.206 OA
ENDROOT
BRANCH   1   4
ATOM      4  N   UNL d   1      -0.056   0.438  -1.113  0.00  0.00    -0.181 NA
ATOM      5  H   UNL d   1      -0.324   1.408  -0.941  0.00  0.00     0.146 HD
BRANCH   4   6
ATOM      6  C   UNL d   1       0.158   0.064  -2.470  0.00  0.00     0.024 A 
ATOM      7  C   UNL d   1      -0.321  -1.161  -2.923  0.00  0.00     0.042 A 
ATOM      8  C   UNL d   1      -0.016  -1.516  -4.225  0.00  0.00     0.049 A 
ATOM      9  C   UNL d   1      -0.380  -2.733  -4.934  0.00  0.00     0.294 A 
ATOM     10  C   UNL d   1       0.732  -0.718  -5.066  0.00  0.00    -0.018 A 
ATOM     11  O   UNL d   1       0.160  -2.633  -6.185  0.00  0.00    -0.313 OA
ATOM     12  O   UNL d   1      -1.036  -3.654  -4.492  0.00  0.00    -0.259 OA
ATOM     13  C   UNL d   1       0.897  -1.403  -6.363  0.00  0.00     0.218 A 
ATOM     14  C   UNL d   1       1.209   0.505  -4.630  0.00  0.00     0.012 A 
ATOM     15  C   UNL d   1       0.919   0.894  -3.315  0.00  0.00     0.025 A 
ENDBRANCH   4   6
ENDBRANCH   1   4
BRANCH   1  16
ATOM     16  C   UNL d   1       0.556  -1.592   0.615  0.00  0.00     0.075 A 
ATOM     17  C   UNL d   1       0.962  -2.763  -0.023  0.00  0.00     0.027 A 
ATOM     18  C   UNL d   1       0.627  -4.009   0.525  0.00  0.00     0.032 A 
ATOM     19  C   UNL d   1      -0.108  -4.113   1.718  0.00  0.00     0.045 A 
ATOM     20  C   UNL d   1      -0.509  -2.916   2.337  0.00  0.00     0.032 A 
ATOM     21  C   UNL d   1      -0.174  -1.665   1.801  0.00  0.00     0.027 A 
BRANCH  19  22
ATOM     22  N   UNL d   1      -0.421  -5.384   2.289  0.00  0.00    -0.252 N 
ATOM     23  C   UNL d   1      -1.463  -5.611   3.159  0.00  0.00     0.231 A 
ATOM     24  C   UNL d   1      -1.503  -7.065   3.520  0.00  0.00     0.113 A 
ATOM     25  O   UNL d   1      -2.303  -4.826   3.581  0.00  0.00    -0.273 OA
ATOM     26  C   UNL d   1      -0.300  -7.664   2.838  0.00  0.00     0.113 A 
ATOM     27  C   UNL d   1       0.301  -6.535   2.057  0.00  0.00     0.231 A 
ATOM     28  O   UNL d   1       1.317  -6.688   1.393  0.00  0.00    -0.273 OA
ENDBRANCH  19  22
ENDBRANCH   1  16
TORSDOF 4
