REMARK  5 active torsions:
REMARK  status: ('A' for Active; 'I' for Inactive)
REMARK    1  A    between atoms: N_4  and  C_1 
REMARK    2  A    between atoms: N_9  and  C_1 
REMARK    3  A    between atoms: C_3  and  N_4 
REMARK    4  A    between atoms: N_5  and  N_9 
REMARK    5  A    between atoms: C_11  and  C_12 
ROOT
ATOM      1  N   UNL d   1       2.333   1.114  -2.085  0.00  0.00    -0.276 N 
ATOM      2  H   UNL d   1       2.572   2.096  -1.978  0.00  0.00     0.189 HD
ENDROOT
BRANCH   1   3
ATOM      3  N   UNL d   1       3.115   0.176  -1.487  0.00  0.00    -0.309 N 
ATOM      4  C   UNL d   1       4.394   0.422  -1.389  0.00  0.00     0.119 C 
ATOM      5  HN  UNL d   1       2.717  -0.690  -1.126  1.00  0.00     0.186 HD
BRANCH   4   6
ATOM      6  C   UNL d   1       5.233   1.418  -2.113  0.00  0.00    -0.008 A 
ATOM      7  C   UNL d   1       6.417   1.945  -1.522  0.00  0.00    -0.014 A 
ATOM      8  C   UNL d   1       7.296   2.700  -2.346  0.00  0.00    -0.025 A 
ATOM      9  C   UNL d   1       6.792   1.770  -0.167  0.00  0.00     0.013 A 
ATOM     10  C   UNL d   1       8.503   3.197  -1.827  0.00  0.00     0.012 A 
ATOM     11  C   UNL d   1       6.972   2.936  -3.690  0.00  0.00     0.012 A 
ATOM     12  C   UNL d   1       8.854   2.984  -0.498  0.00  0.00     0.001 A 
ATOM     13  C   UNL d   1       7.991   2.279   0.337  0.00  0.00     0.001 A 
ATOM     14  C   UNL d   1       5.799   2.431  -4.244  0.00  0.00     0.002 A 
ATOM     15  C   UNL d   1       4.942   1.661  -3.465  0.00  0.00     0.014 A 
ENDBRANCH   4   6
ENDBRANCH   1   3
BRANCH   1  16
ATOM     16  C   UNL d   1       1.130   0.817  -2.688  0.00  0.00     0.191 C 
ATOM     17  S   UNL d   1       0.123   2.091  -3.096  0.00  0.00    -0.039 SA
BRANCH  16  18
ATOM     18  N   UNL d   1       0.910  -0.527  -2.905  0.00  0.00    -0.332 N 
ATOM     19  H   UNL d   1       1.379  -1.122  -2.230  0.00  0.00     0.168 HD
BRANCH  18  20
ATOM     20  C   UNL d   1       0.262  -1.142  -4.006  0.00  0.00     0.042 A 
ATOM     21  C   UNL d   1      -0.275  -2.446  -3.908  0.00  0.00    -0.013 A 
ATOM     22  C   UNL d   1      -0.787  -3.051  -5.078  0.00  0.00     0.042 A 
ATOM     23  C   UNL d   1      -0.380  -3.181  -2.596  0.00  0.00     0.052 C 
ATOM     24 CL   UNL d   1      -1.444  -4.655  -5.065  0.00  0.00    -0.084 Cl
ATOM     25  C   UNL d   1      -0.786  -2.384  -6.305  0.00  0.00     0.024 A 
ATOM     26  C   UNL d   1      -0.270  -1.101  -6.393  0.00  0.00     0.004 A 
ATOM     27  C   UNL d   1       0.256  -0.495  -5.254  0.00  0.00     0.030 A 
ENDBRANCH  18  20
ENDBRANCH  16  18
ENDBRANCH   1  16
TORSDOF 5
