REMARK  4 active torsions:
REMARK  status: ('A' for Active; 'I' for Inactive)
REMARK    1  A    between atoms: C_2  and  N_1 
REMARK    2  A    between atoms: N_4  and  C_3 
REMARK    3  A    between atoms: C_12  and  N_5 
REMARK    4  A    between atoms: C_16  and  C_12 
ROOT
ATOM      1  N   UNL d   1      -1.442  -1.504  -0.817  0.00  0.00    -0.362 N 
ATOM      2  N   UNL d   1      -1.728  -0.388  -3.543  0.00  0.00     0.095 N 
ATOM      3  C   UNL d   1      -0.491  -1.878  -1.878  0.00  0.00     0.154 C 
ATOM      4  C   UNL d   1      -2.725  -0.930  -1.243  0.00  0.00     0.154 C 
ATOM      5  C   UNL d   1      -0.420  -0.809  -2.988  0.00  0.00     0.292 C 
ATOM      6  C   UNL d   1      -2.558   0.077  -2.409  0.00  0.00     0.292 C 
ENDROOT
BRANCH   1   7
ATOM      7  C   UNL d   1      -1.025  -1.516   0.496  0.00  0.00     0.137 A 
ATOM      8  C   UNL d   1      -1.837  -1.753   1.609  0.00  0.00     0.146 A 
ATOM      9  C   UNL d   1      -1.344  -1.664   2.919  0.00  0.00     0.041 A 
ATOM     10  C   UNL d   1      -0.006  -1.358   3.107  0.00  0.00     0.020 A 
ATOM     11  C   UNL d   1       0.767  -1.174   1.979  0.00  0.00     0.090 A 
ATOM     12  N   UNL d   1       0.290  -1.247   0.712  0.00  0.00    -0.350 N 
ATOM     13  HN  UNL d   1       0.917  -1.099  -0.079  1.00  0.00     0.166 HD
BRANCH   8  14
ATOM     14  N   UNL d   1      -3.198  -2.199   1.460  0.00  0.00    -0.112 N 
ATOM     15  O   UNL d   1      -3.394  -3.291   0.911  0.00  0.00    -0.532 OA
ATOM     16  O   UNL d   1      -4.080  -1.469   1.937  0.00  0.00    -0.532 OA
ENDBRANCH   8  14
ENDBRANCH   1   7
BRANCH   2  17
ATOM     17  C   UNL d   1      -2.420  -1.462  -4.278  0.00  0.00     0.311 C 
BRANCH  17  18
ATOM     18  C   UNL d   1      -1.673  -1.959  -5.497  0.00  0.00    -0.030 A 
ATOM     19  C   UNL d   1      -1.261  -3.296  -5.578  0.00  0.00     0.009 A 
ATOM     20  C   UNL d   1      -0.584  -3.763  -6.707  0.00  0.00     0.001 A 
ATOM     21  C   UNL d   1      -0.318  -2.898  -7.766  0.00  0.00     0.000 A 
ATOM     22  C   UNL d   1      -0.725  -1.567  -7.698  0.00  0.00     0.001 A 
ATOM     23  C   UNL d   1      -1.399  -1.098  -6.570  0.00  0.00     0.009 A 
ENDBRANCH  17  18
ENDBRANCH   2  17
TORSDOF 4
