REMARK  4 active torsions:
REMARK  status: ('A' for Active; 'I' for Inactive)
REMARK    1  A    between atoms: N_5  and  C_1 
REMARK    2  A    between atoms: N_6  and  C_2 
REMARK    3  A    between atoms: C_9  and  N_5 
REMARK    4  A    between atoms: C_10  and  N_6 
ROOT
ATOM      1  C   UNL d   1       0.696  -1.400  -0.081  0.00  0.00     0.118 C 
ATOM      2  C   UNL d   1      -0.679  -1.448  -0.044  0.00  0.00     0.118 C 
ATOM      3  C   UNL d   1       0.694   0.062   0.135  0.00  0.00     0.253 C 
ATOM      4  C   UNL d   1      -0.774   0.027  -0.062  0.00  0.00     0.253 C 
ATOM      5  O   UNL d   1       1.484   0.953   0.323  0.00  0.00    -0.281 OA
ATOM      6  O   UNL d   1      -1.627   0.881  -0.123  0.00  0.00    -0.281 OA
ENDROOT
BRANCH   1   7
ATOM      7  N   UNL d   1       1.732  -2.208  -0.179  0.00  0.00    -0.351 N 
ATOM      8  H   UNL d   1       2.648  -1.876   0.133  0.00  0.00     0.166 HD
BRANCH   7   9
ATOM      9  C   UNL d   1       1.941  -3.149  -1.227  0.00  0.00     0.032 A 
ATOM     10  C   UNL d   1       1.106  -3.235  -2.351  0.00  0.00     0.029 A 
ATOM     11  C   UNL d   1       1.381  -4.134  -3.385  0.00  0.00     0.002 A 
ATOM     12  C   UNL d   1       2.474  -4.990  -3.293  0.00  0.00     0.000 A 
ATOM     13  C   UNL d   1       3.283  -4.955  -2.160  0.00  0.00     0.002 A 
ATOM     14  C   UNL d   1       3.015  -4.046  -1.132  0.00  0.00     0.029 A 
ENDBRANCH   7   9
ENDBRANCH   1   7
BRANCH   2  15
ATOM     15  N   UNL d   1      -1.660  -2.328  -0.046  0.00  0.00    -0.351 N 
ATOM     16  H   UNL d   1      -2.607  -2.018  -0.273  0.00  0.00     0.166 HD
BRANCH  15  17
ATOM     17  C   UNL d   1      -1.748  -3.457   0.815  0.00  0.00     0.032 A 
ATOM     18  C   UNL d   1      -0.858  -3.672   1.879  0.00  0.00     0.029 A 
ATOM     19  C   UNL d   1      -0.997  -4.774   2.726  0.00  0.00     0.002 A 
ATOM     20  C   UNL d   1      -2.012  -5.698   2.503  0.00  0.00     0.000 A 
ATOM     21  C   UNL d   1      -2.880  -5.524   1.428  0.00  0.00     0.002 A 
ATOM     22  C   UNL d   1      -2.746  -4.414   0.587  0.00  0.00     0.029 A 
ENDBRANCH  15  17
ENDBRANCH   2  15
TORSDOF 4
