REMARK  8 active torsions:
REMARK  status: ('A' for Active; 'I' for Inactive)
REMARK    1  A    between atoms: N_2  and  C_1 
REMARK    2  A    between atoms: N_8  and  C_1 
REMARK    3  A    between atoms: C_3  and  N_2 
REMARK    4  A    between atoms: N_4  and  N_8 
REMARK    5  A    between atoms: O_16  and  C_6 
REMARK    6  A    between atoms: O_17  and  C_9 
REMARK    7  A    between atoms: O_18  and  C_11 
REMARK    8  A    between atoms: C_14  and  C_13 
ROOT
ATOM      1  N   UNL d   1       2.483  -0.073   0.900  0.00  0.00    -0.276 N 
ATOM      2  H   UNL d   1       2.960  -0.947   0.695  0.00  0.00     0.189 HD
ENDROOT
BRANCH   1   3
ATOM      3  N   UNL d   1       3.230   1.046   1.135  0.00  0.00    -0.309 N 
ATOM      4  C   UNL d   1       4.516   0.878   1.185  0.00  0.00     0.118 C 
ATOM      5  HN  UNL d   1       2.801   1.962   1.264  1.00  0.00     0.186 HD
BRANCH   4   6
ATOM      6  C   UNL d   1       5.421   2.025   1.412  0.00  0.00    -0.017 A 
ATOM      7  C   UNL d   1       6.804   1.805   1.468  0.00  0.00     0.052 A 
ATOM      8  C   UNL d   1       7.673   2.882   1.681  0.00  0.00     0.102 A 
ATOM      9  C   UNL d   1       7.136   4.171   1.828  0.00  0.00     0.099 A 
ATOM     10  C   UNL d   1       5.760   4.392   1.774  0.00  0.00     0.040 A 
ATOM     11  C   UNL d   1       4.900   3.315   1.569  0.00  0.00     0.016 A 
BRANCH   8  12
ATOM     12  O   UNL d   1       9.037   2.788   1.762  0.00  0.00    -0.353 OA
ATOM     13  C   UNL d   1       9.623   1.502   1.632  0.00  0.00     0.210 C 
ENDBRANCH   8  12
BRANCH   9  14
ATOM     14  O   UNL d   1       7.984   5.229   2.026  0.00  0.00    -0.358 OA
ATOM     15  H   UNL d   1       7.466   6.048   2.071  0.00  0.00     0.217 HD
ENDBRANCH   9  14
ENDBRANCH   4   6
ENDBRANCH   1   3
BRANCH   1  16
ATOM     16  C   UNL d   1       1.128   0.006   0.645  0.00  0.00     0.191 C 
ATOM     17  S   UNL d   1       0.225   1.413   0.578  0.00  0.00    -0.039 SA
BRANCH  16  18
ATOM     18  N   UNL d   1       0.499  -1.171   0.325  0.00  0.00    -0.330 N 
ATOM     19  H   UNL d   1      -0.404  -1.048  -0.122  0.00  0.00     0.168 HD
BRANCH  18  20
ATOM     20  C   UNL d   1       0.806  -2.496   0.696  0.00  0.00     0.068 A 
ATOM     21  C   UNL d   1       0.282  -3.573  -0.041  0.00  0.00     0.095 A 
ATOM     22  C   UNL d   1       0.455  -4.882   0.424  0.00  0.00     0.039 A 
ATOM     23  C   UNL d   1       1.145  -5.130   1.610  0.00  0.00     0.003 A 
ATOM     24  C   UNL d   1       1.664  -4.068   2.342  0.00  0.00     0.002 A 
ATOM     25  C   UNL d   1       1.498  -2.758   1.886  0.00  0.00     0.032 A 
BRANCH  21  26
ATOM     26  O   UNL d   1      -0.470  -3.475  -1.184  0.00  0.00    -0.354 OA
ATOM     27  C   UNL d   1       0.029  -2.599  -2.194  0.00  0.00     0.210 C 
ENDBRANCH  21  26
ENDBRANCH  18  20
ENDBRANCH  16  18
ENDBRANCH   1  16
TORSDOF 8
