REMARK  7 active torsions:
REMARK  status: ('A' for Active; 'I' for Inactive)
REMARK    1  A    between atoms: N_2  and  C_1 
REMARK    2  A    between atoms: S_9  and  C_3 
REMARK    3  A    between atoms: C_10  and  C_4 
REMARK       I    between atoms: C_6  and  N_11 
REMARK       I    between atoms: N_13  and  C_6 
REMARK    4  A    between atoms: C_14  and  S_9 
REMARK    5  A    between atoms: O_26  and  C_10 
REMARK    6  A    between atoms: N_11  and  C_15 
REMARK    7  A    between atoms: C_12  and  N_13 
ROOT
ATOM      1  C   UNL d   1      -1.052   4.045  -1.371  0.00  0.00     0.034 A 
ATOM      2  C   UNL d   1       0.070   4.134  -2.234  0.00  0.00     0.053 A 
ATOM      3  C   UNL d   1      -1.146   4.939  -0.300  0.00  0.00     0.021 A 
ATOM      4  C   UNL d   1       1.021   5.148  -2.049  0.00  0.00     0.031 A 
ATOM      5  C   UNL d   1       0.876   6.065  -1.008  0.00  0.00     0.002 A 
ATOM      6  C   UNL d   1      -0.191   5.945  -0.122  0.00  0.00     0.002 A 
ENDROOT
BRANCH   1   7
ATOM      7  S   UNL d   1      -2.439   3.029  -1.899  0.00  0.00    -0.068 SA
BRANCH   7   8
ATOM      8  C   UNL d   1      -3.221   2.317  -0.478  0.00  0.00     0.108 A 
ATOM      9  C   UNL d   1      -4.297   2.870   0.202  0.00  0.00     0.137 A 
ATOM     10  C   UNL d   1      -5.034   2.128   1.131  0.00  0.00     0.058 A 
ATOM     11  C   UNL d   1      -4.698   0.790   1.333  0.00  0.00     0.057 A 
ATOM     12  C   UNL d   1      -3.611   0.288   0.631  0.00  0.00     0.106 A 
ATOM     13  N   UNL d   1      -2.867   1.022  -0.247  0.00  0.00    -0.357 N 
ATOM     14  HN  UNL d   1      -2.063   0.610  -0.720  1.00  0.00     0.166 HD
BRANCH   9  15
ATOM     15  N   UNL d   1      -4.754   4.200  -0.087  0.00  0.00    -0.113 N 
ATOM     16  O   UNL d   1      -4.380   5.099   0.676  0.00  0.00    -0.532 OA
ATOM     17  O   UNL d   1      -5.542   4.332  -1.036  0.00  0.00    -0.532 OA
ENDBRANCH   9  15
BRANCH  11  18
ATOM     18  C   UNL d   1      -5.525  -0.026   2.250  0.00  0.00     0.294 C 
ATOM     19  O   UNL d   1      -6.417   0.452   2.930  0.00  0.00    -0.259 OA
BRANCH  18  20
ATOM     20  O   UNL d   1      -5.165  -1.331   2.203  0.00  0.00    -0.322 OA
ATOM     21  C   UNL d   1      -5.933  -2.175   3.067  0.00  0.00     0.213 C 
ENDBRANCH  18  20
ENDBRANCH  11  18
ENDBRANCH   7   8
ENDBRANCH   1   7
BRANCH   2  22
ATOM     22  N   UNL d   1       0.246   3.132  -3.212  0.00  0.00    -0.307 N 
ATOM     23  C   UNL d   1       0.969   3.088  -4.372  0.00  0.00     0.325 C 
ATOM     24  N   UNL d   1       1.178   4.301  -4.979  0.00  0.00    -0.309 N 
ATOM     25  O   UNL d   1       1.257   1.993  -4.843  0.00  0.00    -0.247 OA
ATOM     26  H   UNL d   1       0.609   5.050  -4.609  0.00  0.00     0.170 HD
ATOM     27  H   UNL d   1      -0.211   2.245  -3.015  0.00  0.00     0.170 HD
BRANCH  24  28
ATOM     28  C   UNL d   1       1.811   4.537  -6.216  0.00  0.00     0.039 A 
ATOM     29  C   UNL d   1       2.594   3.592  -6.883  0.00  0.00     0.053 A 
ATOM     30  C   UNL d   1       3.172   3.908  -8.115  0.00  0.00     0.037 A 
ATOM     31 CL   UNL d   1       4.134   2.736  -8.934  0.00  0.00    -0.084 Cl
ATOM     32  C   UNL d   1       2.981   5.159  -8.695  0.00  0.00     0.048 A 
ATOM     33  C   UNL d   1       2.209   6.100  -8.025  0.00  0.00     0.037 A 
ATOM     34  C   UNL d   1       1.630   5.800  -6.791  0.00  0.00     0.053 A 
ATOM     35 CL   UNL d   1       1.954   7.651  -8.727  0.00  0.00    -0.084 Cl
ENDBRANCH  24  28
ENDBRANCH   2  22
TORSDOF 7
