REMARK  4 active torsions:
REMARK  status: ('A' for Active; 'I' for Inactive)
REMARK    1  A    between atoms: C_2  and  C_1 
REMARK    2  A    between atoms: N_13  and  C_3 
REMARK    3  A    between atoms: N_14  and  C_4 
REMARK    4  A    between atoms: C_21  and  N_11 
ROOT
ATOM      1  C   UNL d   1       1.619   1.216   0.086  0.00  0.00     0.037 A 
ATOM      2  N   UNL d   1       1.637  -1.036   0.080  0.00  0.00    -0.321 N 
ATOM      3  C   UNL d   1       2.414   0.095   0.195  0.00  0.00     0.113 A 
ATOM      4  C   UNL d   1       0.275   0.763  -0.009  0.00  0.00     0.006 A 
ATOM      5  C   UNL d   1       0.298  -0.640   0.008  0.00  0.00     0.050 A 
ATOM      6  C   UNL d   1      -0.971   1.430  -0.079  0.00  0.00     0.015 A 
ATOM      7  C   UNL d   1      -0.905  -1.376   0.015  0.00  0.00     0.031 A 
ATOM      8  C   UNL d   1      -2.121  -0.689  -0.050  0.00  0.00     0.002 A 
ATOM      9  C   UNL d   1      -2.157   0.697  -0.102  0.00  0.00     0.001 A 
ENDROOT
BRANCH   1  10
ATOM     10  C   UNL d   1       2.164   2.560   0.080  0.00  0.00     0.122 A 
ATOM     11  N   UNL d   1       1.473   3.491  -0.552  0.00  0.00    -0.318 N 
ATOM     12  C   UNL d   1       2.054   4.681  -0.629  0.00  0.00     0.163 A 
ATOM     13  HN  UNL d   1       0.554   3.308  -0.955  1.00  0.00     0.170 HD
ATOM     14  N   UNL d   1       3.253   4.958  -0.087  0.00  0.00    -0.309 N 
ATOM     15  C   UNL d   1       3.853   3.946   0.565  0.00  0.00     0.163 A 
ATOM     16  HN  UNL d   1       3.682   5.881  -0.165  1.00  0.00     0.171 HD
ATOM     17  N   UNL d   1       3.342   2.728   0.646  0.00  0.00    -0.318 N 
ATOM     18  HN  UNL d   1       3.829   1.967   1.118  1.00  0.00     0.170 HD
BRANCH  12  19
ATOM     19  N   UNL d   1       1.284   5.629  -1.348  0.00  0.00    -0.252 NA
ATOM     20  C   UNL d   1       1.490   7.061  -1.159  0.00  0.00     0.113 A 
ATOM     21  C   UNL d   1       1.936   6.387  -2.418  0.00  0.00     0.113 A 
ENDBRANCH  12  19
BRANCH  15  22
ATOM     22  N   UNL d   1       5.099   4.070   1.230  0.00  0.00    -0.252 NA
ATOM     23  C   UNL d   1       5.508   5.351   1.799  0.00  0.00     0.113 A 
ATOM     24  C   UNL d   1       6.184   4.802   0.584  0.00  0.00     0.113 A 
ENDBRANCH  15  22
ENDBRANCH   1  10
BRANCH   2  25
ATOM     25  C   UNL d   1       2.173  -2.357   0.033  0.00  0.00     0.039 A 
ATOM     26  C   UNL d   1       3.366  -2.647   0.714  0.00  0.00     0.030 A 
ATOM     27  C   UNL d   1       3.908  -3.933   0.663  0.00  0.00     0.002 A 
ATOM     28  C   UNL d   1       3.276  -4.927  -0.079  0.00  0.00     0.000 A 
ATOM     29  C   UNL d   1       2.105  -4.637  -0.777  0.00  0.00     0.002 A 
ATOM     30  C   UNL d   1       1.553  -3.355  -0.724  0.00  0.00     0.030 A 
ENDBRANCH   2  25
TORSDOF 4
