REMARK  5 active torsions:
REMARK  status: ('A' for Active; 'I' for Inactive)
REMARK    1  A    between atoms: C_6  and  C_1 
REMARK    2  A    between atoms: C_9  and  C_2 
REMARK    3  A    between atoms: N_11  and  C_3 
REMARK    4  A    between atoms: O_14  and  C_6 
REMARK    5  A    between atoms: C_17  and  O_14 
ROOT
ATOM      1  C   UNL d   1       0.076   1.524   0.034  0.00  0.00     0.085 A 
ATOM      2  C   UNL d   1      -1.345   1.241  -0.043  0.00  0.00     0.016 A 
ATOM      3  C   UNL d   1       0.828   0.356   0.037  0.00  0.00     0.085 A 
ATOM      4  C   UNL d   1      -1.576  -0.123  -0.083  0.00  0.00     0.066 A 
ATOM      5  S   UNL d   1      -0.144  -1.043  -0.035  0.00  0.00    -0.083 SA
ENDROOT
BRANCH   2   6
ATOM      6  C   UNL d   1      -2.458   2.189  -0.138  0.00  0.00     0.043 A 
ATOM      7  N   UNL d   1      -2.220   3.307  -0.861  0.00  0.00    -0.365 N 
ATOM      8  C   UNL d   1      -3.240   4.186  -0.999  0.00  0.00     0.095 A 
ATOM      9  HN  UNL d   1      -1.309   3.481  -1.285  1.00  0.00     0.165 HD
ATOM     10  C   UNL d   1      -4.517   3.995  -0.476  0.00  0.00    -0.047 A 
ATOM     11  C   UNL d   1      -4.736   2.838   0.266  0.00  0.00     0.010 A 
ATOM     12  C   UNL d   1      -5.598   5.003  -0.703  0.00  0.00     0.049 C 
ATOM     13  C   UNL d   1      -3.696   1.927   0.446  0.00  0.00     0.031 A 
ENDBRANCH   2   6
BRANCH   1  14
ATOM     14  C   UNL d   1       0.718   2.833   0.157  0.00  0.00     0.297 C 
ATOM     15  O   UNL d   1       1.859   3.059  -0.240  0.00  0.00    -0.259 OA
BRANCH  14  16
ATOM     16  O   UNL d   1      -0.012   3.698   0.914  0.00  0.00    -0.318 OA
BRANCH  16  17
ATOM     17  C   UNL d   1       0.702   4.826   1.430  0.00  0.00     0.174 C 
ATOM     18  C   UNL d   1       1.287   4.431   2.772  0.00  0.00     0.034 C 
ENDBRANCH  16  17
ENDBRANCH  14  16
ENDBRANCH   1  14
BRANCH   3  19
ATOM     19  N   UNL d   1       2.173   0.236   0.121  0.00  0.00    -0.393 N 
ATOM     20  H   UNL d   1       2.748   1.049  -0.111  0.00  0.00     0.156 HD
ATOM     21  H   UNL d   1       2.606  -0.650  -0.119  0.00  0.00     0.156 HD
ENDBRANCH   3  19
TORSDOF 5
