REMARK  10 active torsions:
REMARK  status: ('A' for Active; 'I' for Inactive)
REMARK    1  A    between atoms: C_7  and  S_1 
REMARK    2  A    between atoms: N_18  and  S_1 
REMARK    3  A    between atoms: S_2  and  C_8 
REMARK    4  A    between atoms: N_19  and  S_2 
REMARK    5  A    between atoms: C_22  and  N_18 
REMARK    6  A    between atoms: C_23  and  N_19 
REMARK    7  A    between atoms: C_24  and  C_22 
REMARK    8  A    between atoms: C_25  and  C_23 
REMARK    9  A    between atoms: C_26  and  C_24 
REMARK   10  A    between atoms: C_27  and  C_25 
ROOT
ATOM      1  C   UNL d   1       0.667   4.029   0.171  0.00  0.00    -0.041 A 
ATOM      2  C   UNL d   1       0.361   6.353   0.419  0.00  0.00    -0.041 A 
ATOM      3  C   UNL d   1      -0.513   4.250   0.917  0.00  0.00    -0.019 A 
ATOM      4  C   UNL d   1      -0.708   5.683   1.059  0.00  0.00    -0.019 A 
ATOM      5  C   UNL d   1       0.367   1.671   0.359  0.00  0.00     0.075 A 
ATOM      6  C   UNL d   1      -0.564   8.463   1.034  0.00  0.00     0.075 A 
ATOM      7  C   UNL d   1       1.304   5.349  -0.214  0.00  0.00     0.078 A 
ATOM      8  C   UNL d   1       1.113   2.750  -0.126  0.00  0.00     0.033 A 
ATOM      9  C   UNL d   1       0.450   7.738   0.398  0.00  0.00     0.033 A 
ATOM     10  C   UNL d   1      -1.717   6.406   1.675  0.00  0.00     0.014 A 
ATOM     11  C   UNL d   1      -1.260   3.176   1.381  0.00  0.00     0.014 A 
ATOM     12  C   UNL d   1      -0.814   1.877   1.100  0.00  0.00     0.026 A 
ATOM     13  C   UNL d   1      -1.645   7.806   1.659  0.00  0.00     0.026 A 
ENDROOT
BRANCH   5  14
ATOM     14  S   UNL d   1       0.867   0.016  -0.046  0.00  0.00     0.241 S 
ATOM     15  O   UNL d   1       2.074   0.072  -0.841  0.00  0.00    -0.206 OA
ATOM     16  O   UNL d   1      -0.311  -0.688  -0.504  0.00  0.00    -0.206 OA
BRANCH  14  17
ATOM     17  N   UNL d   1       1.256  -0.665   1.450  0.00  0.00    -0.216 NA
ATOM     18  H   UNL d   1       0.826  -1.588   1.509  0.00  0.00     0.139 HD
BRANCH  17  19
ATOM     19  C   UNL d   1       2.640  -0.533   1.929  0.00  0.00     0.104 C 
BRANCH  19  20
ATOM     20  C   UNL d   1       2.846  -1.310   3.235  0.00  0.00     0.015 C 
BRANCH  20  21
ATOM     21  C   UNL d   1       2.640  -2.823   3.084  0.00  0.00    -0.003 C 
ATOM     22  C   UNL d   1       2.933  -3.570   4.377  0.00  0.00     0.005 C 
ENDBRANCH  20  21
ENDBRANCH  19  20
ENDBRANCH  17  19
ENDBRANCH  14  17
ENDBRANCH   5  14
BRANCH   6  23
ATOM     23  S   UNL d   1      -0.551  10.246   0.946  0.00  0.00     0.241 S 
ATOM     24  O   UNL d   1      -0.232  10.598  -0.421  0.00  0.00    -0.206 OA
ATOM     25  O   UNL d   1      -1.732  10.752   1.601  0.00  0.00    -0.206 OA
BRANCH  23  26
ATOM     26  N   UNL d   1       0.795  10.677   1.868  0.00  0.00    -0.216 NA
ATOM     27  H   UNL d   1       1.323  11.409   1.391  0.00  0.00     0.139 HD
BRANCH  26  28
ATOM     28  C   UNL d   1       0.594  10.830   3.315  0.00  0.00     0.104 C 
BRANCH  28  29
ATOM     29  C   UNL d   1       1.899  11.245   3.995  0.00  0.00     0.015 C 
BRANCH  29  30
ATOM     30  C   UNL d   1       1.685  11.410   5.501  0.00  0.00    -0.003 C 
ATOM     31  C   UNL d   1       2.948  11.839   6.228  0.00  0.00     0.005 C 
ENDBRANCH  29  30
ENDBRANCH  28  29
ENDBRANCH  26  28
ENDBRANCH  23  26
ENDBRANCH   6  23
TORSDOF 10
