REMARK  4 active torsions:
REMARK  status: ('A' for Active; 'I' for Inactive)
REMARK    1  A    between atoms: C_8  and  C_2 
REMARK    2  A    between atoms: O_20  and  C_9 
REMARK    3  A    between atoms: O_21  and  C_11 
REMARK    4  A    between atoms: O_22  and  C_12 
ROOT
ATOM      1  C   UNL d   1      -0.041   0.680   0.106  0.00  0.00     0.024 C 
ATOM      2  C   UNL d   1      -1.317   1.495  -0.013  0.00  0.00     0.103 C 
ATOM      3  C   UNL d   1      -0.063  -0.669   0.087  0.00  0.00     0.021 C 
ATOM      4  C   UNL d   1      -2.585   0.649   0.138  0.00  0.00     0.057 C 
ATOM      5  N   UNL d   1      -1.275  -1.334   0.024  0.00  0.00    -0.362 N 
ATOM      6  C   UNL d   1      -2.508  -0.704   0.116  0.00  0.00     0.023 C 
ATOM      7  C   UNL d   1       1.248   1.413   0.248  0.00  0.00     0.159 C 
ATOM      8  C   UNL d   1      -3.831   1.327   0.282  0.00  0.00     0.098 C 
ATOM      9  N   UNL d   1      -4.849   1.871   0.419  0.00  0.00    -0.192 NA
ATOM     10  C   UNL d   1       1.197  -1.504   0.099  0.00  0.00     0.067 C 
ATOM     11  C   UNL d   1       2.449  -0.733  -0.379  0.00  0.00    -0.036 C 
ATOM     12  C   UNL d   1       2.525   0.609   0.367  0.00  0.00     0.092 C 
ATOM     13  O   UNL d   1       1.261   2.638   0.346  0.00  0.00    -0.293 OA
ATOM     14  C   UNL d   1      -3.733  -1.584   0.164  0.00  0.00     0.069 C 
ATOM     15  C   UNL d   1       2.405  -0.500  -1.905  0.00  0.00     0.015 C 
ATOM     16  C   UNL d   1       3.709  -1.557  -0.063  0.00  0.00     0.015 C 
ATOM     17  H   UNL d   1      -1.258  -2.351   0.100  0.00  0.00     0.165 HD
ENDROOT
BRANCH   2  18
ATOM     18  C   UNL d   1      -1.351   2.237  -1.351  0.00  0.00    -0.039 A 
ATOM     19  C   UNL d   1      -1.310   1.540  -2.570  0.00  0.00     0.048 A 
ATOM     20  C   UNL d   1      -1.372   2.206  -3.800  0.00  0.00     0.104 A 
ATOM     21  C   UNL d   1      -1.453   3.613  -3.809  0.00  0.00     0.135 A 
ATOM     22  C   UNL d   1      -1.476   4.323  -2.586  0.00  0.00     0.104 A 
ATOM     23  C   UNL d   1      -1.440   3.630  -1.373  0.00  0.00     0.048 A 
BRANCH  20  24
ATOM     24  O   UNL d   1      -1.390   1.541  -4.998  0.00  0.00    -0.353 OA
ATOM     25  C   UNL d   1      -1.291   0.122  -4.984  0.00  0.00     0.210 C 
ENDBRANCH  20  24
BRANCH  21  26
ATOM     26  O   UNL d   1      -1.586   4.392  -4.938  0.00  0.00    -0.351 OA
ATOM     27  C   UNL d   1      -0.865   3.981  -6.091  0.00  0.00     0.210 C 
ENDBRANCH  21  26
BRANCH  22  28
ATOM     28  O   UNL d   1      -1.551   5.696  -2.658  0.00  0.00    -0.353 OA
ATOM     29  C   UNL d   1      -1.127   6.407  -1.498  0.00  0.00     0.210 C 
ENDBRANCH  22  28
ENDBRANCH   2  18
TORSDOF 4
