REMARK  5 active torsions:
REMARK  status: ('A' for Active; 'I' for Inactive)
REMARK       I    between atoms: N_2  and  C_1 
REMARK       I    between atoms: N_5  and  C_1 
REMARK    1  A    between atoms: C_6  and  N_2 
REMARK    2  A    between atoms: C_10  and  N_5 
REMARK    3  A    between atoms: C_12  and  C_10 
REMARK    4  A    between atoms: C_13  and  C_12 
REMARK    5  A    between atoms: O_16  and  C_12 
ROOT
ATOM      1  C   UNL d   1       1.124  -0.111   0.075  0.00  0.00     0.320 C 
ATOM      2  N   UNL d   1       0.557  -0.713  -1.029  0.00  0.00    -0.309 N 
ATOM      3  N   UNL d   1       0.189   0.436   0.915  0.00  0.00    -0.340 N 
ATOM      4  O   UNL d   1       2.322  -0.059   0.338  0.00  0.00    -0.247 OA
ATOM      5  H   UNL d   1      -0.395  -0.464  -1.242  0.00  0.00     0.170 HD
ATOM      6  H   UNL d   1      -0.765   0.564   0.604  0.00  0.00     0.164 HD
ENDROOT
BRANCH   2   7
ATOM      7  C   UNL d   1       1.251  -1.481  -1.990  0.00  0.00     0.037 A 
ATOM      8  C   UNL d   1       2.521  -2.015  -1.745  0.00  0.00     0.039 A 
ATOM      9  C   UNL d   1       3.150  -2.736  -2.743  0.00  0.00    -0.021 A 
ATOM     10  C   UNL d   1       4.450  -3.438  -2.708  0.00  0.00     0.068 C 
ATOM     11  C   UNL d   1       2.539  -2.949  -3.964  0.00  0.00     0.075 A 
ATOM     12  C   UNL d   1       4.610  -3.701  -4.205  0.00  0.00     0.180 C 
ATOM     13  O   UNL d   1       3.302  -3.684  -4.834  0.00  0.00    -0.350 OA
ATOM     14  C   UNL d   1       1.274  -2.472  -4.230  0.00  0.00     0.039 A 
ATOM     15  C   UNL d   1       0.623  -1.736  -3.228  0.00  0.00     0.032 A 
ENDBRANCH   2   7
BRANCH   3  16
ATOM     16  C   UNL d   1       0.596   1.176   2.106  0.00  0.00     0.161 C 
BRANCH  16  17
ATOM     17  C   UNL d   1      -0.515   1.174   3.173  0.00  0.00     0.169 C 
BRANCH  17  18
ATOM     18  C   UNL d   1      -0.210   1.926   4.461  0.00  0.00    -0.028 A 
ATOM     19  C   UNL d   1      -1.258   2.503   5.203  0.00  0.00     0.010 A 
ATOM     20  C   UNL d   1      -1.019   3.143   6.422  0.00  0.00     0.001 A 
ATOM     21  C   UNL d   1       0.272   3.202   6.936  0.00  0.00     0.000 A 
ATOM     22  C   UNL d   1       1.321   2.618   6.232  0.00  0.00     0.001 A 
ATOM     23  C   UNL d   1       1.082   1.982   5.008  0.00  0.00     0.010 A 
ENDBRANCH  17  18
BRANCH  17  24
ATOM     24  O   UNL d   1      -1.690   1.718   2.538  0.00  0.00    -0.389 OA
ATOM     25  H   UNL d   1      -1.551   2.681   2.491  0.00  0.00     0.210 HD
ENDBRANCH  17  24
ENDBRANCH  16  17
ENDBRANCH   3  16
TORSDOF 5
