REMARK  8 active torsions:
REMARK  status: ('A' for Active; 'I' for Inactive)
REMARK    1  A    between atoms: S_17  and  C_5 
REMARK    2  A    between atoms: C_12  and  C_10 
REMARK    3  A    between atoms: C_15  and  C_11 
REMARK    4  A    between atoms: C_13  and  C_14 
REMARK    5  A    between atoms: C_14  and  O_22 
REMARK    6  A    between atoms: C_29  and  S_17 
REMARK    7  A    between atoms: O_22  and  C_30 
REMARK    8  A    between atoms: C_30  and  C_29 
ROOT
ATOM      1  N   UNL d   1       0.298   0.637   0.013  0.00  0.00    -0.233 N 
ATOM      2  C   UNL d   1       0.144  -0.754  -0.007  0.00  0.00     0.130 A 
ATOM      3  N   UNL d   1       1.615   0.978   0.017  0.00  0.00    -0.295 N 
ATOM      4  HN  UNL d   1       2.007   1.920   0.042  1.00  0.00     0.187 HD
ATOM      5  C   UNL d   1      -0.840   1.466   0.038  0.00  0.00     0.097 A 
ATOM      6  N   UNL d   1      -1.077  -1.365   0.006  0.00  0.00    -0.337 N 
ATOM      7  HN  UNL d   1      -1.163  -2.381  -0.011  1.00  0.00     0.167 HD
ATOM      8  C   UNL d   1       1.411  -1.282  -0.015  0.00  0.00     0.077 A 
ATOM      9  C   UNL d   1      -2.063   0.909   0.049  0.00  0.00     0.073 A 
ATOM     10  C   UNL d   1      -2.131  -0.592   0.041  0.00  0.00     0.120 A 
ATOM     11  C   UNL d   1       2.291  -0.178  -0.018  0.00  0.00     0.037 A 
ENDROOT
BRANCH   5  12
ATOM     12  S   UNL d   1      -0.694   3.193   0.183  0.00  0.00    -0.108 SA
BRANCH  12  13
ATOM     13  C   UNL d   1       0.215   3.646  -1.337  0.00  0.00     0.108 C 
BRANCH  13  14
ATOM     14  C   UNL d   1       0.433   5.162  -1.385  0.00  0.00     0.189 C 
BRANCH  14  15
ATOM     15  O   UNL d   1      -0.814   5.882  -1.366  0.00  0.00    -0.317 OA
BRANCH  15  16
ATOM     16  C   UNL d   1      -1.424   6.063  -2.555  0.00  0.00     0.295 C 
ATOM     17  O   UNL d   1      -1.017   5.651  -3.633  0.00  0.00    -0.259 OA
BRANCH  16  18
ATOM     18  C   UNL d   1      -2.751   6.703  -2.388  0.00  0.00     0.061 A 
ATOM     19  C   UNL d   1      -3.066   7.668  -1.421  0.00  0.00     0.050 A 
ATOM     20 CL   UNL d   1      -1.910   8.365  -0.340  0.00  0.00    -0.083 Cl
ATOM     21  C   UNL d   1      -4.374   8.169  -1.338  0.00  0.00     0.025 A 
ATOM     22  C   UNL d   1      -5.360   7.737  -2.227  0.00  0.00     0.002 A 
ATOM     23  C   UNL d   1      -5.045   6.807  -3.212  0.00  0.00     0.001 A 
ATOM     24  C   UNL d   1      -3.750   6.292  -3.291  0.00  0.00     0.019 A 
ENDBRANCH  16  18
ENDBRANCH  15  16
ENDBRANCH  14  15
ENDBRANCH  13  14
ENDBRANCH  12  13
ENDBRANCH   5  12
BRANCH  10  25
ATOM     25  C   UNL d   1      -3.527  -1.220   0.102  0.00  0.00     0.432 C 
ATOM     26  F   UNL d   1      -4.523  -0.290   0.126  0.00  0.00    -0.165 F 
ATOM     27  F   UNL d   1      -3.783  -2.019  -0.969  0.00  0.00    -0.165 F 
ATOM     28  F   UNL d   1      -3.699  -1.986   1.213  0.00  0.00    -0.165 F 
ENDBRANCH  10  25
BRANCH  11  29
ATOM     29  C   UNL d   1       3.812  -0.189  -0.014  0.00  0.00    -0.007 C 
ATOM     30  C   UNL d   1       4.326  -0.241   1.437  0.00  0.00     0.021 C 
ATOM     31  C   UNL d   1       4.357  -1.416  -0.776  0.00  0.00     0.021 C 
ATOM     32  C   UNL d   1       4.385   1.073  -0.696  0.00  0.00     0.021 C 
ENDBRANCH  11  29
TORSDOF 8
