REMARK  3 active torsions:
REMARK  status: ('A' for Active; 'I' for Inactive)
REMARK    1  A    between atoms: C_12  and  N_4 
REMARK    2  A    between atoms: N_16  and  C_11 
REMARK    3  A    between atoms: C_18  and  N_16 
ROOT
ATOM      1  C   UNL d   1       0.065  -0.746  -0.108  0.00  0.00     0.141 C 
ATOM      2  C   UNL d   1       0.009   0.612  -0.005  0.00  0.00     0.128 C 
ATOM      3  N   UNL d   1       1.347  -1.340  -0.220  0.00  0.00    -0.288 N 
ATOM      4  N   UNL d   1      -1.151  -1.500  -0.055  0.00  0.00    -0.262 N 
ATOM      5  N   UNL d   1       2.440   0.734   0.063  0.00  0.00    -0.270 N 
ATOM      6  C   UNL d   1       2.542  -0.628  -0.058  0.00  0.00     0.332 C 
ATOM      7  C   UNL d   1       1.253   1.415  -0.006  0.00  0.00     0.269 C 
ATOM      8  C   UNL d   1      -2.446   0.504  -0.308  0.00  0.00     0.099 C 
ATOM      9  C   UNL d   1      -2.424  -0.914   0.055  0.00  0.00     0.269 C 
ATOM     10  C   UNL d   1      -1.290   1.337  -0.004  0.00  0.00     0.208 C 
ATOM     11  C   UNL d   1      -3.433   0.971  -1.097  0.00  0.00     0.109 C 
ATOM     12  O   UNL d   1       3.644  -1.185  -0.042  0.00  0.00    -0.246 OA
ATOM     13  O   UNL d   1       1.225   2.643  -0.079  0.00  0.00    -0.267 OA
ATOM     14  O   UNL d   1      -3.472  -1.508   0.290  0.00  0.00    -0.266 OA
ATOM     15  O   UNL d   1      -1.424   2.539   0.201  0.00  0.00    -0.286 OA
ATOM     16  C   UNL d   1       1.579  -2.758  -0.471  0.00  0.00     0.163 C 
ATOM     17  C   UNL d   1       3.658   1.527   0.121  0.00  0.00     0.164 C 
ENDROOT
BRANCH  11  18
ATOM     18  N   UNL d   1      -4.513   0.260  -1.567  0.00  0.00    -0.365 N 
ATOM     19  H   UNL d   1      -4.650  -0.652  -1.116  0.00  0.00     0.165 HD
BRANCH  18  20
ATOM     20  C   UNL d   1      -5.494   0.623  -2.502  0.00  0.00     0.035 A 
ATOM     21  C   UNL d   1      -5.481   1.832  -3.207  0.00  0.00     0.053 A 
ATOM     22  C   UNL d   1      -6.502   2.138  -4.112  0.00  0.00     0.037 A 
ATOM     23 CL   UNL d   1      -6.466   3.640  -4.953  0.00  0.00    -0.084 Cl
ATOM     24  C   UNL d   1      -7.545   1.248  -4.341  0.00  0.00     0.048 A 
ATOM     25  C   UNL d   1      -7.553   0.036  -3.664  0.00  0.00     0.037 A 
ATOM     26  C   UNL d   1      -6.538  -0.280  -2.759  0.00  0.00     0.053 A 
ATOM     27 CL   UNL d   1      -8.828  -1.087  -3.939  0.00  0.00    -0.084 Cl
ENDBRANCH  18  20
ENDBRANCH  11  18
BRANCH   4  28
ATOM     28  C   UNL d   1      -1.267  -2.887  -0.356  0.00  0.00     0.044 A 
ATOM     29  C   UNL d   1      -1.457  -3.262  -1.696  0.00  0.00     0.030 A 
ATOM     30  C   UNL d   1      -1.511  -4.610  -2.038  0.00  0.00     0.002 A 
ATOM     31  C   UNL d   1      -1.425  -5.579  -1.040  0.00  0.00     0.000 A 
ATOM     32  C   UNL d   1      -1.327  -5.202   0.303  0.00  0.00     0.002 A 
ATOM     33  C   UNL d   1      -1.262  -3.852   0.653  0.00  0.00     0.030 A 
ENDBRANCH   4  28
TORSDOF 3
