REMARK  4 active torsions:
REMARK  status: ('A' for Active; 'I' for Inactive)
REMARK    1  A    between atoms: S_10  and  C_3 
REMARK    2  A    between atoms: C_4  and  C_5 
REMARK    3  A    between atoms: C_9  and  C_12 
REMARK    4  A    between atoms: C_12  and  S_10 
ROOT
ATOM      1  N   UNL d   1       1.221   0.498   0.224  0.00  0.00    -0.335 N 
ATOM      2  HN  UNL d   1       2.149   0.916   0.279  1.00  0.00     0.168 HD
ATOM      3  C   UNL d   1       0.105   1.231   0.371  0.00  0.00     0.144 A 
ATOM      4  C   UNL d   1       1.047  -0.824  -0.001  0.00  0.00     0.069 A 
ATOM      5  N   UNL d   1      -1.144   0.743   0.303  0.00  0.00    -0.347 N 
ATOM      6  HN  UNL d   1      -1.960   1.344   0.421  1.00  0.00     0.167 HD
ATOM      7  C   UNL d   1      -0.196  -1.415  -0.085  0.00  0.00     0.049 A 
ATOM      8  C   UNL d   1      -1.268  -0.574   0.071  0.00  0.00     0.092 A 
ENDROOT
BRANCH   3   9
ATOM      9  S   UNL d   1       0.245   2.955   0.773  0.00  0.00    -0.089 SA
BRANCH   9  10
ATOM     10  C   UNL d   1       1.901   3.305   0.116  0.00  0.00     0.122 C 
BRANCH  10  11
ATOM     11  C   UNL d   1       2.354   4.707   0.461  0.00  0.00    -0.027 A 
ATOM     12  C   UNL d   1       2.150   5.812  -0.381  0.00  0.00     0.041 A 
ATOM     13 CL   UNL d   1       1.337   5.670  -1.899  0.00  0.00    -0.084 Cl
ATOM     14  C   UNL d   1       2.608   7.082  -0.013  0.00  0.00     0.024 A 
ATOM     15  C   UNL d   1       3.264   7.270   1.204  0.00  0.00     0.002 A 
ATOM     16  C   UNL d   1       3.453   6.191   2.060  0.00  0.00     0.001 A 
ATOM     17  C   UNL d   1       3.000   4.922   1.695  0.00  0.00     0.009 A 
ENDBRANCH  10  11
ENDBRANCH   9  10
ENDBRANCH   3   9
BRANCH   4  18
ATOM     18  C   UNL d   1       2.279  -1.591  -0.142  0.00  0.00     0.101 A 
ATOM     19  O   UNL d   1       2.147  -2.945  -0.303  0.00  0.00    -0.321 OA
ATOM     20  C   UNL d   1       3.398  -3.462  -0.414  0.00  0.00     0.142 A 
ATOM     21  C   UNL d   1       4.340  -2.465  -0.329  0.00  0.00     0.027 A 
ATOM     22  C   UNL d   1       3.620  -1.258  -0.151  0.00  0.00     0.041 A 
ENDBRANCH   4  18
TORSDOF 4
