REMARK  3 active torsions:
REMARK  status: ('A' for Active; 'I' for Inactive)
REMARK    1  A    between atoms: C_7  and  N_1 
REMARK    2  A    between atoms: C_10  and  C_7 
REMARK    3  A    between atoms: O_11  and  N_8 
ROOT
ATOM      1  N   UNL d   1      -0.051   0.023   1.381  0.00  0.00     0.102 N 
ATOM      2  C   UNL d   1      -0.058  -1.212   0.577  0.00  0.00     0.229 C 
ATOM      3  C   UNL d   1       0.026   1.188   0.482  0.00  0.00     0.229 C 
ATOM      4  C   UNL d   1      -1.760  -0.009  -0.932  0.00  0.00     0.014 C 
ATOM      5  C   UNL d   1      -1.166   1.308  -0.473  0.00  0.00     0.090 C 
ATOM      6  C   UNL d   1      -1.239  -1.320  -0.387  0.00  0.00     0.090 C 
ATOM      7  N   UNL d   1      -2.792  -0.083  -1.725  0.00  0.00    -0.277 N 
ATOM      8  HN  UNL d   1      -3.207  -0.958  -2.045  1.00  0.00     0.193 HD
ATOM      9  C   UNL d   1       1.300  -1.348  -0.137  0.00  0.00     0.036 C 
ATOM     10  C   UNL d   1       1.377   1.177  -0.260  0.00  0.00     0.036 C 
ATOM     11  C   UNL d   1       1.681  -0.133  -0.976  0.00  0.00     0.004 C 
ENDROOT
BRANCH   1  12
ATOM     12  C   UNL d   1      -1.178   0.143   2.326  0.00  0.00     0.312 C 
BRANCH  12  13
ATOM     13  C   UNL d   1      -1.250  -0.954   3.369  0.00  0.00    -0.030 A 
ATOM     14  C   UNL d   1      -0.187  -1.189   4.242  0.00  0.00     0.009 A 
ATOM     15  C   UNL d   1      -0.274  -2.183   5.223  0.00  0.00     0.001 A 
ATOM     16  C   UNL d   1      -1.429  -2.954   5.330  0.00  0.00     0.000 A 
ATOM     17  C   UNL d   1      -2.498  -2.731   4.463  0.00  0.00     0.001 A 
ATOM     18  C   UNL d   1      -2.409  -1.738   3.487  0.00  0.00     0.009 A 
ENDBRANCH  12  13
ENDBRANCH   1  12
BRANCH   7  19
ATOM     19  O   UNL d   1      -3.261   1.185  -2.083  0.00  0.00    -0.290 OA
ATOM     20  H   UNL d   1      -4.084   0.975  -2.563  0.00  0.00     0.244 HD
ENDBRANCH   7  19
TORSDOF 3
