REMARK  1 active torsions:
REMARK  status: ('A' for Active; 'I' for Inactive)
REMARK    1  A    between atoms: S_14  and  C_6 
ROOT
ATOM      1  C   UNL d   1       1.181  -1.002  -0.003  0.00  0.00     0.068 A 
ATOM      2  S   UNL d   1      -0.130  -2.114  -0.001  0.00  0.00    -0.067 SA
ATOM      3  C   UNL d   1      -1.284  -0.868  -0.001  0.00  0.00     0.087 A 
ATOM      4  C   UNL d   1       0.719   0.313  -0.004  0.00  0.00     0.066 A 
ATOM      5  C   UNL d   1      -0.715   0.397  -0.003  0.00  0.00     0.026 A 
ATOM      6  C   UNL d   1       2.558  -1.216  -0.003  0.00  0.00     0.087 A 
ATOM      7  N   UNL d   1       3.392  -0.157  -0.005  0.00  0.00    -0.346 N 
ATOM      8  HN  UNL d   1       4.404  -0.286  -0.005  1.00  0.00     0.167 HD
ATOM      9  N   UNL d   1       1.558   1.382  -0.005  0.00  0.00    -0.350 N 
ATOM     10  HN  UNL d   1       1.224   2.345  -0.006  1.00  0.00     0.166 HD
ATOM     11  N   UNL d   1      -2.602  -1.159   0.000  0.00  0.00    -0.360 N 
ATOM     12  HN  UNL d   1      -2.959  -2.115   0.001  1.00  0.00     0.166 HD
ATOM     13  C   UNL d   1       2.856   1.068  -0.005  0.00  0.00     0.181 A 
ATOM     14  C   UNL d   1      -1.606   1.494  -0.003  0.00  0.00     0.018 A 
ATOM     15  C   UNL d   1      -3.404  -0.076   0.000  0.00  0.00     0.089 A 
ATOM     16  C   UNL d   1      -2.975   1.240  -0.002  0.00  0.00     0.018 A 
ENDROOT
BRANCH   6  17
ATOM     17  S   UNL d   1       3.276  -2.832  -0.002  0.00  0.00    -0.124 SA
ATOM     18  H   UNL d   1       2.120  -3.512  -0.000  0.00  0.00     0.108 HD
ENDBRANCH   6  17
TORSDOF 1
