REMARK  7 active torsions:
REMARK  status: ('A' for Active; 'I' for Inactive)
REMARK       I    between atoms: C_4  and  N_1 
REMARK    1  A    between atoms: C_8  and  C_2 
REMARK    2  A    between atoms: C_3  and  N_10 
REMARK    3  A    between atoms: C_14  and  C_4 
REMARK    4  A    between atoms: C_7  and  C_5 
REMARK    5  A    between atoms: C_9  and  C_7 
REMARK    6  A    between atoms: O_27  and  C_8 
REMARK       I    between atoms: N_10  and  C_9 
REMARK    7  A    between atoms: N_19  and  C_17 
ROOT
ATOM      1  N   UNL d   1      -1.765  -1.563  -0.132  0.00  0.00    -0.333 N 
ATOM      2  C   UNL d   1      -2.473  -2.188   0.896  0.00  0.00     0.254 C 
ATOM      3  C   UNL d   1      -0.276  -1.626  -0.160  0.00  0.00     0.188 C 
ATOM      4  C   UNL d   1       0.284  -0.311   0.459  0.00  0.00     0.241 C 
ATOM      5  N   UNL d   1      -0.316   0.867   0.073  0.00  0.00    -0.358 N 
ATOM      6  O   UNL d   1      -1.921  -2.785   1.818  0.00  0.00    -0.267 OA
ATOM      7  O   UNL d   1       1.314  -0.245   1.129  0.00  0.00    -0.271 OA
ATOM      8  C   UNL d   1      -2.287  -0.341  -0.790  0.00  0.00     0.147 C 
ATOM      9  C   UNL d   1      -1.746   0.913  -0.103  0.00  0.00     0.142 C 
ATOM     10  H   UNL d   1       0.128   1.674   0.498  0.00  0.00     0.162 HD
ENDROOT
BRANCH   3  11
ATOM     11  C   UNL d   1       0.507  -2.801   0.452  0.00  0.00     0.138 C 
BRANCH  11  12
ATOM     12  C   UNL d   1       0.265  -4.213  -0.062  0.00  0.00     0.224 C 
ATOM     13  N   UNL d   1      -0.850  -4.806   0.495  0.00  0.00    -0.326 N 
ATOM     14  H   UNL d   1      -1.250  -4.293   1.284  0.00  0.00     0.169 HD
ATOM     15  O   UNL d   1       1.086  -4.779  -0.778  0.00  0.00    -0.273 OA
BRANCH  13  16
ATOM     16  C   UNL d   1      -1.127  -6.174   0.478  0.00  0.00     0.058 A 
ATOM     17  C   UNL d   1      -0.980  -7.100  -0.544  0.00  0.00     0.106 A 
ATOM     18  S   UNL d   1      -1.377  -8.694   0.008  0.00  0.00    -0.094 SA
ATOM     19  C   UNL d   1      -1.846  -8.136   1.543  0.00  0.00     0.053 A 
ATOM     20  C   UNL d   1      -1.674  -6.779   1.660  0.00  0.00     0.038 A 
BRANCH  17  21
ATOM     21  C   UNL d   1      -0.649  -6.990  -1.956  0.00  0.00     0.302 C 
ATOM     22  O   UNL d   1      -0.260  -7.899  -2.682  0.00  0.00    -0.259 OA
BRANCH  21  23
ATOM     23  O   UNL d   1      -0.999  -5.752  -2.429  0.00  0.00    -0.322 OA
ATOM     24  C   UNL d   1      -0.864  -5.623  -3.842  0.00  0.00     0.213 C 
ENDBRANCH  21  23
ENDBRANCH  17  21
ENDBRANCH  13  16
ENDBRANCH  11  12
ENDBRANCH   3  11
BRANCH   2  25
ATOM     25  C   UNL d   1      -3.963  -2.193   0.889  0.00  0.00     0.032 A 
ATOM     26  C   UNL d   1      -4.713  -2.166  -0.280  0.00  0.00     0.019 A 
ATOM     27  C   UNL d   1      -6.104  -2.031  -0.217  0.00  0.00     0.030 A 
ATOM     28  C   UNL d   1      -6.797  -2.028   1.002  0.00  0.00     0.029 A 
ATOM     29  C   UNL d   1      -6.022  -2.197   2.160  0.00  0.00     0.030 A 
ATOM     30  C   UNL d   1      -4.625  -2.264   2.113  0.00  0.00     0.019 A 
BRANCH  28  31
ATOM     31  N   UNL d   1      -8.172  -1.876   1.061  0.00  0.00    -0.390 N 
ATOM     32  C   UNL d   1      -8.839  -1.333   2.239  0.00  0.00     0.149 C 
ATOM     33  C   UNL d   1      -9.042  -2.205  -0.062  0.00  0.00     0.149 C 
ENDBRANCH  28  31
ENDBRANCH   2  25
TORSDOF 7
