REMARK  6 active torsions:
REMARK  status: ('A' for Active; 'I' for Inactive)
REMARK    1  A    between atoms: C_17  and  N_1 
REMARK    2  A    between atoms: C_16  and  C_2 
REMARK    3  A    between atoms: S_14  and  C_5 
REMARK    4  A    between atoms: C_12  and  C_18 
REMARK    5  A    between atoms: C_18  and  S_14 
REMARK    6  A    between atoms: C_19  and  C_17 
ROOT
ATOM      1  N   UNL d   1      -0.281  -1.265   0.004  0.00  0.00    -0.307 N 
ATOM      2  C   UNL d   1       0.949  -0.634  -0.131  0.00  0.00     0.135 A 
ATOM      3  N   UNL d   1       0.734   0.672  -0.167  0.00  0.00    -0.283 N 
ATOM      4  HN  UNL d   1       1.457   1.389  -0.223  1.00  0.00     0.188 HD
ATOM      5  C   UNL d   1      -1.209  -0.253  -0.022  0.00  0.00     0.163 A 
ATOM      6  N   UNL d   1      -0.611   0.907  -0.115  0.00  0.00    -0.278 N 
ATOM      7  HN  UNL d   1      -1.065   1.820  -0.145  1.00  0.00     0.189 HD
ENDROOT
BRANCH   5   8
ATOM      8  S   UNL d   1      -2.924  -0.474   0.026  0.00  0.00    -0.084 SA
BRANCH   8   9
ATOM      9  C   UNL d   1      -3.490   1.109  -0.663  0.00  0.00     0.168 C 
BRANCH   9  10
ATOM     10  C   UNL d   1      -3.106   1.315  -2.093  0.00  0.00     0.151 A 
ATOM     11  O   UNL d   1      -2.893   0.229  -2.879  0.00  0.00    -0.268 OA
ATOM     12  C   UNL d   1      -2.610   0.768  -4.089  0.00  0.00     0.235 A 
ATOM     13  S   UNL d   1      -2.255  -0.163  -5.393  0.00  0.00    -0.031 SA
ATOM     14  N   UNL d   1      -2.698   2.119  -3.970  0.00  0.00    -0.268 N 
ATOM     15  N   UNL d   1      -3.022   2.465  -2.695  0.00  0.00    -0.280 N 
ATOM     16  H   UNL d   1      -2.531   2.811  -4.691  0.00  0.00     0.190 HD
ATOM     17  HN  UNL d   1      -3.164   3.397  -2.306  1.00  0.00     0.189 HD
ENDBRANCH   9  10
ENDBRANCH   8   9
ENDBRANCH   5   8
BRANCH   1  18
ATOM     18  C   UNL d   1      -0.556  -2.690   0.091  0.00  0.00     0.159 C 
BRANCH  18  19
ATOM     19  C   UNL d   1       0.007  -3.349   1.319  0.00  0.00    -0.017 C 
ATOM     20  C   UNL d   1      -0.719  -4.046   2.205  0.00  0.00     0.008 C 
ENDBRANCH  18  19
ENDBRANCH   1  18
BRANCH   2  21
ATOM     21  C   UNL d   1       2.292  -1.229  -0.163  0.00  0.00     0.009 A 
ATOM     22  C   UNL d   1       2.597  -2.420  -0.834  0.00  0.00     0.015 A 
ATOM     23  C   UNL d   1       3.894  -2.943  -0.815  0.00  0.00     0.001 A 
ATOM     24  C   UNL d   1       4.916  -2.262  -0.158  0.00  0.00     0.000 A 
ATOM     25  C   UNL d   1       4.643  -1.055   0.477  0.00  0.00     0.001 A 
ATOM     26  C   UNL d   1       3.342  -0.545   0.474  0.00  0.00     0.015 A 
ENDBRANCH   2  21
TORSDOF 6
