REMARK  4 active torsions:
REMARK  status: ('A' for Active; 'I' for Inactive)
REMARK    1  A    between atoms: C_4  and  C_1 
REMARK    2  A    between atoms: C_2  and  C_3 
REMARK       I    between atoms: C_3  and  N_5 
REMARK    3  A    between atoms: C_13  and  C_4 
REMARK    4  A    between atoms: N_5  and  C_6 
ROOT
ATOM      1  C   UNL d   1       1.334   1.102  -0.478  0.00  0.00     0.043 A 
ATOM      2  C   UNL d   1       2.253   0.076  -0.180  0.00  0.00     0.049 A 
ATOM      3  C   UNL d   1      -0.049   0.828  -0.420  0.00  0.00     0.041 A 
ATOM      4  C   UNL d   1       1.758  -1.209   0.114  0.00  0.00     0.032 A 
ATOM      5  C   UNL d   1      -0.511  -0.437  -0.068  0.00  0.00     0.035 A 
ATOM      6  C   UNL d   1       0.387  -1.463   0.184  0.00  0.00     0.026 A 
ATOM      7 CL   UNL d   1      -2.202  -0.740   0.012  0.00  0.00    -0.084 Cl
ENDROOT
BRANCH   2   8
ATOM      8  N   UNL d   1       3.662   0.179  -0.144  0.00  0.00    -0.322 N 
ATOM      9  C   UNL d   1       4.400   1.278   0.245  0.00  0.00     0.257 C 
ATOM     10  O   UNL d   1       3.942   2.342   0.649  0.00  0.00    -0.267 OA
ATOM     11  H   UNL d   1       4.167  -0.699  -0.171  0.00  0.00     0.169 HD
BRANCH   9  12
ATOM     12  C   UNL d   1       5.887   1.102   0.230  0.00  0.00     0.054 A 
ATOM     13  C   UNL d   1       6.557  -0.065   0.640  0.00  0.00     0.051 A 
ATOM     14  C   UNL d   1       7.957  -0.124   0.621  0.00  0.00     0.048 A 
ATOM     15 CL   UNL d   1       5.742  -1.473   1.230  0.00  0.00    -0.083 Cl
ATOM     16  C   UNL d   1       8.694   0.980   0.203  0.00  0.00     0.035 A 
ATOM     17  C   UNL d   1       8.049   2.145  -0.201  0.00  0.00     0.025 A 
ATOM     18 CL   UNL d   1      10.414   0.904   0.199  0.00  0.00    -0.084 Cl
ATOM     19  C   UNL d   1       6.650   2.207  -0.184  0.00  0.00     0.020 A 
ENDBRANCH   9  12
ENDBRANCH   2   8
BRANCH   1  20
ATOM     20  C   UNL d   1       1.727   2.397  -1.108  0.00  0.00     0.194 C 
ATOM     21  O   UNL d   1       2.576   2.395  -1.994  0.00  0.00    -0.287 OA
BRANCH  20  22
ATOM     22  C   UNL d   1       0.962   3.650  -0.821  0.00  0.00     0.015 A 
ATOM     23  C   UNL d   1       0.772   4.565  -1.865  0.00  0.00     0.015 A 
ATOM     24  C   UNL d   1      -0.032   5.691  -1.677  0.00  0.00     0.001 A 
ATOM     25  C   UNL d   1      -0.646   5.911  -0.445  0.00  0.00     0.000 A 
ATOM     26  C   UNL d   1      -0.437   5.020   0.608  0.00  0.00     0.001 A 
ATOM     27  C   UNL d   1       0.375   3.896   0.427  0.00  0.00     0.015 A 
ENDBRANCH  20  22
ENDBRANCH   1  20
TORSDOF 4
