REMARK  6 active torsions:
REMARK  status: ('A' for Active; 'I' for Inactive)
REMARK    1  A    between atoms: C_2  and  C_1 
REMARK       I    between atoms: N_8  and  C_2 
REMARK    2  A    between atoms: C_17  and  N_8 
REMARK    3  A    between atoms: O_15  and  C_9 
REMARK    4  A    between atoms: C_10  and  O_16 
REMARK    5  A    between atoms: O_16  and  C_18 
REMARK    6  A    between atoms: C_18  and  C_17 
ROOT
ATOM      1  C   UNL d   1       0.605   5.125   0.015  0.00  0.00     0.149 C 
ENDROOT
BRANCH   1   2
ATOM      2  N   UNL d   1       0.799   3.694  -0.100  0.00  0.00    -0.354 N 
ATOM      3  C   UNL d   1       1.062   2.884   0.988  0.00  0.00     0.258 C 
ATOM      4  O   UNL d   1       1.125   3.341   2.125  0.00  0.00    -0.267 OA
ATOM      5  H   UNL d   1       0.818   3.269  -1.020  0.00  0.00     0.162 HD
BRANCH   3   6
ATOM      6  C   UNL d   1       1.264   1.471   0.687  0.00  0.00     0.072 A 
ATOM      7  S   UNL d   1       1.279   0.868  -0.921  0.00  0.00    -0.097 SA
ATOM      8  C   UNL d   1       1.560  -0.733  -0.397  0.00  0.00     0.050 A 
ATOM      9  C   UNL d   1       1.641  -0.821   0.974  0.00  0.00     0.009 A 
ATOM     10  C   UNL d   1       1.472   0.450   1.598  0.00  0.00     0.025 A 
ENDBRANCH   3   6
ENDBRANCH   1   2
BRANCH   1  11
ATOM     11  C   UNL d   1       1.923   5.897   0.043  0.00  0.00     0.195 C 
BRANCH  11  12
ATOM     12  O   UNL d   1       1.632   7.297   0.059  0.00  0.00    -0.350 OA
BRANCH  12  13
ATOM     13  C   UNL d   1       2.714   8.133   0.013  0.00  0.00     0.069 A 
ATOM     14  C   UNL d   1       2.458   9.419  -0.462  0.00  0.00     0.039 A 
ATOM     15  C   UNL d   1       3.490  10.358  -0.551  0.00  0.00     0.039 A 
ATOM     16  C   UNL d   1       4.786  10.029  -0.150  0.00  0.00     0.068 A 
ATOM     17  C   UNL d   1       5.037   8.750   0.344  0.00  0.00     0.039 A 
ATOM     18  C   UNL d   1       4.005   7.806   0.427  0.00  0.00     0.039 A 
BRANCH  16  19
ATOM     19  O   UNL d   1       5.704  11.034  -0.282  0.00  0.00    -0.356 OA
ATOM     20  C   UNL d   1       7.039  10.736   0.108  0.00  0.00     0.210 C 
ENDBRANCH  16  19
ENDBRANCH  12  13
ENDBRANCH  11  12
ENDBRANCH   1  11
TORSDOF 6
