REMARK  3 active torsions:
REMARK  status: ('A' for Active; 'I' for Inactive)
REMARK    1  A    between atoms: C_10  and  C_6 
REMARK    2  A    between atoms: O_16  and  C_8 
REMARK    3  A    between atoms: O_17  and  C_11 
ROOT
ATOM      1  C   UNL d   1       0.791  -5.076  -1.248  0.00  0.00     0.124 A 
ATOM      2  C   UNL d   1       0.995  -3.676  -1.171  0.00  0.00     0.080 A 
ATOM      3  C   UNL d   1       1.551  -3.087  -0.008  0.00  0.00    -0.009 A 
ATOM      4  C   UNL d   1       1.193  -5.872  -0.152  0.00  0.00     0.103 A 
ATOM      5  C   UNL d   1       1.951  -3.899   1.056  0.00  0.00     0.016 A 
ATOM      6  C   UNL d   1       1.775  -5.274   0.975  0.00  0.00     0.040 A 
ATOM      7 CL   UNL d   1       0.681  -2.611  -2.517  0.00  0.00    -0.080 Cl
ENDROOT
BRANCH   3   8
ATOM      8  C   UNL d   1       1.706  -1.635   0.143  0.00  0.00     0.049 C 
ATOM      9  C   UNL d   1       0.730  -0.884   0.659  0.00  0.00     0.111 A 
ATOM     10  N   UNL d   1      -0.475  -1.312   1.152  0.00  0.00    -0.335 N 
ATOM     11  C   UNL d   1       0.813   0.601   0.723  0.00  0.00     0.316 A 
ATOM     12  C   UNL d   1      -1.060  -0.204   1.470  0.00  0.00     0.124 A 
ATOM     13  HN  UNL d   1      -0.823  -2.266   1.245  1.00  0.00     0.168 HD
ATOM     14  C   UNL d   1      -2.417  -0.071   2.052  0.00  0.00     0.098 C 
ATOM     15  O   UNL d   1      -0.392   0.950   1.257  0.00  0.00    -0.261 OA
ATOM     16  O   UNL d   1       1.714   1.340   0.382  0.00  0.00    -0.257 OA
ENDBRANCH   3   8
BRANCH   1  17
ATOM     17  O   UNL d   1       0.351  -5.741  -2.368  0.00  0.00    -0.351 OA
ATOM     18  C   UNL d   1      -0.750  -5.206  -3.093  0.00  0.00     0.210 C 
ENDBRANCH   1  17
BRANCH   4  19
ATOM     19  O   UNL d   1       1.113  -7.234   0.004  0.00  0.00    -0.353 OA
ATOM     20  C   UNL d   1       0.495  -8.024  -0.998  0.00  0.00     0.210 C 
ENDBRANCH   4  19
TORSDOF 3
