REMARK  7 active torsions:
REMARK  status: ('A' for Active; 'I' for Inactive)
REMARK    1  A    between atoms: C_9  and  C_1 
REMARK    2  A    between atoms: S_2  and  N_12 
REMARK    3  A    between atoms: C_11  and  S_2 
REMARK    4  A    between atoms: C_18  and  C_6 
REMARK    5  A    between atoms: C_10  and  C_8 
REMARK       I    between atoms: N_14  and  C_9 
REMARK    6  A    between atoms: N_12  and  N_14 
REMARK    7  A    between atoms: C_13  and  C_15 
ROOT
ATOM      1  C   UNL d   1      -0.332  -2.616   0.016  0.00  0.00     0.279 C 
ATOM      2  N   UNL d   1       0.806  -3.410  -0.063  0.00  0.00    -0.256 N 
ATOM      3  O   UNL d   1      -1.442  -3.146   0.114  0.00  0.00    -0.265 OA
ATOM      4  H   UNL d   1       1.734  -3.021  -0.212  0.00  0.00     0.191 HD
ENDROOT
BRANCH   1   5
ATOM      5  C   UNL d   1      -0.142  -1.174  -0.006  0.00  0.00     0.098 A 
ATOM      6  S   UNL d   1       1.399  -0.428  -0.100  0.00  0.00    -0.063 SA
ATOM      7  C   UNL d   1       0.671   1.138  -0.038  0.00  0.00     0.102 A 
ATOM      8  N   UNL d   1      -0.647   1.114   0.044  0.00  0.00    -0.351 N 
ATOM      9  C   UNL d   1      -1.119  -0.192   0.061  0.00  0.00     0.029 A 
ATOM     10  HN  UNL d   1      -1.238   1.943   0.089  1.00  0.00     0.166 HD
ATOM     11  C   UNL d   1      -2.592  -0.400   0.153  0.00  0.00     0.070 C 
BRANCH   7  12
ATOM     12  C   UNL d   1       1.486   2.372  -0.076  0.00  0.00     0.066 A 
ATOM     13  N   UNL d   1       2.832   2.225  -0.194  0.00  0.00    -0.363 N 
ATOM     14  C   UNL d   1       3.591   3.349  -0.235  0.00  0.00     0.104 A 
ATOM     15  HN  UNL d   1       3.257   1.300  -0.250  1.00  0.00     0.165 HD
ATOM     16  C   UNL d   1       3.082   4.638  -0.159  0.00  0.00     0.063 A 
ATOM     17  C   UNL d   1       1.697   4.771  -0.035  0.00  0.00     0.020 A 
ATOM     18  C   UNL d   1       0.890   3.631   0.008  0.00  0.00     0.033 A 
BRANCH  16  19
ATOM     19  C   UNL d   1       3.996   5.824  -0.211  0.00  0.00     0.418 C 
ATOM     20  F   UNL d   1       5.311   5.493  -0.336  0.00  0.00    -0.166 F 
ATOM     21  F   UNL d   1       3.721   6.651  -1.257  0.00  0.00    -0.166 F 
ATOM     22  F   UNL d   1       3.913   6.595   0.908  0.00  0.00    -0.166 F 
ENDBRANCH  16  19
ENDBRANCH   7  12
ENDBRANCH   1   5
BRANCH   2  23
ATOM     23  N   UNL d   1       0.639  -4.850   0.006  0.00  0.00    -0.220 N 
ATOM     24  H   UNL d   1      -0.303  -5.244   0.131  0.00  0.00     0.200 HD
BRANCH  23  25
ATOM     25  S   UNL d   1       1.902  -5.935  -0.173  0.00  0.00     0.277 S 
ATOM     26  O   UNL d   1       1.411  -7.285   0.001  0.00  0.00    -0.199 OA
ATOM     27  O   UNL d   1       2.622  -5.539  -1.361  0.00  0.00    -0.199 OA
BRANCH  25  28
ATOM     28  C   UNL d   1       2.946  -5.573   1.232  0.00  0.00     0.096 A 
ATOM     29  C   UNL d   1       2.522  -5.716   2.564  0.00  0.00     0.071 A 
ATOM     30  C   UNL d   1       3.460  -5.431   3.584  0.00  0.00     0.018 A 
ATOM     31  C   UNL d   1       4.759  -5.010   3.291  0.00  0.00     0.001 A 
ATOM     32  C   UNL d   1       5.158  -4.869   1.969  0.00  0.00     0.002 A 
ATOM     33  C   UNL d   1       4.260  -5.154   0.943  0.00  0.00     0.026 A 
BRANCH  29  34
ATOM     34  C   UNL d   1       1.147  -6.143   3.022  0.00  0.00     0.419 C 
ATOM     35  F   UNL d   1       0.213  -6.343   2.061  0.00  0.00    -0.166 F 
ATOM     36  F   UNL d   1       1.186  -7.292   3.753  0.00  0.00    -0.166 F 
ATOM     37  F   UNL d   1       0.599  -5.207   3.852  0.00  0.00    -0.166 F 
ENDBRANCH  29  34
ENDBRANCH  25  28
ENDBRANCH  23  25
ENDBRANCH   2  23
TORSDOF 7
