REMARK  6 active torsions:
REMARK  status: ('A' for Active; 'I' for Inactive)
REMARK    1  A    between atoms: C_2  and  C_1 
REMARK    2  A    between atoms: C_6  and  C_2 
REMARK    3  A    between atoms: C_5  and  C_3 
REMARK    4  A    between atoms: N_10  and  C_4 
REMARK    5  A    between atoms: C_13  and  N_10 
REMARK    6  A    between atoms: O_17  and  C_14 
ROOT
ATOM      1  C   UNL d   1       1.044   0.061  -0.031  0.00  0.00     0.072 C 
ATOM      2  C   UNL d   1       2.377   0.064  -0.174  0.00  0.00     0.092 C 
ENDROOT
BRANCH   2   3
ATOM      3  N   UNL d   1       3.160   1.149  -0.487  0.00  0.00    -0.366 N 
ATOM      4  H   UNL d   1       2.690   2.043  -0.563  0.00  0.00     0.165 HD
BRANCH   3   5
ATOM      5  C   UNL d   1       4.530   1.157  -0.812  0.00  0.00     0.032 A 
ATOM      6  C   UNL d   1       5.274   2.331  -0.597  0.00  0.00     0.044 A 
ATOM      7  C   UNL d   1       6.651   2.369  -0.861  0.00  0.00     0.011 A 
ATOM      8  C   UNL d   1       7.291   1.229  -1.357  0.00  0.00     0.015 A 
ATOM      9  C   UNL d   1       6.571   0.054  -1.555  0.00  0.00     0.003 A 
ATOM     10  C   UNL d   1       5.205   0.017  -1.268  0.00  0.00     0.029 A 
BRANCH   7  11
ATOM     11  C   UNL d   1       7.476   3.592  -0.653  0.00  0.00     0.155 C 
ATOM     12  O   UNL d   1       8.501   3.747  -1.316  0.00  0.00    -0.293 OA
ATOM     13  C   UNL d   1       7.065   4.614   0.375  0.00  0.00     0.096 C 
ENDBRANCH   7  11
ENDBRANCH   3   5
ENDBRANCH   2   3
BRANCH   1  14
ATOM     14  C   UNL d   1       0.352  -1.185   0.404  0.00  0.00     0.183 C 
ATOM     15  O   UNL d   1       0.913  -2.276   0.328  0.00  0.00    -0.288 OA
BRANCH  14  16
ATOM     16  C   UNL d   1      -1.034  -1.093   0.958  0.00  0.00     0.014 A 
ATOM     17  C   UNL d   1      -1.710   0.116   1.174  0.00  0.00     0.018 A 
ATOM     18  C   UNL d   1      -2.995   0.129   1.735  0.00  0.00     0.037 A 
ATOM     19  C   UNL d   1      -3.617  -1.064   2.097  0.00  0.00     0.068 A 
ATOM     20  C   UNL d   1      -2.960  -2.272   1.869  0.00  0.00     0.037 A 
ATOM     21  C   UNL d   1      -1.676  -2.289   1.312  0.00  0.00     0.018 A 
BRANCH  19  22
ATOM     22  O   UNL d   1      -4.868  -1.169   2.638  0.00  0.00    -0.356 OA
ATOM     23  C   UNL d   1      -5.298  -0.061   3.421  0.00  0.00     0.210 C 
ENDBRANCH  19  22
ENDBRANCH  14  16
ENDBRANCH   1  14
TORSDOF 6
