REMARK  4 active torsions:
REMARK  status: ('A' for Active; 'I' for Inactive)
REMARK    1  A    between atoms: O_5  and  C_1 
REMARK    2  A    between atoms: C_7  and  O_5 
REMARK       I    between atoms: N_11  and  C_7 
REMARK    3  A    between atoms: C_16  and  N_11 
REMARK    4  A    between atoms: C_17  and  C_16 
ROOT
ATOM      1  C   UNL d   1       1.674  -1.122  -0.106  0.00  0.00     0.186 A 
ATOM      2  C   UNL d   1       0.459  -0.767   0.508  0.00  0.00     0.055 A 
ATOM      3  N   UNL d   1       2.261  -0.101  -0.740  0.00  0.00    -0.237 N 
ATOM      4  HN  UNL d   1       3.112  -0.122  -1.300  1.00  0.00     0.197 HD
ATOM      5  O   UNL d   1       1.452   0.997  -0.465  0.00  0.00    -0.235 OA
ATOM      6  C   UNL d   1       0.373   0.594   0.262  0.00  0.00     0.113 A 
ATOM      7  C   UNL d   1      -0.573  -1.397   1.225  0.00  0.00     0.042 A 
ATOM      8  C   UNL d   1      -0.678   1.404   0.689  0.00  0.00     0.042 A 
ATOM      9  C   UNL d   1      -1.649  -0.609   1.658  0.00  0.00     0.035 A 
ATOM     10  C   UNL d   1      -1.702   0.765   1.398  0.00  0.00     0.026 A 
ATOM     11 CL   UNL d   1      -2.939  -1.351   2.524  0.00  0.00    -0.084 Cl
ENDROOT
BRANCH   1  12
ATOM     12  O   UNL d   1       2.189  -2.358  -0.253  0.00  0.00    -0.241 OA
BRANCH  12  13
ATOM     13  C   UNL d   1       3.436  -2.560   0.252  0.00  0.00     0.367 C 
ATOM     14  O   UNL d   1       4.080  -1.781   0.947  0.00  0.00    -0.238 OA
ATOM     15  N   UNL d   1       3.947  -3.797  -0.043  0.00  0.00    -0.337 N 
ATOM     16  H   UNL d   1       4.893  -3.919   0.297  0.00  0.00     0.164 HD
BRANCH  15  17
ATOM     17  C   UNL d   1       3.462  -4.693  -1.073  0.00  0.00     0.124 C 
BRANCH  17  18
ATOM     18  C   UNL d   1       3.968  -4.293  -2.457  0.00  0.00     0.015 C 
ATOM     19  C   UNL d   1       5.488  -4.314  -2.555  0.00  0.00     0.006 C 
ENDBRANCH  17  18
ENDBRANCH  15  17
ENDBRANCH  12  13
ENDBRANCH   1  12
TORSDOF 4
