REMARK  5 active torsions:
REMARK  status: ('A' for Active; 'I' for Inactive)
REMARK    1  A    between atoms: C_7  and  C_1 
REMARK    2  A    between atoms: C_2  and  C_8 
REMARK    3  A    between atoms: C_8  and  C_7 
REMARK    4  A    between atoms: C_7  and  O_15 
REMARK    5  A    between atoms: C_8  and  O_16 
ROOT
ATOM      1  C   UNL d   1      -3.747  -0.107  -0.036  0.00  0.00     0.221 C 
ENDROOT
BRANCH   1   2
ATOM      2  C   UNL d   1      -2.246   0.025   0.016  0.00  0.00     0.114 A 
ATOM      3  N   UNL d   1      -1.530   1.125   0.076  0.00  0.00    -0.342 N 
ATOM      4  C   UNL d   1      -0.213   0.697   0.045  0.00  0.00     0.060 A 
ATOM      5  HN  UNL d   1      -1.870   2.084   0.133  1.00  0.00     0.167 HD
ATOM      6  C   UNL d   1       0.980   1.435   0.065  0.00  0.00     0.032 A 
ATOM      7  C   UNL d   1      -0.141  -0.687  -0.031  0.00  0.00     0.060 A 
ATOM      8  C   UNL d   1       2.201   0.744   0.002  0.00  0.00     0.002 A 
ATOM      9  C   UNL d   1       2.233  -0.651  -0.081  0.00  0.00     0.002 A 
ATOM     10  C   UNL d   1       1.056  -1.403  -0.093  0.00  0.00     0.032 A 
ATOM     11  N   UNL d   1      -1.447  -1.085  -0.017  0.00  0.00    -0.342 N 
ATOM     12  H   UNL d   1      -1.799  -2.030  -0.063  0.00  0.00     0.167 HD
ENDBRANCH   1   2
BRANCH   1  13
ATOM     13  C   UNL d   1      -4.332   0.716  -1.217  0.00  0.00     0.221 C 
BRANCH  13  14
ATOM     14  C   UNL d   1      -5.827   0.592  -1.274  0.00  0.00     0.114 A 
ATOM     15  N   UNL d   1      -6.573  -0.411  -0.849  0.00  0.00    -0.342 N 
ATOM     16  C   UNL d   1      -7.876  -0.000  -1.043  0.00  0.00     0.060 A 
ATOM     17  HN  UNL d   1      -6.255  -1.299  -0.461  1.00  0.00     0.167 HD
ATOM     18  C   UNL d   1      -9.082  -0.639  -0.717  0.00  0.00     0.032 A 
ATOM     19  C   UNL d   1      -7.919   1.251  -1.647  0.00  0.00     0.060 A 
ATOM     20  C   UNL d   1     -10.289   0.006  -1.016  0.00  0.00     0.002 A 
ATOM     21  C   UNL d   1     -10.298   1.262  -1.630  0.00  0.00     0.002 A 
ATOM     22  C   UNL d   1      -9.106   1.916  -1.960  0.00  0.00     0.032 A 
ATOM     23  N   UNL d   1      -6.604   1.593  -1.802  0.00  0.00    -0.342 N 
ATOM     24  H   UNL d   1      -6.237   2.460  -2.170  0.00  0.00     0.167 HD
ENDBRANCH  13  14
BRANCH  13  25
ATOM     25  O   UNL d   1      -4.081   2.126  -1.111  0.00  0.00    -0.385 OA
ATOM     26  H   UNL d   1      -3.300   2.233  -0.528  0.00  0.00     0.210 HD
ENDBRANCH  13  25
ENDBRANCH   1  13
BRANCH   1  27
ATOM     27  O   UNL d   1      -3.995  -1.515  -0.189  0.00  0.00    -0.385 OA
ATOM     28  H   UNL d   1      -4.910  -1.587  -0.538  0.00  0.00     0.210 HD
ENDBRANCH   1  27
TORSDOF 5
