REMARK  5 active torsions:
REMARK  status: ('A' for Active; 'I' for Inactive)
REMARK    1  A    between atoms: C_11  and  C_1 
REMARK    2  A    between atoms: N_14  and  C_3 
REMARK    3  A    between atoms: C_13  and  C_6 
REMARK    4  A    between atoms: C_16  and  C_11 
REMARK    5  A    between atoms: C_17  and  C_12 
ROOT
ATOM      1  C   UNL d   1      -2.498  -0.750   0.009  0.00  0.00     0.085 A 
ATOM      2  C   UNL d   1      -0.135  -0.990  -0.039  0.00  0.00     0.040 A 
ATOM      3  C   UNL d   1      -1.436  -1.625  -0.145  0.00  0.00     0.061 A 
ATOM      4  C   UNL d   1      -0.327   0.381   0.072  0.00  0.00     0.103 A 
ATOM      5  S   UNL d   1      -1.955   0.856   0.183  0.00  0.00    -0.064 SA
ATOM      6  C   UNL d   1       1.228  -1.432  -0.026  0.00  0.00     0.018 A 
ATOM      7  N   UNL d   1       1.892   0.909   0.103  0.00  0.00    -0.298 N 
ATOM      8  HN  UNL d   1       2.639   1.603   0.115  1.00  0.00     0.187 HD
ATOM      9  N   UNL d   1       0.641   1.311   0.121  0.00  0.00    -0.292 N 
ATOM     10  HN  UNL d   1       0.411   2.304   0.171  1.00  0.00     0.187 HD
ATOM     11  C   UNL d   1       2.213  -0.412   0.067  0.00  0.00     0.070 A 
ENDROOT
BRANCH   1  12
ATOM     12  C   UNL d   1      -3.912  -1.089   0.081  0.00  0.00     0.201 C 
ATOM     13  O   UNL d   1      -4.323  -2.078   0.686  0.00  0.00    -0.286 OA
BRANCH  12  14
ATOM     14  C   UNL d   1      -4.927  -0.283  -0.662  0.00  0.00     0.015 A 
ATOM     15  C   UNL d   1      -6.220  -0.185  -0.132  0.00  0.00     0.015 A 
ATOM     16  C   UNL d   1      -7.212   0.504  -0.833  0.00  0.00     0.001 A 
ATOM     17  C   UNL d   1      -6.917   1.085  -2.066  0.00  0.00     0.000 A 
ATOM     18  C   UNL d   1      -5.635   0.982  -2.601  0.00  0.00     0.001 A 
ATOM     19  C   UNL d   1      -4.638   0.294  -1.904  0.00  0.00     0.015 A 
ENDBRANCH  12  14
ENDBRANCH   1  12
BRANCH   3  20
ATOM     20  N   UNL d   1      -1.663  -2.936  -0.381  0.00  0.00    -0.397 N 
ATOM     21  H   UNL d   1      -0.934  -3.625  -0.546  0.00  0.00     0.156 HD
ATOM     22  H   UNL d   1      -2.584  -3.354  -0.229  0.00  0.00     0.156 HD
ENDBRANCH   3  20
BRANCH   6  23
ATOM     23  C   UNL d   1       1.545  -2.875  -0.075  0.00  0.00    -0.023 A 
ATOM     24  C   UNL d   1       2.455  -3.399  -1.011  0.00  0.00     0.012 A 
ATOM     25  C   UNL d   1       2.801  -4.754  -1.006  0.00  0.00     0.001 A 
ATOM     26  C   UNL d   1       2.192  -5.627  -0.110  0.00  0.00     0.000 A 
ATOM     27  C   UNL d   1       1.275  -5.138   0.814  0.00  0.00     0.001 A 
ATOM     28  C   UNL d   1       0.991  -3.771   0.859  0.00  0.00     0.012 A 
ENDBRANCH   6  23
BRANCH  11  29
ATOM     29  C   UNL d   1       3.682  -0.644   0.141  0.00  0.00    -0.007 A 
ATOM     30  C   UNL d   1       4.576   0.155  -0.600  0.00  0.00     0.014 A 
ATOM     31  C   UNL d   1       5.954  -0.089  -0.593  0.00  0.00     0.001 A 
ATOM     32  C   UNL d   1       6.471  -1.147   0.149  0.00  0.00     0.000 A 
ATOM     33  C   UNL d   1       5.618  -1.929   0.919  0.00  0.00     0.001 A 
ATOM     34  C   UNL d   1       4.246  -1.658   0.938  0.00  0.00     0.014 A 
ENDBRANCH  11  29
TORSDOF 5
