REMARK  2 active torsions:
REMARK  status: ('A' for Active; 'I' for Inactive)
REMARK    1  A    between atoms: C_7  and  C_1 
REMARK    2  A    between atoms: O_10  and  C_7 
ROOT
ATOM      1  C   UNL d   1      -0.198  -1.292  -0.002  0.00  0.00     0.103 A 
ATOM      2  N   UNL d   1       0.970   0.737   0.009  0.00  0.00    -0.347 N 
ATOM      3  HN  UNL d   1       1.777   1.362   0.015  1.00  0.00     0.167 HD
ATOM      4  C   UNL d   1       1.035  -0.650   0.007  0.00  0.00     0.030 A 
ATOM      5  S   UNL d   1      -1.452  -0.113  -0.007  0.00  0.00    -0.056 SA
ATOM      6  C   UNL d   1      -0.281   1.122   0.002  0.00  0.00     0.122 A 
ATOM      7 BR   UNL d   1      -0.757   2.939   0.002  0.00  0.00    -0.023 Br
ATOM      8  C   UNL d   1       2.385  -1.279   0.014  0.00  0.00     0.070 C 
ENDROOT
BRANCH   1   9
ATOM      9  C   UNL d   1      -0.472  -2.714  -0.006  0.00  0.00     0.185 C 
ATOM     10  O   UNL d   1       0.371  -3.598  -0.002  0.00  0.00    -0.646 OA
BRANCH   9  11
ATOM     11  O   UNL d   1      -1.801  -3.004  -0.015  0.00  0.00    -0.772 OA
ATOM     12  H   UNL d   1      -2.360  -2.204  -0.015  0.00  0.00     0.167 HD
ENDBRANCH   9  11
ENDBRANCH   1   9
TORSDOF 2
