REMARK  8 active torsions:
REMARK  status: ('A' for Active; 'I' for Inactive)
REMARK    1  A    between atoms: O_5  and  C_1 
REMARK       I    between atoms: C_2  and  N_3 
REMARK    2  A    between atoms: C_19  and  C_2 
REMARK    3  A    between atoms: N_3  and  C_12 
REMARK    4  A    between atoms: C_4  and  C_20 
REMARK    5  A    between atoms: O_14  and  C_4 
REMARK    6  A    between atoms: C_13  and  O_5 
REMARK    7  A    between atoms: S_11  and  C_19 
REMARK    8  A    between atoms: C_20  and  S_11 
ROOT
ATOM      1  C   UNL d   1       1.606   4.432   2.262  0.00  0.00     0.034 A 
ATOM      2  C   UNL d   1       0.912   2.393   0.434  0.00  0.00     0.078 A 
ATOM      3  C   UNL d   1       2.509   3.419   1.938  0.00  0.00     0.032 A 
ATOM      4  C   UNL d   1       0.326   4.388   1.697  0.00  0.00     0.032 A 
ATOM      5  C   UNL d   1      -0.011   3.376   0.792  0.00  0.00     0.039 A 
ATOM      6  C   UNL d   1       2.161   2.395   1.047  0.00  0.00     0.039 A 
ENDROOT
BRANCH   1   7
ATOM      7  N   UNL d   1       1.897   5.494   3.143  0.00  0.00    -0.327 N 
ATOM      8  C   UNL d   1       3.118   5.772   3.737  0.00  0.00     0.231 C 
ATOM      9  O   UNL d   1       4.173   5.172   3.547  0.00  0.00    -0.272 OA
ATOM     10  H   UNL d   1       1.126   6.115   3.365  0.00  0.00     0.169 HD
BRANCH   8  11
ATOM     11  C   UNL d   1       3.061   6.908   4.744  0.00  0.00     0.177 C 
BRANCH  11  12
ATOM     12  S   UNL d   1       2.570   6.283   6.388  0.00  0.00    -0.150 SA
BRANCH  12  13
ATOM     13  C   UNL d   1       3.871   5.025   6.676  0.00  0.00     0.185 C 
BRANCH  13  14
ATOM     14  C   UNL d   1       5.278   5.586   6.722  0.00  0.00     0.267 C 
ATOM     15  O   UNL d   1       5.599   6.765   6.634  0.00  0.00    -0.264 OA
BRANCH  14  16
ATOM     16  O   UNL d   1       6.160   4.558   6.911  0.00  0.00    -0.326 OA
ATOM     17  C   UNL d   1       7.528   4.966   6.967  0.00  0.00     0.213 C 
ENDBRANCH  14  16
ENDBRANCH  13  14
ENDBRANCH  12  13
ENDBRANCH  11  12
ENDBRANCH   8  11
ENDBRANCH   1   7
BRANCH   2  18
ATOM     18  O   UNL d   1       0.473   1.509  -0.504  0.00  0.00    -0.255 OA
BRANCH  18  19
ATOM     19  C   UNL d   1       1.431   0.763  -1.241  0.00  0.00     0.530 C 
ATOM     20  F   UNL d   1       2.603   1.413  -1.406  0.00  0.00    -0.144 F 
ATOM     21  F   UNL d   1       0.924   0.521  -2.472  0.00  0.00    -0.144 F 
ATOM     22  F   UNL d   1       1.659  -0.422  -0.638  0.00  0.00    -0.144 F 
ENDBRANCH  18  19
ENDBRANCH   2  18
TORSDOF 8
