REMARK  1 active torsions:
REMARK  status: ('A' for Active; 'I' for Inactive)
REMARK    1  A    between atoms: N_5  and  C_1 
REMARK       I    between atoms: C_8  and  N_5 
ROOT
ATOM      1  C   UNL d   1      -1.777  -1.313  -0.025  0.00  0.00     0.112 A 
ATOM      2  C   UNL d   1      -2.055   0.157   0.054  0.00  0.00     0.315 A 
ATOM      3  O   UNL d   1      -0.978   1.029   0.042  0.00  0.00    -0.273 OA
ATOM      4  C   UNL d   1      -0.513  -1.755  -0.046  0.00  0.00     0.050 A 
ATOM      5  C   UNL d   1       0.341   0.544   0.013  0.00  0.00     0.089 A 
ATOM      6  C   UNL d   1       0.601  -0.821  -0.012  0.00  0.00     0.000 A 
ATOM      7  O   UNL d   1      -3.217   0.559   0.115  0.00  0.00    -0.257 OA
ATOM      8  C   UNL d   1       1.369   1.485   0.016  0.00  0.00     0.038 A 
ATOM      9  C   UNL d   1       1.928  -1.256  -0.018  0.00  0.00     0.014 A 
ATOM     10  C   UNL d   1       2.691   1.044   0.004  0.00  0.00     0.003 A 
ATOM     11  C   UNL d   1       2.971  -0.324  -0.008  0.00  0.00     0.001 A 
ENDROOT
BRANCH   1  12
ATOM     12  N   UNL d   1      -2.910  -2.112  -0.072  0.00  0.00    -0.322 N 
ATOM     13  C   UNL d   1      -2.994  -3.481  -0.210  0.00  0.00     0.218 C 
ATOM     14  O   UNL d   1      -2.047  -4.253  -0.325  0.00  0.00    -0.274 OA
ATOM     15  C   UNL d   1      -4.412  -3.993  -0.242  0.00  0.00     0.117 C 
ATOM     16  H   UNL d   1      -3.780  -1.582  -0.028  0.00  0.00     0.169 HD
ENDBRANCH   1  12
TORSDOF 1
