REMARK  6 active torsions:
REMARK  status: ('A' for Active; 'I' for Inactive)
REMARK    1  A    between atoms: C_8  and  N_1 
REMARK    2  A    between atoms: C_6  and  C_2 
REMARK    3  A    between atoms: N_11  and  C_3 
REMARK       I    between atoms: N_12  and  C_6 
REMARK    4  A    between atoms: N_9  and  N_12 
REMARK    5  A    between atoms: C_15  and  C_14 
REMARK    6  A    between atoms: O_21  and  C_16 
ROOT
ATOM      1  N   UNL d   1      -0.264  -1.199  -0.105  0.00  0.00    -0.286 N 
ATOM      2  C   UNL d   1       0.977   0.741  -0.032  0.00  0.00     0.115 A 
ATOM      3  C   UNL d   1       1.022  -0.609  -0.102  0.00  0.00     0.109 A 
ATOM      4  C   UNL d   1      -1.311  -0.258   0.043  0.00  0.00     0.152 A 
ATOM      5  S   UNL d   1      -0.618   1.379   0.032  0.00  0.00    -0.051 SA
ATOM      6  S   UNL d   1      -2.949  -0.455   0.324  0.00  0.00    -0.052 SA
ENDROOT
BRANCH   2   7
ATOM      7  C   UNL d   1       2.180   1.625  -0.083  0.00  0.00     0.280 C 
ATOM      8  N   UNL d   1       1.927   2.984   0.002  0.00  0.00    -0.266 N 
ATOM      9  H   UNL d   1       0.980   3.333   0.089  0.00  0.00     0.190 HD
ATOM     10  O   UNL d   1       3.304   1.136  -0.218  0.00  0.00    -0.265 OA
BRANCH   8  11
ATOM     11  N   UNL d   1       2.980   3.849  -0.029  0.00  0.00    -0.308 N 
ATOM     12  C   UNL d   1       2.712   5.113   0.011  0.00  0.00     0.118 C 
ATOM     13  HN  UNL d   1       3.941   3.511  -0.081  1.00  0.00     0.186 HD
BRANCH  12  14
ATOM     14  C   UNL d   1       3.807   6.109   0.005  0.00  0.00    -0.019 A 
ATOM     15  C   UNL d   1       5.142   5.689  -0.018  0.00  0.00     0.015 A 
ATOM     16  C   UNL d   1       6.177   6.628   0.000  0.00  0.00     0.037 A 
ATOM     17  C   UNL d   1       5.882   7.990   0.045  0.00  0.00     0.068 A 
ATOM     18  C   UNL d   1       4.547   8.406   0.040  0.00  0.00     0.037 A 
ATOM     19  C   UNL d   1       3.506   7.471   0.029  0.00  0.00     0.015 A 
BRANCH  17  20
ATOM     20  O   UNL d   1       6.808   8.997   0.063  0.00  0.00    -0.356 OA
ATOM     21  C   UNL d   1       8.085   8.654   0.593  0.00  0.00     0.210 C 
ENDBRANCH  17  20
ENDBRANCH  12  14
ENDBRANCH   8  11
ENDBRANCH   2   7
BRANCH   3  22
ATOM     22  N   UNL d   1       2.200  -1.329  -0.209  0.00  0.00    -0.287 NA
ATOM     23  H   UNL d   1       3.017  -0.719  -0.353  0.00  0.00     0.125 HD
ATOM     24  H   UNL d   1       2.147  -2.049  -0.925  0.00  0.00     0.125 HD
ENDBRANCH   3  22
BRANCH   1  25
ATOM     25  C   UNL d   1      -0.489  -2.624  -0.199  0.00  0.00     0.042 A 
ATOM     26  C   UNL d   1       0.375  -3.540   0.425  0.00  0.00     0.030 A 
ATOM     27  C   UNL d   1       0.183  -4.922   0.310  0.00  0.00     0.002 A 
ATOM     28  C   UNL d   1      -0.890  -5.419  -0.420  0.00  0.00     0.000 A 
ATOM     29  C   UNL d   1      -1.759  -4.534  -1.048  0.00  0.00     0.002 A 
ATOM     30  C   UNL d   1      -1.551  -3.152  -0.949  0.00  0.00     0.030 A 
ENDBRANCH   1  25
TORSDOF 6
