REMARK  4 active torsions:
REMARK  status: ('A' for Active; 'I' for Inactive)
REMARK    1  A    between atoms: O_16  and  C_2 
REMARK    2  A    between atoms: C_7  and  C_13 
REMARK    3  A    between atoms: C_13  and  C_19 
REMARK    4  A    between atoms: C_19  and  O_16 
ROOT
ATOM      1  O   UNL d   1       1.535   2.854  -1.378  0.00  0.00    -0.327 OA
ENDROOT
BRANCH   1   2
ATOM      2  C   UNL d   1       1.977   1.587  -1.730  0.00  0.00     0.156 A 
ATOM      3  C   UNL d   1       1.434   1.012  -2.882  0.00  0.00     0.042 A 
ATOM      4  C   UNL d   1       1.912  -0.268  -3.185  0.00  0.00     0.049 A 
ATOM      5  C   UNL d   1       0.473   1.630  -3.722  0.00  0.00     0.020 A 
ATOM      6  N   UNL d   1       2.819  -0.891  -2.424  0.00  0.00    -0.351 N 
ATOM      7  C   UNL d   1       1.424  -0.909  -4.318  0.00  0.00     0.054 A 
ATOM      8  C   UNL d   1       3.260  -0.237  -1.340  0.00  0.00     0.182 A 
ATOM      9  HN  UNL d   1       3.160  -1.823  -2.658  1.00  0.00     0.166 HD
ATOM     10  N   UNL d   1       2.877   0.980  -0.938  0.00  0.00    -0.332 N 
ATOM     11  HN  UNL d   1       3.242   1.416  -0.092  1.00  0.00     0.168 HD
ATOM     12  C   UNL d   1       0.478  -0.301  -5.143  0.00  0.00     0.036 A 
ATOM     13  C   UNL d   1      -0.002   0.970  -4.851  0.00  0.00     0.025 A 
ATOM     14 CL   UNL d   1      -0.098  -1.131  -6.536  0.00  0.00    -0.084 Cl
ENDBRANCH   1   2
BRANCH   1  15
ATOM     15  C   UNL d   1       2.300   3.451  -0.337  0.00  0.00     0.261 C 
BRANCH  15  16
ATOM     16  C   UNL d   1       2.001   4.941  -0.302  0.00  0.00     0.183 C 
ATOM     17  O   UNL d   1       2.808   5.754  -0.762  0.00  0.00    -0.290 OA
BRANCH  16  18
ATOM     18  C   UNL d   1       0.722   5.446   0.282  0.00  0.00     0.015 A 
ATOM     19  C   UNL d   1       0.481   6.827   0.230  0.00  0.00     0.054 A 
ATOM     20  C   UNL d   1      -0.694   7.375   0.748  0.00  0.00     0.102 A 
ATOM     21  O   UNL d   1      -0.811   8.736   0.643  0.00  0.00    -0.348 OA
ATOM     22  C   UNL d   1      -1.681   6.539   1.275  0.00  0.00     0.102 A 
ATOM     23  C   UNL d   1      -1.034   9.359   1.910  0.00  0.00     0.178 C 
ATOM     24  C   UNL d   1      -2.450   9.169   2.442  0.00  0.00     0.053 C 
ATOM     25  C   UNL d   1      -3.287   8.279   1.544  0.00  0.00     0.178 C 
ATOM     26  O   UNL d   1      -2.918   6.911   1.724  0.00  0.00    -0.348 OA
ATOM     27  C   UNL d   1      -1.429   5.165   1.361  0.00  0.00     0.040 A 
ATOM     28  C   UNL d   1      -0.234   4.616   0.874  0.00  0.00     0.018 A 
ENDBRANCH  16  18
ENDBRANCH  15  16
ENDBRANCH   1  15
TORSDOF 4
