REMARK  3 active torsions:
REMARK  status: ('A' for Active; 'I' for Inactive)
REMARK    1  A    between atoms: C_6  and  C_1 
REMARK    2  A    between atoms: O_11  and  C_6 
REMARK    3  A    between atoms: N_12  and  C_10 
ROOT
ATOM      1  C   UNL d   1      -2.547   0.017   0.018  0.00  0.00     0.081 A 
ATOM      2  S   UNL d   1      -1.746  -1.492   0.048  0.00  0.00    -0.084 SA
ATOM      3  C   UNL d   1      -1.639   1.058   0.004  0.00  0.00     0.038 A 
ATOM      4  C   UNL d   1      -0.271   0.625   0.009  0.00  0.00    -0.016 A 
ATOM      5  C   UNL d   1      -0.185  -0.767   0.028  0.00  0.00     0.016 A 
ATOM      6  C   UNL d   1       0.933   1.371  -0.021  0.00  0.00     0.036 A 
ATOM      7  C   UNL d   1       1.059  -1.422   0.015  0.00  0.00     0.021 A 
ATOM      8  C   UNL d   1       2.181   0.738   0.010  0.00  0.00     0.006 A 
ATOM      9  C   UNL d   1       2.228  -0.652  -0.019  0.00  0.00     0.024 A 
ENDROOT
BRANCH   1  10
ATOM     10  C   UNL d   1      -3.997   0.061   0.008  0.00  0.00     0.299 C 
ATOM     11  O   UNL d   1      -4.760  -0.897   0.014  0.00  0.00    -0.259 OA
BRANCH  10  12
ATOM     12  O   UNL d   1      -4.411   1.365  -0.012  0.00  0.00    -0.322 OA
ATOM     13  C   UNL d   1      -5.829   1.532  -0.029  0.00  0.00     0.213 C 
ENDBRANCH  10  12
ENDBRANCH   1  10
BRANCH   8  14
ATOM     14  N   UNL d   1       3.351   1.486  -0.170  0.00  0.00    -0.303 NA
ATOM     15  H   UNL d   1       3.288   2.442   0.163  0.00  0.00     0.124 HD
ATOM     16  H   UNL d   1       4.194   1.020   0.152  0.00  0.00     0.124 HD
ENDBRANCH   8  14
TORSDOF 3
