REMARK  3 active torsions:
REMARK  status: ('A' for Active; 'I' for Inactive)
REMARK    1  A    between atoms: C_6  and  N_1 
REMARK    2  A    between atoms: N_7  and  C_6 
REMARK    3  A    between atoms: C_10  and  N_7 
ROOT
ATOM      1  N   UNL d   1       1.905   0.049  -0.118  0.00  0.00    -0.267 N 
ATOM      2  C   UNL d   1       1.200  -0.802  -0.918  0.00  0.00     0.262 A 
ATOM      3  C   UNL d   1       1.084   0.782   0.690  0.00  0.00     0.262 A 
ATOM      4  C   UNL d   1      -0.211  -0.511  -0.692  0.00  0.00     0.048 A 
ATOM      5  C   UNL d   1      -0.285   0.459   0.290  0.00  0.00     0.048 A 
ATOM      6  O   UNL d   1       1.376   1.548   1.589  0.00  0.00    -0.267 OA
ATOM      7  O   UNL d   1       1.596  -1.690  -1.650  0.00  0.00    -0.267 OA
ATOM      8  C   UNL d   1      -1.339  -1.055  -1.275  0.00  0.00     0.018 A 
ATOM      9  C   UNL d   1      -1.495   0.949   0.740  0.00  0.00     0.018 A 
ATOM     10  C   UNL d   1      -2.653   0.425   0.155  0.00  0.00     0.001 A 
ATOM     11  C   UNL d   1      -2.576  -0.571  -0.842  0.00  0.00     0.001 A 
ENDROOT
BRANCH   1  12
ATOM     12  C   UNL d   1       3.336  -0.000   0.009  0.00  0.00     0.230 C 
BRANCH  12  13
ATOM     13  N   UNL d   1       3.874   1.302  -0.360  0.00  0.00    -0.275 NA
ATOM     14  H   UNL d   1       3.388   2.015   0.176  0.00  0.00     0.129 HD
BRANCH  13  15
ATOM     15  C   UNL d   1       5.272   1.469  -0.276  0.00  0.00     0.015 A 
ATOM     16  C   UNL d   1       5.844   2.738  -0.036  0.00  0.00    -0.040 A 
ATOM     17  C   UNL d   1       7.249   2.887  -0.046  0.00  0.00     0.015 A 
ATOM     18  C   UNL d   1       5.045   3.992   0.214  0.00  0.00     0.050 C 
ATOM     19  C   UNL d   1       8.101   1.804  -0.280  0.00  0.00    -0.061 A 
ATOM     20  C   UNL d   1       7.538   0.564  -0.554  0.00  0.00     0.008 A 
ATOM     21  C   UNL d   1       9.588   1.986  -0.239  0.00  0.00     0.048 C 
ATOM     22  C   UNL d   1       6.149   0.410  -0.576  0.00  0.00     0.024 A 
ENDBRANCH  13  15
ENDBRANCH  12  13
ENDBRANCH   1  12
TORSDOF 3
