REMARK  6 active torsions:
REMARK  status: ('A' for Active; 'I' for Inactive)
REMARK    1  A    between atoms: S_11  and  C_1 
REMARK    2  A    between atoms: C_9  and  C_4 
REMARK    3  A    between atoms: C_8  and  C_5 
REMARK    4  A    between atoms: O_18  and  C_9 
REMARK    5  A    between atoms: C_17  and  S_11 
REMARK    6  A    between atoms: C_19  and  O_18 
ROOT
ATOM      1  C   UNL d   1       1.051  -0.904  -0.262  0.00  0.00     0.094 A 
ATOM      2  N   UNL d   1       1.209   0.447  -0.254  0.00  0.00    -0.335 N 
ATOM      3  HN  UNL d   1       2.132   0.874  -0.339  1.00  0.00     0.168 HD
ATOM      4  C   UNL d   1      -0.192  -1.503  -0.151  0.00  0.00     0.088 A 
ATOM      5  C   UNL d   1       0.102   1.198  -0.130  0.00  0.00     0.123 A 
ATOM      6  N   UNL d   1      -1.147   0.709  -0.039  0.00  0.00    -0.350 N 
ATOM      7  HN  UNL d   1      -1.962   1.318   0.024  1.00  0.00     0.166 HD
ATOM      8  C   UNL d   1      -1.259  -0.637  -0.037  0.00  0.00     0.110 A 
ENDROOT
BRANCH   1   9
ATOM      9  S   UNL d   1       2.593  -1.802  -0.260  0.00  0.00    -0.072 SA
BRANCH   9  10
ATOM     10  C   UNL d   1       2.957  -2.040  -1.994  0.00  0.00     0.007 A 
ATOM     11  C   UNL d   1       2.595  -1.133  -2.997  0.00  0.00     0.019 A 
ATOM     12  C   UNL d   1       2.919  -1.386  -4.334  0.00  0.00     0.001 A 
ATOM     13  C   UNL d   1       3.622  -2.538  -4.681  0.00  0.00     0.000 A 
ATOM     14  C   UNL d   1       4.013  -3.433  -3.689  0.00  0.00     0.001 A 
ATOM     15  C   UNL d   1       3.684  -3.184  -2.354  0.00  0.00     0.019 A 
ENDBRANCH   9  10
ENDBRANCH   1   9
BRANCH   4  16
ATOM     16  C   UNL d   1      -0.466  -2.935  -0.014  0.00  0.00     0.297 C 
ATOM     17  O   UNL d   1      -1.214  -3.373   0.851  0.00  0.00    -0.259 OA
BRANCH  16  18
ATOM     18  O   UNL d   1       0.139  -3.651  -0.985  0.00  0.00    -0.318 OA
BRANCH  18  19
ATOM     19  C   UNL d   1       0.080  -5.082  -0.842  0.00  0.00     0.174 C 
ATOM     20  C   UNL d   1      -1.162  -5.670  -1.491  0.00  0.00     0.034 C 
ENDBRANCH  18  19
ENDBRANCH  16  18
ENDBRANCH   4  16
BRANCH   5  21
ATOM     21  C   UNL d   1       0.227   2.659  -0.056  0.00  0.00     0.049 A 
ATOM     22  S   UNL d   1       1.757   3.426   0.107  0.00  0.00    -0.098 SA
ATOM     23  C   UNL d   1       1.062   4.989   0.138  0.00  0.00     0.050 A 
ATOM     24  C   UNL d   1      -0.308   4.945   0.026  0.00  0.00     0.009 A 
ATOM     25  C   UNL d   1      -0.786   3.607  -0.078  0.00  0.00     0.023 A 
ENDBRANCH   5  21
TORSDOF 6
