REMARK  6 active torsions:
REMARK  status: ('A' for Active; 'I' for Inactive)
REMARK    1  A    between atoms: C_14  and  C_2 
REMARK    2  A    between atoms: C_16  and  C_3 
REMARK    3  A    between atoms: S_18  and  C_6 
REMARK    4  A    between atoms: C_13  and  C_14 
REMARK    5  A    between atoms: C_15  and  C_19 
REMARK    6  A    between atoms: C_19  and  S_18 
ROOT
ATOM      1  N   UNL d   1       0.812  -0.001  -0.029  0.00  0.00    -0.319 N 
ATOM      2  C   UNL d   1       0.029   1.126  -0.178  0.00  0.00     0.107 A 
ATOM      3  C   UNL d   1      -0.030  -1.061  -0.240  0.00  0.00     0.162 A 
ATOM      4  N   UNL d   1      -1.214   0.747  -0.406  0.00  0.00    -0.286 N 
ATOM      5  HN  UNL d   1      -2.014   1.368  -0.530  1.00  0.00     0.188 HD
ATOM      6  N   UNL d   1      -1.248  -0.623  -0.446  0.00  0.00    -0.278 N 
ATOM      7  HN  UNL d   1      -2.074  -1.198  -0.608  1.00  0.00     0.189 HD
ATOM      8  C   UNL d   1       2.220  -0.060   0.271  0.00  0.00     0.159 C 
ENDROOT
BRANCH   2   9
ATOM      9  C   UNL d   1       0.472   2.543  -0.036  0.00  0.00     0.164 C 
BRANCH   9  10
ATOM     10  C   UNL d   1       1.404   3.002  -1.096  0.00  0.00     0.155 A 
ATOM     11  N   UNL d   1       2.649   2.654  -1.315  0.00  0.00    -0.321 N 
ATOM     12  C   UNL d   1       3.052   3.542  -2.297  0.00  0.00     0.156 A 
ATOM     13  HN  UNL d   1       3.189   1.911  -0.871  1.00  0.00     0.169 HD
ATOM     14  N   UNL d   1       2.078   4.390  -2.681  0.00  0.00    -0.241 N 
ATOM     15  O   UNL d   1       0.989   4.033  -1.887  0.00  0.00    -0.222 OA
ATOM     16  HN  UNL d   1       2.127   5.123  -3.389  1.00  0.00     0.196 HD
BRANCH  12  17
ATOM     17  C   UNL d   1       4.424   3.590  -2.793  0.00  0.00     0.094 A 
ATOM     18  N   UNL d   1       5.290   2.642  -2.334  0.00  0.00    -0.360 N 
ATOM     19  C   UNL d   1       6.567   2.744  -2.766  0.00  0.00     0.105 A 
ATOM     20  HN  UNL d   1       4.991   1.899  -1.702  1.00  0.00     0.165 HD
ATOM     21  C   UNL d   1       6.984   3.752  -3.618  0.00  0.00     0.104 A 
ATOM     22  N   UNL d   1       6.141   4.696  -4.089  0.00  0.00    -0.372 N 
ATOM     23  C   UNL d   1       4.855   4.592  -3.659  0.00  0.00     0.121 A 
ATOM     24  HN  UNL d   1       6.447   5.434  -4.723  1.00  0.00     0.164 HD
ENDBRANCH  12  17
ENDBRANCH   9  10
ENDBRANCH   2   9
BRANCH   3  25
ATOM     25  S   UNL d   1       0.465  -2.720  -0.255  0.00  0.00    -0.088 SA
BRANCH  25  26
ATOM     26  C   UNL d   1      -0.929  -3.440  -1.182  0.00  0.00     0.124 C 
BRANCH  26  27
ATOM     27  C   UNL d   1      -0.738  -4.910  -1.494  0.00  0.00    -0.005 A 
ATOM     28  C   UNL d   1      -1.317  -5.914  -0.695  0.00  0.00     0.042 A 
ATOM     29 CL   UNL d   1      -2.228  -5.552   0.731  0.00  0.00    -0.084 Cl
ATOM     30  C   UNL d   1      -1.185  -7.271  -1.024  0.00  0.00     0.024 A 
ATOM     31  C   UNL d   1      -0.458  -7.656  -2.143  0.00  0.00     0.003 A 
ATOM     32  C   UNL d   1       0.144  -6.685  -2.935  0.00  0.00     0.024 A 
ATOM     33  C   UNL d   1       0.011  -5.327  -2.613  0.00  0.00     0.042 A 
ATOM     34 CL   UNL d   1       0.802  -4.201  -3.664  0.00  0.00    -0.084 Cl
ENDBRANCH  26  27
ENDBRANCH  25  26
ENDBRANCH   3  25
TORSDOF 6
