REMARK  7 active torsions:
REMARK  status: ('A' for Active; 'I' for Inactive)
REMARK    1  A    between atoms: N_2  and  C_1 
REMARK    2  A    between atoms: N_3  and  C_1 
REMARK    3  A    between atoms: C_6  and  N_2 
REMARK    4  A    between atoms: C_8  and  N_3 
REMARK    5  A    between atoms: O_13  and  C_5 
REMARK    6  A    between atoms: O_14  and  C_9 
REMARK    7  A    between atoms: O_15  and  C_10 
ROOT
ATOM      1  C   UNL d   1       0.831  -0.611  -0.543  0.00  0.00     0.176 C 
ATOM      2  S   UNL d   1       0.327  -1.978   0.275  0.00  0.00    -0.041 SA
ENDROOT
BRANCH   1   3
ATOM      3  N   UNL d   1       2.166  -0.534  -0.874  0.00  0.00    -0.331 N 
ATOM      4  H   UNL d   1       2.687  -1.396  -0.745  0.00  0.00     0.168 HD
BRANCH   3   5
ATOM      5  C   UNL d   1       2.947   0.607  -1.158  0.00  0.00     0.068 A 
ATOM      6  C   UNL d   1       4.157   0.496  -1.864  0.00  0.00     0.095 A 
ATOM      7  C   UNL d   1       4.958   1.631  -2.044  0.00  0.00     0.039 A 
ATOM      8  C   UNL d   1       4.580   2.867  -1.519  0.00  0.00     0.003 A 
ATOM      9  C   UNL d   1       3.399   2.977  -0.796  0.00  0.00     0.002 A 
ATOM     10  C   UNL d   1       2.587   1.855  -0.619  0.00  0.00     0.032 A 
BRANCH   6  11
ATOM     11  O   UNL d   1       4.699  -0.656  -2.372  0.00  0.00    -0.354 OA
ATOM     12  C   UNL d   1       3.823  -1.516  -3.092  0.00  0.00     0.210 C 
ENDBRANCH   6  11
ENDBRANCH   3   5
ENDBRANCH   1   3
BRANCH   1  13
ATOM     13  N   UNL d   1       0.048   0.398  -1.065  0.00  0.00    -0.333 N 
ATOM     14  H   UNL d   1       0.433   0.800  -1.911  0.00  0.00     0.168 HD
BRANCH  13  15
ATOM     15  C   UNL d   1      -1.251   0.826  -0.725  0.00  0.00     0.037 A 
ATOM     16  C   UNL d   1      -1.976   1.548  -1.687  0.00  0.00     0.069 A 
ATOM     17  C   UNL d   1      -3.258   2.040  -1.402  0.00  0.00     0.103 A 
ATOM     18  C   UNL d   1      -3.794   1.865  -0.115  0.00  0.00     0.101 A 
ATOM     19  C   UNL d   1      -3.069   1.154   0.846  0.00  0.00     0.042 A 
ATOM     20  C   UNL d   1      -1.805   0.643   0.542  0.00  0.00     0.032 A 
BRANCH  17  21
ATOM     21  O   UNL d   1      -4.055   2.717  -2.293  0.00  0.00    -0.353 OA
ATOM     22  C   UNL d   1      -3.597   2.855  -3.629  0.00  0.00     0.210 C 
ENDBRANCH  17  21
BRANCH  18  23
ATOM     23  O   UNL d   1      -5.040   2.385   0.122  0.00  0.00    -0.353 OA
ATOM     24  C   UNL d   1      -5.269   2.833   1.456  0.00  0.00     0.210 C 
ENDBRANCH  18  23
ENDBRANCH  13  15
ENDBRANCH   1  13
TORSDOF 7
