REMARK  6 active torsions:
REMARK  status: ('A' for Active; 'I' for Inactive)
REMARK       I    between atoms: N_2  and  C_1 
REMARK    1  A    between atoms: C_6  and  C_1 
REMARK    2  A    between atoms: CA_3  and  N_2 
REMARK    3  A    between atoms: C_4  and  CA_3 
REMARK    4  A    between atoms: C_9  and  CA_3 
REMARK    5  A    between atoms: O_8  and  C_4 
REMARK    6  A    between atoms: O_10  and  C_9 
ROOT
ATOM      1  C   UNL d   1       1.073   0.002  -0.412  0.00  0.00     0.252 C 
ATOM      2  N   UNL d   1       0.551  -1.146   0.132  0.00  0.00    -0.341 N 
ATOM      3  O   UNL d   1       0.350   0.884  -0.871  0.00  0.00    -0.268 OA
ATOM      4  H   UNL d   1       1.154  -1.909   0.430  0.00  0.00     0.163 HD
ENDROOT
BRANCH   2   5
ATOM      5  CA  UNL d   1      -0.896  -1.362   0.235  0.00  0.00     0.206 C 
BRANCH   5   6
ATOM      6  C   UNL d   1      -1.159  -2.813   0.621  0.00  0.00     0.165 C 
ATOM      7  O   UNL d   1      -0.312  -3.545   1.119  0.00  0.00    -0.648 OA
BRANCH   6   8
ATOM      8  O   UNL d   1      -2.420  -3.235   0.369  0.00  0.00    -0.775 OA
ATOM      9  H   UNL d   1      -3.003  -2.568  -0.046  0.00  0.00     0.167 HD
ENDBRANCH   6   8
ENDBRANCH   5   6
BRANCH   5  10
ATOM     10  C   UNL d   1      -1.538  -0.435   1.277  0.00  0.00     0.200 C 
BRANCH  10  11
ATOM     11  O   UNL d   1      -1.851   0.839   0.716  0.00  0.00    -0.398 OA
ATOM     12  H   UNL d   1      -1.067   1.135   0.198  0.00  0.00     0.209 HD
ENDBRANCH  10  11
ENDBRANCH   5  10
ENDBRANCH   2   5
BRANCH   1  13
ATOM     13  C   UNL d   1       2.548   0.168  -0.400  0.00  0.00     0.032 A 
ATOM     14  C   UNL d   1       3.126   1.015  -1.355  0.00  0.00     0.017 A 
ATOM     15  C   UNL d   1       4.498   1.269  -1.330  0.00  0.00     0.001 A 
ATOM     16  C   UNL d   1       5.295   0.685  -0.347  0.00  0.00     0.000 A 
ATOM     17  C   UNL d   1       4.726  -0.160   0.606  0.00  0.00     0.001 A 
ATOM     18  C   UNL d   1       3.353  -0.421   0.582  0.00  0.00     0.017 A 
ENDBRANCH   1  13
TORSDOF 6
