REMARK  5 active torsions:
REMARK  status: ('A' for Active; 'I' for Inactive)
REMARK    1  A    between atoms: N_3  and  C_1 
REMARK       I    between atoms: C_7  and  N_3 
REMARK       I    between atoms: N_9  and  C_7 
REMARK    2  A    between atoms: C_11  and  N_9 
REMARK    3  A    between atoms: O_12  and  C_13 
REMARK    4  A    between atoms: C_15  and  O_12 
REMARK    5  A    between atoms: C_20  and  C_15 
ROOT
ATOM      1  C   UNL d   1      -1.489  -2.953  -0.391  0.00  0.00     0.036 A 
ATOM      2  C   UNL d   1      -3.495  -0.991  -0.654  0.00  0.00     0.069 A 
ATOM      3  C   UNL d   1      -1.403  -1.966  -1.379  0.00  0.00     0.032 A 
ATOM      4  C   UNL d   1      -2.644  -3.007   0.394  0.00  0.00     0.032 A 
ATOM      5  C   UNL d   1      -3.645  -2.036   0.262  0.00  0.00     0.039 A 
ATOM      6  C   UNL d   1      -2.400  -0.995  -1.512  0.00  0.00     0.039 A 
ENDROOT
BRANCH   1   7
ATOM      7  N   UNL d   1      -0.463  -3.889  -0.124  0.00  0.00    -0.309 N 
ATOM      8  C   UNL d   1       0.840  -3.803  -0.583  0.00  0.00     0.326 C 
ATOM      9  N   UNL d   1       1.625  -4.861  -0.140  0.00  0.00    -0.293 N 
ATOM     10  O   UNL d   1       1.267  -2.892  -1.288  0.00  0.00    -0.247 OA
ATOM     11  H   UNL d   1       1.395  -5.230   0.772  0.00  0.00     0.172 HD
ATOM     12  H   UNL d   1      -0.657  -4.592   0.571  0.00  0.00     0.170 HD
BRANCH   9  13
ATOM     13  C   UNL d   1       2.975  -4.911  -0.486  0.00  0.00     0.127 C 
ATOM     14  N   UNL d   1       3.542  -4.548  -1.692  0.00  0.00    -0.281 N 
ATOM     15  N   UNL d   1       4.891  -4.500  -1.642  0.00  0.00    -0.302 N 
ATOM     16  C   UNL d   1       2.913  -4.336  -2.975  0.00  0.00     0.179 C 
ATOM     17  C   UNL d   1       5.189  -4.903  -0.406  0.00  0.00     0.025 C 
ATOM     18  HN  UNL d   1       5.534  -4.218  -2.382  1.00  0.00     0.186 HD
ATOM     19  C   UNL d   1       4.034  -5.301   0.307  0.00  0.00     0.076 C 
ATOM     20  C   UNL d   1       6.589  -4.829   0.073  0.00  0.00     0.070 C 
ENDBRANCH   9  13
ENDBRANCH   1   7
BRANCH   2  21
ATOM     21  O   UNL d   1      -4.351   0.070  -0.782  0.00  0.00    -0.347 OA
BRANCH  21  22
ATOM     22  C   UNL d   1      -5.016   0.443   0.428  0.00  0.00     0.214 C 
BRANCH  22  23
ATOM     23  C   UNL d   1      -5.344   1.918   0.422  0.00  0.00    -0.034 A 
ATOM     24  C   UNL d   1      -6.247   2.452  -0.506  0.00  0.00     0.009 A 
ATOM     25  C   UNL d   1      -6.581   3.808  -0.467  0.00  0.00     0.001 A 
ATOM     26  C   UNL d   1      -6.014   4.643   0.495  0.00  0.00     0.000 A 
ATOM     27  C   UNL d   1      -5.108   4.125   1.418  0.00  0.00     0.001 A 
ATOM     28  C   UNL d   1      -4.773   2.771   1.380  0.00  0.00     0.009 A 
ENDBRANCH  22  23
ENDBRANCH  21  22
ENDBRANCH   2  21
TORSDOF 5
