REMARK  2 active torsions:
REMARK  status: ('A' for Active; 'I' for Inactive)
REMARK    1  A    between atoms: C_12  and  N_6 
REMARK    2  A    between atoms: C_13  and  N_7 
ROOT
ATOM      1  C   UNL d   1       0.224   0.835  -0.014  0.00  0.00     0.086 A 
ATOM      2  C   UNL d   1       0.286  -0.649  -0.075  0.00  0.00     0.144 A 
ATOM      3  C   UNL d   1       1.603   1.322   0.014  0.00  0.00     0.281 A 
ATOM      4  N   UNL d   1       1.546  -1.023  -0.122  0.00  0.00    -0.274 N 
ATOM      5  HN  UNL d   1       1.886  -1.982  -0.193  1.00  0.00     0.189 HD
ATOM      6  N   UNL d   1       2.338   0.134  -0.057  0.00  0.00    -0.218 N 
ATOM      7  N   UNL d   1      -0.902  -1.415  -0.091  0.00  0.00    -0.300 N 
ATOM      8  C   UNL d   1      -0.960   1.460  -0.011  0.00  0.00    -0.041 A 
ATOM      9  C   UNL d   1      -2.140  -0.705  -0.032  0.00  0.00     0.015 A 
ATOM     10  C   UNL d   1      -2.170   0.649  -0.009  0.00  0.00     0.033 A 
ATOM     11  O   UNL d   1       1.942   2.490   0.078  0.00  0.00    -0.265 OA
ATOM     12  C   UNL d   1      -1.157   2.946   0.020  0.00  0.00     0.049 C 
ATOM     13  C   UNL d   1      -3.468  -1.409   0.121  0.00  0.00     0.068 C 
ENDROOT
BRANCH   6  14
ATOM     14  C   UNL d   1       3.751   0.010  -0.073  0.00  0.00     0.060 A 
ATOM     15  C   UNL d   1       4.589   1.121   0.108  0.00  0.00     0.031 A 
ATOM     16  C   UNL d   1       5.981   0.997   0.065  0.00  0.00     0.002 A 
ATOM     17  C   UNL d   1       6.562  -0.246  -0.164  0.00  0.00     0.000 A 
ATOM     18  C   UNL d   1       5.751  -1.363  -0.334  0.00  0.00     0.002 A 
ATOM     19  C   UNL d   1       4.357  -1.238  -0.283  0.00  0.00     0.031 A 
ENDBRANCH   6  14
BRANCH   7  20
ATOM     20  C   UNL d   1      -0.816  -2.851  -0.112  0.00  0.00     0.041 A 
ATOM     21  C   UNL d   1       0.140  -3.536   0.660  0.00  0.00     0.030 A 
ATOM     22  C   UNL d   1       0.220  -4.935   0.662  0.00  0.00     0.002 A 
ATOM     23  C   UNL d   1      -0.672  -5.686  -0.096  0.00  0.00     0.000 A 
ATOM     24  C   UNL d   1      -1.620  -5.038  -0.878  0.00  0.00     0.002 A 
ATOM     25  C   UNL d   1      -1.672  -3.638  -0.903  0.00  0.00     0.030 A 
ENDBRANCH   7  20
TORSDOF 2
