REMARK  4 active torsions:
REMARK  status: ('A' for Active; 'I' for Inactive)
REMARK    1  A    between atoms: C_6  and  C_1 
REMARK    2  A    between atoms: N_7  and  C_2 
REMARK    3  A    between atoms: O_9  and  C_6 
REMARK    4  A    between atoms: C_12  and  O_9 
ROOT
ATOM      1  C   UNL d   1      -0.915  -1.477  -0.100  0.00  0.00     0.080 A 
ATOM      2  C   UNL d   1      -1.897  -0.495  -0.036  0.00  0.00     0.085 A 
ATOM      3  S   UNL d   1      -1.242   1.081   0.065  0.00  0.00    -0.076 SA
ATOM      4  C   UNL d   1       0.405  -0.880  -0.015  0.00  0.00    -0.026 A 
ATOM      5  C   UNL d   1       0.347   0.498   0.030  0.00  0.00    -0.008 A 
ATOM      6  C   UNL d   1       1.723  -1.606  -0.035  0.00  0.00     0.041 C 
ATOM      7  C   UNL d   1       1.526   1.420   0.084  0.00  0.00     0.047 C 
ATOM      8  C   UNL d   1       2.876  -0.705   0.430  0.00  0.00     0.005 C 
ATOM      9  C   UNL d   1       2.824   0.669  -0.249  0.00  0.00     0.005 C 
ENDROOT
BRANCH   1  10
ATOM     10  C   UNL d   1      -1.159  -2.911  -0.288  0.00  0.00     0.296 C 
ATOM     11  O   UNL d   1      -0.259  -3.733  -0.427  0.00  0.00    -0.259 OA
BRANCH  10  12
ATOM     12  O   UNL d   1      -2.487  -3.233  -0.385  0.00  0.00    -0.318 OA
BRANCH  12  13
ATOM     13  C   UNL d   1      -2.763  -4.459  -1.073  0.00  0.00     0.174 C 
ATOM     14  C   UNL d   1      -2.797  -4.167  -2.564  0.00  0.00     0.034 C 
ENDBRANCH  12  13
ENDBRANCH  10  12
ENDBRANCH   1  10
BRANCH   2  15
ATOM     15  N   UNL d   1      -3.243  -0.639  -0.066  0.00  0.00    -0.393 N 
ATOM     16  H   UNL d   1      -3.659  -1.559   0.059  0.00  0.00     0.156 HD
ATOM     17  H   UNL d   1      -3.836   0.141   0.199  0.00  0.00     0.156 HD
ENDBRANCH   2  15
TORSDOF 4
