REMARK  1 active torsions:
REMARK  status: ('A' for Active; 'I' for Inactive)
REMARK    1  A    between atoms: C_7  and  N_1 
ROOT
ATOM      1  N   UNL d   1      -1.173   0.638  -0.062  0.00  0.00    -0.233 N 
ATOM      2  C   UNL d   1      -1.259  -0.747  -0.140  0.00  0.00     0.336 C 
ATOM      3  C   UNL d   1       0.022   1.349  -0.108  0.00  0.00     0.241 C 
ATOM      4  N   UNL d   1      -0.080  -1.434  -0.174  0.00  0.00    -0.278 N 
ATOM      5  C   UNL d   1       1.170  -0.913  -0.278  0.00  0.00     0.234 C 
ATOM      6  C   UNL d   1       1.294   0.561  -0.144  0.00  0.00     0.206 C 
ATOM      7  O   UNL d   1      -2.300  -1.400  -0.222  0.00  0.00    -0.246 OA
ATOM      8  O   UNL d   1       0.104   2.580  -0.076  0.00  0.00    -0.272 OA
ATOM      9  O   UNL d   1       2.142  -1.639  -0.456  0.00  0.00    -0.273 OA
ATOM     10  H   UNL d   1      -0.162  -2.436  -0.282  0.00  0.00     0.173 HD
ENDROOT
BRANCH   1  11
ATOM     11  C   UNL d   1      -2.396   1.380  -0.013  0.00  0.00     0.053 A 
ATOM     12  C   UNL d   1      -3.329   1.212   1.031  0.00  0.00    -0.035 A 
ATOM     13  C   UNL d   1      -3.104   0.321   2.224  0.00  0.00     0.050 C 
ATOM     14  C   UNL d   1      -4.527   1.950   0.996  0.00  0.00     0.009 A 
ATOM     15  C   UNL d   1      -4.794   2.840  -0.044  0.00  0.00     0.001 A 
ATOM     16  C   UNL d   1      -3.865   3.016  -1.063  0.00  0.00     0.002 A 
ATOM     17  C   UNL d   1      -2.670   2.299  -1.042  0.00  0.00     0.031 A 
ENDBRANCH   1  11
TORSDOF 1
