REMARK  5 active torsions:
REMARK  status: ('A' for Active; 'I' for Inactive)
REMARK    1  A    between atoms: C_5  and  C_1 
REMARK    2  A    between atoms: N_9  and  C_2 
REMARK    3  A    between atoms: C_8  and  C_17 
REMARK       I    between atoms: C_10  and  N_9 
REMARK    4  A    between atoms: O_19  and  C_10 
REMARK    5  A    between atoms: N_11  and  O_19 
ROOT
ATOM      1  N   UNL d   1       0.413  -2.627  -0.334  0.00  0.00    -0.297 N 
ATOM      2  C   UNL d   1       1.496  -3.147  -0.976  0.00  0.00     0.387 C 
ATOM      3  O   UNL d   1       1.715  -4.360  -0.924  0.00  0.00    -0.236 OA
ATOM      4  H   UNL d   1      -0.174  -3.349   0.065  0.00  0.00     0.171 HD
ENDROOT
BRANCH   1   5
ATOM      5  C   UNL d   1       0.040  -1.314  -0.108  0.00  0.00     0.098 A 
ATOM      6  C   UNL d   1      -1.306  -0.883   0.163  0.00  0.00     0.098 A 
ATOM      7  N   UNL d   1      -1.329   0.436   0.395  0.00  0.00    -0.258 N 
ATOM      8  O   UNL d   1      -0.040   0.883   0.248  0.00  0.00    -0.240 OA
ATOM      9  HN  UNL d   1      -2.146   0.999   0.633  1.00  0.00     0.195 HD
ATOM     10  C   UNL d   1       0.794  -0.159  -0.019  0.00  0.00     0.101 A 
ATOM     11  C   UNL d   1       2.222   0.219  -0.040  0.00  0.00     0.081 C 
BRANCH   6  12
ATOM     12  C   UNL d   1      -2.549  -1.670   0.116  0.00  0.00     0.038 A 
ATOM     13  C   UNL d   1      -2.690  -2.895   0.804  0.00  0.00     0.048 A 
ATOM     14 CL   UNL d   1      -1.494  -3.530   1.887  0.00  0.00    -0.083 Cl
ATOM     15  C   UNL d   1      -3.850  -3.673   0.675  0.00  0.00     0.025 A 
ATOM     16  C   UNL d   1      -4.922  -3.218  -0.083  0.00  0.00     0.003 A 
ATOM     17  C   UNL d   1      -4.825  -1.996  -0.735  0.00  0.00     0.025 A 
ATOM     18  C   UNL d   1      -3.647  -1.238  -0.662  0.00  0.00     0.048 A 
ATOM     19 CL   UNL d   1      -3.633   0.204  -1.626  0.00  0.00    -0.083 Cl
ENDBRANCH   6  12
ENDBRANCH   1   5
BRANCH   2  20
ATOM     20  O   UNL d   1       2.208  -2.255  -1.720  0.00  0.00    -0.181 OA
BRANCH  20  21
ATOM     21  N   UNL d   1       3.557  -2.575  -1.562  0.00  0.00    -0.267 N 
ATOM     22  C   UNL d   1       4.247  -2.248  -2.600  0.00  0.00     0.131 C 
ATOM     23  HN  UNL d   1       3.949  -3.014  -0.729  1.00  0.00     0.194 HD
BRANCH  22  24
ATOM     24  C   UNL d   1       5.708  -2.428  -2.581  0.00  0.00     0.042 A 
ATOM     25  C   UNL d   1       6.333  -2.924  -1.428  0.00  0.00     0.129 A 
ATOM     26  F   UNL d   1       5.638  -3.275  -0.335  0.00  0.00    -0.205 F 
ATOM     27  C   UNL d   1       7.713  -3.060  -1.355  0.00  0.00     0.043 A 
ATOM     28  C   UNL d   1       8.497  -2.699  -2.446  0.00  0.00     0.005 A 
ATOM     29  C   UNL d   1       7.891  -2.211  -3.602  0.00  0.00     0.025 A 
ATOM     30  C   UNL d   1       6.498  -2.072  -3.680  0.00  0.00     0.048 A 
ATOM     31 CL   UNL d   1       5.846  -1.448  -5.150  0.00  0.00    -0.083 Cl
ENDBRANCH  22  24
ENDBRANCH  20  21
ENDBRANCH   2  20
TORSDOF 5
