REMARK  5 active torsions:
REMARK  status: ('A' for Active; 'I' for Inactive)
REMARK    1  A    between atoms: C_8  and  C_1 
REMARK    2  A    between atoms: S_14  and  C_5 
REMARK    3  A    between atoms: C_9  and  N_11 
REMARK    4  A    between atoms: C_10  and  C_23 
REMARK       I    between atoms: N_11  and  C_10 
REMARK    5  A    between atoms: C_23  and  S_14 
ROOT
ATOM      1  C   UNL d   1       2.870  -4.047   4.442  0.00  0.00     0.119 C 
ATOM      2  S   UNL d   1       3.016  -2.737   3.332  0.00  0.00    -0.043 SA
ATOM      3  N   UNL d   1       1.670  -4.598   4.450  0.00  0.00    -0.290 N 
ATOM      4  HN  UNL d   1       1.381  -5.322   5.108  1.00  0.00     0.187 HD
ATOM      5  C   UNL d   1       1.468  -3.158   2.759  0.00  0.00     0.129 C 
ATOM      6  N   UNL d   1       0.852  -4.081   3.466  0.00  0.00    -0.287 N 
ATOM      7  HN  UNL d   1      -0.111  -4.378   3.307  1.00  0.00     0.188 HD
ENDROOT
BRANCH   5   8
ATOM      8  S   UNL d   1       0.755  -2.586   1.275  0.00  0.00    -0.094 SA
BRANCH   8   9
ATOM      9  C   UNL d   1       1.995  -3.153   0.081  0.00  0.00     0.184 C 
BRANCH   9  10
ATOM     10  C   UNL d   1       2.276  -4.655   0.035  0.00  0.00     0.231 C 
ATOM     11  N   UNL d   1       1.409  -5.485   0.716  0.00  0.00    -0.326 N 
ATOM     12  H   UNL d   1       0.608  -5.046   1.163  0.00  0.00     0.169 HD
ATOM     13  O   UNL d   1       3.228  -5.043  -0.644  0.00  0.00    -0.272 OA
BRANCH  11  14
ATOM     14  C   UNL d   1       1.474  -6.893   0.813  0.00  0.00     0.037 A 
ATOM     15  C   UNL d   1       2.557  -7.657   0.368  0.00  0.00     0.053 A 
ATOM     16  C   UNL d   1       2.510  -9.052   0.432  0.00  0.00     0.037 A 
ATOM     17 CL   UNL d   1       3.846  -9.977  -0.139  0.00  0.00    -0.084 Cl
ATOM     18  C   UNL d   1       1.394  -9.705   0.942  0.00  0.00     0.048 A 
ATOM     19  C   UNL d   1       0.333  -8.946   1.422  0.00  0.00     0.037 A 
ATOM     20  C   UNL d   1       0.373  -7.550   1.378  0.00  0.00     0.053 A 
ATOM     21 CL   UNL d   1      -1.058  -9.738   2.057  0.00  0.00    -0.084 Cl
ENDBRANCH  11  14
ENDBRANCH   9  10
ENDBRANCH   8   9
ENDBRANCH   5   8
BRANCH   1  22
ATOM     22  C   UNL d   1       4.014  -4.522   5.221  0.00  0.00     0.083 A 
ATOM     23  N   UNL d   1       5.217  -3.918   5.010  0.00  0.00    -0.361 N 
ATOM     24  C   UNL d   1       6.270  -4.452   5.666  0.00  0.00     0.105 A 
ATOM     25  HN  UNL d   1       5.317  -3.111   4.394  1.00  0.00     0.165 HD
ATOM     26  C   UNL d   1       6.146  -5.546   6.502  0.00  0.00     0.104 A 
ATOM     27  N   UNL d   1       4.959  -6.148   6.735  0.00  0.00    -0.372 N 
ATOM     28  C   UNL d   1       3.901  -5.615   6.072  0.00  0.00     0.120 A 
ATOM     29  HN  UNL d   1       4.864  -6.945   7.363  1.00  0.00     0.164 HD
ENDBRANCH   1  22
TORSDOF 5
