REMARK  4 active torsions:
REMARK  status: ('A' for Active; 'I' for Inactive)
REMARK       I    between atoms: N_2  and  C_1 
REMARK    1  A    between atoms: O_3  and  C_1 
REMARK    2  A    between atoms: C_7  and  N_2 
REMARK    3  A    between atoms: C_6  and  O_3 
REMARK    4  A    between atoms: C_8  and  C_7 
ROOT
ATOM      1  C   UNL d   1       1.169   0.003  -0.075  0.00  0.00     0.361 C 
ATOM      2  N   UNL d   1       0.431   0.046  -1.221  0.00  0.00    -0.337 N 
ATOM      3  O   UNL d   1       2.390   0.021  -0.046  0.00  0.00    -0.238 OA
ATOM      4  H   UNL d   1      -0.574   0.067  -1.117  0.00  0.00     0.164 HD
ENDROOT
BRANCH   2   5
ATOM      5  C   UNL d   1       1.076   0.064  -2.514  0.00  0.00     0.129 C 
BRANCH   5   6
ATOM      6  C   UNL d   1       0.099   0.035  -3.698  0.00  0.00     0.007 C 
ATOM      7  C   UNL d   1      -0.789  -1.219  -3.716  0.00  0.00     0.036 C 
ATOM      8  C   UNL d   1       0.001  -2.480  -4.065  0.00  0.00     0.270 C 
ATOM      9  N   UNL d   1       0.688  -2.335  -5.347  0.00  0.00     0.083 N 
ATOM     10  C   UNL d   1       1.597  -1.191  -5.360  0.00  0.00     0.270 C 
ATOM     11  H   UNL d   1       1.213  -3.186  -5.546  0.00  0.00     0.315 HD
ATOM     12  C   UNL d   1       0.866   0.113  -5.031  0.00  0.00     0.036 C 
ENDBRANCH   5   6
ENDBRANCH   2   5
BRANCH   1  13
ATOM     13  O   UNL d   1       0.348  -0.071   0.999  0.00  0.00    -0.294 OA
BRANCH  13  14
ATOM     14  C   UNL d   1       0.916  -0.133   2.335  0.00  0.00     0.061 C 
ATOM     15  C   UNL d   1       1.672   1.159   2.670  0.00  0.00     0.046 C 
ATOM     16  C   UNL d   1      -0.289  -0.252   3.283  0.00  0.00     0.046 C 
ATOM     17  C   UNL d   1       1.794  -1.377   2.522  0.00  0.00     0.046 C 
ENDBRANCH  13  14
ENDBRANCH   1  13
TORSDOF 4
