REMARK  3 active torsions:
REMARK  status: ('A' for Active; 'I' for Inactive)
REMARK    1  A    between atoms: C_2  and  C_1 
REMARK       I    between atoms: N_4  and  C_2 
REMARK    2  A    between atoms: C_8  and  C_12 
REMARK    3  A    between atoms: O_16  and  C_8 
ROOT
ATOM      1  C   UNL d   1       1.564   2.591  -0.220  0.00  0.00     0.256 C 
ATOM      2  N   UNL d   1       0.969   3.847  -0.002  0.00  0.00    -0.348 N 
ATOM      3  O   UNL d   1       1.543   1.716   0.644  0.00  0.00    -0.267 OA
ATOM      4  C   UNL d   1       0.597   4.790  -1.057  0.00  0.00     0.127 C 
ATOM      5  C   UNL d   1       0.245   4.054   1.252  0.00  0.00     0.127 C 
ATOM      6  C   UNL d   1       0.149   6.548   0.711  0.00  0.00     0.087 C 
ATOM      7  C   UNL d   1       0.873   6.219  -0.599  0.00  0.00     0.035 C 
ATOM      8  C   UNL d   1       0.429   5.481   1.775  0.00  0.00     0.035 C 
ENDROOT
BRANCH   1   9
ATOM      9  C   UNL d   1       2.217   2.341  -1.504  0.00  0.00     0.063 C 
ATOM     10  C   UNL d   1       2.262   1.117  -2.159  0.00  0.00     0.065 C 
ATOM     11  O   UNL d   1       2.856   1.252  -3.381  0.00  0.00    -0.319 OA
ATOM     12  C   UNL d   1       1.798  -0.251  -1.838  0.00  0.00     0.077 C 
ATOM     13  C   UNL d   1       3.261   2.543  -3.492  0.00  0.00     0.050 C 
ATOM     14  C   UNL d   1       2.984   3.220  -2.329  0.00  0.00     0.051 C 
ATOM     15  C   UNL d   1       3.880   2.941  -4.770  0.00  0.00     0.076 C 
ENDBRANCH   1   9
BRANCH   6  16
ATOM     16  C   UNL d   1      -1.346   6.726   0.484  0.00  0.00     0.143 C 
ATOM     17  O   UNL d   1      -1.994   6.176  -0.390  0.00  0.00    -0.650 OA
BRANCH  16  18
ATOM     18  O   UNL d   1      -1.923   7.570   1.372  0.00  0.00    -0.776 OA
ATOM     19  H   UNL d   1      -1.310   7.970   2.013  0.00  0.00     0.167 HD
ENDBRANCH  16  18
ENDBRANCH   6  16
TORSDOF 3
