REMARK  6 active torsions:
REMARK  status: ('A' for Active; 'I' for Inactive)
REMARK    1  A    between atoms: C_5  and  C_1 
REMARK    2  A    between atoms: N_9  and  C_2 
REMARK       I    between atoms: C_8  and  N_9 
REMARK    3  A    between atoms: O_12  and  C_8 
REMARK    4  A    between atoms: N_14  and  O_12 
REMARK    5  A    between atoms: C_21  and  N_14 
REMARK    6  A    between atoms: C_22  and  N_14 
ROOT
ATOM      1  C   UNL d   1      -1.472  -0.907   0.261  0.00  0.00     0.098 A 
ATOM      2  C   UNL d   1      -0.237  -1.187  -0.419  0.00  0.00     0.098 A 
ATOM      3  N   UNL d   1      -1.967   0.271  -0.146  0.00  0.00    -0.258 N 
ATOM      4  HN  UNL d   1      -2.865   0.679   0.114  1.00  0.00     0.195 HD
ATOM      5  C   UNL d   1       0.017  -0.041  -1.140  0.00  0.00     0.101 A 
ATOM      6  O   UNL d   1      -1.024   0.820  -0.983  0.00  0.00    -0.240 OA
ATOM      7  C   UNL d   1       1.068   0.429  -2.064  0.00  0.00     0.081 C 
ENDROOT
BRANCH   2   8
ATOM      8  N   UNL d   1       0.485  -2.374  -0.371  0.00  0.00    -0.297 N 
ATOM      9  C   UNL d   1       1.778  -2.574  -0.764  0.00  0.00     0.382 C 
ATOM     10  O   UNL d   1       2.626  -1.715  -0.948  0.00  0.00    -0.237 OA
ATOM     11  H   UNL d   1      -0.010  -3.207  -0.080  0.00  0.00     0.171 HD
BRANCH   9  12
ATOM     12  O   UNL d   1       1.999  -3.918  -0.999  0.00  0.00    -0.206 OA
BRANCH  12  13
ATOM     13  N   UNL d   1       2.701  -4.543   0.126  0.00  0.00    -0.187 NA
BRANCH  13  14
ATOM     14  C   UNL d   1       1.857  -5.673   0.552  0.00  0.00     0.117 C 
ATOM     15  C   UNL d   1       1.543  -6.736  -0.500  0.00  0.00     0.023 C 
ENDBRANCH  13  14
BRANCH  13  16
ATOM     16  C   UNL d   1       3.998  -5.001  -0.405  0.00  0.00     0.117 C 
ATOM     17  C   UNL d   1       4.963  -3.850  -0.653  0.00  0.00     0.023 C 
ENDBRANCH  13  16
ENDBRANCH  12  13
ENDBRANCH   9  12
ENDBRANCH   2   8
BRANCH   1  18
ATOM     18  C   UNL d   1      -2.130  -1.666   1.332  0.00  0.00     0.038 A 
ATOM     19  C   UNL d   1      -2.408  -1.051   2.574  0.00  0.00     0.048 A 
ATOM     20 CL   UNL d   1      -2.043   0.609   2.926  0.00  0.00    -0.083 Cl
ATOM     21  C   UNL d   1      -2.966  -1.779   3.635  0.00  0.00     0.025 A 
ATOM     22  C   UNL d   1      -3.234  -3.135   3.494  0.00  0.00     0.003 A 
ATOM     23  C   UNL d   1      -2.977  -3.759   2.277  0.00  0.00     0.025 A 
ATOM     24  C   UNL d   1      -2.450  -3.031   1.199  0.00  0.00     0.048 A 
ATOM     25 CL   UNL d   1      -2.246  -3.915  -0.278  0.00  0.00    -0.083 Cl
ENDBRANCH   1  18
TORSDOF 6
