REMARK  4 active torsions:
REMARK  status: ('A' for Active; 'I' for Inactive)
REMARK    1  A    between atoms: C_2  and  S_1 
REMARK    2  A    between atoms: N_7  and  S_1 
REMARK    3  A    between atoms: N_3  and  C_11 
REMARK    4  A    between atoms: C_14  and  C_8 
ROOT
ATOM      1  C   UNL d   1       0.447  -0.019   1.766  0.00  0.00     0.074 A 
ATOM      2  C   UNL d   1       0.264  -1.238   2.421  0.00  0.00     0.027 A 
ATOM      3  C   UNL d   1       0.258   1.185   2.445  0.00  0.00     0.027 A 
ATOM      4  C   UNL d   1      -0.389  -0.052   4.443  0.00  0.00     0.032 A 
ATOM      5  C   UNL d   1      -0.160   1.160   3.778  0.00  0.00     0.031 A 
ATOM      6  C   UNL d   1      -0.140  -1.250   3.758  0.00  0.00     0.031 A 
ENDROOT
BRANCH   4   7
ATOM      7  N   UNL d   1      -0.845   0.016   5.771  0.00  0.00    -0.365 N 
ATOM      8  C   UNL d   1      -1.700  -0.858   6.197  0.00  0.00     0.099 C 
ATOM      9  HN  UNL d   1      -0.505   0.748   6.394  1.00  0.00     0.165 HD
BRANCH   8  10
ATOM     10  C   UNL d   1      -2.287  -0.788   7.551  0.00  0.00    -0.021 A 
ATOM     11  C   UNL d   1      -2.032   0.301   8.388  0.00  0.00     0.013 A 
ATOM     12  C   UNL d   1      -2.658   0.377   9.634  0.00  0.00     0.001 A 
ATOM     13  C   UNL d   1      -3.528  -0.635  10.042  0.00  0.00     0.000 A 
ATOM     14  C   UNL d   1      -3.770  -1.729   9.211  0.00  0.00     0.001 A 
ATOM     15  C   UNL d   1      -3.150  -1.808   7.963  0.00  0.00     0.013 A 
ENDBRANCH   8  10
ENDBRANCH   4   7
BRANCH   1  16
ATOM     16  S   UNL d   1       0.891  -0.000   0.056  0.00  0.00     0.239 S 
ATOM     17  O   UNL d   1       0.797  -1.340  -0.477  0.00  0.00    -0.206 OA
ATOM     18  O   UNL d   1       2.058   0.829  -0.115  0.00  0.00    -0.206 OA
BRANCH  16  19
ATOM     19  N   UNL d   1      -0.393   0.836  -0.636  0.00  0.00    -0.225 NA
ATOM     20  H   UNL d   1      -0.961   0.201  -1.196  0.00  0.00     0.136 HD
ATOM     21  H   UNL d   1      -0.038   1.640  -1.155  0.00  0.00     0.136 HD
ENDBRANCH  16  19
ENDBRANCH   1  16
TORSDOF 4
