REMARK  6 active torsions:
REMARK  status: ('A' for Active; 'I' for Inactive)
REMARK    1  A    between atoms: C_4  and  C_3 
REMARK    2  A    between atoms: S_12  and  C_5 
REMARK       I    between atoms: C_9  and  N_11 
REMARK    3  A    between atoms: C_14  and  C_9 
REMARK    4  A    between atoms: C_10  and  C_17 
REMARK       I    between atoms: N_13  and  C_10 
REMARK    5  A    between atoms: N_11  and  N_13 
REMARK    6  A    between atoms: C_17  and  S_12 
ROOT
ATOM      1  S   UNL d   1      -1.442  -3.200   0.125  0.00  0.00    -0.120 SA
ENDROOT
BRANCH   1   2
ATOM      2  C   UNL d   1      -1.045  -1.449  -0.026  0.00  0.00     0.015 A 
ATOM      3  C   UNL d   1      -0.403  -0.693   0.988  0.00  0.00     0.007 A 
ATOM      4  C   UNL d   1      -0.208   0.682   0.729  0.00  0.00     0.044 A 
ATOM      5  C   UNL d   1       0.037  -1.208   2.234  0.00  0.00     0.015 A 
ATOM      6  N   UNL d   1      -0.608   1.278  -0.404  0.00  0.00    -0.352 N 
ATOM      7  C   UNL d   1       0.411   1.474   1.686  0.00  0.00     0.030 A 
ATOM      8  C   UNL d   1      -1.248   0.547  -1.354  0.00  0.00     0.118 A 
ATOM      9  HN  UNL d   1      -0.433   2.272  -0.551  1.00  0.00     0.166 HD
ATOM     10  C   UNL d   1      -1.474  -0.816  -1.197  0.00  0.00     0.053 A 
ATOM     11  C   UNL d   1       0.846   0.954   2.905  0.00  0.00     0.002 A 
ATOM     12  C   UNL d   1       0.658  -0.392   3.180  0.00  0.00     0.001 A 
BRANCH   8  13
ATOM     13  C   UNL d   1      -1.744   1.239  -2.617  0.00  0.00     0.432 C 
ATOM     14  F   UNL d   1      -1.519   2.582  -2.651  0.00  0.00    -0.165 F 
ATOM     15  F   UNL d   1      -1.165   0.735  -3.746  0.00  0.00    -0.165 F 
ATOM     16  F   UNL d   1      -3.089   1.084  -2.799  0.00  0.00    -0.165 F 
ENDBRANCH   8  13
ENDBRANCH   1   2
BRANCH   1  17
ATOM     17  C   UNL d   1       0.210  -3.924  -0.139  0.00  0.00     0.184 C 
BRANCH  17  18
ATOM     18  C   UNL d   1       0.183  -5.440  -0.040  0.00  0.00     0.245 C 
ATOM     19  N   UNL d   1      -0.738  -6.079  -0.845  0.00  0.00    -0.267 N 
ATOM     20  H   UNL d   1      -1.533  -5.605  -1.274  0.00  0.00     0.190 HD
ATOM     21  O   UNL d   1       1.002  -6.069   0.634  0.00  0.00    -0.271 OA
BRANCH  19  22
ATOM     22  N   UNL d   1      -0.752  -7.478  -0.854  0.00  0.00    -0.263 N 
ATOM     23  C   UNL d   1      -1.731  -8.134  -1.570  0.00  0.00     0.270 C 
ATOM     24  O   UNL d   1      -2.645  -7.549  -2.143  0.00  0.00    -0.266 OA
ATOM     25  H   UNL d   1      -0.072  -7.941  -0.253  0.00  0.00     0.190 HD
BRANCH  23  26
ATOM     26  C   UNL d   1      -1.634  -9.620  -1.606  0.00  0.00     0.033 A 
ATOM     27  C   UNL d   1      -2.811 -10.369  -1.747  0.00  0.00     0.019 A 
ATOM     28  C   UNL d   1      -2.753 -11.765  -1.811  0.00  0.00     0.025 A 
ATOM     29  C   UNL d   1      -1.521 -12.413  -1.747  0.00  0.00     0.034 A 
ATOM     30  C   UNL d   1      -0.343 -11.677  -1.621  0.00  0.00     0.025 A 
ATOM     31 CL   UNL d   1      -1.448 -14.129  -1.838  0.00  0.00    -0.084 Cl
ATOM     32  C   UNL d   1      -0.397 -10.280  -1.552  0.00  0.00     0.019 A 
ENDBRANCH  23  26
ENDBRANCH  19  22
ENDBRANCH  17  18
ENDBRANCH   1  17
TORSDOF 6
