REMARK  1 active torsions:
REMARK  status: ('A' for Active; 'I' for Inactive)
REMARK    1  A    between atoms: C_11  and  C_5 
ROOT
ATOM      1  N   UNL d   1      -0.302   0.693   0.021  0.00  0.00    -0.316 N 
ATOM      2  N   UNL d   1      -1.601  -1.127   0.056  0.00  0.00    -0.340 N 
ATOM      3  HN  UNL d   1      -1.919  -2.096   0.068  1.00  0.00     0.167 HD
ATOM      4  C   UNL d   1      -0.356  -0.696   0.044  0.00  0.00     0.111 A 
ATOM      5  C   UNL d   1      -2.381   0.008   0.048  0.00  0.00     0.060 A 
ATOM      6  C   UNL d   1      -1.596   1.141   0.018  0.00  0.00     0.128 A 
ATOM      7  C   UNL d   1       0.884   1.421   0.001  0.00  0.00     0.104 A 
ATOM      8  C   UNL d   1       0.884  -1.390   0.037  0.00  0.00     0.050 A 
ATOM      9  C   UNL d   1       2.062   0.768   0.000  0.00  0.00    -0.046 A 
ATOM     10  C   UNL d   1       2.040  -0.698   0.014  0.00  0.00     0.012 A 
ATOM     11  C   UNL d   1       3.395   1.450  -0.005  0.00  0.00     0.049 C 
ENDROOT
BRANCH   5  12
ATOM     12  C   UNL d   1      -3.832  -0.018   0.015  0.00  0.00    -0.008 A 
ATOM     13  C   UNL d   1      -4.492  -1.132  -0.522  0.00  0.00     0.015 A 
ATOM     14  C   UNL d   1      -5.888  -1.156  -0.614  0.00  0.00     0.024 A 
ATOM     15  C   UNL d   1      -6.629  -0.069  -0.156  0.00  0.00     0.034 A 
ATOM     16  C   UNL d   1      -5.990   1.033   0.405  0.00  0.00     0.024 A 
ATOM     17 CL   UNL d   1      -8.343  -0.085  -0.290  0.00  0.00    -0.084 Cl
ATOM     18  C   UNL d   1      -4.595   1.059   0.491  0.00  0.00     0.015 A 
ENDBRANCH   5  12
TORSDOF 1
