REMARK  4 active torsions:
REMARK  status: ('A' for Active; 'I' for Inactive)
REMARK    1  A    between atoms: N_10  and  C_2 
REMARK    2  A    between atoms: C_8  and  C_6 
REMARK    3  A    between atoms: O_20  and  C_7 
REMARK       I    between atoms: C_9  and  N_10 
REMARK       I    between atoms: N_12  and  C_9 
REMARK    4  A    between atoms: C_21  and  N_12 
ROOT
ATOM      1  C   UNL d   1      -0.147  -0.814   0.123  0.00  0.00     0.051 A 
ATOM      2  C   UNL d   1       1.236  -1.128  -0.137  0.00  0.00     0.057 A 
ATOM      3  N   UNL d   1      -1.868   0.902  -0.037  0.00  0.00    -0.351 N 
ATOM      4  HN  UNL d   1      -2.120   1.865  -0.261  1.00  0.00     0.166 HD
ATOM      5  C   UNL d   1      -0.596   0.493  -0.166  0.00  0.00     0.048 A 
ATOM      6  C   UNL d   1      -2.819   0.031   0.393  0.00  0.00     0.119 A 
ATOM      7  C   UNL d   1      -1.173  -1.685   0.586  0.00  0.00     0.085 A 
ATOM      8  C   UNL d   1      -2.495  -1.269   0.730  0.00  0.00     0.072 A 
ATOM      9  C   UNL d   1       2.104  -0.161  -0.692  0.00  0.00    -0.034 A 
ATOM     10  C   UNL d   1       0.290   1.433  -0.658  0.00  0.00     0.031 A 
ATOM     11  C   UNL d   1       1.620   1.124  -0.929  0.00  0.00     0.011 A 
ATOM     12  C   UNL d   1       3.520  -0.473  -1.102  0.00  0.00     0.050 C 
ENDROOT
BRANCH   2  13
ATOM     13  N   UNL d   1       1.731  -2.451  -0.061  0.00  0.00    -0.307 N 
ATOM     14  C   UNL d   1       2.144  -3.140   1.052  0.00  0.00     0.325 C 
ATOM     15  N   UNL d   1       1.702  -2.708   2.268  0.00  0.00    -0.309 N 
ATOM     16  O   UNL d   1       2.910  -4.080   0.846  0.00  0.00    -0.247 OA
ATOM     17  H   UNL d   1       0.961  -2.023   2.245  0.00  0.00     0.170 HD
ATOM     18  H   UNL d   1       2.365  -2.723  -0.805  0.00  0.00     0.170 HD
BRANCH  15  19
ATOM     19  C   UNL d   1       2.004  -3.263   3.534  0.00  0.00     0.036 A 
ATOM     20  C   UNL d   1       2.919  -4.301   3.733  0.00  0.00     0.029 A 
ATOM     21  C   UNL d   1       3.149  -4.818   5.013  0.00  0.00     0.002 A 
ATOM     22  C   UNL d   1       2.473  -4.295   6.111  0.00  0.00     0.000 A 
ATOM     23  C   UNL d   1       1.569  -3.252   5.929  0.00  0.00     0.002 A 
ATOM     24  C   UNL d   1       1.336  -2.738   4.648  0.00  0.00     0.029 A 
ENDBRANCH  15  19
ENDBRANCH   2  13
BRANCH   7  25
ATOM     25  O   UNL d   1      -0.891  -2.961   1.002  0.00  0.00    -0.355 OA
ATOM     26  C   UNL d   1      -1.071  -3.906  -0.056  0.00  0.00     0.210 C 
ENDBRANCH   7  25
BRANCH   6  27
ATOM     27  C   UNL d   1      -4.273   0.483   0.443  0.00  0.00     0.432 C 
ATOM     28  F   UNL d   1      -4.446   1.832   0.370  0.00  0.00    -0.165 F 
ATOM     29  F   UNL d   1      -5.012  -0.043  -0.579  0.00  0.00    -0.165 F 
ATOM     30  F   UNL d   1      -4.906   0.090   1.588  0.00  0.00    -0.165 F 
ENDBRANCH   6  27
TORSDOF 4
