REMARK  4 active torsions:
REMARK  status: ('A' for Active; 'I' for Inactive)
REMARK    1  A    between atoms: N_5  and  C_1 
REMARK    2  A    between atoms: O_10  and  C_2 
REMARK    3  A    between atoms: C_8  and  N_5 
REMARK    4  A    between atoms: C_16  and  O_10 
ROOT
ATOM      1  C   UNL d   1       0.639  -1.481  -0.008  0.00  0.00     0.125 A 
ATOM      2  C   UNL d   1      -0.733  -1.444   0.051  0.00  0.00     0.154 A 
ATOM      3  C   UNL d   1       0.737  -0.005  -0.006  0.00  0.00     0.254 A 
ATOM      4  C   UNL d   1      -0.739   0.038   0.013  0.00  0.00     0.259 A 
ATOM      5  O   UNL d   1       1.583   0.856   0.012  0.00  0.00    -0.281 OA
ATOM      6  O   UNL d   1      -1.528   0.950   0.033  0.00  0.00    -0.281 OA
ENDROOT
BRANCH   1   7
ATOM      7  N   UNL d   1       1.622  -2.356  -0.065  0.00  0.00    -0.350 N 
ATOM      8  H   UNL d   1       1.950  -2.823   0.778  0.00  0.00     0.166 HD
BRANCH   7   9
ATOM      9  C   UNL d   1       2.212  -2.882  -1.240  0.00  0.00     0.034 A 
ATOM     10  C   UNL d   1       1.834  -2.465  -2.525  0.00  0.00     0.053 A 
ATOM     11  C   UNL d   1       2.443  -3.011  -3.657  0.00  0.00     0.036 A 
ATOM     12 CL   UNL d   1       1.950  -2.493  -5.223  0.00  0.00    -0.084 Cl
ATOM     13  C   UNL d   1       3.442  -3.972  -3.532  0.00  0.00     0.024 A 
ATOM     14  C   UNL d   1       3.840  -4.385  -2.263  0.00  0.00     0.004 A 
ATOM     15  C   UNL d   1       3.232  -3.840  -1.127  0.00  0.00     0.029 A 
ENDBRANCH   7   9
ENDBRANCH   1   7
BRANCH   2  16
ATOM     16  O   UNL d   1      -1.706  -2.285   0.073  0.00  0.00    -0.345 OA
BRANCH  16  17
ATOM     17  C   UNL d   1      -1.392  -3.563   0.611  0.00  0.00     0.171 C 
ATOM     18  C   UNL d   1      -2.646  -4.420   0.536  0.00  0.00     0.034 C 
ENDBRANCH  16  17
ENDBRANCH   2  16
TORSDOF 4
