REMARK  5 active torsions:
REMARK  status: ('A' for Active; 'I' for Inactive)
REMARK    1  A    between atoms: C_7  and  C_1 
REMARK    2  A    between atoms: O_22  and  C_1 
REMARK    3  A    between atoms: C_10  and  C_7 
REMARK    4  A    between atoms: C_9  and  C_10 
REMARK    5  A    between atoms: C_26  and  C_13 
ROOT
ATOM      1  C   UNL d   1      -1.076  -0.923  -2.542  0.00  0.00     0.163 C 
ATOM      2  O   UNL d   1      -1.190  -1.358  -3.691  0.00  0.00    -0.292 OA
ENDROOT
BRANCH   1   3
ATOM      3  C   UNL d   1      -0.883   0.559  -2.353  0.00  0.00     0.017 C 
ATOM      4  C   UNL d   1      -0.135   1.081  -1.288  0.00  0.00     0.024 C 
ATOM      5  C   UNL d   1       0.521   2.311  -1.440  0.00  0.00    -0.042 C 
ATOM      6  C   UNL d   1       1.206   3.068  -0.287  0.00  0.00    -0.020 C 
ATOM      7  C   UNL d   1       0.614   2.822  -2.755  0.00  0.00    -0.043 C 
ATOM      8  C   UNL d   1       2.348   3.961  -0.836  0.00  0.00     0.015 C 
ATOM      9  C   UNL d   1       0.150   3.984   0.380  0.00  0.00     0.020 C 
ATOM     10  C   UNL d   1       1.797   2.161   0.810  0.00  0.00     0.020 C 
ATOM     11  C   UNL d   1       2.990   3.275  -2.038  0.00  0.00     0.015 C 
ATOM     12  C   UNL d   1       1.998   3.339  -3.238  0.00  0.00    -0.020 C 
ATOM     13  C   UNL d   1       2.042   4.768  -3.814  0.00  0.00     0.020 C 
ATOM     14  C   UNL d   1       2.531   2.377  -4.338  0.00  0.00     0.020 C 
ATOM     15  C   UNL d   1      -0.416   2.511  -3.660  0.00  0.00     0.016 C 
ATOM     16  C   UNL d   1      -1.248   1.410  -3.415  0.00  0.00    -0.044 C 
BRANCH  16  17
ATOM     17  C   UNL d   1      -2.401   1.030  -4.326  0.00  0.00     0.035 C 
ATOM     18  C   UNL d   1      -3.343   2.157  -4.726  0.00  0.00     0.010 C 
ENDBRANCH  16  17
ENDBRANCH   1   3
BRANCH   1  19
ATOM     19  C   UNL d   1      -0.996  -1.892  -1.385  0.00  0.00     0.137 C 
BRANCH  19  20
ATOM     20  C   UNL d   1      -1.931  -3.087  -1.579  0.00  0.00     0.174 A 
ATOM     21  C   UNL d   1      -1.567  -4.007  -2.813  0.00  0.00     0.262 A 
ATOM     22  N   UNL d   1      -2.722  -4.140  -3.581  0.00  0.00    -0.324 N 
ATOM     23  O   UNL d   1      -0.512  -4.593  -3.010  0.00  0.00    -0.269 OA
ATOM     24  C   UNL d   1      -3.760  -3.361  -3.075  0.00  0.00     0.044 A 
ATOM     25  H   UNL d   1      -2.736  -4.656  -4.447  0.00  0.00     0.169 HD
ATOM     26  C   UNL d   1      -3.356  -2.723  -1.903  0.00  0.00     0.014 A 
ATOM     27  C   UNL d   1      -5.007  -3.173  -3.636  0.00  0.00     0.031 A 
ATOM     28  C   UNL d   1      -4.201  -1.845  -1.246  0.00  0.00     0.032 A 
ATOM     29  C   UNL d   1      -5.458  -1.617  -1.807  0.00  0.00     0.011 A 
ATOM     30  C   UNL d   1      -5.862  -2.278  -2.982  0.00  0.00     0.021 A 
ATOM     31 BR   UNL d   1      -6.614  -0.362  -0.996  0.00  0.00    -0.051 Br
BRANCH  20  32
ATOM     32  O   UNL d   1      -1.937  -3.858  -0.377  0.00  0.00    -0.375 OA
ATOM     33  H   UNL d   1      -2.498  -4.636  -0.540  0.00  0.00     0.211 HD
ENDBRANCH  20  32
ENDBRANCH  19  20
ENDBRANCH   1  19
TORSDOF 5
