REMARK  5 active torsions:
REMARK  status: ('A' for Active; 'I' for Inactive)
REMARK    1  A    between atoms: S_10  and  C_3 
REMARK    2  A    between atoms: C_8  and  C_7 
REMARK    3  A    between atoms: C_11  and  C_8 
REMARK    4  A    between atoms: C_9  and  S_10 
REMARK    5  A    between atoms: C_20  and  C_17 
ROOT
ATOM      1  C   UNL d   1      -5.889  -1.780   0.008  0.00  0.00     0.063 C 
ATOM      2  C   UNL d   1      -6.589  -0.663   0.271  0.00  0.00     0.057 C 
ENDROOT
BRANCH   2   3
ATOM      3  S   UNL d   1      -5.760   0.861   0.250  0.00  0.00    -0.058 SA
BRANCH   3   4
ATOM      4  C   UNL d   1      -7.003   2.005   0.694  0.00  0.00     0.192 A 
ATOM      5  N   UNL d   1      -6.727   3.295   0.775  0.00  0.00    -0.328 N 
ATOM      6  C   UNL d   1      -7.910   3.875   1.140  0.00  0.00     0.068 A 
ATOM      7  HN  UNL d   1      -5.832   3.755   0.604  1.00  0.00     0.168 HD
ATOM      8  C   UNL d   1      -8.884   2.899   1.275  0.00  0.00     0.105 A 
ATOM      9  C   UNL d   1      -8.244   5.215   1.377  0.00  0.00     0.032 A 
ATOM     10  C   UNL d   1     -10.203   3.154   1.636  0.00  0.00     0.040 A 
ATOM     11  O   UNL d   1      -8.307   1.692   0.990  0.00  0.00    -0.285 OA
ATOM     12  C   UNL d   1     -10.524   4.499   1.871  0.00  0.00     0.003 A 
ATOM     13  C   UNL d   1      -9.566   5.512   1.746  0.00  0.00     0.002 A 
ENDBRANCH   3   4
ENDBRANCH   2   3
BRANCH   1  14
ATOM     14  C   UNL d   1      -6.516  -3.131   0.004  0.00  0.00     0.182 C 
ATOM     15  O   UNL d   1      -7.727  -3.279  -0.106  0.00  0.00    -0.288 OA
BRANCH  14  16
ATOM     16  C   UNL d   1      -5.601  -4.310   0.090  0.00  0.00     0.014 A 
ATOM     17  C   UNL d   1      -4.380  -4.247   0.774  0.00  0.00     0.016 A 
ATOM     18  C   UNL d   1      -3.536  -5.363   0.824  0.00  0.00     0.008 A 
ATOM     19  C   UNL d   1      -3.903  -6.565   0.208  0.00  0.00    -0.059 A 
ATOM     20  C   UNL d   1      -5.138  -6.634  -0.453  0.00  0.00     0.008 A 
ATOM     21  C   UNL d   1      -5.984  -5.518  -0.505  0.00  0.00     0.016 A 
BRANCH  19  22
ATOM     22  C   UNL d   1      -2.975  -7.755   0.245  0.00  0.00     0.034 C 
ATOM     23  C   UNL d   1      -2.008  -7.769  -0.930  0.00  0.00     0.010 C 
ENDBRANCH  19  22
ENDBRANCH  14  16
ENDBRANCH   1  14
TORSDOF 5
