REMARK  5 active torsions:
REMARK  status: ('A' for Active; 'I' for Inactive)
REMARK    1  A    between atoms: N_2  and  S_1 
REMARK    2  A    between atoms: C_7  and  S_1 
REMARK    3  A    between atoms: N_3  and  N_2 
REMARK    4  A    between atoms: C_6  and  C_5 
REMARK    5  A    between atoms: N_14  and  C_5 
ROOT
ATOM      1  N   UNL d   1       0.626  -2.654  -0.855  0.00  0.00    -0.296 N 
ATOM      2  HN  UNL d   1       0.355  -1.926  -0.194  1.00  0.00     0.183 HD
ATOM      3  C   UNL d   1       0.201  -3.879  -0.744  0.00  0.00     0.117 C 
ENDROOT
BRANCH   1   4
ATOM      4  N   UNL d   1       1.515  -2.383  -1.983  0.00  0.00    -0.124 NA
ATOM      5  H   UNL d   1       2.251  -3.091  -2.099  0.00  0.00     0.166 HD
BRANCH   4   6
ATOM      6  S   UNL d   1       2.143  -0.785  -2.020  0.00  0.00     0.258 S 
ATOM      7  O   UNL d   1       3.012  -0.615  -0.874  0.00  0.00    -0.204 OA
ATOM      8  O   UNL d   1       1.060   0.137  -2.298  0.00  0.00    -0.204 OA
BRANCH   6   9
ATOM      9  C   UNL d   1       3.187  -0.824  -3.463  0.00  0.00     0.076 A 
ATOM     10  C   UNL d   1       2.662  -0.456  -4.706  0.00  0.00     0.026 A 
ATOM     11  C   UNL d   1       3.509  -0.368  -5.813  0.00  0.00     0.025 A 
ATOM     12  C   UNL d   1       4.870  -0.638  -5.670  0.00  0.00     0.034 A 
ATOM     13  C   UNL d   1       5.396  -1.000  -4.429  0.00  0.00     0.025 A 
ATOM     14 CL   UNL d   1       5.916  -0.502  -7.029  0.00  0.00    -0.084 Cl
ATOM     15  C   UNL d   1       4.552  -1.088  -3.317  0.00  0.00     0.026 A 
ENDBRANCH   6   9
ENDBRANCH   4   6
ENDBRANCH   1   4
BRANCH   3  16
ATOM     16  C   UNL d   1      -0.620  -4.237   0.460  0.00  0.00     0.087 A 
ATOM     17  N   UNL d   1      -1.122  -5.505   0.490  0.00  0.00    -0.361 N 
ATOM     18  C   UNL d   1      -1.835  -5.802   1.605  0.00  0.00     0.105 A 
ATOM     19  HN  UNL d   1      -0.974  -6.175  -0.265  1.00  0.00     0.165 HD
ATOM     20  C   UNL d   1      -2.048  -4.890   2.628  0.00  0.00     0.104 A 
ATOM     21  N   UNL d   1      -1.560  -3.629   2.590  0.00  0.00    -0.372 N 
ATOM     22  C   UNL d   1      -0.839  -3.321   1.482  0.00  0.00     0.120 A 
ATOM     23  HN  UNL d   1      -1.722  -2.958   3.340  1.00  0.00     0.164 HD
ENDBRANCH   3  16
BRANCH   3  24
ATOM     24  N   UNL d   1       0.442  -4.851  -1.696  0.00  0.00    -0.286 NA
ATOM     25  H   UNL d   1       0.463  -4.462  -2.633  0.00  0.00     0.125 HD
ATOM     26  H   UNL d   1      -0.215  -5.630  -1.620  0.00  0.00     0.125 HD
ENDBRANCH   3  24
TORSDOF 5
