REMARK  7 active torsions:
REMARK  status: ('A' for Active; 'I' for Inactive)
REMARK    1  A    between atoms: C_2  and  C_1 
REMARK       I    between atoms: N_10  and  C_2 
REMARK       I    between atoms: C_4  and  N_5 
REMARK    2  A    between atoms: N_5  and  C_6 
REMARK    3  A    between atoms: C_19  and  N_10 
REMARK    4  A    between atoms: C_12  and  O_15 
REMARK    5  A    between atoms: C_14  and  C_19 
REMARK    6  A    between atoms: C_23  and  C_14 
REMARK    7  A    between atoms: O_15  and  C_23 
ROOT
ATOM      1  C   UNL d   1       2.630  -5.025   0.106  0.00  0.00     0.125 C 
ENDROOT
BRANCH   1   2
ATOM      2  C   UNL d   1       4.093  -5.475   0.119  0.00  0.00     0.046 C 
BRANCH   2   3
ATOM      3  C   UNL d   1       4.173  -6.994   0.113  0.00  0.00     0.177 C 
BRANCH   3   4
ATOM      4  O   UNL d   1       5.527  -7.457   0.043  0.00  0.00    -0.351 OA
BRANCH   4   5
ATOM      5  C   UNL d   1       5.651  -8.827   0.116  0.00  0.00     0.070 A 
ATOM      6  C   UNL d   1       4.571  -9.713   0.191  0.00  0.00     0.066 A 
ATOM      7  C   UNL d   1       4.748 -11.088   0.306  0.00  0.00     0.037 A 
ATOM      8  C   UNL d   1       6.051 -11.594   0.301  0.00  0.00     0.029 A 
ATOM      9  C   UNL d   1       7.144 -10.723   0.205  0.00  0.00     0.005 A 
ATOM     10  C   UNL d   1       6.944  -9.341   0.121  0.00  0.00     0.037 A 
BRANCH   7  11
ATOM     11  N   UNL d   1       3.663 -11.986   0.442  0.00  0.00    -0.327 N 
ATOM     12  C   UNL d   1       2.315 -11.649   0.524  0.00  0.00     0.218 C 
ATOM     13  O   UNL d   1       1.822 -10.528   0.465  0.00  0.00    -0.274 OA
ATOM     14  C   UNL d   1       1.409 -12.838   0.706  0.00  0.00     0.117 C 
ATOM     15  H   UNL d   1       3.905 -12.963   0.524  0.00  0.00     0.169 HD
ENDBRANCH   7  11
ENDBRANCH   4   5
ENDBRANCH   3   4
ENDBRANCH   2   3
ENDBRANCH   1   2
BRANCH   1  16
ATOM     16  N   UNL d   1       1.903  -5.431   1.299  0.00  0.00    -0.357 N 
ATOM     17  C   UNL d   1       1.855  -4.625   2.421  0.00  0.00     0.252 C 
ATOM     18  O   UNL d   1       2.369  -3.511   2.442  0.00  0.00    -0.268 OA
ATOM     19  H   UNL d   1       1.548  -6.379   1.345  0.00  0.00     0.162 HD
BRANCH  17  20
ATOM     20  C   UNL d   1       1.123  -5.165   3.615  0.00  0.00     0.043 A 
ATOM     21  C   UNL d   1       1.515  -4.830   4.949  0.00  0.00    -0.010 A 
ATOM     22  C   UNL d   1       0.714  -5.303   6.022  0.00  0.00    -0.025 A 
ATOM     23  C   UNL d   1       2.655  -4.060   5.297  0.00  0.00     0.013 A 
ATOM     24  C   UNL d   1       1.042  -4.982   7.351  0.00  0.00     0.012 A 
ATOM     25  C   UNL d   1      -0.417  -6.090   5.764  0.00  0.00     0.012 A 
ATOM     26  C   UNL d   1       2.159  -4.206   7.651  0.00  0.00     0.001 A 
ATOM     27  C   UNL d   1       2.969  -3.749   6.623  0.00  0.00     0.001 A 
ATOM     28  C   UNL d   1      -0.778  -6.423   4.462  0.00  0.00     0.002 A 
ATOM     29  C   UNL d   1      -0.019  -5.958   3.392  0.00  0.00     0.018 A 
ENDBRANCH  17  20
ENDBRANCH   1  16
TORSDOF 7
