REMARK  3 active torsions:
REMARK  status: ('A' for Active; 'I' for Inactive)
REMARK    1  A    between atoms: C_4  and  C_11 
REMARK    2  A    between atoms: C_5  and  C_9 
REMARK       I    between atoms: N_10  and  C_5 
REMARK    3  A    between atoms: N_6  and  N_10 
ROOT
ATOM      1  N   UNL d   1       6.340   4.356  -0.134  0.00  0.00    -0.197 NA
ATOM      2  C   UNL d   1       6.164   3.214  -0.052  0.00  0.00     0.068 C 
ATOM      3  C   UNL d   1       5.865   1.791   0.055  0.00  0.00     0.228 C 
ENDROOT
BRANCH   3   4
ATOM      4  C   UNL d   1       4.388   1.475   0.151  0.00  0.00     0.249 C 
ATOM      5  N   UNL d   1       3.491   2.537   0.126  0.00  0.00    -0.270 N 
ATOM      6  H   UNL d   1       3.781   3.510   0.058  0.00  0.00     0.190 HD
ATOM      7  O   UNL d   1       4.041   0.293   0.246  0.00  0.00    -0.271 OA
BRANCH   5   8
ATOM      8  N   UNL d   1       2.161   2.254   0.199  0.00  0.00    -0.308 N 
ATOM      9  C   UNL d   1       1.329   3.247   0.177  0.00  0.00     0.120 C 
ATOM     10  HN  UNL d   1       1.831   1.292   0.270  1.00  0.00     0.186 HD
BRANCH   9  11
ATOM     11  C   UNL d   1      -0.132   2.985   0.257  0.00  0.00     0.003 A 
ATOM     12  C   UNL d   1      -1.088   4.008   0.237  0.00  0.00     0.047 A 
ATOM     13  C   UNL d   1      -2.452   3.696   0.333  0.00  0.00     0.048 A 
ATOM     14 CL   UNL d   1      -0.668   5.677   0.093  0.00  0.00    -0.083 Cl
ATOM     15  C   UNL d   1      -2.857   2.366   0.443  0.00  0.00     0.035 A 
ATOM     16  C   UNL d   1      -1.917   1.342   0.454  0.00  0.00     0.025 A 
ATOM     17 CL   UNL d   1      -4.530   1.987   0.565  0.00  0.00    -0.084 Cl
ATOM     18  C   UNL d   1      -0.559   1.650   0.362  0.00  0.00     0.016 A 
ENDBRANCH   9  11
ENDBRANCH   5   8
ENDBRANCH   3   4
TORSDOF 3
