REMARK  6 active torsions:
REMARK  status: ('A' for Active; 'I' for Inactive)
REMARK       I    between atoms: N_2  and  C_1 
REMARK    1  A    between atoms: C_8  and  C_1 
REMARK    2  A    between atoms: C_4  and  N_2 
REMARK    3  A    between atoms: C_3  and  C_9 
REMARK    4  A    between atoms: O_11  and  C_3 
REMARK    5  A    between atoms: C_9  and  C_8 
REMARK    6  A    between atoms: O_12  and  C_10 
ROOT
ATOM      1  C   UNL d   1       0.741   0.405   0.060  0.00  0.00     0.222 C 
ATOM      2  N   UNL d   1       0.203  -0.218   1.170  0.00  0.00    -0.327 N 
ATOM      3  O   UNL d   1       1.829   0.973   0.001  0.00  0.00    -0.273 OA
ATOM      4  H   UNL d   1      -0.585  -0.847   1.017  0.00  0.00     0.169 HD
ENDROOT
BRANCH   2   5
ATOM      5  C   UNL d   1       0.773  -0.242   2.462  0.00  0.00     0.037 A 
ATOM      6  C   UNL d   1       1.718   0.696   2.885  0.00  0.00     0.066 A 
ATOM      7  C   UNL d   1       2.312   0.594   4.145  0.00  0.00     0.070 A 
ATOM      8  C   UNL d   1       1.929  -0.444   4.998  0.00  0.00     0.037 A 
ATOM      9  C   UNL d   1       0.953  -1.357   4.604  0.00  0.00     0.005 A 
ATOM     10  C   UNL d   1       0.365  -1.250   3.342  0.00  0.00     0.029 A 
BRANCH   7  11
ATOM     11  O   UNL d   1       3.269   1.436   4.645  0.00  0.00    -0.356 OA
ATOM     12  C   UNL d   1       3.763   2.430   3.754  0.00  0.00     0.210 C 
ENDBRANCH   7  11
ENDBRANCH   2   5
BRANCH   1  13
ATOM     13  C   UNL d   1      -0.126   0.314  -1.182  0.00  0.00     0.113 C 
BRANCH  13  14
ATOM     14  C   UNL d   1      -0.051  -1.050  -1.859  0.00  0.00     0.119 C 
BRANCH  14  15
ATOM     15  C   UNL d   1      -0.930  -2.071  -1.181  0.00  0.00     0.139 C 
ATOM     16  O   UNL d   1      -1.480  -1.907  -0.107  0.00  0.00    -0.650 OA
BRANCH  15  17
ATOM     17  O   UNL d   1      -1.033  -3.220  -1.882  0.00  0.00    -0.776 OA
ATOM     18  H   UNL d   1      -0.524  -3.232  -2.716  0.00  0.00     0.167 HD
ENDBRANCH  15  17
ENDBRANCH  14  15
ENDBRANCH  13  14
ENDBRANCH   1  13
TORSDOF 6
