REMARK  4 active torsions:
REMARK  status: ('A' for Active; 'I' for Inactive)
REMARK    1  A    between atoms: C_6  and  C_1 
REMARK    2  A    between atoms: C_4  and  S_9 
REMARK    3  A    between atoms: C_10  and  C_5 
REMARK    4  A    between atoms: S_9  and  C_6 
ROOT
ATOM      1  N   UNL d   1      -0.793   5.285   0.604  0.00  0.00    -0.336 N 
ATOM      2  HN  UNL d   1      -0.080   4.766   1.115  1.00  0.00     0.168 HD
ATOM      3  C   UNL d   1      -1.802   4.651  -0.020  0.00  0.00     0.144 A 
ATOM      4  C   UNL d   1      -0.757   6.636   0.528  0.00  0.00     0.047 A 
ATOM      5  N   UNL d   1      -2.773   5.265  -0.712  0.00  0.00    -0.347 N 
ATOM      6  HN  UNL d   1      -3.514   4.741  -1.179  1.00  0.00     0.167 HD
ATOM      7  C   UNL d   1      -1.734   7.342  -0.153  0.00  0.00     0.047 A 
ATOM      8  C   UNL d   1      -2.720   6.603  -0.759  0.00  0.00     0.092 A 
ENDROOT
BRANCH   3   9
ATOM      9  S   UNL d   1      -1.856   2.879   0.129  0.00  0.00    -0.089 SA
BRANCH   9  10
ATOM     10  C   UNL d   1      -3.335   2.535  -0.878  0.00  0.00     0.124 C 
BRANCH  10  11
ATOM     11  C   UNL d   1      -3.705   1.067  -0.884  0.00  0.00    -0.005 A 
ATOM     12  C   UNL d   1      -4.631   0.541   0.040  0.00  0.00     0.042 A 
ATOM     13 CL   UNL d   1      -5.377   1.517   1.259  0.00  0.00    -0.084 Cl
ATOM     14  C   UNL d   1      -4.999  -0.810   0.009  0.00  0.00     0.024 A 
ATOM     15  C   UNL d   1      -4.444  -1.669  -0.934  0.00  0.00     0.003 A 
ATOM     16  C   UNL d   1      -3.512  -1.178  -1.841  0.00  0.00     0.024 A 
ATOM     17  C   UNL d   1      -3.143   0.174  -1.817  0.00  0.00     0.042 A 
ATOM     18 CL   UNL d   1      -1.978   0.681  -2.992  0.00  0.00    -0.084 Cl
ENDBRANCH  10  11
ENDBRANCH   9  10
ENDBRANCH   3   9
BRANCH   4  19
ATOM     19  C   UNL d   1       0.354   7.300   1.240  0.00  0.00     0.006 A 
ATOM     20  C   UNL d   1       0.826   8.569   0.893  0.00  0.00     0.101 A 
ATOM     21  N   UNL d   1       1.809   9.249   1.538  0.00  0.00    -0.374 N 
ATOM     22  C   UNL d   1       2.381   8.629   2.589  0.00  0.00     0.087 A 
ATOM     23  HN  UNL d   1       2.099  10.181   1.242  1.00  0.00     0.164 HD
ATOM     24  C   UNL d   1       2.021   7.363   3.013  0.00  0.00     0.018 A 
ATOM     25  C   UNL d   1       1.002   6.697   2.329  0.00  0.00     0.016 A 
ENDBRANCH   4  19
TORSDOF 4
