REMARK  8 active torsions:
REMARK  status: ('A' for Active; 'I' for Inactive)
REMARK    1  A    between atoms: S_20  and  C_2 
REMARK    2  A    between atoms: S_21  and  C_3 
REMARK       I    between atoms: N_8  and  C_19 
REMARK    3  A    between atoms: C_14  and  N_8 
REMARK       I    between atoms: N_9  and  C_18 
REMARK    4  A    between atoms: C_15  and  N_9 
REMARK    5  A    between atoms: C_18  and  C_24 
REMARK    6  A    between atoms: C_19  and  C_25 
REMARK    7  A    between atoms: C_25  and  S_20 
REMARK    8  A    between atoms: C_24  and  S_21 
ROOT
ATOM      1  N   UNL d   1       1.246   2.557   3.599  0.00  0.00    -0.191 NA
ATOM      2  C   UNL d   1       0.415   1.978   4.170  0.00  0.00     0.102 C 
ATOM      3  C   UNL d   1      -1.095   0.017   4.473  0.00  0.00     0.055 A 
ATOM      4  C   UNL d   1      -0.671   1.311   4.833  0.00  0.00     0.071 A 
ATOM      5  C   UNL d   1      -1.415   2.044   5.773  0.00  0.00     0.025 A 
ATOM      6  C   UNL d   1      -2.309  -0.472   4.975  0.00  0.00     0.031 A 
ATOM      7  C   UNL d   1      -2.580   1.513   6.326  0.00  0.00     0.002 A 
ATOM      8  C   UNL d   1      -3.037   0.265   5.911  0.00  0.00     0.002 A 
ENDROOT
BRANCH   3   9
ATOM      9  N   UNL d   1      -0.369  -0.854   3.627  0.00  0.00    -0.325 N 
ATOM     10  C   UNL d   1       0.998  -1.045   3.726  0.00  0.00     0.231 C 
ATOM     11  O   UNL d   1       1.694  -0.523   4.597  0.00  0.00    -0.272 OA
ATOM     12  H   UNL d   1      -0.888  -1.603   3.179  0.00  0.00     0.169 HD
BRANCH  10  13
ATOM     13  C   UNL d   1       1.629  -2.044   2.768  0.00  0.00     0.184 C 
BRANCH  13  14
ATOM     14  S   UNL d   1       0.590  -2.570   1.384  0.00  0.00    -0.094 SA
BRANCH  14  15
ATOM     15  C   UNL d   1       0.332  -1.055   0.553  0.00  0.00     0.129 A 
ATOM     16  S   UNL d   1       1.569  -0.015  -0.008  0.00  0.00    -0.038 SA
ATOM     17  C   UNL d   1       0.329   1.020  -0.569  0.00  0.00     0.129 A 
ATOM     18  N   UNL d   1      -0.892   0.592  -0.328  0.00  0.00    -0.287 N 
ATOM     19  N   UNL d   1      -0.889  -0.627   0.320  0.00  0.00    -0.287 N 
ATOM     20  HN  UNL d   1      -1.737   1.099  -0.590  1.00  0.00     0.188 HD
ATOM     21  HN  UNL d   1      -1.733  -1.134   0.586  1.00  0.00     0.188 HD
BRANCH  17  22
ATOM     22  S   UNL d   1       0.581   2.527  -1.417  0.00  0.00    -0.094 SA
BRANCH  22  23
ATOM     23  C   UNL d   1       1.618   1.988  -2.798  0.00  0.00     0.184 C 
BRANCH  23  24
ATOM     24  C   UNL d   1       0.992   0.961  -3.732  0.00  0.00     0.231 C 
ATOM     25  N   UNL d   1      -0.372   0.764  -3.628  0.00  0.00    -0.325 N 
ATOM     26  H   UNL d   1      -0.899   1.519  -3.199  0.00  0.00     0.169 HD
ATOM     27  O   UNL d   1       1.692   0.423  -4.591  0.00  0.00    -0.272 OA
BRANCH  25  28
ATOM     28  C   UNL d   1      -1.092  -0.136  -4.451  0.00  0.00     0.055 A 
ATOM     29  C   UNL d   1      -0.660  -1.436  -4.777  0.00  0.00     0.071 A 
ATOM     30  C   UNL d   1       0.432  -2.079  -4.097  0.00  0.00     0.102 C 
ATOM     31  C   UNL d   1      -1.399  -2.199  -5.696  0.00  0.00     0.025 A 
ATOM     32  N   UNL d   1       1.268  -2.634  -3.509  0.00  0.00    -0.191 NA
ATOM     33  C   UNL d   1      -2.569  -1.691  -6.261  0.00  0.00     0.002 A 
ATOM     34  C   UNL d   1      -3.035  -0.436  -5.879  0.00  0.00     0.002 A 
ATOM     35  C   UNL d   1      -2.311   0.330  -4.964  0.00  0.00     0.031 A 
ENDBRANCH  25  28
ENDBRANCH  23  24
ENDBRANCH  22  23
ENDBRANCH  17  22
ENDBRANCH  14  15
ENDBRANCH  13  14
ENDBRANCH  10  13
ENDBRANCH   3   9
TORSDOF 8
