REMARK  6 active torsions:
REMARK  status: ('A' for Active; 'I' for Inactive)
REMARK    1  A    between atoms: C_6  and  C_1 
REMARK    2  A    between atoms: C_17  and  N_2 
REMARK    3  A    between atoms: N_14  and  C_3 
REMARK       I    between atoms: N_13  and  C_6 
REMARK    4  A    between atoms: C_8  and  C_12 
REMARK    5  A    between atoms: N_9  and  N_13 
REMARK    6  A    between atoms: C_20  and  C_17 
ROOT
ATOM      1  C   UNL d   1      -0.165  -1.368   0.056  0.00  0.00     0.115 A 
ATOM      2  N   UNL d   1       1.005   0.585   0.011  0.00  0.00    -0.318 N 
ATOM      3  C   UNL d   1       1.061  -0.808  -0.009  0.00  0.00     0.104 A 
ATOM      4  C   UNL d   1      -0.280   1.125   0.096  0.00  0.00     0.147 A 
ATOM      5  S   UNL d   1      -1.444  -0.211   0.155  0.00  0.00    -0.051 SA
ATOM      6  S   UNL d   1      -0.750   2.723   0.136  0.00  0.00    -0.052 SA
ENDROOT
BRANCH   1   7
ATOM      7  C   UNL d   1      -0.406  -2.838   0.081  0.00  0.00     0.280 C 
ATOM      8  N   UNL d   1      -1.734  -3.229   0.068  0.00  0.00    -0.266 N 
ATOM      9  H   UNL d   1      -2.479  -2.539   0.049  0.00  0.00     0.190 HD
ATOM     10  O   UNL d   1       0.546  -3.621   0.124  0.00  0.00    -0.265 OA
BRANCH   8  11
ATOM     11  N   UNL d   1      -2.018  -4.563   0.075  0.00  0.00    -0.308 N 
ATOM     12  C   UNL d   1      -3.263  -4.912   0.098  0.00  0.00     0.126 C 
ATOM     13  HN  UNL d   1      -1.274  -5.261   0.064  1.00  0.00     0.186 HD
BRANCH  12  14
ATOM     14  C   UNL d   1      -3.604  -6.315   0.100  0.00  0.00     0.021 A 
ATOM     15  S   UNL d   1      -5.242  -6.794   0.173  0.00  0.00    -0.101 SA
ATOM     16  C   UNL d   1      -4.825  -8.454   0.143  0.00  0.00     0.050 A 
ATOM     17  C   UNL d   1      -3.461  -8.643   0.075  0.00  0.00     0.008 A 
ATOM     18  C   UNL d   1      -2.756  -7.406   0.052  0.00  0.00     0.021 A 
ENDBRANCH  12  14
ENDBRANCH   8  11
ENDBRANCH   1   7
BRANCH   3  19
ATOM     19  N   UNL d   1       2.253  -1.498  -0.090  0.00  0.00    -0.287 NA
ATOM     20  H   UNL d   1       2.928  -1.162   0.593  0.00  0.00     0.125 HD
ATOM     21  H   UNL d   1       2.106  -2.510   0.029  0.00  0.00     0.125 HD
ENDBRANCH   3  19
BRANCH   2  22
ATOM     22  C   UNL d   1       2.215   1.394  -0.153  0.00  0.00     0.158 C 
BRANCH  22  23
ATOM     23  C   UNL d   1       2.858   1.780   1.154  0.00  0.00    -0.017 C 
ATOM     24  C   UNL d   1       2.512   1.426   2.399  0.00  0.00     0.008 C 
ENDBRANCH  22  23
ENDBRANCH   2  22
TORSDOF 6
