REMARK  8 active torsions:
REMARK  status: ('A' for Active; 'I' for Inactive)
REMARK    1  A    between atoms: C_9  and  N_1 
REMARK    2  A    between atoms: S_8  and  C_2 
REMARK    3  A    between atoms: C_12  and  S_8 
REMARK    4  A    between atoms: C_10  and  C_12 
REMARK    5  A    between atoms: C_11  and  C_10 
REMARK    6  A    between atoms: O_18  and  C_19 
REMARK    7  A    between atoms: C_20  and  O_18 
REMARK    8  A    between atoms: C_26  and  C_20 
ROOT
ATOM      1  N   UNL d   1      -0.271  -1.278  -0.062  0.00  0.00    -0.279 N 
ATOM      2  C   UNL d   1       0.987  -0.691  -0.096  0.00  0.00     0.168 A 
ATOM      3  N   UNL d   1       0.893   0.613   0.009  0.00  0.00    -0.278 N 
ATOM      4  HN  UNL d   1       1.671   1.272   0.047  1.00  0.00     0.189 HD
ATOM      5  N   UNL d   1      -0.434   0.932   0.059  0.00  0.00    -0.287 N 
ATOM      6  HN  UNL d   1      -0.818   1.874   0.138  1.00  0.00     0.188 HD
ATOM      7  C   UNL d   1      -1.136  -0.181  -0.012  0.00  0.00     0.101 A 
ATOM      8  C   UNL d   1      -2.619  -0.215   0.066  0.00  0.00     0.091 C 
ENDROOT
BRANCH   1   9
ATOM      9  C   UNL d   1      -0.610  -2.665  -0.067  0.00  0.00     0.043 A 
ATOM     10  C   UNL d   1       0.197  -3.604   0.591  0.00  0.00     0.033 A 
ATOM     11  C   UNL d   1      -0.139  -4.965   0.574  0.00  0.00     0.039 A 
ATOM     12  C   UNL d   1      -1.293  -5.402  -0.074  0.00  0.00     0.069 A 
ATOM     13  C   UNL d   1      -2.087  -4.472  -0.744  0.00  0.00     0.039 A 
ATOM     14  C   UNL d   1      -1.753  -3.114  -0.736  0.00  0.00     0.033 A 
BRANCH  12  15
ATOM     15  O   UNL d   1      -1.547  -6.745   0.005  0.00  0.00    -0.347 OA
BRANCH  15  16
ATOM     16  C   UNL d   1      -2.890  -7.128  -0.303  0.00  0.00     0.214 C 
BRANCH  16  17
ATOM     17  C   UNL d   1      -3.175  -8.540   0.148  0.00  0.00    -0.034 A 
ATOM     18  C   UNL d   1      -4.423  -8.844   0.713  0.00  0.00     0.009 A 
ATOM     19  C   UNL d   1      -4.732 -10.149   1.092  0.00  0.00     0.001 A 
ATOM     20  C   UNL d   1      -3.801 -11.167   0.903  0.00  0.00     0.000 A 
ATOM     21  C   UNL d   1      -2.562 -10.880   0.332  0.00  0.00     0.001 A 
ATOM     22  C   UNL d   1      -2.250  -9.573  -0.049  0.00  0.00     0.009 A 
ENDBRANCH  16  17
ENDBRANCH  15  16
ENDBRANCH  12  15
ENDBRANCH   1   9
BRANCH   2  23
ATOM     23  S   UNL d   1       2.460  -1.522  -0.488  0.00  0.00    -0.084 SA
BRANCH  23  24
ATOM     24  C   UNL d   1       3.685  -0.186  -0.350  0.00  0.00     0.166 C 
BRANCH  24  25
ATOM     25  C   UNL d   1       5.073  -0.673  -0.745  0.00  0.00     0.169 C 
ATOM     26  O   UNL d   1       5.318  -1.830  -1.090  0.00  0.00    -0.291 OA
BRANCH  25  27
ATOM     27  C   UNL d   1       6.205   0.306  -0.720  0.00  0.00     0.011 A 
ATOM     28  C   UNL d   1       6.055   1.630  -0.294  0.00  0.00     0.015 A 
ATOM     29  C   UNL d   1       7.150   2.503  -0.318  0.00  0.00     0.007 A 
ATOM     30  C   UNL d   1       8.405   2.069  -0.763  0.00  0.00    -0.062 A 
ATOM     31  C   UNL d   1       8.556   0.742  -1.175  0.00  0.00     0.007 A 
ATOM     32  C   UNL d   1       9.559   3.027  -0.819  0.00  0.00     0.048 C 
ATOM     33  C   UNL d   1       7.466  -0.131  -1.152  0.00  0.00     0.015 A 
ENDBRANCH  25  27
ENDBRANCH  24  25
ENDBRANCH  23  24
ENDBRANCH   2  23
TORSDOF 8
