REMARK  4 active torsions:
REMARK  status: ('A' for Active; 'I' for Inactive)
REMARK    1  A    between atoms: O_15  and  C_6 
REMARK    2  A    between atoms: C_10  and  C_7 
REMARK    3  A    between atoms: O_17  and  C_8 
REMARK    4  A    between atoms: O_16  and  C_9 
ROOT
ATOM      1  C   UNL d   1      -6.340  -1.067   0.232  0.00  0.00     0.135 A 
ATOM      2  C   UNL d   1      -6.105  -0.146  -0.818  0.00  0.00     0.105 A 
ATOM      3  C   UNL d   1      -5.336  -1.241   1.215  0.00  0.00     0.105 A 
ATOM      4  C   UNL d   1      -3.888   0.338   0.065  0.00  0.00    -0.029 A 
ATOM      5  C   UNL d   1      -4.885   0.546  -0.886  0.00  0.00     0.051 A 
ATOM      6  C   UNL d   1      -4.124  -0.546   1.112  0.00  0.00     0.051 A 
ENDROOT
BRANCH   4   7
ATOM      7  C   UNL d   1      -2.625   1.070  -0.028  0.00  0.00     0.036 C 
ATOM      8  C   UNL d   1      -2.400   2.270   0.523  0.00  0.00     0.076 A 
ATOM      9  C   UNL d   1      -3.339   3.087   1.347  0.00  0.00     0.264 A 
ATOM     10  S   UNL d   1      -0.907   3.131   0.322  0.00  0.00    -0.055 SA
ATOM     11  N   UNL d   1      -2.745   4.276   1.672  0.00  0.00    -0.307 N 
ATOM     12  O   UNL d   1      -4.469   2.784   1.685  0.00  0.00    -0.267 OA
ATOM     13  C   UNL d   1      -1.486   4.515   1.218  0.00  0.00     0.146 A 
ATOM     14  H   UNL d   1      -3.253   4.954   2.216  0.00  0.00     0.170 HD
ATOM     15  S   UNL d   1      -0.663   5.927   1.491  0.00  0.00    -0.052 SA
ENDBRANCH   4   7
BRANCH   2  16
ATOM     16  O   UNL d   1      -7.112   0.123  -1.714  0.00  0.00    -0.353 OA
ATOM     17  C   UNL d   1      -6.712   0.504  -3.027  0.00  0.00     0.210 C 
ENDBRANCH   2  16
BRANCH   3  18
ATOM     18  O   UNL d   1      -5.355  -2.028   2.342  0.00  0.00    -0.353 OA
ATOM     19  C   UNL d   1      -6.466  -2.867   2.609  0.00  0.00     0.210 C 
ENDBRANCH   3  18
BRANCH   1  20
ATOM     20  O   UNL d   1      -7.476  -1.818   0.390  0.00  0.00    -0.351 OA
ATOM     21  C   UNL d   1      -8.437  -1.902  -0.650  0.00  0.00     0.210 C 
ENDBRANCH   1  20
TORSDOF 4
