REMARK  1 active torsions:
REMARK  status: ('A' for Active; 'I' for Inactive)
REMARK    1  A    between atoms: C_5  and  C_4 
ROOT
ATOM      1  C   UNL d   1      -0.756  -0.786   0.024  0.00  0.00     0.060 C 
ATOM      2  C   UNL d   1      -0.927   0.730  -0.007  0.00  0.00     0.174 C 
ATOM      3  N   UNL d   1       0.627  -1.121   0.071  0.00  0.00    -0.280 NA
ATOM      4  C   UNL d   1      -1.745  -1.684  -0.000  0.00  0.00     0.064 C 
ATOM      5  C   UNL d   1       0.429   1.422  -0.041  0.00  0.00     0.064 C 
ATOM      6  C   UNL d   1       1.363  -0.651  -1.143  0.00  0.00     0.096 C 
ATOM      7  C   UNL d   1       1.312  -0.552   1.270  0.00  0.00     0.096 C 
ATOM      8  O   UNL d   1      -1.986   1.335   0.047  0.00  0.00    -0.291 OA
ATOM      9  C   UNL d   1       1.167   0.986   1.239  0.00  0.00     0.027 C 
ATOM     10  C   UNL d   1       1.169   0.876  -1.276  0.00  0.00     0.027 C 
ENDROOT
BRANCH   4  11
ATOM     11  C   UNL d   1      -3.116  -1.350  -0.116  0.00  0.00     0.076 A 
ATOM     12  O   UNL d   1      -3.764  -1.275  -1.327  0.00  0.00    -0.323 OA
ATOM     13  C   UNL d   1      -5.069  -0.993  -1.092  0.00  0.00     0.142 A 
ATOM     14  C   UNL d   1      -5.301  -0.889   0.255  0.00  0.00     0.027 A 
ATOM     15  C   UNL d   1      -4.051  -1.102   0.880  0.00  0.00     0.039 A 
ENDBRANCH   4  11
TORSDOF 1
