REMARK  4 active torsions:
REMARK  status: ('A' for Active; 'I' for Inactive)
REMARK    1  A    between atoms: C_6  and  C_1 
REMARK    2  A    between atoms: C_3  and  C_6 
REMARK    3  A    between atoms: C_11  and  C_4 
REMARK    4  A    between atoms: C_13  and  C_8 
ROOT
ATOM      1  C   UNL d   1      -1.096  -3.645   0.056  0.00  0.00     0.096 C 
ATOM      2  C   UNL d   1      -0.879  -4.914  -0.349  0.00  0.00     0.038 C 
ATOM      3  C   UNL d   1      -2.360  -3.232   0.560  0.00  0.00     0.103 C 
ATOM      4  N   UNL d   1      -3.394  -2.874   0.947  0.00  0.00    -0.191 NA
ENDROOT
BRANCH   1   5
ATOM      5  C   UNL d   1       0.064  -2.684   0.018  0.00  0.00     0.205 C 
ATOM      6  O   UNL d   1       1.223  -3.097   0.029  0.00  0.00    -0.286 OA
BRANCH   5   7
ATOM      7  C   UNL d   1      -0.250  -1.253  -0.026  0.00  0.00     0.048 A 
ATOM      8  C   UNL d   1      -1.391  -0.584  -0.569  0.00  0.00     0.056 A 
ATOM      9  C   UNL d   1      -1.269   0.759  -0.282  0.00  0.00     0.086 A 
ATOM     10  O   UNL d   1      -0.060   0.983   0.301  0.00  0.00    -0.314 OA
ATOM     11  C   UNL d   1       0.559  -0.226   0.449  0.00  0.00     0.064 A 
ATOM     12  C   UNL d   1       1.888  -0.156   1.102  0.00  0.00     0.077 C 
BRANCH   9  13
ATOM     13  C   UNL d   1      -2.170   1.900  -0.415  0.00  0.00    -0.002 A 
ATOM     14  C   UNL d   1      -3.555   1.676  -0.485  0.00  0.00     0.016 A 
ATOM     15  C   UNL d   1      -4.455   2.742  -0.559  0.00  0.00     0.024 A 
ATOM     16  C   UNL d   1      -3.977   4.048  -0.569  0.00  0.00     0.034 A 
ATOM     17  C   UNL d   1      -2.607   4.294  -0.516  0.00  0.00     0.024 A 
ATOM     18 CL   UNL d   1      -5.087   5.360  -0.634  0.00  0.00    -0.084 Cl
ATOM     19  C   UNL d   1      -1.706   3.223  -0.437  0.00  0.00     0.016 A 
ENDBRANCH   9  13
ENDBRANCH   5   7
ENDBRANCH   1   5
BRANCH   2  20
ATOM     20  C   UNL d   1      -1.897  -5.978  -0.397  0.00  0.00    -0.035 A 
ATOM     21  C   UNL d   1      -2.658  -6.166  -1.556  0.00  0.00     0.012 A 
ATOM     22  C   UNL d   1      -3.619  -7.182  -1.619  0.00  0.00     0.007 A 
ATOM     23  C   UNL d   1      -3.835  -8.029  -0.526  0.00  0.00    -0.062 A 
ATOM     24  C   UNL d   1      -3.077  -7.838   0.635  0.00  0.00     0.007 A 
ATOM     25  C   UNL d   1      -4.866  -9.118  -0.616  0.00  0.00     0.048 C 
ATOM     26  C   UNL d   1      -2.114  -6.818   0.700  0.00  0.00     0.012 A 
ENDBRANCH   2  20
TORSDOF 4
