REMARK  2 active torsions:
REMARK  status: ('A' for Active; 'I' for Inactive)
REMARK       I    between atoms: C_3  and  N_9 
REMARK    1  A    between atoms: C_4  and  C_3 
REMARK    2  A    between atoms: N_9  and  C_11 
ROOT
ATOM      1  N   UNL d   1       1.739   1.110   0.249  0.00  0.00    -0.338 N 
ATOM      2  HN  UNL d   1       2.130   2.039   0.401  1.00  0.00     0.168 HD
ATOM      3  C   UNL d   1       2.380  -0.013  -0.006  0.00  0.00     0.120 A 
ATOM      4  O   UNL d   1       1.576  -1.112  -0.184  0.00  0.00    -0.296 OA
ATOM      5  C   UNL d   1       0.312  -0.620  -0.009  0.00  0.00     0.106 A 
ATOM      6  C   UNL d   1       0.422   0.733   0.260  0.00  0.00     0.068 A 
ATOM      7  C   UNL d   1      -0.890  -1.319  -0.072  0.00  0.00     0.069 A 
ATOM      8  C   UNL d   1      -2.059  -0.569   0.159  0.00  0.00     0.037 A 
ATOM      9  C   UNL d   1      -0.739   1.469   0.501  0.00  0.00     0.035 A 
ATOM     10  C   UNL d   1      -1.973   0.799   0.455  0.00  0.00     0.032 A 
ATOM     11  C   UNL d   1       3.837  -0.233  -0.082  0.00  0.00     0.098 C 
ENDROOT
BRANCH   8  12
ATOM     12  N   UNL d   1      -3.290  -1.264   0.076  0.00  0.00    -0.323 N 
ATOM     13  C   UNL d   1      -4.564  -0.741   0.183  0.00  0.00     0.257 C 
ATOM     14  O   UNL d   1      -4.860   0.425   0.403  0.00  0.00    -0.267 OA
ATOM     15  H   UNL d   1      -3.217  -2.252  -0.140  0.00  0.00     0.169 HD
BRANCH  13  16
ATOM     16  C   UNL d   1      -5.680  -1.730   0.089  0.00  0.00     0.054 A 
ATOM     17  C   UNL d   1      -5.694  -2.838  -0.772  0.00  0.00     0.049 A 
ATOM     18 CL   UNL d   1      -4.461  -3.150  -1.942  0.00  0.00    -0.083 Cl
ATOM     19  C   UNL d   1      -6.762  -3.743  -0.727  0.00  0.00     0.025 A 
ATOM     20  C   UNL d   1      -7.824  -3.542   0.155  0.00  0.00     0.002 A 
ATOM     21  C   UNL d   1      -7.839  -2.421   0.979  0.00  0.00     0.001 A 
ATOM     22  C   UNL d   1      -6.777  -1.518   0.942  0.00  0.00     0.019 A 
ENDBRANCH  13  16
ENDBRANCH   8  12
TORSDOF 2
