REMARK  2 active torsions:
REMARK  status: ('A' for Active; 'I' for Inactive)
REMARK    1  A    between atoms: C_2  and  C_1 
REMARK       I    between atoms: N_7  and  C_2 
REMARK    2  A    between atoms: C_8  and  N_7 
ROOT
ATOM      1  C   UNL d   1       1.983   3.821   0.920  0.00  0.00     0.254 C 
ATOM      2  N   UNL d   1       0.941   3.696   0.029  0.00  0.00    -0.352 N 
ATOM      3  O   UNL d   1       1.835   4.293   2.043  0.00  0.00    -0.268 OA
ATOM      4  H   UNL d   1       1.129   3.274  -0.869  0.00  0.00     0.163 HD
ENDROOT
BRANCH   2   5
ATOM      5  C   UNL d   1      -0.457   3.924   0.350  0.00  0.00     0.093 C 
ATOM      6  C   UNL d   1      -0.846   5.340   0.837  0.00  0.00     0.064 C 
ATOM      7  C   UNL d   1      -2.203   5.049   1.410  0.00  0.00    -0.050 A 
ATOM      8  C   UNL d   1      -3.241   5.935   1.653  0.00  0.00     0.007 A 
ATOM      9  C   UNL d   1      -2.337   3.684   1.707  0.00  0.00    -0.050 A 
ATOM     10  C   UNL d   1      -4.434   5.427   2.170  0.00  0.00     0.001 A 
ATOM     11  C   UNL d   1      -4.573   4.057   2.448  0.00  0.00     0.001 A 
ATOM     12  C   UNL d   1      -3.512   3.175   2.228  0.00  0.00     0.007 A 
ATOM     13  C   UNL d   1      -1.066   2.952   1.386  0.00  0.00     0.064 C 
ENDBRANCH   2   5
BRANCH   1  14
ATOM     14  C   UNL d   1       3.262   3.293   0.443  0.00  0.00     0.063 A 
ATOM     15  C   UNL d   1       4.458   3.323   1.148  0.00  0.00     0.065 A 
ATOM     16  O   UNL d   1       5.422   2.621   0.484  0.00  0.00    -0.319 OA
ATOM     17  C   UNL d   1       4.900   3.900   2.436  0.00  0.00     0.077 C 
ATOM     18  C   UNL d   1       4.865   2.147  -0.658  0.00  0.00     0.050 A 
ATOM     19  C   UNL d   1       3.571   2.602  -0.773  0.00  0.00     0.051 A 
ATOM     20  C   UNL d   1       5.704   1.246  -1.473  0.00  0.00     0.076 C 
ENDBRANCH   1  14
TORSDOF 2
