REMARK  5 active torsions:
REMARK  status: ('A' for Active; 'I' for Inactive)
REMARK    1  A    between atoms: C_21  and  N_2 
REMARK    2  A    between atoms: N_5  and  C_14 
REMARK    3  A    between atoms: C_16  and  N_7 
REMARK    4  A    between atoms: C_11  and  C_12 
REMARK    5  A    between atoms: C_19  and  C_21 
ROOT
ATOM      1  N   UNL d   1      -1.264   5.004  -3.216  0.00  0.00    -0.197 NA
ATOM      2  C   UNL d   1      -1.158   3.941  -2.759  0.00  0.00     0.060 C 
ATOM      3  C   UNL d   1      -1.019   2.605  -2.175  0.00  0.00     0.143 C 
ENDROOT
BRANCH   3   4
ATOM      4  C   UNL d   1      -1.271   2.657  -0.665  0.00  0.00     0.137 C 
BRANCH   4   5
ATOM      5  N   UNL d   1      -1.119   1.337  -0.042  0.00  0.00    -0.380 N 
ATOM      6  C   UNL d   1       0.097   0.664  -0.017  0.00  0.00     0.036 A 
ATOM      7  C   UNL d   1       0.140  -0.744   0.026  0.00  0.00    -0.029 A 
ATOM      8  C   UNL d   1       1.322   1.346  -0.051  0.00  0.00     0.032 A 
ATOM      9  C   UNL d   1       1.375  -1.424   0.032  0.00  0.00     0.040 A 
ATOM     10  C   UNL d   1      -1.131  -1.560   0.076  0.00  0.00     0.042 C 
ATOM     11  C   UNL d   1       2.587  -0.732  -0.013  0.00  0.00     0.048 A 
ATOM     12  C   UNL d   1       2.544   0.663  -0.057  0.00  0.00     0.033 A 
ATOM     13  C   UNL d   1      -2.364  -0.745  -0.297  0.00  0.00     0.024 C 
ATOM     14  C   UNL d   1      -2.311   0.609   0.389  0.00  0.00     0.123 C 
BRANCH  11  15
ATOM     15  N   UNL d   1       3.788  -1.466  -0.086  0.00  0.00    -0.300 N 
ATOM     16  N   UNL d   1       4.706  -0.934   0.573  0.00  0.00    -0.300 N 
ATOM     17  HN  UNL d   1       4.582  -0.107   1.157  1.00  0.00     0.187 HD
ATOM     18  HN  UNL d   1       3.895  -2.331  -0.616  1.00  0.00     0.187 HD
BRANCH  16  19
ATOM     19  C   UNL d   1       5.934  -1.608   0.416  0.00  0.00     0.048 A 
ATOM     20  C   UNL d   1       7.106  -0.845   0.361  0.00  0.00     0.032 A 
ATOM     21  C   UNL d   1       8.357  -1.457   0.231  0.00  0.00     0.017 A 
ATOM     22  C   UNL d   1       8.457  -2.852   0.170  0.00  0.00     0.009 A 
ATOM     23  C   UNL d   1       7.295  -3.626   0.216  0.00  0.00     0.017 A 
ATOM     24  C   UNL d   1       6.046  -3.005   0.348  0.00  0.00     0.032 A 
BRANCH  22  25
ATOM     25  C   UNL d   1       9.815  -3.452   0.044  0.00  0.00     0.155 C 
ATOM     26  O   UNL d   1      10.716  -2.795  -0.475  0.00  0.00    -0.293 OA
ATOM     27  C   UNL d   1      10.080  -4.832   0.590  0.00  0.00     0.096 C 
ENDBRANCH  22  25
ENDBRANCH  16  19
ENDBRANCH  11  15
ENDBRANCH   4   5
ENDBRANCH   3   4
TORSDOF 5
