REMARK  5 active torsions:
REMARK  status: ('A' for Active; 'I' for Inactive)
REMARK    1  A    between atoms: C_12  and  C_1 
REMARK    2  A    between atoms: C_6  and  C_11 
REMARK    3  A    between atoms: C_25  and  C_7 
REMARK    4  A    between atoms: C_8  and  N_9 
REMARK    5  A    between atoms: N_10  and  C_12 
ROOT
ATOM      1  N   UNL d   1       3.863  -0.527  -0.092  0.00  0.00    -0.266 NA
ATOM      2  N   UNL d   1       1.629  -2.365   0.080  0.00  0.00    -0.405 N 
ATOM      3  C   UNL d   1       3.149  -0.718   1.191  0.00  0.00     0.116 C 
ATOM      4  C   UNL d   1       3.063  -0.821  -1.305  0.00  0.00     0.116 C 
ATOM      5  C   UNL d   1       2.282  -2.148  -1.198  0.00  0.00     0.132 C 
ATOM      6  C   UNL d   1       2.441  -2.082   1.250  0.00  0.00     0.132 C 
ENDROOT
BRANCH   1   7
ATOM      7  C   UNL d   1       4.441   0.760  -0.183  0.00  0.00     0.083 A 
ATOM      8  C   UNL d   1       5.447   0.988  -1.120  0.00  0.00     0.058 A 
ATOM      9  C   UNL d   1       6.002   2.264  -1.260  0.00  0.00     0.052 A 
ATOM     10  C   UNL d   1       5.534   3.285  -0.431  0.00  0.00     0.033 A 
ATOM     11  C   UNL d   1       4.547   2.980   0.486  0.00  0.00     0.090 A 
ATOM     12  N   UNL d   1       4.002   1.754   0.619  0.00  0.00    -0.357 N 
ATOM     13  HN  UNL d   1       3.273   1.581   1.311  1.00  0.00     0.166 HD
BRANCH   9  14
ATOM     14  C   UNL d   1       7.072   2.542  -2.276  0.00  0.00     0.417 C 
ATOM     15  F   UNL d   1       7.421   1.454  -3.015  0.00  0.00    -0.166 F 
ATOM     16  F   UNL d   1       6.692   3.494  -3.176  0.00  0.00    -0.166 F 
ATOM     17  F   UNL d   1       8.222   3.000  -1.713  0.00  0.00    -0.166 F 
ENDBRANCH   9  14
ENDBRANCH   1   7
BRANCH   2  18
ATOM     18  C   UNL d   1       0.191  -2.404   0.179  0.00  0.00     0.176 C 
BRANCH  18  19
ATOM     19  C   UNL d   1      -0.569  -1.138  -0.011  0.00  0.00     0.050 A 
ATOM     20  N   UNL d   1      -0.060   0.139  -0.068  0.00  0.00    -0.346 N 
ATOM     21  C   UNL d   1      -1.121   1.012  -0.128  0.00  0.00     0.081 A 
ATOM     22  H   UNL d   1       0.907   0.404   0.020  0.00  0.00     0.167 HD
ATOM     23  N   UNL d   1      -2.257   0.363  -0.225  0.00  0.00    -0.348 N 
ATOM     24  C   UNL d   1      -1.943  -0.958  -0.080  0.00  0.00     0.031 A 
ATOM     25  HN  UNL d   1      -3.183   0.763  -0.378  1.00  0.00     0.167 HD
ATOM     26  C   UNL d   1      -3.032  -1.945   0.086  0.00  0.00     0.070 C 
BRANCH  21  27
ATOM     27  C   UNL d   1      -0.992   2.485   0.052  0.00  0.00     0.072 C 
ATOM     28  C   UNL d   1      -1.834   2.920   1.248  0.00  0.00     0.013 C 
ENDBRANCH  21  27
ENDBRANCH  18  19
ENDBRANCH   2  18
TORSDOF 5
