REMARK  3 active torsions:
REMARK  status: ('A' for Active; 'I' for Inactive)
REMARK       I    between atoms: C_4  and  N_1 
REMARK       I    between atoms: N_7  and  C_4 
REMARK    1  A    between atoms: C_5  and  C_11 
REMARK    2  A    between atoms: C_6  and  C_10 
REMARK    3  A    between atoms: C_12  and  N_7 
ROOT
ATOM      1  N   UNL d   1      -1.467  -0.721   0.002  0.00  0.00    -0.229 N 
ATOM      2  N   UNL d   1      -0.167  -1.088  -0.332  0.00  0.00    -0.263 N 
ATOM      3  C   UNL d   1       0.709  -0.023  -0.266  0.00  0.00     0.247 C 
ATOM      4  C   UNL d   1      -2.559  -1.583   0.049  0.00  0.00     0.342 C 
ATOM      5  C   UNL d   1      -1.539   0.744  -0.169  0.00  0.00     0.163 C 
ATOM      6  C   UNL d   1      -0.084   1.236   0.029  0.00  0.00     0.142 C 
ATOM      7  N   UNL d   1      -2.237  -2.917  -0.118  0.00  0.00    -0.307 N 
ATOM      8  O   UNL d   1       1.916  -0.131  -0.370  0.00  0.00    -0.271 OA
ATOM      9  O   UNL d   1      -3.699  -1.171   0.245  0.00  0.00    -0.245 OA
ATOM     10  H   UNL d   1       0.195  -2.029  -0.331  0.00  0.00     0.190 HD
ATOM     11  H   UNL d   1      -1.323  -3.106  -0.486  0.00  0.00     0.170 HD
ENDROOT
BRANCH   5  12
ATOM     12  C   UNL d   1      -2.525   1.455   0.741  0.00  0.00    -0.032 A 
ATOM     13  C   UNL d   1      -2.414   1.414   2.139  0.00  0.00     0.009 A 
ATOM     14  C   UNL d   1      -3.325   2.102   2.943  0.00  0.00     0.001 A 
ATOM     15  C   UNL d   1      -4.365   2.826   2.361  0.00  0.00     0.000 A 
ATOM     16  C   UNL d   1      -4.501   2.858   0.977  0.00  0.00     0.001 A 
ATOM     17  C   UNL d   1      -3.588   2.177   0.171  0.00  0.00     0.009 A 
ENDBRANCH   5  12
BRANCH   7  18
ATOM     18  C   UNL d   1      -3.074  -4.038   0.075  0.00  0.00     0.036 A 
ATOM     19  C   UNL d   1      -4.378  -3.965   0.573  0.00  0.00     0.031 A 
ATOM     20  C   UNL d   1      -5.110  -5.130   0.834  0.00  0.00     0.021 A 
ATOM     21  C   UNL d   1      -4.541  -6.376   0.593  0.00  0.00     0.011 A 
ATOM     22  C   UNL d   1      -3.260  -6.467   0.056  0.00  0.00     0.021 A 
ATOM     23 BR   UNL d   1      -5.497  -7.947   1.024  0.00  0.00    -0.051 Br
ATOM     24  C   UNL d   1      -2.532  -5.301  -0.205  0.00  0.00     0.031 A 
ENDBRANCH   7  18
BRANCH   6  25
ATOM     25  C   UNL d   1       0.287   2.463  -0.777  0.00  0.00    -0.043 A 
ATOM     26  C   UNL d   1       0.006   3.736  -0.248  0.00  0.00     0.008 A 
ATOM     27  C   UNL d   1       0.355   4.893  -0.946  0.00  0.00     0.001 A 
ATOM     28  C   UNL d   1       0.986   4.797  -2.183  0.00  0.00     0.000 A 
ATOM     29  C   UNL d   1       1.258   3.544  -2.727  0.00  0.00     0.001 A 
ATOM     30  C   UNL d   1       0.906   2.385  -2.032  0.00  0.00     0.008 A 
ENDBRANCH   6  25
TORSDOF 3
