REMARK  6 active torsions:
REMARK  status: ('A' for Active; 'I' for Inactive)
REMARK    1  A    between atoms: S_6  and  C_1 
REMARK    2  A    between atoms: C_7  and  C_2 
REMARK    3  A    between atoms: N_10  and  C_3 
REMARK    4  A    between atoms: S_11  and  C_4 
REMARK    5  A    between atoms: O_14  and  C_7 
REMARK    6  A    between atoms: C_16  and  O_14 
ROOT
ATOM      1  C   UNL d   1      -0.653  -1.305   0.036  0.00  0.00     0.110 A 
ATOM      2  C   UNL d   1      -0.181   0.996   0.043  0.00  0.00     0.109 A 
ATOM      3  C   UNL d   1      -1.188   0.035   0.047  0.00  0.00     0.072 A 
ATOM      4  C   UNL d   1       0.742  -1.307   0.043  0.00  0.00     0.065 A 
ATOM      5  S   UNL d   1       1.362   0.280   0.084  0.00  0.00    -0.073 SA
ENDROOT
BRANCH   2   6
ATOM      6  C   UNL d   1      -0.330   2.443  -0.049  0.00  0.00     0.302 C 
ATOM      7  O   UNL d   1      -1.400   3.030  -0.172  0.00  0.00    -0.259 OA
BRANCH   6   8
ATOM      8  O   UNL d   1       0.887   3.062  -0.080  0.00  0.00    -0.317 OA
BRANCH   8   9
ATOM      9  C   UNL d   1       0.912   4.380  -0.643  0.00  0.00     0.174 C 
ATOM     10  C   UNL d   1       1.047   4.245  -2.150  0.00  0.00     0.034 C 
ENDBRANCH   8   9
ENDBRANCH   6   8
ENDBRANCH   2   6
BRANCH   3  11
ATOM     11  N   UNL d   1      -2.482   0.433   0.045  0.00  0.00    -0.397 N 
ATOM     12  H   UNL d   1      -2.709   1.435  -0.007  0.00  0.00     0.156 HD
ATOM     13  H   UNL d   1      -3.312  -0.126  -0.086  0.00  0.00     0.156 HD
ENDBRANCH   3  11
BRANCH   1  14
ATOM     14  S   UNL d   1      -1.536  -2.802   0.004  0.00  0.00     0.175 S 
ATOM     15  O   UNL d   1      -1.199  -3.389  -1.279  0.00  0.00    -0.223 OA
ATOM     16  O   UNL d   1      -1.208  -3.440   1.264  0.00  0.00    -0.223 OA
ATOM     17  C   UNL d   1      -3.269  -2.519   0.002  0.00  0.00     0.167 C 
ENDBRANCH   1  14
BRANCH   4  18
ATOM     18  S   UNL d   1       1.810  -2.727   0.016  0.00  0.00    -0.126 SA
ATOM     19  C   UNL d   1       3.486  -2.062   0.015  0.00  0.00     0.096 C 
ENDBRANCH   4  18
TORSDOF 6
