REMARK  5 active torsions:
REMARK  status: ('A' for Active; 'I' for Inactive)
REMARK       I    between atoms: C_2  and  N_9 
REMARK    1  A    between atoms: O_15  and  C_2 
REMARK    2  A    between atoms: N_8  and  C_4 
REMARK    3  A    between atoms: C_13  and  C_5 
REMARK    4  A    between atoms: N_9  and  N_6 
REMARK    5  A    between atoms: C_18  and  O_15 
ROOT
ATOM      1  C   UNL d   1       0.271   1.211  -0.014  0.00  0.00     0.054 A 
ATOM      2  C   UNL d   1      -0.461   0.011   0.006  0.00  0.00     0.047 A 
ATOM      3  C   UNL d   1       1.677   1.237  -0.007  0.00  0.00     0.031 A 
ATOM      4  C   UNL d   1       0.211  -1.208   0.034  0.00  0.00     0.003 A 
ATOM      5  C   UNL d   1       1.609  -1.209   0.039  0.00  0.00     0.017 A 
ATOM      6  C   UNL d   1       2.323  -0.006   0.023  0.00  0.00     0.030 A 
ATOM      7 CL   UNL d   1      -2.186   0.127  -0.021  0.00  0.00    -0.083 Cl
ENDROOT
BRANCH   4   8
ATOM      8  C   UNL d   1      -0.490  -2.513   0.042  0.00  0.00     0.120 C 
ATOM      9  N   UNL d   1       0.205  -3.603   0.061  0.00  0.00    -0.307 N 
ATOM     10  HN  UNL d   1       1.224  -3.579   0.093  1.00  0.00     0.186 HD
BRANCH   9  11
ATOM     11  N   UNL d   1      -0.469  -4.780   0.038  0.00  0.00    -0.246 N 
ATOM     12  C   UNL d   1       0.236  -5.944  -0.168  0.00  0.00     0.379 C 
ATOM     13  O   UNL d   1       1.456  -6.044  -0.257  0.00  0.00    -0.237 OA
ATOM     14  H   UNL d   1      -1.483  -4.808   0.001  0.00  0.00     0.192 HD
BRANCH  12  15
ATOM     15  O   UNL d   1      -0.632  -6.979  -0.323  0.00  0.00    -0.303 OA
BRANCH  15  16
ATOM     16  C   UNL d   1      -0.035  -8.191  -0.802  0.00  0.00     0.176 C 
ATOM     17  C   UNL d   1      -0.048  -8.174  -2.321  0.00  0.00     0.034 C 
ENDBRANCH  15  16
ENDBRANCH  12  15
ENDBRANCH   9  11
ENDBRANCH   4   8
BRANCH   3  18
ATOM     18  N   UNL d   1       2.381   2.427  -0.060  0.00  0.00    -0.390 N 
ATOM     19  C   UNL d   1       1.886   3.633   0.597  0.00  0.00     0.149 C 
ATOM     20  C   UNL d   1       3.754   2.494  -0.550  0.00  0.00     0.149 C 
ENDBRANCH   3  18
TORSDOF 5
