REMARK  4 active torsions:
REMARK  status: ('A' for Active; 'I' for Inactive)
REMARK    1  A    between atoms: C_8  and  N_1 
REMARK    2  A    between atoms: S_10  and  C_2 
REMARK    3  A    between atoms: C_11  and  C_8 
REMARK    4  A    between atoms: C_13  and  C_11 
ROOT
ATOM      1  N   UNL d   1       2.370  -0.570  -0.023  0.00  0.00    -0.294 N 
ATOM      2  C   UNL d   1       2.246   0.816  -0.078  0.00  0.00     0.149 A 
ATOM      3  C   UNL d   1       1.223  -1.356   0.116  0.00  0.00     0.262 A 
ATOM      4  N   UNL d   1       1.121   1.452  -0.041  0.00  0.00    -0.336 N 
ATOM      5  HN  UNL d   1       1.103   2.472  -0.051  1.00  0.00     0.168 HD
ATOM      6  C   UNL d   1      -0.080  -0.661   0.078  0.00  0.00     0.059 A 
ATOM      7  C   UNL d   1      -0.067   0.727   0.014  0.00  0.00     0.049 A 
ATOM      8  O   UNL d   1       1.231  -2.575   0.252  0.00  0.00    -0.267 OA
ATOM      9  C   UNL d   1      -1.289  -1.367   0.072  0.00  0.00     0.019 A 
ATOM     10  C   UNL d   1      -1.282   1.415  -0.041  0.00  0.00     0.030 A 
ATOM     11  C   UNL d   1      -2.497  -0.672   0.000  0.00  0.00     0.001 A 
ATOM     12  C   UNL d   1      -2.494   0.721  -0.051  0.00  0.00     0.002 A 
ENDROOT
BRANCH   1  13
ATOM     13  C   UNL d   1       3.646  -1.317  -0.154  0.00  0.00     0.139 C 
BRANCH  13  14
ATOM     14  C   UNL d   1       4.558  -1.235   1.089  0.00  0.00     0.059 C 
BRANCH  14  15
ATOM     15  C   UNL d   1       5.849  -2.034   1.063  0.00  0.00    -0.057 A 
ATOM     16  C   UNL d   1       6.999  -1.461   1.633  0.00  0.00     0.007 A 
ATOM     17  C   UNL d   1       8.204  -2.169   1.712  0.00  0.00     0.001 A 
ATOM     18  C   UNL d   1       8.272  -3.470   1.221  0.00  0.00     0.000 A 
ATOM     19  C   UNL d   1       7.143  -4.058   0.662  0.00  0.00     0.001 A 
ATOM     20  C   UNL d   1       5.933  -3.351   0.588  0.00  0.00     0.007 A 
ENDBRANCH  14  15
ENDBRANCH  13  14
ENDBRANCH   1  13
BRANCH   2  21
ATOM     21  S   UNL d   1       3.704   1.789  -0.230  0.00  0.00    -0.098 SA
ATOM     22  C   UNL d   1       3.038   3.468  -0.103  0.00  0.00     0.099 C 
ENDBRANCH   2  21
TORSDOF 4
