REMARK  4 active torsions:
REMARK  status: ('A' for Active; 'I' for Inactive)
REMARK    1  A    between atoms: C_14  and  N_4 
REMARK    2  A    between atoms: S_19  and  C_10 
REMARK    3  A    between atoms: C_17  and  C_13 
REMARK    4  A    between atoms: C_15  and  C_14 
ROOT
ATOM      1  C   UNL d   1      -0.667  -1.153   0.047  0.00  0.00     0.098 A 
ATOM      2  C   UNL d   1      -1.149  -2.495   0.065  0.00  0.00     0.152 A 
ATOM      3  N   UNL d   1      -2.280  -2.951   0.705  0.00  0.00    -0.314 N 
ATOM      4  N   UNL d   1       0.654  -0.768   0.128  0.00  0.00    -0.284 N 
ATOM      5  N   UNL d   1      -0.540  -3.512  -0.508  0.00  0.00    -0.281 N 
ATOM      6  HN  UNL d   1       0.338  -3.470  -1.025  1.00  0.00     0.188 HD
ATOM      7  N   UNL d   1       0.799   0.580   0.193  0.00  0.00    -0.301 N 
ATOM      8  HN  UNL d   1       1.661   1.107   0.331  1.00  0.00     0.187 HD
ATOM      9  C   UNL d   1      -1.381   0.020  -0.055  0.00  0.00     0.062 A 
ATOM     10  C   UNL d   1      -2.340  -4.291   0.421  0.00  0.00     0.159 A 
ATOM     11  N   UNL d   1      -1.294  -4.640  -0.288  0.00  0.00    -0.278 N 
ATOM     12  HN  UNL d   1      -1.078  -5.581  -0.617  1.00  0.00     0.189 HD
ATOM     13  C   UNL d   1      -0.437   1.067   0.038  0.00  0.00     0.036 A 
ATOM     14  C   UNL d   1      -3.161  -2.214   1.571  0.00  0.00     0.160 C 
ENDROOT
BRANCH   4  15
ATOM     15  C   UNL d   1       1.868  -1.588   0.039  0.00  0.00     0.189 C 
BRANCH  15  16
ATOM     16  C   UNL d   1       2.170  -2.516   1.202  0.00  0.00    -0.017 A 
ATOM     17  C   UNL d   1       3.327  -3.323   1.155  0.00  0.00     0.043 A 
ATOM     18  C   UNL d   1       3.584  -4.285   2.137  0.00  0.00     0.048 A 
ATOM     19 CL   UNL d   1       4.495  -3.165  -0.114  0.00  0.00    -0.084 Cl
ATOM     20  C   UNL d   1       2.684  -4.457   3.181  0.00  0.00     0.035 A 
ATOM     21  C   UNL d   1       1.563  -3.641   3.281  0.00  0.00     0.024 A 
ATOM     22 CL   UNL d   1       2.956  -5.683   4.356  0.00  0.00    -0.084 Cl
ATOM     23  C   UNL d   1       1.323  -2.662   2.313  0.00  0.00     0.012 A 
ENDBRANCH  15  16
ENDBRANCH   4  15
BRANCH  13  24
ATOM     24  C   UNL d   1      -0.726   2.558   0.009  0.00  0.00    -0.007 C 
ATOM     25  C   UNL d   1      -1.445   2.964   1.312  0.00  0.00     0.021 C 
ATOM     26  C   UNL d   1       0.556   3.405  -0.123  0.00  0.00     0.021 C 
ATOM     27  C   UNL d   1      -1.638   2.897  -1.190  0.00  0.00     0.021 C 
ENDBRANCH  13  24
BRANCH  10  28
ATOM     28  S   UNL d   1      -3.596  -5.359   0.936  0.00  0.00    -0.105 SA
ATOM     29  H   UNL d   1      -4.524  -4.472   1.319  0.00  0.00     0.110 HD
ENDBRANCH  10  28
TORSDOF 4
