REMARK  4 active torsions:
REMARK  status: ('A' for Active; 'I' for Inactive)
REMARK    1  A    between atoms: C_7  and  N_1 
REMARK    2  A    between atoms: S_8  and  C_2 
REMARK    3  A    between atoms: C_11  and  S_8 
REMARK    4  A    between atoms: C_13  and  C_11 
ROOT
ATOM      1  N   UNL d   1      -0.059  -1.321   0.070  0.00  0.00    -0.218 N 
ATOM      2  C   UNL d   1       1.120  -0.623  -0.172  0.00  0.00     0.177 A 
ATOM      3  N   UNL d   1       0.908   0.660   0.030  0.00  0.00    -0.264 N 
ATOM      4  HN  UNL d   1       1.589   1.415  -0.062  1.00  0.00     0.186 HD
ATOM      5  N   UNL d   1      -1.002  -0.400   0.406  0.00  0.00     0.001 NA
ATOM      6  N   UNL d   1      -0.403   0.779   0.388  0.00  0.00    -0.006 NA
ENDROOT
BRANCH   2   7
ATOM      7  S   UNL d   1       2.605  -1.275  -0.794  0.00  0.00    -0.087 SA
BRANCH   7   8
ATOM      8  C   UNL d   1       3.725   0.115  -0.434  0.00  0.00     0.121 C 
BRANCH   8   9
ATOM      9  C   UNL d   1       5.186  -0.263  -0.514  0.00  0.00    -0.048 A 
ATOM     10  C   UNL d   1       5.827  -0.401  -1.755  0.00  0.00     0.009 A 
ATOM     11  C   UNL d   1       7.191  -0.694  -1.820  0.00  0.00     0.024 A 
ATOM     12  C   UNL d   1       7.926  -0.853  -0.647  0.00  0.00     0.034 A 
ATOM     13  C   UNL d   1       7.303  -0.732   0.593  0.00  0.00     0.024 A 
ATOM     14 CL   UNL d   1       9.611  -1.189  -0.728  0.00  0.00    -0.084 Cl
ATOM     15  C   UNL d   1       5.938  -0.443   0.659  0.00  0.00     0.009 A 
ENDBRANCH   8   9
ENDBRANCH   7   8
ENDBRANCH   2   7
BRANCH   1  16
ATOM     16  C   UNL d   1      -0.375  -2.707   0.050  0.00  0.00     0.068 A 
ATOM     17  C   UNL d   1       0.460  -3.653   0.697  0.00  0.00    -0.033 A 
ATOM     18  C   UNL d   1       0.151  -5.024   0.590  0.00  0.00     0.009 A 
ATOM     19  C   UNL d   1       1.613  -3.319   1.610  0.00  0.00     0.050 C 
ATOM     20  C   UNL d   1      -0.994  -5.456  -0.066  0.00  0.00     0.001 A 
ATOM     21  C   UNL d   1      -1.860  -4.522  -0.626  0.00  0.00     0.009 A 
ATOM     22  C   UNL d   1      -1.568  -3.147  -0.590  0.00  0.00    -0.033 A 
ATOM     23  C   UNL d   1      -2.596  -2.254  -1.244  0.00  0.00     0.050 C 
ENDBRANCH   1  16
TORSDOF 4
