REMARK  6 active torsions:
REMARK  status: ('A' for Active; 'I' for Inactive)
REMARK    1  A    between atoms: N_4  and  C_3 
REMARK       I    between atoms: C_5  and  N_4 
REMARK    2  A    between atoms: C_10  and  C_5 
REMARK    3  A    between atoms: C_7  and  C_12 
REMARK    4  A    between atoms: O_16  and  C_7 
REMARK    5  A    between atoms: C_8  and  C_10 
REMARK    6  A    between atoms: C_12  and  C_8 
ROOT
ATOM      1  N   UNL d   1      -3.477   1.523  -0.042  0.00  0.00    -0.313 N 
ATOM      2  C   UNL d   1      -3.454   2.895   0.138  0.00  0.00     0.223 C 
ATOM      3  O   UNL d   1      -2.478   3.582   0.436  0.00  0.00    -0.273 OA
ATOM      4  H   UNL d   1      -4.356   1.067  -0.251  0.00  0.00     0.170 HD
ENDROOT
BRANCH   1   5
ATOM      5  C   UNL d   1      -2.324   0.723   0.051  0.00  0.00     0.108 A 
ATOM      6  N   UNL d   1      -1.136   1.324   0.215  0.00  0.00    -0.342 N 
ATOM      7  C   UNL d   1      -0.019   0.598   0.303  0.00  0.00     0.043 A 
ATOM      8  HN  UNL d   1      -1.086   2.341   0.271  1.00  0.00     0.167 HD
ATOM      9  C   UNL d   1      -0.023  -0.804   0.227  0.00  0.00    -0.009 A 
ATOM     10  C   UNL d   1       1.185   1.262   0.474  0.00  0.00     0.030 A 
ATOM     11  C   UNL d   1      -1.268  -1.429   0.052  0.00  0.00     0.017 A 
ATOM     12  C   UNL d   1       1.194  -1.508   0.324  0.00  0.00     0.013 A 
ATOM     13  C   UNL d   1      -2.433  -0.657  -0.041  0.00  0.00     0.049 A 
ATOM     14  C   UNL d   1       2.397  -0.818   0.495  0.00  0.00     0.001 A 
ATOM     15  C   UNL d   1       2.394   0.571   0.571  0.00  0.00     0.002 A 
ENDBRANCH   1   5
BRANCH   2  16
ATOM     16  C   UNL d   1      -4.799   3.580  -0.039  0.00  0.00     0.112 C 
BRANCH  16  17
ATOM     17  C   UNL d   1      -4.868   4.545  -1.256  0.00  0.00    -0.030 C 
ATOM     18  C   UNL d   1      -6.245   5.241  -1.236  0.00  0.00     0.016 C 
ATOM     19  C   UNL d   1      -3.806   5.665  -1.149  0.00  0.00     0.016 C 
BRANCH  17  20
ATOM     20  C   UNL d   1      -4.646   3.821  -2.606  0.00  0.00     0.119 C 
BRANCH  20  21
ATOM     21  C   UNL d   1      -5.660   2.744  -2.913  0.00  0.00     0.140 C 
ATOM     22  O   UNL d   1      -5.795   1.727  -2.239  0.00  0.00    -0.650 OA
BRANCH  21  23
ATOM     23  O   UNL d   1      -6.420   2.996  -3.999  0.00  0.00    -0.776 OA
ATOM     24  H   UNL d   1      -6.206   3.827  -4.465  0.00  0.00     0.167 HD
ENDBRANCH  21  23
ENDBRANCH  20  21
ENDBRANCH  17  20
ENDBRANCH  16  17
ENDBRANCH   2  16
TORSDOF 6
