REMARK  2 active torsions:
REMARK  status: ('A' for Active; 'I' for Inactive)
REMARK    1  A    between atoms: C_8  and  C_4 
REMARK    2  A    between atoms: N_10  and  C_7 
ROOT
ATOM      1  C   UNL d   1      -0.421   1.044   0.019  0.00  0.00     0.077 C 
ATOM      2  N   UNL d   1       1.160  -0.648  -0.160  0.00  0.00    -0.296 N 
ATOM      3  HN  UNL d   1       2.036  -1.170  -0.180  1.00  0.00     0.187 HD
ATOM      4  C   UNL d   1       1.017   0.652  -0.063  0.00  0.00     0.075 C 
ATOM      5  C   UNL d   1      -1.130  -0.228  -0.256  0.00  0.00     0.273 C 
ATOM      6  N   UNL d   1      -0.111  -1.165  -0.228  0.00  0.00    -0.265 N 
ATOM      7  C   UNL d   1      -0.895   2.242   0.400  0.00  0.00     0.104 C 
ATOM      8  O   UNL d   1      -2.306  -0.439  -0.489  0.00  0.00    -0.266 OA
ATOM      9  H   UNL d   1      -0.258  -2.152  -0.399  0.00  0.00     0.190 HD
ENDROOT
BRANCH   4  10
ATOM     10  C   UNL d   1       2.167   1.573  -0.056  0.00  0.00    -0.007 A 
ATOM     11  C   UNL d   1       2.136   2.801  -0.727  0.00  0.00     0.014 A 
ATOM     12  C   UNL d   1       3.264   3.625  -0.725  0.00  0.00     0.001 A 
ATOM     13  C   UNL d   1       4.432   3.216  -0.082  0.00  0.00     0.000 A 
ATOM     14  C   UNL d   1       4.479   1.975   0.553  0.00  0.00     0.001 A 
ATOM     15  C   UNL d   1       3.351   1.153   0.562  0.00  0.00     0.014 A 
ENDBRANCH   4  10
BRANCH   7  16
ATOM     16  N   UNL d   1      -2.159   2.762   0.664  0.00  0.00    -0.398 N 
ATOM     17  C   UNL d   1      -3.397   1.981   0.639  0.00  0.00     0.148 C 
ATOM     18  C   UNL d   1      -2.365   4.186   0.940  0.00  0.00     0.148 C 
ENDBRANCH   7  16
TORSDOF 2
