REMARK  5 active torsions:
REMARK  status: ('A' for Active; 'I' for Inactive)
REMARK    1  A    between atoms: C_4  and  C_1 
REMARK       I    between atoms: N_10  and  C_4 
REMARK    2  A    between atoms: C_7  and  N_12 
REMARK    3  A    between atoms: N_9  and  C_7 
REMARK    4  A    between atoms: C_8  and  N_9 
REMARK    5  A    between atoms: N_12  and  N_10 
ROOT
ATOM      1  C   UNL d   1       3.659  -0.230  -0.452  0.00  0.00     0.278 C 
ATOM      2  N   UNL d   1       4.408  -1.362  -0.733  0.00  0.00    -0.263 N 
ATOM      3  O   UNL d   1       2.758  -0.298   0.382  0.00  0.00    -0.265 OA
ATOM      4  H   UNL d   1       5.249  -1.315  -1.302  0.00  0.00     0.190 HD
ENDROOT
BRANCH   2   5
ATOM      5  N   UNL d   1       4.295  -2.474   0.121  0.00  0.00    -0.273 N 
ATOM      6  H   UNL d   1       3.643  -2.341   0.898  0.00  0.00     0.189 HD
BRANCH   5   7
ATOM      7  C   UNL d   1       4.390  -3.751  -0.367  0.00  0.00     0.191 C 
ATOM      8  S   UNL d   1       4.184  -4.181  -1.971  0.00  0.00    -0.039 SA
BRANCH   7   9
ATOM      9  N   UNL d   1       4.688  -4.739   0.535  0.00  0.00    -0.331 N 
ATOM     10  H   UNL d   1       4.547  -5.677   0.164  0.00  0.00     0.168 HD
BRANCH   9  11
ATOM     11  C   UNL d   1       5.585  -4.696   1.644  0.00  0.00     0.057 A 
ATOM     12  C   UNL d   1       6.183  -3.521   2.113  0.00  0.00     0.055 A 
ATOM     13  C   UNL d   1       7.177  -3.570   3.095  0.00  0.00     0.036 A 
ATOM     14 CL   UNL d   1       7.928  -2.109   3.611  0.00  0.00    -0.084 Cl
ATOM     15  C   UNL d   1       7.588  -4.784   3.635  0.00  0.00     0.026 A 
ATOM     16  C   UNL d   1       6.981  -5.962   3.207  0.00  0.00     0.028 A 
ATOM     17  C   UNL d   1       5.985  -5.919   2.224  0.00  0.00     0.060 A 
ATOM     18 CL   UNL d   1       5.299  -7.422   1.706  0.00  0.00    -0.082 Cl
ENDBRANCH   9  11
ENDBRANCH   7   9
ENDBRANCH   5   7
ENDBRANCH   2   5
BRANCH   1  19
ATOM     19  C   UNL d   1       4.041   0.992  -1.156  0.00  0.00     0.097 A 
ATOM     20  S   UNL d   1       3.159   2.417  -0.784  0.00  0.00    -0.082 SA
ATOM     21  C   UNL d   1       4.126   3.404  -1.798  0.00  0.00     0.017 A 
ATOM     22  C   UNL d   1       4.005   4.797  -1.976  0.00  0.00     0.020 A 
ATOM     23  C   UNL d   1       5.097   2.657  -2.464  0.00  0.00     0.004 A 
ATOM     24  C   UNL d   1       4.884   5.450  -2.841  0.00  0.00     0.001 A 
ATOM     25  C   UNL d   1       5.851   4.734  -3.530  0.00  0.00     0.001 A 
ATOM     26  C   UNL d   1       5.962   3.351  -3.353  0.00  0.00     0.014 A 
ATOM     27  C   UNL d   1       5.030   1.264  -2.084  0.00  0.00     0.068 A 
ATOM     28 CL   UNL d   1       6.142   0.121  -2.741  0.00  0.00    -0.082 Cl
ENDBRANCH   1  19
TORSDOF 5
