REMARK  8 active torsions:
REMARK  status: ('A' for Active; 'I' for Inactive)
REMARK    1  A    between atoms: O_15  and  C_1 
REMARK    2  A    between atoms: C_4  and  C_2 
REMARK    3  A    between atoms: C_3  and  N_10 
REMARK    4  A    between atoms: N_11  and  C_3 
REMARK       I    between atoms: N_9  and  C_4 
REMARK    5  A    between atoms: O_18  and  C_5 
REMARK    6  A    between atoms: O_17  and  C_6 
REMARK    7  A    between atoms: N_10  and  N_9 
REMARK    8  A    between atoms: C_14  and  N_11 
ROOT
ATOM      1  C   UNL d   1      -2.634   0.659  -0.299  0.00  0.00     0.270 C 
ATOM      2  N   UNL d   1      -3.066   1.869  -0.801  0.00  0.00    -0.264 N 
ATOM      3  O   UNL d   1      -3.496  -0.172   0.000  0.00  0.00    -0.266 OA
ATOM      4  H   UNL d   1      -4.076   1.952  -0.887  0.00  0.00     0.190 HD
ENDROOT
BRANCH   2   5
ATOM      5  N   UNL d   1      -2.365   3.066  -0.773  0.00  0.00    -0.273 N 
ATOM      6  H   UNL d   1      -1.787   3.248   0.039  0.00  0.00     0.189 HD
BRANCH   5   7
ATOM      7  C   UNL d   1      -2.506   4.010  -1.759  0.00  0.00     0.191 C 
ATOM      8  S   UNL d   1      -3.265   3.751  -3.231  0.00  0.00    -0.039 SA
BRANCH   7   9
ATOM      9  N   UNL d   1      -1.923   5.230  -1.551  0.00  0.00    -0.332 N 
ATOM     10  H   UNL d   1      -1.831   5.772  -2.406  0.00  0.00     0.168 HD
BRANCH   9  11
ATOM     11  C   UNL d   1      -1.505   5.877  -0.371  0.00  0.00     0.034 A 
ATOM     12  C   UNL d   1      -1.926   5.509   0.910  0.00  0.00     0.036 A 
ATOM     13  C   UNL d   1      -1.451   6.176   2.048  0.00  0.00    -0.060 A 
ATOM     14  C   UNL d   1      -1.872   5.743   3.421  0.00  0.00     0.048 C 
ATOM     15  C   UNL d   1      -0.591   7.264   1.889  0.00  0.00     0.007 A 
ATOM     16  C   UNL d   1      -0.209   7.680   0.613  0.00  0.00     0.003 A 
ATOM     17  C   UNL d   1      -0.667   6.987  -0.512  0.00  0.00     0.029 A 
ENDBRANCH   9  11
ENDBRANCH   7   9
ENDBRANCH   5   7
ENDBRANCH   2   5
BRANCH   1  18
ATOM     18  C   UNL d   1      -1.191   0.283  -0.152  0.00  0.00     0.039 A 
ATOM     19  C   UNL d   1      -0.103   1.111  -0.421  0.00  0.00     0.057 A 
ATOM     20  C   UNL d   1       1.210   0.629  -0.340  0.00  0.00     0.105 A 
ATOM     21  C   UNL d   1       1.456  -0.709  -0.005  0.00  0.00     0.135 A 
ATOM     22  C   UNL d   1       0.376  -1.532   0.361  0.00  0.00     0.105 A 
ATOM     23  C   UNL d   1      -0.930  -1.039   0.257  0.00  0.00     0.057 A 
BRANCH  20  24
ATOM     24  O   UNL d   1       2.166   1.593  -0.538  0.00  0.00    -0.353 OA
ATOM     25  C   UNL d   1       3.190   1.242  -1.460  0.00  0.00     0.210 C 
ENDBRANCH  20  24
BRANCH  21  26
ATOM     26  O   UNL d   1       2.755  -1.148   0.046  0.00  0.00    -0.351 OA
ATOM     27  C   UNL d   1       2.992  -2.309  -0.757  0.00  0.00     0.210 C 
ENDBRANCH  21  26
BRANCH  22  28
ATOM     28  O   UNL d   1       0.666  -2.805   0.787  0.00  0.00    -0.353 OA
ATOM     29  C   UNL d   1      -0.285  -3.409   1.658  0.00  0.00     0.210 C 
ENDBRANCH  22  28
ENDBRANCH   1  18
TORSDOF 8
