REMARK  4 active torsions:
REMARK  status: ('A' for Active; 'I' for Inactive)
REMARK    1  A    between atoms: C_2  and  C_1 
REMARK    2  A    between atoms: C_4  and  C_2 
REMARK    3  A    between atoms: N_7  and  C_3 
REMARK    4  A    between atoms: C_10  and  N_7 
ROOT
ATOM      1  C   UNL d   1       0.945  -0.087  -0.024  0.00  0.00     0.072 C 
ATOM      2  C   UNL d   1       2.267   0.114  -0.093  0.00  0.00     0.092 C 
ENDROOT
BRANCH   1   3
ATOM      3  C   UNL d   1       0.249  -0.762  -1.153  0.00  0.00     0.183 C 
ATOM      4  O   UNL d   1       0.750  -0.842  -2.268  0.00  0.00    -0.288 OA
BRANCH   3   5
ATOM      5  C   UNL d   1      -1.102  -1.331  -0.898  0.00  0.00     0.014 A 
ATOM      6  C   UNL d   1      -1.980  -1.456  -1.984  0.00  0.00     0.017 A 
ATOM      7  C   UNL d   1      -3.247  -2.022  -1.806  0.00  0.00     0.025 A 
ATOM      8  C   UNL d   1      -3.631  -2.471  -0.545  0.00  0.00     0.034 A 
ATOM      9  C   UNL d   1      -2.763  -2.360   0.539  0.00  0.00     0.025 A 
ATOM     10 CL   UNL d   1      -5.181  -3.186  -0.328  0.00  0.00    -0.084 Cl
ATOM     11  C   UNL d   1      -1.495  -1.794   0.364  0.00  0.00     0.017 A 
ENDBRANCH   3   5
ENDBRANCH   1   3
BRANCH   2  12
ATOM     12  N   UNL d   1       3.065   0.661   0.881  0.00  0.00    -0.366 N 
ATOM     13  H   UNL d   1       2.625   0.865   1.771  0.00  0.00     0.165 HD
BRANCH  12  14
ATOM     14  C   UNL d   1       4.454   0.868   0.825  0.00  0.00     0.033 A 
ATOM     15  C   UNL d   1       5.149   1.036  -0.379  0.00  0.00     0.053 A 
ATOM     16  C   UNL d   1       6.540   1.162  -0.385  0.00  0.00     0.036 A 
ATOM     17 CL   UNL d   1       7.370   1.394  -1.875  0.00  0.00    -0.084 Cl
ATOM     18  C   UNL d   1       7.263   1.100   0.803  0.00  0.00     0.024 A 
ATOM     19  C   UNL d   1       6.588   0.922   2.008  0.00  0.00     0.004 A 
ATOM     20  C   UNL d   1       5.195   0.809   2.016  0.00  0.00     0.029 A 
ENDBRANCH  12  14
ENDBRANCH   2  12
TORSDOF 4
