REMARK  3 active torsions:
REMARK  status: ('A' for Active; 'I' for Inactive)
REMARK    1  A    between atoms: C_3  and  C_1 
REMARK    2  A    between atoms: C_8  and  C_2 
REMARK    3  A    between atoms: C_14  and  C_9 
ROOT
ATOM      1  C   UNL d   1       0.241  -2.785   0.103  0.00  0.00     0.089 A 
ATOM      2  N   UNL d   1       1.117  -3.265   0.961  0.00  0.00    -0.349 N 
ATOM      3  HN  UNL d   1       1.588  -2.718   1.682  1.00  0.00     0.166 HD
ATOM      4  C   UNL d   1       1.306  -4.622   0.740  0.00  0.00     0.050 A 
ATOM      5  S   UNL d   1      -0.417  -3.946  -0.987  0.00  0.00    -0.081 SA
ATOM      6  C   UNL d   1       0.587  -5.150  -0.312  0.00  0.00     0.082 A 
ENDROOT
BRANCH   1   7
ATOM      7  C   UNL d   1      -0.081  -1.328   0.027  0.00  0.00     0.059 A 
ATOM      8  C   UNL d   1       0.722  -0.193   0.374  0.00  0.00     0.084 A 
ATOM      9  N   UNL d   1       0.042   0.934   0.094  0.00  0.00    -0.259 N 
ATOM     10  O   UNL d   1      -1.193   0.556  -0.374  0.00  0.00    -0.241 OA
ATOM     11  HN  UNL d   1       0.380   1.889   0.208  1.00  0.00     0.195 HD
ATOM     12  C   UNL d   1      -1.268  -0.796  -0.431  0.00  0.00     0.088 A 
ATOM     13  C   UNL d   1      -2.555  -1.348  -0.902  0.00  0.00     0.080 C 
BRANCH   8  14
ATOM     14  C   UNL d   1       2.104  -0.112   0.877  0.00  0.00     0.037 A 
ATOM     15  C   UNL d   1       3.153  -0.851   0.289  0.00  0.00     0.048 A 
ATOM     16 CL   UNL d   1       2.995  -1.710  -1.212  0.00  0.00    -0.083 Cl
ATOM     17  C   UNL d   1       4.446  -0.839   0.834  0.00  0.00     0.025 A 
ATOM     18  C   UNL d   1       4.753  -0.014   1.907  0.00  0.00     0.003 A 
ATOM     19  C   UNL d   1       3.763   0.801   2.442  0.00  0.00     0.025 A 
ATOM     20  C   UNL d   1       2.447   0.740   1.952  0.00  0.00     0.048 A 
ATOM     21 CL   UNL d   1       1.312   1.774   2.762  0.00  0.00    -0.083 Cl
ENDBRANCH   8  14
ENDBRANCH   1   7
BRANCH   4  22
ATOM     22  C   UNL d   1       2.183  -5.413   1.602  0.00  0.00    -0.006 A 
ATOM     23  C   UNL d   1       2.796  -6.589   1.148  0.00  0.00     0.053 A 
ATOM     24  C   UNL d   1       3.585  -7.348   2.014  0.00  0.00     0.103 A 
ATOM     25  O   UNL d   1       4.127  -8.497   1.499  0.00  0.00    -0.346 OA
ATOM     26  C   UNL d   1       3.790  -6.919   3.324  0.00  0.00     0.102 A 
ATOM     27  C   UNL d   1       4.624  -9.352   2.535  0.00  0.00     0.202 C 
ATOM     28  C   UNL d   1       5.418  -8.554   3.556  0.00  0.00     0.202 C 
ATOM     29  O   UNL d   1       4.576  -7.606   4.222  0.00  0.00    -0.346 OA
ATOM     30  C   UNL d   1       3.186  -5.758   3.789  0.00  0.00     0.040 A 
ATOM     31  C   UNL d   1       2.387  -5.003   2.925  0.00  0.00     0.017 A 
ENDBRANCH   4  22
TORSDOF 3
