REMARK  6 active torsions:
REMARK  status: ('A' for Active; 'I' for Inactive)
REMARK       I    between atoms: N_2  and  C_1 
REMARK    1  A    between atoms: C_8  and  C_1 
REMARK    2  A    between atoms: N_7  and  N_2 
REMARK       I    between atoms: C_3  and  N_7 
REMARK    3  A    between atoms: C_4  and  C_3 
REMARK    4  A    between atoms: C_5  and  C_6 
REMARK    5  A    between atoms: O_18  and  C_5 
REMARK    6  A    between atoms: N_10  and  C_9 
ROOT
ATOM      1  C   UNL d   1      -5.974  -3.204  -2.668  0.00  0.00     0.270 C 
ATOM      2  N   UNL d   1      -6.855  -4.169  -3.111  0.00  0.00    -0.263 N 
ATOM      3  O   UNL d   1      -4.780  -3.209  -2.949  0.00  0.00    -0.266 OA
ATOM      4  H   UNL d   1      -7.863  -4.025  -3.114  0.00  0.00     0.190 HD
ENDROOT
BRANCH   2   5
ATOM      5  N   UNL d   1      -6.365  -5.222  -3.885  0.00  0.00    -0.264 N 
ATOM      6  C   UNL d   1      -7.176  -5.732  -4.859  0.00  0.00     0.260 C 
ATOM      7  O   UNL d   1      -8.317  -5.348  -5.101  0.00  0.00    -0.267 OA
ATOM      8  H   UNL d   1      -5.354  -5.358  -3.870  0.00  0.00     0.190 HD
BRANCH   6   9
ATOM      9  C   UNL d   1      -6.556  -6.793  -5.662  0.00  0.00     0.082 C 
ATOM     10  C   UNL d   1      -6.527  -6.789  -7.000  0.00  0.00     0.086 C 
BRANCH  10  11
ATOM     11  C   UNL d   1      -6.961  -5.768  -7.971  0.00  0.00     0.165 C 
ATOM     12  O   UNL d   1      -6.499  -5.773  -9.101  0.00  0.00    -0.647 OA
BRANCH  11  13
ATOM     13  O   UNL d   1      -7.869  -4.868  -7.572  0.00  0.00    -0.773 OA
ATOM     14  H   UNL d   1      -8.278  -5.011  -6.689  0.00  0.00     0.167 HD
ENDBRANCH  11  13
ENDBRANCH  10  11
ENDBRANCH   6   9
ENDBRANCH   2   5
BRANCH   1  15
ATOM     15  C   UNL d   1      -6.566  -2.154  -1.795  0.00  0.00     0.033 A 
ATOM     16  C   UNL d   1      -7.635  -2.441  -0.945  0.00  0.00     0.019 A 
ATOM     17  C   UNL d   1      -8.107  -1.469  -0.050  0.00  0.00     0.030 A 
ATOM     18  C   UNL d   1      -7.533  -0.189   0.042  0.00  0.00     0.029 A 
ATOM     19  C   UNL d   1      -6.473   0.072  -0.847  0.00  0.00     0.030 A 
ATOM     20  C   UNL d   1      -5.990  -0.888  -1.751  0.00  0.00     0.019 A 
BRANCH  18  21
ATOM     21  N   UNL d   1      -7.915   0.732   1.014  0.00  0.00    -0.390 N 
ATOM     22  C   UNL d   1      -7.888   2.167   0.727  0.00  0.00     0.149 C 
ATOM     23  C   UNL d   1      -8.847   0.356   2.077  0.00  0.00     0.149 C 
ENDBRANCH  18  21
ENDBRANCH   1  15
TORSDOF 6
