REMARK  6 active torsions:
REMARK  status: ('A' for Active; 'I' for Inactive)
REMARK    1  A    between atoms: N_5  and  C_1 
REMARK    2  A    between atoms: N_6  and  C_1 
REMARK    3  A    between atoms: N_2  and  N_5 
REMARK    4  A    between atoms: C_8  and  C_7 
REMARK    5  A    between atoms: O_14  and  C_9 
REMARK    6  A    between atoms: C_16  and  O_14 
ROOT
ATOM      1  N   UNL d   1      -1.235   0.480  -1.496  0.00  0.00    -0.309 N 
ATOM      2  HN  UNL d   1      -1.729   1.150  -0.906  1.00  0.00     0.186 HD
ATOM      3  C   UNL d   1      -1.866  -0.289  -2.322  0.00  0.00     0.118 C 
ENDROOT
BRANCH   3   4
ATOM      4  C   UNL d   1      -3.339  -0.213  -2.414  0.00  0.00    -0.019 A 
ATOM      5  C   UNL d   1      -4.033   0.703  -1.617  0.00  0.00     0.015 A 
ATOM      6  C   UNL d   1      -5.425   0.773  -1.673  0.00  0.00     0.037 A 
ATOM      7  C   UNL d   1      -6.131  -0.074  -2.525  0.00  0.00     0.068 A 
ATOM      8  C   UNL d   1      -5.432  -0.968  -3.343  0.00  0.00     0.037 A 
ATOM      9  C   UNL d   1      -4.035  -1.049  -3.286  0.00  0.00     0.015 A 
BRANCH   7  10
ATOM     10  O   UNL d   1      -7.493  -0.082  -2.663  0.00  0.00    -0.352 OA
BRANCH  10  11
ATOM     11  C   UNL d   1      -8.231   0.350  -1.517  0.00  0.00     0.171 C 
ATOM     12  C   UNL d   1      -9.711   0.218  -1.825  0.00  0.00     0.034 C 
ENDBRANCH  10  11
ENDBRANCH   7  10
ENDBRANCH   3   4
BRANCH   1  13
ATOM     13  N   UNL d   1       0.120   0.354  -1.452  0.00  0.00    -0.277 N 
ATOM     14  H   UNL d   1       0.606  -0.323  -2.031  0.00  0.00     0.189 HD
BRANCH  13  15
ATOM     15  C   UNL d   1       0.856   1.149  -0.591  0.00  0.00     0.186 C 
ATOM     16  S   UNL d   1       2.511   0.992  -0.516  0.00  0.00    -0.040 SA
BRANCH  15  17
ATOM     17  N   UNL d   1       0.071   2.011   0.126  0.00  0.00    -0.370 N 
ATOM     18  C   UNL d   1       0.440   2.995   1.115  0.00  0.00     0.148 C 
ATOM     19  H   UNL d   1      -0.912   1.890  -0.104  0.00  0.00     0.161 HD
ENDBRANCH  15  17
ENDBRANCH  13  15
ENDBRANCH   1  13
TORSDOF 6
