REMARK  1 active torsions:
REMARK  status: ('A' for Active; 'I' for Inactive)
REMARK    1  A    between atoms: C_8  and  C_10 
ROOT
ATOM      1  C   UNL d   1      -1.833   0.205   0.189  0.00  0.00     0.118 A 
ATOM      2  C   UNL d   1      -1.525  -1.103   0.417  0.00  0.00     0.118 A 
ATOM      3  C   UNL d   1      -3.254  -0.003   0.456  0.00  0.00     0.253 A 
ATOM      4  C   UNL d   1      -2.910  -1.445   0.744  0.00  0.00     0.253 A 
ATOM      5  N   UNL d   1      -0.968   1.141  -0.114  0.00  0.00    -0.349 N 
ATOM      6  N   UNL d   1      -0.324  -1.618   0.361  0.00  0.00    -0.349 N 
ATOM      7  C   UNL d   1       0.413   0.728  -0.117  0.00  0.00     0.060 A 
ATOM      8  C   UNL d   1       0.741  -0.677   0.123  0.00  0.00     0.059 A 
ATOM      9  C   UNL d   1       2.775   1.256  -0.111  0.00  0.00     0.050 A 
ATOM     10  C   UNL d   1       1.435   1.666  -0.233  0.00  0.00     0.048 A 
ATOM     11  O   UNL d   1      -3.549  -2.386   1.142  0.00  0.00    -0.281 OA
ATOM     12  O   UNL d   1      -4.276   0.632   0.512  0.00  0.00    -0.281 OA
ATOM     13  C   UNL d   1       2.072  -1.076   0.174  0.00  0.00     0.032 A 
ATOM     14  C   UNL d   1       3.079  -0.111   0.068  0.00  0.00     0.018 A 
ATOM     15  H   UNL d   1      -1.171   2.114  -0.318  0.00  0.00     0.166 HD
ATOM     16  H   UNL d   1      -0.062  -2.572   0.589  0.00  0.00     0.166 HD
ENDROOT
BRANCH   9  17
ATOM     17  C   UNL d   1       3.887   2.279  -0.080  0.00  0.00     0.417 C 
ATOM     18  F   UNL d   1       3.495   3.520  -0.479  0.00  0.00    -0.166 F 
ATOM     19  F   UNL d   1       4.397   2.436   1.174  0.00  0.00    -0.166 F 
ATOM     20  F   UNL d   1       4.939   1.942  -0.873  0.00  0.00    -0.166 F 
ENDBRANCH   9  17
TORSDOF 1
