REMARK  2 active torsions:
REMARK  status: ('A' for Active; 'I' for Inactive)
REMARK    1  A    between atoms: C_2  and  C_1 
REMARK    2  A    between atoms: S_14  and  C_7 
ROOT
ATOM      1  C   UNL d   1      -0.448   2.769   0.156  0.00  0.00     0.197 C 
ATOM      2  S   UNL d   1      -1.617   3.250  -1.137  0.00  0.00    -0.076 SA
ATOM      3  C   UNL d   1      -2.570   4.030   0.097  0.00  0.00     0.119 C 
ATOM      4  N   UNL d   1      -1.152   2.999   1.431  0.00  0.00    -0.219 NA
ATOM      5  N   UNL d   1      -2.262   3.806   1.338  0.00  0.00    -0.308 N 
ATOM      6  HN  UNL d   1      -2.776   4.178   2.137  1.00  0.00     0.182 HD
ATOM      7  H   UNL d   1      -1.415   2.077   1.803  0.00  0.00     0.148 HD
ENDROOT
BRANCH   1   8
ATOM      8  C   UNL d   1       0.011   1.343   0.040  0.00  0.00     0.078 A 
ATOM      9  C   UNL d   1       1.168   0.860  -0.623  0.00  0.00     0.077 A 
ATOM     10  C   UNL d   1       1.160  -0.499  -0.432  0.00  0.00     0.135 A 
ATOM     11 CL   UNL d   1       2.323   1.768  -1.468  0.00  0.00    -0.081 Cl
ATOM     12  N   UNL d   1       0.043  -0.764   0.298  0.00  0.00    -0.306 N 
ATOM     13  N   UNL d   1      -0.669   0.330   0.622  0.00  0.00    -0.299 N 
ATOM     14  C   UNL d   1      -0.413  -2.069   0.719  0.00  0.00     0.177 C 
ATOM     15  HN  UNL d   1      -1.522   0.383   1.178  1.00  0.00     0.187 HD
ENDBRANCH   1   8
BRANCH   3  16
ATOM     16  S   UNL d   1      -3.863   5.066  -0.418  0.00  0.00    -0.109 SA
ATOM     17  C   UNL d   1      -4.481   5.646   1.175  0.00  0.00     0.097 C 
ENDBRANCH   3  16
TORSDOF 2
