REMARK  3 active torsions:
REMARK  status: ('A' for Active; 'I' for Inactive)
REMARK    1  A    between atoms: C_2  and  S_1 
REMARK    2  A    between atoms: N_8  and  S_1 
REMARK    3  A    between atoms: C_13  and  N_8 
ROOT
ATOM      1  C   UNL d   1       0.509   0.872   1.448  0.00  0.00     0.096 A 
ATOM      2  C   UNL d   1       0.840   0.455   2.745  0.00  0.00     0.031 A 
ATOM      3  C   UNL d   1      -0.249   2.045   1.267  0.00  0.00     0.028 A 
ATOM      4  C   UNL d   1       0.440   1.239   3.841  0.00  0.00     0.043 A 
ATOM      5  C   UNL d   1      -0.285   2.414   3.644  0.00  0.00     0.035 A 
ATOM      6  I   UNL d   1       1.913  -1.281   3.242  0.00  0.00    -0.043 I 
ATOM      7  C   UNL d   1      -0.641   2.815   2.362  0.00  0.00     0.025 A 
ATOM      8 CL   UNL d   1      -0.734   3.380   4.995  0.00  0.00    -0.084 Cl
ENDROOT
BRANCH   1   9
ATOM      9  S   UNL d   1       0.999   0.002  -0.023  0.00  0.00     0.260 S 
ATOM     10  O   UNL d   1       0.574   0.770  -1.174  0.00  0.00    -0.200 OA
ATOM     11  O   UNL d   1       0.614  -1.385   0.122  0.00  0.00    -0.200 OA
BRANCH   9  12
ATOM     12  N   UNL d   1       2.678   0.067   0.023  0.00  0.00    -0.316 N 
ATOM     13  H   UNL d   1       3.094  -0.848  -0.159  0.00  0.00     0.172 HD
BRANCH  12  14
ATOM     14  C   UNL d   1       3.341   1.252  -0.528  0.00  0.00     0.128 C 
ATOM     15  C   UNL d   1       4.843   1.129  -0.335  0.00  0.00     0.027 C 
ENDBRANCH  12  14
ENDBRANCH   9  12
ENDBRANCH   1   9
TORSDOF 3
