REMARK  5 active torsions:
REMARK  status: ('A' for Active; 'I' for Inactive)
REMARK    1  A    between atoms: C_3  and  C_1 
REMARK       I    between atoms: N_10  and  C_3 
REMARK       I    between atoms: C_5  and  N_11 
REMARK    2  A    between atoms: C_9  and  C_5 
REMARK    3  A    between atoms: C_7  and  O_13 
REMARK    4  A    between atoms: N_11  and  N_10 
REMARK    5  A    between atoms: O_13  and  C_18 
ROOT
ATOM      1  C   UNL d   1      -2.400  -0.234  -0.043  0.00  0.00     0.103 A 
ATOM      2  N   UNL d   1      -1.628   0.911  -0.064  0.00  0.00    -0.351 N 
ATOM      3  C   UNL d   1      -1.511  -1.297   0.011  0.00  0.00     0.049 A 
ATOM      4  C   UNL d   1      -0.184  -0.776  -0.003  0.00  0.00    -0.004 A 
ATOM      5  C   UNL d   1      -0.287   0.610  -0.039  0.00  0.00     0.043 A 
ATOM      6  C   UNL d   1       1.099  -1.358   0.015  0.00  0.00     0.051 A 
ATOM      7  C   UNL d   1       2.239  -0.541  -0.020  0.00  0.00     0.079 A 
ATOM      8  C   UNL d   1       0.834   1.446  -0.036  0.00  0.00     0.033 A 
ATOM      9  C   UNL d   1       2.101   0.845  -0.009  0.00  0.00     0.039 A 
ATOM     10  H   UNL d   1      -2.018   1.845  -0.098  0.00  0.00     0.166 HD
ENDROOT
BRANCH   1  11
ATOM     11  C   UNL d   1      -3.846  -0.168  -0.075  0.00  0.00     0.286 C 
ATOM     12  N   UNL d   1      -4.506  -1.380  -0.050  0.00  0.00    -0.262 N 
ATOM     13  H   UNL d   1      -4.033  -2.278  -0.074  0.00  0.00     0.190 HD
ATOM     14  O   UNL d   1      -4.453   0.902  -0.118  0.00  0.00    -0.264 OA
BRANCH  12  15
ATOM     15  N   UNL d   1      -5.907  -1.400  -0.122  0.00  0.00    -0.261 N 
ATOM     16  C   UNL d   1      -6.553  -2.538  -0.570  0.00  0.00     0.293 C 
ATOM     17  O   UNL d   1      -5.931  -3.547  -0.898  0.00  0.00    -0.264 OA
ATOM     18  H   UNL d   1      -6.408  -0.527   0.035  0.00  0.00     0.190 HD
BRANCH  16  19
ATOM     19  C   UNL d   1      -7.998  -2.436  -0.597  0.00  0.00     0.144 A 
ATOM     20  O   UNL d   1      -8.609  -1.321  -0.081  0.00  0.00    -0.317 OA
ATOM     21  C   UNL d   1      -9.950  -1.513  -0.182  0.00  0.00     0.143 A 
ATOM     22  C   UNL d   1     -10.222  -2.723  -0.773  0.00  0.00     0.027 A 
ATOM     23  C   UNL d   1      -8.965  -3.319  -1.045  0.00  0.00     0.045 A 
ENDBRANCH  16  19
ENDBRANCH  12  15
ENDBRANCH   1  11
BRANCH   7  24
ATOM     24  O   UNL d   1       3.424  -1.212   0.045  0.00  0.00    -0.255 OA
BRANCH  24  25
ATOM     25  C   UNL d   1       4.535  -0.742  -0.708  0.00  0.00     0.530 C 
ATOM     26  F   UNL d   1       4.327   0.422  -1.357  0.00  0.00    -0.144 F 
ATOM     27  F   UNL d   1       5.589  -0.583   0.124  0.00  0.00    -0.144 F 
ATOM     28  F   UNL d   1       4.867  -1.678  -1.625  0.00  0.00    -0.144 F 
ENDBRANCH  24  25
ENDBRANCH   7  24
TORSDOF 5
