REMARK  1 active torsions:
REMARK  status: ('A' for Active; 'I' for Inactive)
REMARK    1  A    between atoms: N_2  and  C_3 
REMARK       I    between atoms: C_6  and  N_4 
ROOT
ATOM      1  C   UNL d   1      -2.172  -0.634  -1.320  0.00  0.00     0.017 A 
ATOM      2  C   UNL d   1      -2.452  -1.263  -0.072  0.00  0.00     0.044 A 
ATOM      3  C   UNL d   1      -1.854   0.747  -1.313  0.00  0.00     0.046 A 
ATOM      4  C   UNL d   1      -2.146  -1.317  -2.562  0.00  0.00     0.018 A 
ATOM      5  C   UNL d   1      -1.547   1.383  -2.506  0.00  0.00     0.054 A 
ATOM      6  N   UNL d   1      -1.812   1.481  -0.193  0.00  0.00    -0.365 N 
ATOM      7  HN  UNL d   1      -1.578   2.473  -0.223  1.00  0.00     0.165 HD
ATOM      8  C   UNL d   1      -1.555   0.696  -3.718  0.00  0.00     0.036 A 
ATOM      9  C   UNL d   1      -2.413  -0.470   1.081  0.00  0.00     0.047 A 
ATOM     10  C   UNL d   1      -1.859  -0.655  -3.754  0.00  0.00     0.025 A 
ATOM     11  C   UNL d   1      -2.089   0.868   0.971  0.00  0.00     0.090 A 
ATOM     12 CL   UNL d   1      -1.169   1.523  -5.176  0.00  0.00    -0.084 Cl
ENDROOT
BRANCH   2  13
ATOM     13  N   UNL d   1      -2.675  -2.647   0.004  0.00  0.00    -0.377 N 
ATOM     14  C   UNL d   1      -2.260  -3.352   1.231  0.00  0.00     0.143 C 
ATOM     15  C   UNL d   1      -2.088  -4.849   0.919  0.00  0.00     0.145 C 
ATOM     16  N   UNL d   1      -3.300  -5.423   0.315  0.00  0.00    -0.349 N 
ATOM     17  C   UNL d   1      -3.815  -4.659  -0.838  0.00  0.00     0.145 C 
ATOM     18  C   UNL d   1      -3.808  -6.690   0.541  0.00  0.00     0.215 C 
ATOM     19  C   UNL d   1      -3.965  -3.154  -0.519  0.00  0.00     0.143 C 
ATOM     20  O   UNL d   1      -4.718  -7.156  -0.145  0.00  0.00    -0.274 OA
ATOM     21  C   UNL d   1      -3.284  -7.513   1.694  0.00  0.00     0.117 C 
ENDBRANCH   2  13
TORSDOF 1
