REMARK  7 active torsions:
REMARK  status: ('A' for Active; 'I' for Inactive)
REMARK    1  A    between atoms: C_2  and  S_1 
REMARK    2  A    between atoms: C_4  and  S_1 
REMARK    3  A    between atoms: C_9  and  C_2 
REMARK    4  A    between atoms: N_3  and  C_9 
REMARK    5  A    between atoms: C_7  and  C_8 
REMARK    6  A    between atoms: C_10  and  C_7 
REMARK    7  A    between atoms: C_11  and  C_7 
ROOT
ATOM      1  N   UNL d   1       0.583   0.028   3.978  0.00  0.00     0.089 N 
ATOM      2  C   UNL d   1      -1.247   1.339   5.940  0.00  0.00     0.002 C 
ATOM      3  C   UNL d   1       0.113   1.916   5.509  0.00  0.00     0.036 C 
ATOM      4  C   UNL d   1      -1.140  -0.194   5.772  0.00  0.00     0.036 C 
ATOM      5  C   UNL d   1       0.509   1.492   4.097  0.00  0.00     0.273 C 
ATOM      6  C   UNL d   1      -0.692  -0.605   4.363  0.00  0.00     0.273 C 
ENDROOT
BRANCH   2   7
ATOM      7  C   UNL d   1      -2.480   1.941   5.170  0.00  0.00     0.056 C 
BRANCH   7   8
ATOM      8  C   UNL d   1      -3.802   1.373   5.695  0.00  0.00    -0.049 A 
ATOM      9  C   UNL d   1      -4.187   1.537   7.036  0.00  0.00     0.008 A 
ATOM     10  C   UNL d   1      -5.404   1.035   7.497  0.00  0.00     0.001 A 
ATOM     11  C   UNL d   1      -6.257   0.364   6.625  0.00  0.00     0.000 A 
ATOM     12  C   UNL d   1      -5.889   0.187   5.293  0.00  0.00     0.001 A 
ATOM     13  C   UNL d   1      -4.671   0.688   4.829  0.00  0.00     0.008 A 
ENDBRANCH   7   8
BRANCH   7  14
ATOM     14  C   UNL d   1      -2.559   3.470   5.098  0.00  0.00    -0.049 A 
ATOM     15  C   UNL d   1      -3.116   4.073   3.955  0.00  0.00     0.008 A 
ATOM     16  C   UNL d   1      -3.213   5.462   3.847  0.00  0.00     0.001 A 
ATOM     17  C   UNL d   1      -2.761   6.273   4.883  0.00  0.00     0.000 A 
ATOM     18  C   UNL d   1      -2.232   5.695   6.034  0.00  0.00     0.001 A 
ATOM     19  C   UNL d   1      -2.143   4.304   6.147  0.00  0.00     0.008 A 
ENDBRANCH   7  14
ENDBRANCH   2   7
BRANCH   1  20
ATOM     20  C   UNL d   1       0.967  -0.400   2.613  0.00  0.00     0.287 C 
BRANCH  20  21
ATOM     21  C   UNL d   1       2.386   0.013   2.235  0.00  0.00     0.176 C 
BRANCH  21  22
ATOM     22  S   UNL d   1       2.788  -0.555   0.596  0.00  0.00     0.177 S 
ATOM     23  O   UNL d   1       1.946   0.143  -0.354  0.00  0.00    -0.223 OA
ATOM     24  O   UNL d   1       2.859  -2.004   0.606  0.00  0.00    -0.223 OA
BRANCH  22  25
ATOM     25  C   UNL d   1       4.449   0.053   0.371  0.00  0.00     0.059 A 
ATOM     26  C   UNL d   1       5.534  -0.758   0.719  0.00  0.00     0.025 A 
ATOM     27  C   UNL d   1       6.833  -0.271   0.557  0.00  0.00     0.025 A 
ATOM     28  C   UNL d   1       7.037   1.010   0.042  0.00  0.00     0.034 A 
ATOM     29  C   UNL d   1       5.952   1.808  -0.327  0.00  0.00     0.025 A 
ATOM     30 CL   UNL d   1       8.638   1.611  -0.141  0.00  0.00    -0.084 Cl
ATOM     31  C   UNL d   1       4.650   1.329  -0.167  0.00  0.00     0.025 A 
ENDBRANCH  22  25
ENDBRANCH  21  22
ENDBRANCH  20  21
ENDBRANCH   1  20
TORSDOF 7
