REMARK  8 active torsions:
REMARK  status: ('A' for Active; 'I' for Inactive)
REMARK    1  A    between atoms: C_2  and  C_1 
REMARK       I    between atoms: N_5  and  C_1 
REMARK    2  A    between atoms: C_3  and  C_16 
REMARK    3  A    between atoms: C_4  and  C_17 
REMARK    4  A    between atoms: C_15  and  N_5 
REMARK    5  A    between atoms: N_6  and  C_14 
REMARK    6  A    between atoms: N_8  and  C_20 
REMARK    7  A    between atoms: O_32  and  C_12 
REMARK    8  A    between atoms: O_31  and  C_13 
ROOT
ATOM      1  C   UNL d   1       0.943  -0.165   0.407  0.00  0.00     0.258 C 
ATOM      2  N   UNL d   1       0.309  -1.247  -0.201  0.00  0.00    -0.321 N 
ATOM      3  O   UNL d   1       0.438   0.923   0.645  0.00  0.00    -0.267 OA
ATOM      4  H   UNL d   1       0.653  -2.143   0.120  0.00  0.00     0.169 HD
ENDROOT
BRANCH   2   5
ATOM      5  C   UNL d   1      -1.078  -1.185  -0.459  0.00  0.00     0.061 A 
ATOM      6  C   UNL d   1      -1.657  -0.330  -1.419  0.00  0.00     0.059 A 
ATOM      7  C   UNL d   1      -3.059  -0.263  -1.462  0.00  0.00     0.038 A 
ATOM      8  C   UNL d   1      -3.873  -1.000  -0.587  0.00  0.00    -0.060 A 
ATOM      9  C   UNL d   1      -3.273  -1.895   0.298  0.00  0.00     0.009 A 
ATOM     10  C   UNL d   1      -5.358  -0.799  -0.594  0.00  0.00     0.048 C 
ATOM     11  C   UNL d   1      -1.885  -2.003   0.346  0.00  0.00     0.032 A 
BRANCH   6  12
ATOM     12  N   UNL d   1      -0.997   0.502  -2.351  0.00  0.00    -0.363 N 
ATOM     13  C   UNL d   1       0.121   0.170  -2.907  0.00  0.00     0.102 C 
ATOM     14  HN  UNL d   1      -1.419   1.398  -2.594  1.00  0.00     0.165 HD
BRANCH  13  15
ATOM     15  C   UNL d   1       0.735   1.048  -3.934  0.00  0.00     0.016 A 
ATOM     16  C   UNL d   1       2.015   0.791  -4.434  0.00  0.00     0.099 A 
ATOM     17  C   UNL d   1       2.532   1.592  -5.460  0.00  0.00     0.069 A 
ATOM     18 CL   UNL d   1       4.105   1.277  -6.102  0.00  0.00    -0.081 Cl
ATOM     19  C   UNL d   1       1.788   2.647  -5.988  0.00  0.00     0.050 A 
ATOM     20  C   UNL d   1       0.521   2.908  -5.473  0.00  0.00     0.036 A 
ATOM     21  C   UNL d   1      -0.007   2.120  -4.451  0.00  0.00     0.039 A 
ATOM     22 CL   UNL d   1      -0.406   4.205  -6.121  0.00  0.00    -0.084 Cl
BRANCH  16  23
ATOM     23  O   UNL d   1       2.759  -0.240  -3.916  0.00  0.00    -0.358 OA
ATOM     24  H   UNL d   1       3.634  -0.208  -4.352  0.00  0.00     0.217 HD
ENDBRANCH  16  23
ENDBRANCH  13  15
ENDBRANCH   6  12
ENDBRANCH   2   5
BRANCH   1  25
ATOM     25  C   UNL d   1       2.333  -0.468   0.839  0.00  0.00     0.059 A 
ATOM     26  C   UNL d   1       2.826  -0.166   2.125  0.00  0.00     0.047 A 
ATOM     27  C   UNL d   1       4.173  -0.467   2.389  0.00  0.00     0.030 A 
ATOM     28  C   UNL d   1       5.001  -1.058   1.431  0.00  0.00     0.002 A 
ATOM     29  C   UNL d   1       4.499  -1.363   0.173  0.00  0.00     0.001 A 
ATOM     30  C   UNL d   1       3.171  -1.067  -0.124  0.00  0.00     0.019 A 
BRANCH  26  31
ATOM     31  N   UNL d   1       2.144   0.461   3.188  0.00  0.00    -0.364 N 
ATOM     32  C   UNL d   1       0.958   0.075   3.534  0.00  0.00     0.102 C 
ATOM     33  HN  UNL d   1       2.590   1.228   3.690  1.00  0.00     0.165 HD
BRANCH  32  34
ATOM     34  C   UNL d   1       0.246   0.717   4.667  0.00  0.00     0.016 A 
ATOM     35  C   UNL d   1      -1.092   0.420   4.922  0.00  0.00     0.099 A 
ATOM     36  C   UNL d   1      -1.751   1.037   5.995  0.00  0.00     0.069 A 
ATOM     37 CL   UNL d   1      -3.410   0.687   6.317  0.00  0.00    -0.081 Cl
ATOM     38  C   UNL d   1      -1.075   1.931   6.818  0.00  0.00     0.050 A 
ATOM     39  C   UNL d   1       0.263   2.219   6.566  0.00  0.00     0.036 A 
ATOM     40  C   UNL d   1       0.927   1.621   5.492  0.00  0.00     0.039 A 
ATOM     41 CL   UNL d   1       1.107   3.309   7.594  0.00  0.00    -0.084 Cl
BRANCH  35  42
ATOM     42  O   UNL d   1      -1.759  -0.476   4.121  0.00  0.00    -0.358 OA
ATOM     43  H   UNL d   1      -2.705  -0.432   4.355  0.00  0.00     0.217 HD
ENDBRANCH  35  42
ENDBRANCH  32  34
ENDBRANCH  26  31
ENDBRANCH   1  25
TORSDOF 8
