REMARK  1 active torsions:
REMARK  status: ('A' for Active; 'I' for Inactive)
REMARK    1  A    between atoms: C_8  and  N_5 
ROOT
ATOM      1  C   UNL d   1       1.632   0.223   0.084  0.00  0.00     0.141 C 
ATOM      2  N   UNL d   1       0.524   0.729   0.509  0.00  0.00    -0.369 N 
ATOM      3  HN  UNL d   1       0.446   1.624   0.991  1.00  0.00     0.161 HD
ATOM      4  S   UNL d   1       1.502  -1.264  -0.840  0.00  0.00    -0.083 SA
ATOM      5  N   UNL d   1       2.893   0.707   0.254  0.00  0.00    -0.337 N 
ATOM      6  C   UNL d   1      -0.295  -1.011  -1.020  0.00  0.00     0.024 C 
ATOM      7  C   UNL d   1      -0.613  -0.157   0.208  0.00  0.00     0.142 C 
ATOM      8  C   UNL d   1      -0.603  -0.254  -2.316  0.00  0.00     0.029 C 
ATOM      9  C   UNL d   1      -1.032  -2.346  -0.985  0.00  0.00     0.029 C 
ATOM     10  H   UNL d   1       3.662   0.101   0.014  0.00  0.00     0.168 HD
ENDROOT
BRANCH   5  11
ATOM     11  C   UNL d   1       3.218   2.041   0.551  0.00  0.00     0.034 A 
ATOM     12  C   UNL d   1       4.340   2.328   1.343  0.00  0.00     0.036 A 
ATOM     13  C   UNL d   1       4.638   3.646   1.726  0.00  0.00    -0.060 A 
ATOM     14  C   UNL d   1       5.799   3.955   2.626  0.00  0.00     0.048 C 
ATOM     15  C   UNL d   1       3.813   4.689   1.289  0.00  0.00     0.007 A 
ATOM     16  C   UNL d   1       2.702   4.420   0.500  0.00  0.00     0.003 A 
ATOM     17  C   UNL d   1       2.401   3.105   0.149  0.00  0.00     0.029 A 
ENDBRANCH   5  11
TORSDOF 1
