REMARK  5 active torsions:
REMARK  status: ('A' for Active; 'I' for Inactive)
REMARK    1  A    between atoms: N_2  and  S_1 
REMARK    2  A    between atoms: C_10  and  S_1 
REMARK    3  A    between atoms: C_3  and  N_2 
REMARK       I    between atoms: C_4  and  N_14 
REMARK       I    between atoms: N_9  and  C_4 
REMARK    4  A    between atoms: C_13  and  N_9 
REMARK    5  A    between atoms: N_14  and  C_22 
ROOT
ATOM      1  C   UNL d   1       0.788  -0.238  -1.672  0.00  0.00     0.075 A 
ATOM      2  C   UNL d   1       1.550  -1.280  -2.201  0.00  0.00     0.027 A 
ATOM      3  C   UNL d   1      -0.344   0.223  -2.350  0.00  0.00     0.027 A 
ATOM      4  C   UNL d   1      -0.081  -1.540  -3.987  0.00  0.00     0.036 A 
ATOM      5  C   UNL d   1      -0.770  -0.424  -3.514  0.00  0.00     0.031 A 
ATOM      6  C   UNL d   1       1.120  -1.919  -3.367  0.00  0.00     0.031 A 
ENDROOT
BRANCH   1   7
ATOM      7  S   UNL d   1       1.075   0.280   0.009  0.00  0.00     0.248 S 
ATOM      8  O   UNL d   1      -0.135   0.942   0.452  0.00  0.00    -0.205 OA
ATOM      9  O   UNL d   1       1.590  -0.867   0.727  0.00  0.00    -0.205 OA
BRANCH   7  10
ATOM     10  N   UNL d   1       2.215   1.498  -0.147  0.00  0.00    -0.151 NA
ATOM     11  H   UNL d   1       1.833   2.318   0.319  0.00  0.00     0.149 HD
BRANCH  10  12
ATOM     12  C   UNL d   1       3.425   1.157   0.452  0.00  0.00     0.171 A 
ATOM     13  N   UNL d   1       4.316   0.510  -0.301  0.00  0.00    -0.336 N 
ATOM     14  C   UNL d   1       5.436   0.122   0.340  0.00  0.00     0.009 A 
ATOM     15  HN  UNL d   1       4.160   0.322  -1.292  1.00  0.00     0.168 HD
ATOM     16  C   UNL d   1       6.491  -0.565  -0.474  0.00  0.00     0.068 C 
ATOM     17  C   UNL d   1       5.631   0.335   1.691  0.00  0.00     0.049 A 
ATOM     18  C   UNL d   1       4.624   0.999   2.373  0.00  0.00     0.009 A 
ATOM     19  N   UNL d   1       3.515   1.448   1.754  0.00  0.00    -0.336 N 
ATOM     20  C   UNL d   1       4.734   1.223   3.851  0.00  0.00     0.068 C 
ATOM     21  HN  UNL d   1       2.793   1.974   2.245  1.00  0.00     0.168 HD
ENDBRANCH  10  12
ENDBRANCH   7  10
ENDBRANCH   1   7
BRANCH   4  22
ATOM     22  N   UNL d   1      -0.557  -2.381  -5.013  0.00  0.00    -0.309 N 
ATOM     23  C   UNL d   1      -1.809  -2.420  -5.556  0.00  0.00     0.325 C 
ATOM     24  N   UNL d   1      -2.064  -3.394  -6.487  0.00  0.00    -0.306 N 
ATOM     25  O   UNL d   1      -2.710  -1.611  -5.342  0.00  0.00    -0.247 OA
ATOM     26  H   UNL d   1      -2.934  -3.187  -6.966  0.00  0.00     0.171 HD
ATOM     27  H   UNL d   1       0.025  -3.179  -5.202  0.00  0.00     0.170 HD
BRANCH  24  28
ATOM     28  C   UNL d   1      -1.324  -4.494  -6.965  0.00  0.00     0.075 A 
ATOM     29  C   UNL d   1      -0.310  -5.159  -6.265  0.00  0.00     0.143 A 
ATOM     30  F   UNL d   1      -0.043  -4.859  -4.986  0.00  0.00    -0.204 F 
ATOM     31  C   UNL d   1       0.451  -6.161  -6.858  0.00  0.00     0.044 A 
ATOM     32  C   UNL d   1       0.191  -6.537  -8.171  0.00  0.00     0.003 A 
ATOM     33  C   UNL d   1      -0.867  -5.946  -8.861  0.00  0.00     0.002 A 
ATOM     34  C   UNL d   1      -1.633  -4.946  -8.253  0.00  0.00     0.033 A 
ENDBRANCH  24  28
ENDBRANCH   4  22
TORSDOF 5
