REMARK  2 active torsions:
REMARK  status: ('A' for Active; 'I' for Inactive)
REMARK    1  A    between atoms: C_5  and  C_3 
REMARK    2  A    between atoms: O_13  and  C_7 
ROOT
ATOM      1  N   UNL d   1       1.222  -1.335  -0.018  0.00  0.00    -0.350 N 
ATOM      2  HN  UNL d   1       1.243  -2.354   0.002  1.00  0.00     0.166 HD
ATOM      3  C   UNL d   1       2.390  -0.636  -0.054  0.00  0.00     0.119 A 
ATOM      4  C   UNL d   1       0.031  -0.687  -0.007  0.00  0.00     0.067 A 
ATOM      5  C   UNL d   1      -0.040   0.724  -0.026  0.00  0.00     0.025 A 
ATOM      6  C   UNL d   1       1.188   1.419  -0.036  0.00  0.00     0.080 A 
ATOM      7  C   UNL d   1       2.401   0.748  -0.059  0.00  0.00     0.071 A 
ATOM      8  C   UNL d   1      -1.177  -1.401   0.016  0.00  0.00     0.061 A 
ATOM      9 CL   UNL d   1      -1.180  -3.136   0.054  0.00  0.00    -0.082 Cl
ATOM     10  C   UNL d   1      -1.309   1.358  -0.047  0.00  0.00     0.017 A 
ATOM     11  C   UNL d   1      -2.489   0.618  -0.032  0.00  0.00     0.003 A 
ATOM     12  C   UNL d   1      -2.424  -0.765   0.005  0.00  0.00     0.026 A 
ENDROOT
BRANCH   3  13
ATOM     13  C   UNL d   1       3.716  -1.381  -0.097  0.00  0.00     0.432 C 
ATOM     14  F   UNL d   1       3.602  -2.739  -0.113  0.00  0.00    -0.165 F 
ATOM     15  F   UNL d   1       4.457  -1.060  -1.198  0.00  0.00    -0.165 F 
ATOM     16  F   UNL d   1       4.513  -1.089   0.974  0.00  0.00    -0.165 F 
ENDBRANCH   3  13
BRANCH   6  17
ATOM     17  O   UNL d   1       1.291   2.784  -0.028  0.00  0.00    -0.360 OA
ATOM     18  H   UNL d   1       0.441   3.184   0.211  0.00  0.00     0.217 HD
ENDBRANCH   6  17
TORSDOF 2
