REMARK  10 active torsions:
REMARK  status: ('A' for Active; 'I' for Inactive)
REMARK    1  A    between atoms: N_2  and  C_1 
REMARK    2  A    between atoms: C_5  and  C_3 
REMARK    3  A    between atoms: C_12  and  C_3 
REMARK    4  A    between atoms: N_4  and  C_9 
REMARK    5  A    between atoms: N_6  and  N_11 
REMARK    6  A    between atoms: N_11  and  C_10 
REMARK    7  A    between atoms: C_21  and  C_12 
REMARK    8  A    between atoms: C_27  and  C_12 
REMARK    9  A    between atoms: O_25  and  C_15 
REMARK   10  A    between atoms: O_26  and  C_23 
ROOT
ATOM      1  C   UNL d   1       3.778   3.094  -1.020  0.00  0.00     0.047 C 
ATOM      2  N   UNL d   1       3.039   2.015  -1.184  0.00  0.00    -0.303 N 
ATOM      3  HN  UNL d   1       3.480   1.107  -1.334  1.00  0.00     0.186 HD
ENDROOT
BRANCH   1   4
ATOM      4  C   UNL d   1       3.251   4.525  -0.852  0.00  0.00     0.025 A 
ATOM      5  C   UNL d   1       3.875   5.550  -0.107  0.00  0.00     0.080 A 
ATOM      6  C   UNL d   1       3.282   6.825  -0.032  0.00  0.00     0.040 A 
ATOM      7  C   UNL d   1       2.055   7.090  -0.635  0.00  0.00     0.039 A 
ATOM      8  C   UNL d   1       1.442   6.099  -1.379  0.00  0.00     0.069 A 
ATOM      9  C   UNL d   1       2.055   4.855  -1.511  0.00  0.00     0.053 A 
BRANCH   5  10
ATOM     10  O   UNL d   1       5.067   5.299   0.513  0.00  0.00    -0.355 OA
ATOM     11  C   UNL d   1       5.482   6.188   1.549  0.00  0.00     0.210 C 
ENDBRANCH   5  10
BRANCH   8  12
ATOM     12  O   UNL d   1       0.232   6.213  -1.997  0.00  0.00    -0.356 OA
ATOM     13  C   UNL d   1      -0.071   7.507  -2.496  0.00  0.00     0.210 C 
ENDBRANCH   8  12
ENDBRANCH   1   4
BRANCH   1  14
ATOM     14  C   UNL d   1       5.322   2.885  -1.047  0.00  0.00     0.070 C 
BRANCH  14  15
ATOM     15  C   UNL d   1       5.925   2.635   0.340  0.00  0.00    -0.048 A 
ATOM     16  C   UNL d   1       5.209   2.031   1.383  0.00  0.00     0.008 A 
ATOM     17  C   UNL d   1       5.762   1.938   2.663  0.00  0.00     0.001 A 
ATOM     18  C   UNL d   1       7.044   2.425   2.913  0.00  0.00     0.000 A 
ATOM     19  C   UNL d   1       7.787   2.983   1.877  0.00  0.00     0.001 A 
ATOM     20  C   UNL d   1       7.235   3.080   0.599  0.00  0.00     0.008 A 
ENDBRANCH  14  15
BRANCH  14  21
ATOM     21  C   UNL d   1       5.797   1.773  -2.008  0.00  0.00     0.011 C 
ATOM     22  C   UNL d   1       5.497   2.064  -3.473  0.00  0.00     0.006 C 
ENDBRANCH  14  21
ENDBRANCH   1  14
BRANCH   2  23
ATOM     23  N   UNL d   1       1.683   2.120  -1.154  0.00  0.00    -0.298 N 
ATOM     24  H   UNL d   1       1.292   2.482  -0.275  0.00  0.00     0.187 HD
BRANCH  23  25
ATOM     25  C   UNL d   1       0.894   1.061  -1.664  0.00  0.00     0.081 A 
ATOM     26  C   UNL d   1      -0.402   1.287  -2.181  0.00  0.00     0.133 A 
ATOM     27  C   UNL d   1      -1.265   0.246  -2.561  0.00  0.00     0.074 A 
ATOM     28  C   UNL d   1      -0.813  -1.070  -2.442  0.00  0.00     0.105 A 
ATOM     29  C   UNL d   1       0.490  -1.329  -1.990  0.00  0.00     0.038 A 
ATOM     30  C   UNL d   1       1.329  -0.271  -1.605  0.00  0.00     0.036 A 
BRANCH  26  31
ATOM     31  N   UNL d   1      -0.874   2.626  -2.406  0.00  0.00    -0.113 N 
ATOM     32  O   UNL d   1      -0.999   2.984  -3.586  0.00  0.00    -0.532 OA
ATOM     33  O   UNL d   1      -1.177   3.287  -1.406  0.00  0.00    -0.532 OA
ENDBRANCH  26  31
BRANCH  28  34
ATOM     34  N   UNL d   1      -1.714  -2.177  -2.775  0.00  0.00    -0.116 N 
ATOM     35  O   UNL d   1      -2.876  -1.892  -3.100  0.00  0.00    -0.532 OA
ATOM     36  O   UNL d   1      -1.267  -3.328  -2.694  0.00  0.00    -0.532 OA
ENDBRANCH  28  34
ENDBRANCH  23  25
ENDBRANCH   2  23
TORSDOF 10
