REMARK  6 active torsions:
REMARK  status: ('A' for Active; 'I' for Inactive)
REMARK    1  A    between atoms: N_3  and  S_1 
REMARK    2  A    between atoms: C_2  and  N_7 
REMARK    3  A    between atoms: N_5  and  C_2 
REMARK    4  A    between atoms: C_4  and  N_3 
REMARK    5  A    between atoms: C_8  and  N_5 
REMARK    6  A    between atoms: N_7  and  C_12 
ROOT
ATOM      1  C   UNL d   1       1.595  -1.950  -1.952  0.00  0.00     0.030 A 
ATOM      2  C   UNL d   1       0.377  -2.350  -2.528  0.00  0.00     0.054 A 
ATOM      3  C   UNL d   1       0.328  -2.791  -3.856  0.00  0.00     0.036 A 
ATOM      4  C   UNL d   1       2.779  -1.984  -2.698  0.00  0.00    -0.040 A 
ATOM      5  C   UNL d   1       2.709  -2.363  -4.046  0.00  0.00     0.011 A 
ATOM      6  C   UNL d   1       1.498  -2.764  -4.617  0.00  0.00     0.030 A 
ATOM      7  C   UNL d   1       4.119  -1.622  -2.124  0.00  0.00     0.050 C 
ENDROOT
BRANCH   3   8
ATOM      8  N   UNL d   1      -0.923  -3.147  -4.407  0.00  0.00    -0.333 N 
ATOM      9  H   UNL d   1      -1.744  -2.874  -3.880  0.00  0.00     0.168 HD
BRANCH   8  10
ATOM     10  C   UNL d   1      -1.205  -4.005  -5.446  0.00  0.00     0.176 C 
ATOM     11  S   UNL d   1      -0.303  -5.327  -5.940  0.00  0.00    -0.041 SA
BRANCH  10  12
ATOM     12  N   UNL d   1      -2.431  -3.824  -6.041  0.00  0.00    -0.332 N 
ATOM     13  H   UNL d   1      -2.771  -4.650  -6.530  0.00  0.00     0.168 HD
BRANCH  12  14
ATOM     14  C   UNL d   1      -2.944  -2.616  -6.596  0.00  0.00     0.056 A 
ATOM     15  C   UNL d   1      -4.065  -2.690  -7.447  0.00  0.00     0.060 A 
ATOM     16 CL   UNL d   1      -4.920  -4.179  -7.674  0.00  0.00    -0.082 Cl
ATOM     17  C   UNL d   1      -4.502  -1.571  -8.162  0.00  0.00     0.026 A 
ATOM     18  C   UNL d   1      -3.831  -0.358  -8.028  0.00  0.00     0.002 A 
ATOM     19  C   UNL d   1      -2.748  -0.260  -7.158  0.00  0.00     0.002 A 
ATOM     20  C   UNL d   1      -2.309  -1.379  -6.444  0.00  0.00     0.031 A 
ENDBRANCH  12  14
ENDBRANCH  10  12
ENDBRANCH   8  10
ENDBRANCH   3   8
BRANCH   1  21
ATOM     21  N   UNL d   1       1.624  -1.519  -0.594  0.00  0.00    -0.185 NA
ATOM     22  H   UNL d   1       1.216  -2.168   0.082  0.00  0.00     0.146 HD
BRANCH  21  23
ATOM     23  S   UNL d   1       1.112   0.054  -0.238  0.00  0.00     0.210 S 
ATOM     24  O   UNL d   1       0.607  -0.014   1.118  0.00  0.00    -0.211 OA
ATOM     25  O   UNL d   1       0.298   0.572  -1.312  0.00  0.00    -0.211 OA
ATOM     26  C   UNL d   1       2.653   0.949  -0.187  0.00  0.00     0.180 C 
ENDBRANCH  21  23
ENDBRANCH   1  21
TORSDOF 6
