REMARK  7 active torsions:
REMARK  status: ('A' for Active; 'I' for Inactive)
REMARK    1  A    between atoms: C_7  and  N_1 
REMARK    2  A    between atoms: C_2  and  C_6 
REMARK    3  A    between atoms: C_6  and  N_3 
REMARK    4  A    between atoms: O_19  and  C_4 
REMARK    5  A    between atoms: O_16  and  C_11 
REMARK    6  A    between atoms: C_20  and  O_16 
REMARK    7  A    between atoms: C_24  and  C_20 
ROOT
ATOM      1  C   UNL d   1       2.364  -1.252  -2.123  0.00  0.00     0.003 C 
ATOM      2  C   UNL d   1       1.715  -2.477  -2.337  0.00  0.00     0.078 C 
ATOM      3  C   UNL d   1       2.410  -3.621  -2.753  0.00  0.00     0.074 C 
ATOM      4  C   UNL d   1       3.669  -1.149  -2.628  0.00  0.00     0.014 C 
ATOM      5  C   UNL d   1       3.737  -3.516  -3.161  0.00  0.00     0.071 C 
ATOM      6  C   UNL d   1       4.332  -2.258  -3.175  0.00  0.00     0.037 C 
ENDROOT
BRANCH   1   7
ATOM      7  C   UNL d   1       1.720  -0.011  -1.519  0.00  0.00     0.314 C 
BRANCH   7   8
ATOM      8  N   UNL d   1       0.698  -0.227  -0.484  0.00  0.00     0.095 N 
ATOM      9  C   UNL d   1       1.210  -0.837   0.766  0.00  0.00     0.292 C 
ATOM     10  C   UNL d   1       1.925   0.121   1.754  0.00  0.00     0.153 C 
ATOM     11  N   UNL d   1       1.054   1.276   2.049  0.00  0.00    -0.378 N 
ATOM     12  C   UNL d   1       0.638   1.996   0.836  0.00  0.00     0.153 C 
ATOM     13  C   UNL d   1      -0.044   1.014  -0.155  0.00  0.00     0.292 C 
BRANCH  11  14
ATOM     14  C   UNL d   1       1.273   1.961   3.237  0.00  0.00     0.030 A 
ATOM     15  C   UNL d   1       1.136   1.286   4.466  0.00  0.00     0.032 A 
ATOM     16  C   UNL d   1       1.271   1.945   5.691  0.00  0.00     0.044 A 
ATOM     17  C   UNL d   1       1.560   3.302   5.707  0.00  0.00     0.116 A 
ATOM     18  C   UNL d   1       1.712   4.000   4.516  0.00  0.00     0.044 A 
ATOM     19  F   UNL d   1       1.685   3.941   6.875  0.00  0.00    -0.206 F 
ATOM     20  C   UNL d   1       1.563   3.335   3.295  0.00  0.00     0.032 A 
ENDBRANCH  11  14
ENDBRANCH   7   8
ENDBRANCH   1   7
BRANCH   2  21
ATOM     21  O   UNL d   1       0.348  -2.586  -2.303  0.00  0.00    -0.355 OA
ATOM     22  C   UNL d   1      -0.178  -1.975  -3.491  0.00  0.00     0.210 C 
ENDBRANCH   2  21
BRANCH   5  23
ATOM     23  O   UNL d   1       4.324  -4.684  -3.570  0.00  0.00    -0.347 OA
BRANCH  23  24
ATOM     24  C   UNL d   1       5.740  -4.643  -3.754  0.00  0.00     0.214 C 
BRANCH  24  25
ATOM     25  C   UNL d   1       6.338  -6.034  -3.777  0.00  0.00    -0.034 A 
ATOM     26  C   UNL d   1       5.654  -7.125  -4.328  0.00  0.00     0.009 A 
ATOM     27  C   UNL d   1       6.250  -8.393  -4.368  0.00  0.00     0.001 A 
ATOM     28  C   UNL d   1       7.534  -8.572  -3.850  0.00  0.00     0.000 A 
ATOM     29  C   UNL d   1       8.236  -7.487  -3.322  0.00  0.00     0.001 A 
ATOM     30  C   UNL d   1       7.650  -6.228  -3.287  0.00  0.00     0.009 A 
ENDBRANCH  24  25
ENDBRANCH  23  24
ENDBRANCH   5  23
TORSDOF 7
