REMARK  4 active torsions:
REMARK  status: ('A' for Active; 'I' for Inactive)
REMARK    1  A    between atoms: C_17  and  N_1 
REMARK    2  A    between atoms: N_19  and  C_7 
REMARK    3  A    between atoms: C_12  and  C_18 
REMARK    4  A    between atoms: N_13  and  N_19 
ROOT
ATOM      1  N   UNL d   1      -1.545  -1.097  -0.058  0.00  0.00    -0.239 N 
ATOM      2  C   UNL d   1      -0.229  -0.649  -0.013  0.00  0.00     0.143 A 
ATOM      3  N   UNL d   1      -2.419  -0.045  -0.147  0.00  0.00    -0.302 N 
ATOM      4  HN  UNL d   1      -3.435  -0.084  -0.225  1.00  0.00     0.186 HD
ATOM      5  C   UNL d   1      -0.280   0.735  -0.040  0.00  0.00     0.072 A 
ATOM      6  C   UNL d   1      -1.648   1.038  -0.111  0.00  0.00     0.127 A 
ATOM      7  C   UNL d   1       0.932   1.440   0.038  0.00  0.00     0.136 A 
ATOM      8  N   UNL d   1       0.903  -1.381   0.051  0.00  0.00    -0.336 N 
ATOM      9  HN  UNL d   1       0.918  -2.401   0.051  1.00  0.00     0.168 HD
ATOM     10  N   UNL d   1       2.080   0.716   0.135  0.00  0.00    -0.337 N 
ATOM     11  HN  UNL d   1       2.982   1.184   0.224  1.00  0.00     0.168 HD
ATOM     12  C   UNL d   1       2.005  -0.621   0.113  0.00  0.00     0.183 A 
ENDROOT
BRANCH   7  13
ATOM     13  N   UNL d   1       0.984   2.842  -0.002  0.00  0.00    -0.285 N 
ATOM     14  H   UNL d   1       0.208   3.322  -0.441  0.00  0.00     0.188 HD
BRANCH  13  15
ATOM     15  N   UNL d   1       2.003   3.480   0.625  0.00  0.00    -0.309 N 
ATOM     16  C   UNL d   1       1.957   4.774   0.605  0.00  0.00     0.126 C 
ATOM     17  HN  UNL d   1       2.759   2.972   1.084  1.00  0.00     0.186 HD
BRANCH  16  18
ATOM     18  C   UNL d   1       2.971   5.555   1.270  0.00  0.00     0.021 A 
ATOM     19  S   UNL d   1       2.904   7.262   1.189  0.00  0.00    -0.101 SA
ATOM     20  C   UNL d   1       4.331   7.424   2.119  0.00  0.00     0.050 A 
ATOM     21  C   UNL d   1       4.845   6.202   2.495  0.00  0.00     0.008 A 
ATOM     22  C   UNL d   1       4.052   5.121   2.011  0.00  0.00     0.021 A 
ENDBRANCH  16  18
ENDBRANCH  13  15
ENDBRANCH   7  13
BRANCH   1  23
ATOM     23  C   UNL d   1      -2.042  -2.435  -0.029  0.00  0.00     0.058 A 
ATOM     24  C   UNL d   1      -1.187  -3.530   0.112  0.00  0.00     0.031 A 
ATOM     25  C   UNL d   1      -1.700  -4.832   0.142  0.00  0.00     0.002 A 
ATOM     26  C   UNL d   1      -3.072  -5.047   0.023  0.00  0.00     0.000 A 
ATOM     27  C   UNL d   1      -3.931  -3.962  -0.116  0.00  0.00     0.002 A 
ATOM     28  C   UNL d   1      -3.425  -2.662  -0.137  0.00  0.00     0.031 A 
ENDBRANCH   1  23
TORSDOF 4
