REMARK  4 active torsions:
REMARK  status: ('A' for Active; 'I' for Inactive)
REMARK    1  A    between atoms: C_2  and  S_1 
REMARK    2  A    between atoms: N_3  and  S_1 
REMARK    3  A    between atoms: S_5  and  N_3 
REMARK    4  A    between atoms: C_12  and  S_5 
ROOT
ATOM      1  S   UNL d   1       0.922   0.145   0.069  0.00  0.00     0.276 S 
ATOM      2  O   UNL d   1       1.834   1.244  -0.173  0.00  0.00    -0.199 OA
ATOM      3  O   UNL d   1       1.305  -1.236  -0.163  0.00  0.00    -0.199 OA
ENDROOT
BRANCH   1   4
ATOM      4  C   UNL d   1      -0.358   0.406  -1.171  0.00  0.00     0.128 A 
ATOM      5  S   UNL d   1      -1.921   0.719  -0.570  0.00  0.00    -0.075 SA
ATOM      6  C   UNL d   1      -2.614   0.756  -2.136  0.00  0.00     0.017 A 
ATOM      7  C   UNL d   1      -3.977   0.939  -2.446  0.00  0.00     0.021 A 
ATOM      8  C   UNL d   1      -1.648   0.569  -3.127  0.00  0.00    -0.009 A 
ATOM      9  C   UNL d   1      -4.375   0.914  -3.784  0.00  0.00     0.025 A 
ATOM     10  C   UNL d   1      -3.435   0.731  -4.787  0.00  0.00     0.035 A 
ATOM     11  C   UNL d   1      -2.081   0.569  -4.479  0.00  0.00     0.037 A 
ATOM     12 CL   UNL d   1      -3.943   0.689  -6.431  0.00  0.00    -0.084 Cl
ATOM     13  C   UNL d   1      -0.327   0.385  -2.559  0.00  0.00    -0.020 A 
ATOM     14  C   UNL d   1       0.906   0.166  -3.380  0.00  0.00     0.051 C 
ENDBRANCH   1   4
BRANCH   1  15
ATOM     15  N   UNL d   1       0.203   0.331   1.584  0.00  0.00    -0.235 N 
ATOM     16  HN  UNL d   1      -0.550   1.011   1.690  1.00  0.00     0.189 HD
BRANCH  15  17
ATOM     17  S   UNL d   1       0.675  -0.550   2.905  0.00  0.00     0.061 S 
ATOM     18  O   UNL d   1       2.103  -0.556   3.105  0.00  0.00    -0.244 OA
ATOM     19  C   UNL d   1      -0.144   0.224   4.263  0.00  0.00     0.143 C 
BRANCH  17  20
ATOM     20  C   UNL d   1       0.025  -2.158   2.692  0.00  0.00     0.038 A 
ATOM     21  C   UNL d   1       0.892  -3.249   2.692  0.00  0.00     0.022 A 
ATOM     22  C   UNL d   1       0.394  -4.523   2.414  0.00  0.00     0.008 A 
ATOM     23  C   UNL d   1      -0.965  -4.709   2.128  0.00  0.00    -0.062 A 
ATOM     24  C   UNL d   1      -1.832  -3.610   2.185  0.00  0.00     0.008 A 
ATOM     25  C   UNL d   1      -1.465  -6.071   1.746  0.00  0.00     0.048 C 
ATOM     26  C   UNL d   1      -1.341  -2.333   2.464  0.00  0.00     0.022 A 
ENDBRANCH  17  20
ENDBRANCH  15  17
ENDBRANCH   1  15
TORSDOF 4
