REMARK  2 active torsions:
REMARK  status: ('A' for Active; 'I' for Inactive)
REMARK       I    between atoms: N_2  and  C_1 
REMARK    1  A    between atoms: S_3  and  C_1 
REMARK    2  A    between atoms: C_6  and  S_3 
ROOT
ATOM      1  C   UNL d   1       0.794   0.074   0.007  0.00  0.00     0.286 C 
ATOM      2  N   UNL d   1       0.281  -0.990   0.734  0.00  0.00    -0.339 N 
ATOM      3  O   UNL d   1       1.878   0.593   0.248  0.00  0.00    -0.260 OA
ATOM      4  O   UNL d   1      -0.340  -3.449   2.041  0.00  0.00    -0.388 OA
ATOM      5  C   UNL d   1       0.994  -1.408   1.943  0.00  0.00     0.152 C 
ATOM      6  C   UNL d   1      -1.049  -1.598   0.591  0.00  0.00     0.152 C 
ATOM      7  C   UNL d   1       0.999  -2.932   2.069  0.00  0.00     0.187 C 
ATOM      8  C   UNL d   1      -0.983  -3.116   0.802  0.00  0.00     0.187 C 
ENDROOT
BRANCH   1   9
ATOM      9  S   UNL d   1      -0.180   0.690  -1.315  0.00  0.00    -0.030 SA
BRANCH   9  10
ATOM     10  C   UNL d   1       0.452  -0.184  -2.739  0.00  0.00     0.010 A 
ATOM     11  C   UNL d   1      -0.379  -0.255  -3.867  0.00  0.00     0.021 A 
ATOM     12  C   UNL d   1       0.054  -0.883  -5.039  0.00  0.00     0.025 A 
ATOM     13  C   UNL d   1       1.324  -1.447  -5.091  0.00  0.00     0.034 A 
ATOM     14  C   UNL d   1       2.161  -1.392  -3.979  0.00  0.00     0.025 A 
ATOM     15 CL   UNL d   1       1.868  -2.202  -6.537  0.00  0.00    -0.084 Cl
ATOM     16  C   UNL d   1       1.727  -0.758  -2.808  0.00  0.00     0.021 A 
ENDBRANCH   9  10
ENDBRANCH   1   9
TORSDOF 2
