REMARK  2 active torsions:
REMARK  status: ('A' for Active; 'I' for Inactive)
REMARK    1  A    between atoms: C_12  and  N_3 
REMARK    2  A    between atoms: C_11  and  N_5 
ROOT
ATOM      1  C   UNL d   1       3.298   1.375  -0.945  0.00  0.00     0.151 C 
ATOM      2  C   UNL d   1       0.516   1.155   0.180  0.00  0.00     0.130 C 
ATOM      3  N   UNL d   1       3.625   2.614  -0.705  0.00  0.00    -0.335 N 
ATOM      4  HN  UNL d   1       3.414   3.317  -1.414  1.00  0.00     0.168 HD
ATOM      5  N   UNL d   1       0.508   1.788   1.301  0.00  0.00    -0.339 N 
ATOM      6  HN  UNL d   1       1.075   1.396   2.054  1.00  0.00     0.167 HD
ATOM      7  S   UNL d   1       3.315   0.070   0.251  0.00  0.00    -0.014 SA
ATOM      8  S   UNL d   1       1.306  -0.452   0.189  0.00  0.00    -0.019 SA
ATOM      9  N   UNL d   1       2.867   0.911  -2.168  0.00  0.00    -0.369 N 
ATOM     10  N   UNL d   1      -0.055   1.445  -1.038  0.00  0.00    -0.271 NA
ATOM     11  C   UNL d   1       1.691   1.393  -2.877  0.00  0.00     0.136 C 
ATOM     12  C   UNL d   1       0.694   2.221  -2.048  0.00  0.00     0.114 C 
ATOM     13  H   UNL d   1       2.919  -0.105  -2.191  0.00  0.00     0.161 HD
ATOM     14  H   UNL d   1      -0.358   0.572  -1.470  0.00  0.00     0.129 HD
ENDROOT
BRANCH   3  15
ATOM     15  C   UNL d   1       4.261   3.034   0.494  0.00  0.00     0.057 A 
ATOM     16  C   UNL d   1       5.495   3.714   0.434  0.00  0.00     0.082 A 
ATOM     17  C   UNL d   1       6.171   4.088   1.614  0.00  0.00     0.058 A 
ATOM     18 CL   UNL d   1       6.181   4.089  -1.122  0.00  0.00    -0.080 Cl
ATOM     19 CL   UNL d   1       7.691   4.913   1.598  0.00  0.00    -0.082 Cl
ATOM     20  C   UNL d   1       5.623   3.791   2.861  0.00  0.00     0.026 A 
ATOM     21  C   UNL d   1       4.388   3.167   2.943  0.00  0.00     0.004 A 
ATOM     22  C   UNL d   1       3.706   2.827   1.771  0.00  0.00     0.031 A 
ENDBRANCH   3  15
BRANCH   5  23
ATOM     23  C   UNL d   1      -0.208   2.970   1.593  0.00  0.00     0.057 A 
ATOM     24  C   UNL d   1      -0.763   3.126   2.885  0.00  0.00     0.082 A 
ATOM     25  C   UNL d   1      -1.454   4.300   3.236  0.00  0.00     0.058 A 
ATOM     26 CL   UNL d   1      -0.555   1.853   4.057  0.00  0.00    -0.080 Cl
ATOM     27 CL   UNL d   1      -2.147   4.545   4.803  0.00  0.00    -0.082 Cl
ATOM     28  C   UNL d   1      -1.597   5.335   2.311  0.00  0.00     0.026 A 
ATOM     29  C   UNL d   1      -1.030   5.212   1.051  0.00  0.00     0.004 A 
ATOM     30  C   UNL d   1      -0.332   4.049   0.710  0.00  0.00     0.031 A 
ENDBRANCH   5  23
TORSDOF 2
