REMARK  5 active torsions:
REMARK  status: ('A' for Active; 'I' for Inactive)
REMARK    1  A    between atoms: C_2  and  C_1 
REMARK    2  A    between atoms: C_4  and  C_1 
REMARK    3  A    between atoms: O_7  and  C_2 
REMARK    4  A    between atoms: C_3  and  C_4 
REMARK    5  A    between atoms: O_8  and  C_3 
ROOT
ATOM      1  C   UNL d   1       1.783   0.036  -0.026  0.00  0.00     0.054 C 
ATOM      2  C   UNL d   1       0.996  -1.259  -0.353  0.00  0.00     0.021 C 
ATOM      3  C   UNL d   1       0.895   1.205   0.465  0.00  0.00     0.021 C 
ATOM      4  C   UNL d   1      -0.307  -1.503   0.421  0.00  0.00     0.001 C 
ATOM      5  C   UNL d   1      -0.350   1.490  -0.378  0.00  0.00     0.001 C 
ATOM      6  C   UNL d   1      -1.576   0.707   0.082  0.00  0.00     0.000 C 
ATOM      7  C   UNL d   1      -1.518  -0.792  -0.181  0.00  0.00     0.000 C 
ENDROOT
BRANCH   1   8
ATOM      8  C   UNL d   1       2.857  -0.163   1.055  0.00  0.00     0.149 C 
ATOM      9  O   UNL d   1       3.932   0.430   1.028  0.00  0.00    -0.649 OA
BRANCH   8  10
ATOM     10  O   UNL d   1       2.551  -0.988   2.071  0.00  0.00    -0.776 OA
ATOM     11  H   UNL d   1       1.686  -1.436   2.031  0.00  0.00     0.167 HD
ENDBRANCH   8  10
ENDBRANCH   1   8
BRANCH   1  12
ATOM     12  C   UNL d   1       2.555   0.497  -1.302  0.00  0.00     0.130 C 
BRANCH  12  13
ATOM     13  C   UNL d   1       3.564  -0.510  -1.808  0.00  0.00     0.140 C 
ATOM     14  O   UNL d   1       3.284  -1.390  -2.610  0.00  0.00    -0.650 OA
BRANCH  13  15
ATOM     15  O   UNL d   1       4.798  -0.376  -1.283  0.00  0.00    -0.776 OA
ATOM     16  H   UNL d   1       4.840   0.250  -0.519  0.00  0.00     0.167 HD
ENDBRANCH  13  15
ENDBRANCH  12  13
ENDBRANCH   1  12
TORSDOF 5
