REMARK  6 active torsions:
REMARK  status: ('A' for Active; 'I' for Inactive)
REMARK    1  A    between atoms: C_4  and  N_1 
REMARK    2  A    between atoms: C_2  and  C_5 
REMARK    3  A    between atoms: C_3  and  O_13 
REMARK       I    between atoms: N_9  and  C_3 
REMARK    4  A    between atoms: O_13  and  N_7 
REMARK    5  A    between atoms: C_20  and  N_9 
REMARK    6  A    between atoms: C_19  and  C_21 
ROOT
ATOM      1  C   UNL d   1       2.502   0.776  -6.707  0.00  0.00     0.387 C 
ATOM      2  N   UNL d   1       3.260  -0.017  -5.875  0.00  0.00    -0.301 N 
ATOM      3  O   UNL d   1       2.861   0.970  -7.866  0.00  0.00    -0.236 OA
ATOM      4  H   UNL d   1       4.132  -0.267  -6.322  0.00  0.00     0.171 HD
ENDROOT
BRANCH   1   5
ATOM      5  O   UNL d   1       1.396   1.346  -6.139  0.00  0.00    -0.181 OA
BRANCH   5   6
ATOM      6  N   UNL d   1       1.477   2.748  -6.274  0.00  0.00    -0.267 N 
ATOM      7  C   UNL d   1       0.413   3.275  -5.762  0.00  0.00     0.126 C 
ATOM      8  HN  UNL d   1       2.248   3.261  -6.703  1.00  0.00     0.194 HD
BRANCH   7   9
ATOM      9  C   UNL d   1       0.272   4.731  -5.580  0.00  0.00    -0.017 A 
ATOM     10  C   UNL d   1       1.301   5.607  -5.941  0.00  0.00     0.049 A 
ATOM     11  C   UNL d   1       1.175   6.966  -5.627  0.00  0.00     0.103 A 
ATOM     12  C   UNL d   1       0.032   7.448  -4.970  0.00  0.00     0.036 A 
ATOM     13  C   UNL d   1      -0.997   6.566  -4.638  0.00  0.00     0.003 A 
ATOM     14  C   UNL d   1      -0.880   5.209  -4.944  0.00  0.00     0.013 A 
BRANCH  11  15
ATOM     15  N   UNL d   1       2.260   7.895  -5.961  0.00  0.00    -0.116 N 
ATOM     16  O   UNL d   1       3.209   7.462  -6.628  0.00  0.00    -0.532 OA
ATOM     17  O   UNL d   1       2.165   9.063  -5.551  0.00  0.00    -0.532 OA
ENDBRANCH  11  15
ENDBRANCH   7   9
ENDBRANCH   5   6
ENDBRANCH   1   5
BRANCH   2  18
ATOM     18  C   UNL d   1       3.110  -0.337  -4.515  0.00  0.00     0.036 A 
ATOM     19  C   UNL d   1       1.918  -0.216  -3.798  0.00  0.00     0.030 A 
ATOM     20  C   UNL d   1       1.867  -0.549  -2.438  0.00  0.00     0.018 A 
ATOM     21  C   UNL d   1       3.008  -1.012  -1.767  0.00  0.00     0.048 A 
ATOM     22  C   UNL d   1       4.199  -1.145  -2.489  0.00  0.00     0.018 A 
ATOM     23  C   UNL d   1       4.244  -0.822  -3.850  0.00  0.00     0.030 A 
BRANCH  21  24
ATOM     24  C   UNL d   1       2.929  -1.365  -0.302  0.00  0.00     0.417 C 
ATOM     25  F   UNL d   1       4.116  -1.771   0.228  0.00  0.00    -0.166 F 
ATOM     26  F   UNL d   1       2.516  -0.318   0.465  0.00  0.00    -0.166 F 
ATOM     27  F   UNL d   1       2.047  -2.375  -0.060  0.00  0.00    -0.166 F 
ENDBRANCH  21  24
ENDBRANCH   2  18
TORSDOF 6
