REMARK  6 active torsions:
REMARK  status: ('A' for Active; 'I' for Inactive)
REMARK    1  A    between atoms: C_10  and  C_1 
REMARK    2  A    between atoms: N_14  and  C_3 
REMARK    3  A    between atoms: C_13  and  C_6 
REMARK    4  A    between atoms: C_12  and  C_9 
REMARK    5  A    between atoms: O_18  and  C_10 
REMARK    6  A    between atoms: C_25  and  O_18 
ROOT
ATOM      1  C   UNL d   1       2.386   0.044   0.116  0.00  0.00     0.179 A 
ATOM      2  C   UNL d   1       0.274   0.872   0.098  0.00  0.00     0.056 A 
ATOM      3  C   UNL d   1       1.659   1.215   0.188  0.00  0.00     0.082 A 
ATOM      4  C   UNL d   1       0.258  -0.526   0.095  0.00  0.00     0.162 A 
ATOM      5  O   UNL d   1       1.527  -1.020   0.101  0.00  0.00    -0.284 OA
ATOM      6  C   UNL d   1      -0.980   1.528   0.004  0.00  0.00    -0.007 A 
ATOM      7  N   UNL d   1      -0.811  -1.341   0.060  0.00  0.00    -0.335 N 
ATOM      8  HN  UNL d   1      -0.731  -2.358   0.085  1.00  0.00     0.168 HD
ATOM      9  C   UNL d   1      -1.998  -0.706  -0.012  0.00  0.00     0.045 A 
ATOM     10  C   UNL d   1      -2.110   0.686  -0.032  0.00  0.00     0.043 A 
ENDROOT
BRANCH   9  11
ATOM     11  C   UNL d   1      -3.193  -1.577  -0.108  0.00  0.00    -0.009 A 
ATOM     12  C   UNL d   1      -3.250  -2.819   0.551  0.00  0.00     0.015 A 
ATOM     13  C   UNL d   1      -4.375  -3.649   0.447  0.00  0.00     0.024 A 
ATOM     14  C   UNL d   1      -5.462  -3.250  -0.324  0.00  0.00     0.034 A 
ATOM     15  C   UNL d   1      -5.441  -2.026  -0.981  0.00  0.00     0.024 A 
ATOM     16 CL   UNL d   1      -6.833  -4.277  -0.476  0.00  0.00    -0.084 Cl
ATOM     17  C   UNL d   1      -4.316  -1.202  -0.875  0.00  0.00     0.015 A 
ENDBRANCH   9  11
BRANCH   6  18
ATOM     18  C   UNL d   1      -1.124   2.994  -0.086  0.00  0.00    -0.025 A 
ATOM     19  C   UNL d   1      -0.254   3.783  -0.857  0.00  0.00     0.012 A 
ATOM     20  C   UNL d   1      -0.345   5.178  -0.871  0.00  0.00     0.001 A 
ATOM     21  C   UNL d   1      -1.375   5.813  -0.189  0.00  0.00     0.000 A 
ATOM     22  C   UNL d   1      -2.310   5.053   0.505  0.00  0.00     0.001 A 
ATOM     23  C   UNL d   1      -2.175   3.663   0.569  0.00  0.00     0.012 A 
ENDBRANCH   6  18
BRANCH   1  24
ATOM     24  C   UNL d   1       3.806  -0.166   0.009  0.00  0.00     0.319 C 
ATOM     25  O   UNL d   1       4.650   0.732  -0.052  0.00  0.00    -0.257 OA
BRANCH  24  26
ATOM     26  O   UNL d   1       4.085  -1.492  -0.117  0.00  0.00    -0.316 OA
BRANCH  26  27
ATOM     27  C   UNL d   1       5.367  -1.801  -0.680  0.00  0.00     0.175 C 
ATOM     28  C   UNL d   1       5.215  -1.840  -2.190  0.00  0.00     0.034 C 
ENDBRANCH  26  27
ENDBRANCH  24  26
ENDBRANCH   1  24
BRANCH   3  29
ATOM     29  N   UNL d   1       2.211   2.444   0.280  0.00  0.00    -0.396 N 
ATOM     30  H   UNL d   1       1.688   3.250   0.613  0.00  0.00     0.156 HD
ATOM     31  H   UNL d   1       3.223   2.566   0.345  0.00  0.00     0.156 HD
ENDBRANCH   3  29
TORSDOF 6
