REMARK  4 active torsions:
REMARK  status: ('A' for Active; 'I' for Inactive)
REMARK       I    between atoms: C_3  and  N_1 
REMARK    1  A    between atoms: C_2  and  C_5 
REMARK       I    between atoms: N_4  and  C_2 
REMARK    2  A    between atoms: C_12  and  N_4 
REMARK    3  A    between atoms: O_18  and  C_13 
REMARK    4  A    between atoms: C_20  and  O_18 
ROOT
ATOM      1  C   UNL d   1      -1.520  -0.037  -1.773  0.00  0.00     0.226 C 
ATOM      2  N   UNL d   1      -1.383  -1.246  -2.430  0.00  0.00    -0.327 N 
ATOM      3  O   UNL d   1      -1.705   1.048  -2.331  0.00  0.00    -0.273 OA
ATOM      4  H   UNL d   1      -1.293  -2.083  -1.872  0.00  0.00     0.169 HD
ENDROOT
BRANCH   1   5
ATOM      5  C   UNL d   1      -1.393  -0.101  -0.244  0.00  0.00     0.081 C 
ATOM      6  C   UNL d   1      -1.606   1.299   0.357  0.00  0.00     0.034 C 
ATOM      7  C   UNL d   1      -3.072   1.724   0.281  0.00  0.00     0.126 C 
ATOM      8  N   UNL d   1      -3.917   0.752   0.968  0.00  0.00    -0.352 N 
ATOM      9  C   UNL d   1      -4.961   1.056   1.830  0.00  0.00     0.215 C 
ATOM     10  C   UNL d   1      -3.792  -0.623   0.480  0.00  0.00     0.126 C 
ATOM     11  O   UNL d   1      -5.706   0.183   2.284  0.00  0.00    -0.274 OA
ATOM     12  C   UNL d   1      -5.171   2.485   2.277  0.00  0.00     0.117 C 
ATOM     13  C   UNL d   1      -2.335  -1.094   0.445  0.00  0.00     0.034 C 
ENDBRANCH   1   5
BRANCH   2  14
ATOM     14  C   UNL d   1      -1.549  -1.442  -3.824  0.00  0.00     0.034 A 
ATOM     15  C   UNL d   1      -1.578  -0.396  -4.750  0.00  0.00     0.032 A 
ATOM     16  C   UNL d   1      -1.901  -0.628  -6.090  0.00  0.00     0.039 A 
ATOM     17  C   UNL d   1      -2.200  -1.915  -6.523  0.00  0.00     0.068 A 
ATOM     18  C   UNL d   1      -2.062  -2.980  -5.633  0.00  0.00     0.039 A 
ATOM     19  C   UNL d   1      -1.735  -2.748  -4.290  0.00  0.00     0.032 A 
BRANCH  17  20
ATOM     20  O   UNL d   1      -2.605  -2.226  -7.794  0.00  0.00    -0.352 OA
BRANCH  20  21
ATOM     21  C   UNL d   1      -3.423  -1.223  -8.411  0.00  0.00     0.171 C 
ATOM     22  C   UNL d   1      -3.983  -1.778  -9.708  0.00  0.00     0.034 C 
ENDBRANCH  20  21
ENDBRANCH  17  20
ENDBRANCH   2  14
TORSDOF 4
