REMARK  4 active torsions:
REMARK  status: ('A' for Active; 'I' for Inactive)
REMARK    1  A    between atoms: S_6  and  C_1 
REMARK    2  A    between atoms: C_13  and  S_6 
REMARK       I    between atoms: C_7  and  N_8 
REMARK    3  A    between atoms: C_15  and  C_7 
REMARK    4  A    between atoms: N_8  and  C_14 
ROOT
ATOM      1  C   UNL d   1       4.495  -3.078   0.482  0.00  0.00     0.096 C 
ATOM      2  C   UNL d   1       4.567  -3.483   1.819  0.00  0.00     0.085 C 
ATOM      3  N   UNL d   1       4.874  -3.890  -0.533  0.00  0.00    -0.349 N 
ATOM      4  HN  UNL d   1       4.831  -3.566  -1.499  1.00  0.00     0.166 HD
ATOM      5  C   UNL d   1       5.177  -4.713   2.129  0.00  0.00    -0.026 C 
ATOM      6  C   UNL d   1       5.498  -5.596   1.071  0.00  0.00    -0.002 A 
ATOM      7  C   UNL d   1       3.878  -2.753   2.842  0.00  0.00     0.103 C 
ATOM      8  C   UNL d   1       5.308  -5.134  -0.247  0.00  0.00     0.043 A 
ATOM      9  N   UNL d   1       3.256  -2.253   3.678  0.00  0.00    -0.191 NA
ATOM     10  C   UNL d   1       5.438  -5.117   3.567  0.00  0.00     0.050 C 
ATOM     11  C   UNL d   1       5.942  -6.925   1.277  0.00  0.00     0.014 A 
ATOM     12  C   UNL d   1       5.543  -6.010  -1.299  0.00  0.00     0.030 A 
ATOM     13  C   UNL d   1       6.149  -7.791   0.204  0.00  0.00     0.001 A 
ATOM     14  C   UNL d   1       5.943  -7.333  -1.088  0.00  0.00     0.002 A 
ENDROOT
BRANCH   1  15
ATOM     15  S   UNL d   1       3.766  -1.521  -0.049  0.00  0.00    -0.069 SA
BRANCH  15  16
ATOM     16  C   UNL d   1       5.218  -0.467  -0.181  0.00  0.00     0.033 A 
ATOM     17  C   UNL d   1       5.669   0.302   0.908  0.00  0.00     0.052 A 
ATOM     18  C   UNL d   1       6.833   1.074   0.800  0.00  0.00     0.031 A 
ATOM     19  C   UNL d   1       7.495   1.157  -0.426  0.00  0.00     0.002 A 
ATOM     20  C   UNL d   1       7.026   0.435  -1.524  0.00  0.00     0.002 A 
ATOM     21  C   UNL d   1       5.908  -0.395  -1.396  0.00  0.00     0.021 A 
BRANCH  17  22
ATOM     22  N   UNL d   1       4.834   0.443   2.029  0.00  0.00    -0.322 N 
ATOM     23  C   UNL d   1       5.239   0.411   3.346  0.00  0.00     0.256 C 
ATOM     24  O   UNL d   1       6.364   0.092   3.719  0.00  0.00    -0.267 OA
ATOM     25  H   UNL d   1       3.848   0.427   1.814  0.00  0.00     0.169 HD
BRANCH  23  26
ATOM     26  C   UNL d   1       4.194   0.800   4.348  0.00  0.00     0.032 A 
ATOM     27  C   UNL d   1       2.820   0.810   4.057  0.00  0.00     0.018 A 
ATOM     28  C   UNL d   1       1.903   1.320   4.978  0.00  0.00     0.025 A 
ATOM     29  C   UNL d   1       2.355   1.815   6.197  0.00  0.00     0.034 A 
ATOM     30  C   UNL d   1       3.708   1.751   6.526  0.00  0.00     0.025 A 
ATOM     31 CL   UNL d   1       1.236   2.527   7.290  0.00  0.00    -0.084 Cl
ATOM     32  C   UNL d   1       4.626   1.233   5.607  0.00  0.00     0.018 A 
ENDBRANCH  23  26
ENDBRANCH  17  22
ENDBRANCH  15  16
ENDBRANCH   1  15
TORSDOF 4
