REMARK  5 active torsions:
REMARK  status: ('A' for Active; 'I' for Inactive)
REMARK    1  A    between atoms: N_3  and  C_1 
REMARK    2  A    between atoms: N_4  and  C_1 
REMARK    3  A    between atoms: C_5  and  N_3 
REMARK    4  A    between atoms: C_7  and  C_5 
REMARK    5  A    between atoms: C_6  and  C_7 
ROOT
ATOM      1  C   UNL d   1      -1.182  -0.736   0.830  0.00  0.00     0.126 C 
ENDROOT
BRANCH   1   2
ATOM      2  N   UNL d   1       0.269  -0.658   0.656  0.00  0.00    -0.367 N 
ATOM      3  H   UNL d   1       0.831  -0.976   1.432  0.00  0.00     0.161 HD
BRANCH   2   4
ATOM      4  C   UNL d   1       0.903   0.156  -0.267  0.00  0.00     0.167 C 
ATOM      5  S   UNL d   1       0.114   1.113  -1.387  0.00  0.00    -0.041 SA
BRANCH   4   6
ATOM      6  N   UNL d   1       2.274   0.058  -0.136  0.00  0.00    -0.372 N 
ATOM      7  C   UNL d   1       3.283   0.739  -0.930  0.00  0.00     0.148 C 
ATOM      8  H   UNL d   1       2.622  -0.658   0.483  0.00  0.00     0.161 HD
ENDBRANCH   4   6
ENDBRANCH   2   4
ENDBRANCH   1   2
BRANCH   1   9
ATOM      9  C   UNL d   1      -1.599  -1.746   1.901  0.00  0.00     0.058 C 
BRANCH   9  10
ATOM     10  C   UNL d   1      -3.101  -1.818   2.025  0.00  0.00    -0.057 A 
ATOM     11  C   UNL d   1      -3.836  -2.712   1.233  0.00  0.00     0.007 A 
ATOM     12  C   UNL d   1      -5.228  -2.744   1.310  0.00  0.00     0.001 A 
ATOM     13  C   UNL d   1      -5.901  -1.883   2.175  0.00  0.00     0.000 A 
ATOM     14  C   UNL d   1      -5.181  -0.989   2.965  0.00  0.00     0.001 A 
ATOM     15  C   UNL d   1      -3.788  -0.955   2.890  0.00  0.00     0.007 A 
ENDBRANCH   9  10
ENDBRANCH   1   9
TORSDOF 5
