REMARK  2 active torsions:
REMARK  status: ('A' for Active; 'I' for Inactive)
REMARK       I    between atoms: N_3  and  C_1 
REMARK       I    between atoms: N_6  and  C_1 
REMARK    1  A    between atoms: C_2  and  N_4 
REMARK    2  A    between atoms: C_16  and  N_6 
ROOT
ATOM      1  C   UNL d   1      -1.263   4.560   2.368  0.00  0.00     0.124 A 
ATOM      2  C   UNL d   1      -1.457   5.677   1.539  0.00  0.00     0.088 A 
ATOM      3  C   UNL d   1      -0.993   5.726   0.182  0.00  0.00     0.103 C 
ATOM      4  N   UNL d   1      -0.615   5.795  -0.911  0.00  0.00    -0.191 NA
ATOM      5  N   UNL d   1      -1.841   4.514   3.595  0.00  0.00    -0.351 N 
ATOM      6  HN  UNL d   1      -1.725   3.693   4.190  1.00  0.00     0.166 HD
ATOM      7  C   UNL d   1      -2.214   6.760   2.006  0.00  0.00     0.028 A 
ATOM      8  C   UNL d   1      -2.572   5.571   4.019  0.00  0.00     0.090 A 
ATOM      9  C   UNL d   1      -2.780   6.710   3.270  0.00  0.00     0.019 A 
ENDROOT
BRANCH   1  10
ATOM     10  N   UNL d   1      -0.568   3.441   1.968  0.00  0.00    -0.363 N 
ATOM     11  C   UNL d   1      -0.877   2.130   2.546  0.00  0.00     0.144 C 
ATOM     12  C   UNL d   1      -0.822   1.083   1.406  0.00  0.00     0.147 C 
ATOM     13  N   UNL d   1       0.435   1.154   0.626  0.00  0.00    -0.331 N 
ATOM     14  C   UNL d   1       1.054   0.117  -0.062  0.00  0.00     0.323 C 
ATOM     15  C   UNL d   1       0.817   2.520   0.208  0.00  0.00     0.147 C 
ATOM     16  N   UNL d   1       0.655  -1.153   0.280  0.00  0.00    -0.309 N 
ATOM     17  O   UNL d   1       1.915   0.363  -0.904  0.00  0.00    -0.247 OA
ATOM     18  H   UNL d   1      -0.034  -1.249   1.002  0.00  0.00     0.170 HD
ATOM     19  C   UNL d   1       0.775   3.506   1.382  0.00  0.00     0.144 C 
BRANCH  16  20
ATOM     20  C   UNL d   1       1.121  -2.369  -0.270  0.00  0.00     0.036 A 
ATOM     21  C   UNL d   1       2.127  -2.457  -1.236  0.00  0.00     0.029 A 
ATOM     22  C   UNL d   1       2.508  -3.694  -1.761  0.00  0.00     0.002 A 
ATOM     23  C   UNL d   1       1.890  -4.860  -1.321  0.00  0.00     0.000 A 
ATOM     24  C   UNL d   1       0.901  -4.790  -0.343  0.00  0.00     0.002 A 
ATOM     25  C   UNL d   1       0.522  -3.551   0.184  0.00  0.00     0.029 A 
ENDBRANCH  16  20
ENDBRANCH   1  10
TORSDOF 2
