REMARK  2 active torsions:
REMARK  status: ('A' for Active; 'I' for Inactive)
REMARK    1  A    between atoms: C_9  and  N_1 
REMARK    2  A    between atoms: C_7  and  C_5 
ROOT
ATOM      1  N   UNL d   1       0.960  -0.619  -0.049  0.00  0.00    -0.255 N 
ATOM      2  C   UNL d   1      -0.341  -1.093   0.090  0.00  0.00     0.076 C 
ATOM      3  N   UNL d   1       0.993   0.743   0.008  0.00  0.00    -0.289 N 
ATOM      4  HN  UNL d   1       1.816   1.339   0.086  1.00  0.00     0.187 HD
ATOM      5  C   UNL d   1      -0.293   1.132  -0.062  0.00  0.00     0.135 C 
ATOM      6  C   UNL d   1      -1.157   0.011  -0.063  0.00  0.00     0.069 C 
ATOM      7  C   UNL d   1      -0.731  -2.427   0.465  0.00  0.00     0.033 A 
ATOM      8  S   UNL d   1      -2.143  -3.169  -0.162  0.00  0.00    -0.100 SA
ATOM      9  C   UNL d   1      -0.106  -3.247   1.388  0.00  0.00     0.021 A 
ATOM     10  C   UNL d   1      -1.907  -4.576   0.784  0.00  0.00     0.050 A 
ATOM     11  C   UNL d   1      -0.775  -4.491   1.560  0.00  0.00     0.008 A 
ENDROOT
BRANCH   1  12
ATOM     12  C   UNL d   1       2.176  -1.341  -0.222  0.00  0.00     0.057 A 
ATOM     13  C   UNL d   1       2.188  -2.618  -0.798  0.00  0.00     0.032 A 
ATOM     14  C   UNL d   1       3.388  -3.322  -0.924  0.00  0.00     0.009 A 
ATOM     15  C   UNL d   1       4.592  -2.761  -0.481  0.00  0.00    -0.062 A 
ATOM     16  C   UNL d   1       4.583  -1.470   0.059  0.00  0.00     0.009 A 
ATOM     17  C   UNL d   1       5.870  -3.532  -0.622  0.00  0.00     0.048 C 
ATOM     18  C   UNL d   1       3.386  -0.757   0.175  0.00  0.00     0.032 A 
ENDBRANCH   1  12
BRANCH   5  19
ATOM     19  C   UNL d   1      -0.725   2.574  -0.058  0.00  0.00     0.434 C 
ATOM     20  F   UNL d   1       0.302   3.455   0.068  0.00  0.00    -0.165 F 
ATOM     21  F   UNL d   1      -1.387   2.903  -1.201  0.00  0.00    -0.165 F 
ATOM     22  F   UNL d   1      -1.584   2.830   0.967  0.00  0.00    -0.165 F 
ENDBRANCH   5  19
TORSDOF 2
