REMARK  2 active torsions:
REMARK  status: ('A' for Active; 'I' for Inactive)
REMARK    1  A    between atoms: C_13  and  C_4 
REMARK    2  A    between atoms: C_14  and  C_10 
ROOT
ATOM      1  N   UNL d   1      -0.533  -0.805   0.070  0.00  0.00    -0.214 N 
ATOM      2  N   UNL d   1       0.443  -1.744   0.298  0.00  0.00    -0.293 N 
ATOM      3  HN  UNL d   1       0.211  -2.680   0.631  1.00  0.00     0.187 HD
ATOM      4  C   UNL d   1      -1.902  -1.028  -0.035  0.00  0.00     0.154 A 
ATOM      5  C   UNL d   1      -0.401   0.557  -0.053  0.00  0.00     0.182 A 
ATOM      6  N   UNL d   1      -2.505   0.136  -0.237  0.00  0.00    -0.281 N 
ATOM      7  HN  UNL d   1      -3.506   0.268  -0.377  1.00  0.00     0.188 HD
ATOM      8  N   UNL d   1      -1.561   1.135  -0.228  0.00  0.00    -0.277 N 
ATOM      9  HN  UNL d   1      -1.732   2.134  -0.337  1.00  0.00     0.189 HD
ATOM     10  C   UNL d   1       1.678  -1.390   0.070  0.00  0.00     0.046 C 
ATOM     11  S   UNL d   1       1.143   1.310   0.044  0.00  0.00    -0.085 SA
ATOM     12  C   UNL d   1       2.109  -0.081  -0.581  0.00  0.00     0.142 C 
ENDROOT
BRANCH   4  13
ATOM     13  C   UNL d   1      -2.572  -2.332  -0.013  0.00  0.00     0.014 A 
ATOM     14  C   UNL d   1      -2.061  -3.437   0.672  0.00  0.00     0.032 A 
ATOM     15  C   UNL d   1      -2.751  -4.638   0.611  0.00  0.00     0.088 A 
ATOM     16  N   UNL d   1      -3.905  -4.808  -0.066  0.00  0.00    -0.375 N 
ATOM     17  C   UNL d   1      -4.397  -3.726  -0.703  0.00  0.00     0.088 A 
ATOM     18  HN  UNL d   1      -4.381  -5.709  -0.094  1.00  0.00     0.164 HD
ATOM     19  C   UNL d   1      -3.779  -2.486  -0.703  0.00  0.00     0.032 A 
ENDBRANCH   4  13
BRANCH  10  20
ATOM     20  C   UNL d   1       2.756  -2.370   0.415  0.00  0.00    -0.011 A 
ATOM     21  C   UNL d   1       3.958  -2.424  -0.299  0.00  0.00     0.013 A 
ATOM     22  C   UNL d   1       4.962  -3.314   0.089  0.00  0.00     0.001 A 
ATOM     23  C   UNL d   1       4.766  -4.160   1.180  0.00  0.00     0.000 A 
ATOM     24  C   UNL d   1       3.559  -4.132   1.877  0.00  0.00     0.001 A 
ATOM     25  C   UNL d   1       2.554  -3.242   1.494  0.00  0.00     0.013 A 
ENDBRANCH  10  20
TORSDOF 2
