REMARK  3 active torsions:
REMARK  status: ('A' for Active; 'I' for Inactive)
REMARK    1  A    between atoms: C_4  and  C_1 
REMARK    2  A    between atoms: C_7  and  C_4 
REMARK       I    between atoms: N_8  and  C_7 
REMARK    3  A    between atoms: C_9  and  N_8 
ROOT
ATOM      1  C   UNL d   1       3.575   0.568  -0.083  0.00  0.00     0.150 C 
ENDROOT
BRANCH   1   2
ATOM      2  C   UNL d   1       2.432  -0.401   0.063  0.00  0.00    -0.001 C 
ATOM      3  S   UNL d   1       1.411  -0.311   1.427  0.00  0.00    -0.093 SA
ATOM      4  C   UNL d   1       0.621  -1.784   1.055  0.00  0.00     0.016 A 
ATOM      5  C   UNL d   1      -0.366  -2.429   1.827  0.00  0.00     0.019 A 
ATOM      6  C   UNL d   1       1.089  -2.321  -0.144  0.00  0.00    -0.012 A 
ATOM      7  C   UNL d   1      -0.861  -3.662   1.400  0.00  0.00     0.001 A 
ATOM      8  C   UNL d   1      -0.401  -4.232   0.223  0.00  0.00     0.001 A 
ATOM      9  C   UNL d   1       0.554  -3.570  -0.555  0.00  0.00     0.013 A 
ATOM     10  C   UNL d   1       2.094  -1.470  -0.757  0.00  0.00    -0.037 C 
ATOM     11  C   UNL d   1       2.748  -1.768  -2.071  0.00  0.00     0.050 C 
ENDBRANCH   1   2
BRANCH   1  12
ATOM     12  C   UNL d   1       3.182   1.831  -0.811  0.00  0.00     0.227 C 
ATOM     13  N   UNL d   1       2.626   2.934  -0.246  0.00  0.00    -0.324 N 
ATOM     14  H   UNL d   1       2.361   3.566  -0.993  0.00  0.00     0.169 HD
ATOM     15  O   UNL d   1       3.337   1.883  -2.044  0.00  0.00    -0.273 OA
BRANCH  13  16
ATOM     16  C   UNL d   1       2.248   3.350   1.046  0.00  0.00     0.073 A 
ATOM     17  C   UNL d   1       2.660   2.830   2.276  0.00  0.00     0.143 A 
ATOM     18  F   UNL d   1       3.631   1.919   2.375  0.00  0.00    -0.204 F 
ATOM     19  C   UNL d   1       2.134   3.302   3.481  0.00  0.00     0.044 A 
ATOM     20  C   UNL d   1       1.207   4.339   3.488  0.00  0.00     0.003 A 
ATOM     21  C   UNL d   1       0.833   4.922   2.283  0.00  0.00     0.002 A 
ATOM     22  C   UNL d   1       1.352   4.433   1.079  0.00  0.00     0.033 A 
ENDBRANCH  13  16
ENDBRANCH   1  12
TORSDOF 3
