REMARK  1 active torsions:
REMARK  status: ('A' for Active; 'I' for Inactive)
REMARK    1  A    between atoms: C_7  and  N_1 
ROOT
ATOM      1  N   UNL d   1       0.857  -0.740   0.026  0.00  0.00    -0.240 N 
ATOM      2  C   UNL d   1      -0.457  -1.170  -0.206  0.00  0.00     0.123 C 
ATOM      3  N   UNL d   1       0.882   0.588   0.340  0.00  0.00    -0.297 N 
ATOM      4  HN  UNL d   1       1.672   1.129   0.691  1.00  0.00     0.187 HD
ATOM      5  C   UNL d   1      -1.227  -0.032  -0.246  0.00  0.00     0.076 C 
ATOM      6  C   UNL d   1      -0.354   1.024   0.085  0.00  0.00     0.026 C 
ATOM      7  N   UNL d   1      -0.860  -2.465  -0.312  0.00  0.00    -0.384 N 
ATOM      8  C   UNL d   1      -0.684   2.464   0.203  0.00  0.00     0.070 C 
ATOM      9  H   UNL d   1      -0.302  -3.188   0.140  0.00  0.00     0.157 HD
ATOM     10  H   UNL d   1      -1.855  -2.667  -0.237  0.00  0.00     0.157 HD
ENDROOT
BRANCH   1  11
ATOM     11  C   UNL d   1       2.073  -1.480  -0.039  0.00  0.00     0.058 A 
ATOM     12  C   UNL d   1       2.173  -2.650  -0.800  0.00  0.00     0.031 A 
ATOM     13  C   UNL d   1       3.383  -3.346  -0.861  0.00  0.00     0.002 A 
ATOM     14  C   UNL d   1       4.495  -2.882  -0.160  0.00  0.00     0.000 A 
ATOM     15  C   UNL d   1       4.407  -1.710   0.589  0.00  0.00     0.002 A 
ATOM     16  C   UNL d   1       3.204  -1.000   0.640  0.00  0.00     0.031 A 
ENDBRANCH   1  11
TORSDOF 1
