REMARK  6 active torsions:
REMARK  status: ('A' for Active; 'I' for Inactive)
REMARK    1  A    between atoms: C_3  and  C_1 
REMARK       I    between atoms: N_4  and  C_1 
REMARK    2  A    between atoms: C_2  and  O_7 
REMARK    3  A    between atoms: C_13  and  N_4 
REMARK    4  A    between atoms: O_7  and  C_17 
REMARK    5  A    between atoms: O_12  and  C_19 
REMARK    6  A    between atoms: C_18  and  O_12 
ROOT
ATOM      1  C   UNL d   1      -1.169   0.082   1.176  0.00  0.00     0.035 A 
ATOM      2  C   UNL d   1      -3.979   0.006   1.284  0.00  0.00     0.076 A 
ATOM      3  C   UNL d   1      -1.870  -1.008   0.663  0.00  0.00     0.032 A 
ATOM      4  C   UNL d   1      -1.886   1.099   1.822  0.00  0.00     0.032 A 
ATOM      5  C   UNL d   1      -3.266  -1.059   0.734  0.00  0.00     0.039 A 
ATOM      6  C   UNL d   1      -3.284   1.061   1.874  0.00  0.00     0.039 A 
ENDROOT
BRANCH   1   7
ATOM      7  N   UNL d   1       0.231   0.239   1.073  0.00  0.00    -0.323 N 
ATOM      8  C   UNL d   1       1.098  -0.567   0.351  0.00  0.00     0.256 C 
ATOM      9  O   UNL d   1       0.802  -1.554  -0.309  0.00  0.00    -0.267 OA
ATOM     10  H   UNL d   1       0.604   1.090   1.468  0.00  0.00     0.169 HD
BRANCH   8  11
ATOM     11  C   UNL d   1       2.528  -0.146   0.346  0.00  0.00     0.034 A 
ATOM     12  C   UNL d   1       3.298  -0.444  -0.787  0.00  0.00     0.042 A 
ATOM     13  C   UNL d   1       4.648  -0.095  -0.838  0.00  0.00     0.056 A 
ATOM     14 CL   UNL d   1       5.529  -0.494  -2.271  0.00  0.00    -0.083 Cl
ATOM     15  C   UNL d   1       5.243   0.554   0.248  0.00  0.00     0.055 A 
ATOM     16  C   UNL d   1       4.480   0.843   1.388  0.00  0.00     0.026 A 
ATOM     17 CL   UNL d   1       6.907   1.014   0.261  0.00  0.00    -0.083 Cl
ATOM     18  C   UNL d   1       3.128   0.491   1.441  0.00  0.00     0.019 A 
ENDBRANCH   8  11
ENDBRANCH   1   7
BRANCH   2  19
ATOM     19  O   UNL d   1      -5.352   0.073   1.331  0.00  0.00    -0.311 OA
BRANCH  19  20
ATOM     20  C   UNL d   1      -6.090  -0.415   0.274  0.00  0.00     0.076 A 
ATOM     21  C   UNL d   1      -7.336  -0.948   0.595  0.00  0.00     0.040 A 
ATOM     22  C   UNL d   1      -8.138  -1.500  -0.406  0.00  0.00     0.040 A 
ATOM     23  C   UNL d   1      -7.699  -1.535  -1.732  0.00  0.00     0.078 A 
ATOM     24  C   UNL d   1      -6.495  -0.918  -2.068  0.00  0.00     0.040 A 
ATOM     25  C   UNL d   1      -5.695  -0.351  -1.066  0.00  0.00     0.040 A 
BRANCH  23  26
ATOM     26  O   UNL d   1      -8.545  -2.168  -2.591  0.00  0.00    -0.255 OA
BRANCH  26  27
ATOM     27  C   UNL d   1      -8.001  -2.779  -3.752  0.00  0.00     0.530 C 
ATOM     28  F   UNL d   1      -6.692  -3.090  -3.636  0.00  0.00    -0.144 F 
ATOM     29  F   UNL d   1      -8.676  -3.929  -3.983  0.00  0.00    -0.144 F 
ATOM     30  F   UNL d   1      -8.171  -1.969  -4.818  0.00  0.00    -0.144 F 
ENDBRANCH  26  27
ENDBRANCH  23  26
ENDBRANCH  19  20
ENDBRANCH   2  19
TORSDOF 6
