REMARK  4 active torsions:
REMARK  status: ('A' for Active; 'I' for Inactive)
REMARK    1  A    between atoms: C_2  and  S_1 
REMARK    2  A    between atoms: N_8  and  S_1 
REMARK    3  A    between atoms: C_13  and  N_8 
REMARK    4  A    between atoms: C_14  and  C_13 
ROOT
ATOM      1  C   UNL d   1       0.456   1.379  -0.730  0.00  0.00     0.091 A 
ATOM      2  C   UNL d   1      -0.379   1.435  -1.853  0.00  0.00     0.030 A 
ATOM      3  C   UNL d   1       0.897   2.582  -0.137  0.00  0.00     0.028 A 
ATOM      4  C   UNL d   1      -0.744   2.693  -2.372  0.00  0.00     0.043 A 
ATOM      5  C   UNL d   1      -0.295   3.871  -1.777  0.00  0.00     0.035 A 
ATOM      6  I   UNL d   1      -1.209  -0.183  -2.896  0.00  0.00    -0.043 I 
ATOM      7  C   UNL d   1       0.524   3.821  -0.658  0.00  0.00     0.025 A 
ATOM      8 CL   UNL d   1      -0.764   5.392  -2.428  0.00  0.00    -0.084 Cl
ENDROOT
BRANCH   1   9
ATOM      9  S   UNL d   1       0.995  -0.102   0.099  0.00  0.00     0.242 S 
ATOM     10  O   UNL d   1       0.589  -1.302  -0.590  0.00  0.00    -0.206 OA
ATOM     11  O   UNL d   1       0.711   0.085   1.506  0.00  0.00    -0.206 OA
BRANCH   9  12
ATOM     12  N   UNL d   1       2.679  -0.000  -0.037  0.00  0.00    -0.216 NA
ATOM     13  H   UNL d   1       3.118  -0.242   0.852  0.00  0.00     0.139 HD
BRANCH  12  14
ATOM     14  C   UNL d   1       3.284  -0.554  -1.257  0.00  0.00     0.104 C 
BRANCH  14  15
ATOM     15  C   UNL d   1       4.797  -0.353  -1.212  0.00  0.00     0.011 C 
ATOM     16  C   UNL d   1       5.464  -0.941  -2.445  0.00  0.00     0.006 C 
ENDBRANCH  14  15
ENDBRANCH  12  14
ENDBRANCH   9  12
ENDBRANCH   1   9
TORSDOF 4
