REMARK  5 active torsions:
REMARK  status: ('A' for Active; 'I' for Inactive)
REMARK    1  A    between atoms: C_12  and  C_2 
REMARK    2  A    between atoms: C_13  and  C_10 
REMARK    3  A    between atoms: C_17  and  C_11 
REMARK    4  A    between atoms: O_23  and  C_15 
REMARK    5  A    between atoms: O_24  and  C_16 
ROOT
ATOM      1  N   UNL d   1       0.307   0.625   0.054  0.00  0.00    -0.235 N 
ATOM      2  C   UNL d   1      -0.811   1.450   0.047  0.00  0.00     0.144 A 
ATOM      3  C   UNL d   1       0.155  -0.764   0.053  0.00  0.00     0.130 A 
ATOM      4  N   UNL d   1       1.613   0.965   0.049  0.00  0.00    -0.291 N 
ATOM      5  HN  UNL d   1       1.998   1.909   0.060  1.00  0.00     0.187 HD
ATOM      6  N   UNL d   1      -1.064  -1.375   0.077  0.00  0.00    -0.340 N 
ATOM      7  HN  UNL d   1      -1.152  -2.391   0.077  1.00  0.00     0.167 HD
ATOM      8  C   UNL d   1      -2.042   0.896   0.051  0.00  0.00     0.067 A 
ATOM      9  C   UNL d   1       1.423  -1.289   0.032  0.00  0.00     0.082 A 
ATOM     10  C   UNL d   1      -2.111  -0.600   0.099  0.00  0.00     0.046 A 
ATOM     11  C   UNL d   1       2.304  -0.184   0.026  0.00  0.00     0.062 A 
ENDROOT
BRANCH  10  12
ATOM     12  C   UNL d   1      -3.466  -1.222   0.169  0.00  0.00    -0.006 A 
ATOM     13  C   UNL d   1      -3.648  -2.505  -0.377  0.00  0.00     0.053 A 
ATOM     14  C   UNL d   1      -4.889  -3.160  -0.305  0.00  0.00     0.102 A 
ATOM     15  C   UNL d   1      -5.965  -2.505   0.319  0.00  0.00     0.101 A 
ATOM     16  C   UNL d   1      -5.770  -1.229   0.871  0.00  0.00     0.040 A 
ATOM     17  C   UNL d   1      -4.532  -0.592   0.809  0.00  0.00     0.016 A 
BRANCH  14  18
ATOM     18  O   UNL d   1      -5.099  -4.415  -0.809  0.00  0.00    -0.353 OA
ATOM     19  C   UNL d   1      -4.016  -5.092  -1.433  0.00  0.00     0.210 C 
ENDBRANCH  14  18
BRANCH  15  20
ATOM     20  O   UNL d   1      -7.254  -2.937   0.491  0.00  0.00    -0.353 OA
ATOM     21  C   UNL d   1      -7.620  -4.224   0.019  0.00  0.00     0.210 C 
ENDBRANCH  15  20
ENDBRANCH  10  12
BRANCH   2  22
ATOM     22  C   UNL d   1      -0.626   2.921   0.021  0.00  0.00     0.434 C 
ATOM     23  F   UNL d   1       0.645   3.382  -0.011  0.00  0.00    -0.165 F 
ATOM     24  F   UNL d   1      -1.255   3.463  -1.060  0.00  0.00    -0.165 F 
ATOM     25  F   UNL d   1      -1.212   3.493   1.110  0.00  0.00    -0.165 F 
ENDBRANCH   2  22
BRANCH  11  26
ATOM     26  C   UNL d   1       3.772  -0.189  -0.001  0.00  0.00    -0.008 A 
ATOM     27  C   UNL d   1       4.487   1.019   0.011  0.00  0.00     0.014 A 
ATOM     28  C   UNL d   1       5.884   1.027  -0.016  0.00  0.00     0.001 A 
ATOM     29  C   UNL d   1       6.585  -0.175  -0.056  0.00  0.00     0.000 A 
ATOM     30  C   UNL d   1       5.892  -1.383  -0.069  0.00  0.00     0.001 A 
ATOM     31  C   UNL d   1       4.494  -1.391  -0.042  0.00  0.00     0.014 A 
ENDBRANCH  11  26
TORSDOF 5
