REMARK  4 active torsions:
REMARK  status: ('A' for Active; 'I' for Inactive)
REMARK    1  A    between atoms: C_9  and  C_2 
REMARK    2  A    between atoms: S_8  and  C_5 
REMARK    3  A    between atoms: C_12  and  S_8 
REMARK    4  A    between atoms: C_11  and  C_12 
ROOT
ATOM      1  N   UNL d   1      -1.172  -0.093  -0.058  0.00  0.00    -0.320 N 
ATOM      2  C   UNL d   1      -0.372   1.019  -0.007  0.00  0.00     0.132 A 
ATOM      3  N   UNL d   1       0.887   0.608  -0.025  0.00  0.00    -0.283 N 
ATOM      4  HN  UNL d   1       1.709   1.212  -0.018  1.00  0.00     0.188 HD
ATOM      5  C   UNL d   1      -0.342  -1.169  -0.055  0.00  0.00     0.161 A 
ATOM      6  N   UNL d   1       0.904  -0.773  -0.055  0.00  0.00    -0.278 N 
ATOM      7  HN  UNL d   1       1.731  -1.370  -0.073  1.00  0.00     0.189 HD
ATOM      8  H   UNL d   1      -2.181  -0.141  -0.019  0.00  0.00     0.169 HD
ENDROOT
BRANCH   2   9
ATOM      9  C   UNL d   1      -0.850   2.400   0.076  0.00  0.00     0.009 A 
ATOM     10  C   UNL d   1      -2.212   2.721   0.194  0.00  0.00     0.015 A 
ATOM     11  C   UNL d   1      -2.626   4.054   0.292  0.00  0.00     0.001 A 
ATOM     12  C   UNL d   1      -1.687   5.083   0.272  0.00  0.00     0.000 A 
ATOM     13  C   UNL d   1      -0.333   4.782   0.150  0.00  0.00     0.001 A 
ATOM     14  C   UNL d   1       0.081   3.451   0.053  0.00  0.00     0.015 A 
ENDBRANCH   2   9
BRANCH   5  15
ATOM     15  S   UNL d   1      -0.951  -2.778  -0.078  0.00  0.00    -0.085 SA
BRANCH  15  16
ATOM     16  C   UNL d   1      -1.628  -2.929   1.596  0.00  0.00     0.160 C 
BRANCH  16  17
ATOM     17  C   UNL d   1      -2.901  -2.119   1.808  0.00  0.00     0.132 C 
ATOM     18  O   UNL d   1      -3.321  -1.271   1.017  0.00  0.00    -0.298 OA
ATOM     19  C   UNL d   1      -3.624  -2.365   3.109  0.00  0.00     0.091 C 
ENDBRANCH  16  17
ENDBRANCH  15  16
ENDBRANCH   5  15
TORSDOF 4
