REMARK  2 active torsions:
REMARK  status: ('A' for Active; 'I' for Inactive)
REMARK    1  A    between atoms: N_3  and  C_1 
REMARK       I    between atoms: C_2  and  N_3 
REMARK    2  A    between atoms: C_11  and  C_2 
ROOT
ATOM      1  C   UNL d   1       0.707   0.784   1.155  0.00  0.00     0.034 C 
ATOM      2  C   UNL d   1       0.273  -1.508   0.144  0.00  0.00    -0.012 C 
ATOM      3  C   UNL d   1       0.521   0.485  -1.371  0.00  0.00    -0.012 C 
ATOM      4  C   UNL d   1      -1.530   0.254   0.069  0.00  0.00    -0.012 C 
ATOM      5  C   UNL d   1      -0.824   1.030   1.192  0.00  0.00     0.035 C 
ATOM      6  C   UNL d   1       0.990  -0.738   1.265  0.00  0.00     0.035 C 
ATOM      7  C   UNL d   1       1.225   1.252  -0.233  0.00  0.00     0.035 C 
ATOM      8  C   UNL d   1       0.792  -1.020  -1.216  0.00  0.00     0.009 C 
ATOM      9  C   UNL d   1      -1.240  -1.247   0.235  0.00  0.00     0.009 C 
ATOM     10  C   UNL d   1      -0.994   0.733  -1.289  0.00  0.00     0.009 C 
ENDROOT
BRANCH   1  11
ATOM     11  N   UNL d   1       1.387   1.542   2.216  0.00  0.00    -0.348 N 
ATOM     12  C   UNL d   1       1.135   1.341   3.560  0.00  0.00     0.252 C 
ATOM     13  O   UNL d   1       0.357   0.494   3.990  0.00  0.00    -0.268 OA
ATOM     14  H   UNL d   1       2.147   2.153   1.951  0.00  0.00     0.163 HD
BRANCH  12  15
ATOM     15  C   UNL d   1       1.855   2.198   4.539  0.00  0.00     0.032 A 
ATOM     16  C   UNL d   1       2.282   3.497   4.240  0.00  0.00     0.017 A 
ATOM     17  C   UNL d   1       2.862   4.282   5.242  0.00  0.00     0.001 A 
ATOM     18  C   UNL d   1       3.013   3.778   6.536  0.00  0.00     0.000 A 
ATOM     19  C   UNL d   1       2.598   2.483   6.834  0.00  0.00     0.001 A 
ATOM     20  C   UNL d   1       2.020   1.695   5.839  0.00  0.00     0.017 A 
ENDBRANCH  12  15
ENDBRANCH   1  11
TORSDOF 2
