REMARK  6 active torsions:
REMARK  status: ('A' for Active; 'I' for Inactive)
REMARK       I    between atoms: N_5  and  C_1 
REMARK    1  A    between atoms: C_7  and  C_1 
REMARK    2  A    between atoms: C_4  and  C_7 
REMARK    3  A    between atoms: C_9  and  C_4 
REMARK    4  A    between atoms: C_12  and  N_5 
REMARK    5  A    between atoms: C_6  and  C_9 
REMARK    6  A    between atoms: O_13  and  C_6 
ROOT
ATOM      1  N   UNL d   1       6.896  -6.153   3.889  0.00  0.00    -0.191 NA
ATOM      2  C   UNL d   1       6.100  -5.409   3.495  0.00  0.00     0.099 C 
ATOM      3  C   UNL d   1       5.119  -4.484   3.004  0.00  0.00     0.044 A 
ATOM      4  C   UNL d   1       3.184  -2.675   2.025  0.00  0.00     0.034 A 
ATOM      5  C   UNL d   1       3.814  -4.911   2.748  0.00  0.00     0.025 A 
ATOM      6  C   UNL d   1       5.457  -3.150   2.767  0.00  0.00     0.025 A 
ATOM      7  C   UNL d   1       2.854  -4.011   2.264  0.00  0.00     0.031 A 
ATOM      8  C   UNL d   1       4.498  -2.254   2.273  0.00  0.00     0.031 A 
ENDROOT
BRANCH   4   9
ATOM      9  N   UNL d   1       2.268  -1.718   1.530  0.00  0.00    -0.327 N 
ATOM     10  C   UNL d   1       0.894  -1.867   1.389  0.00  0.00     0.222 C 
ATOM     11  O   UNL d   1       0.239  -2.850   1.713  0.00  0.00    -0.273 OA
ATOM     12  H   UNL d   1       2.650  -0.805   1.313  0.00  0.00     0.169 HD
BRANCH  10  13
ATOM     13  C   UNL d   1       0.248  -0.636   0.755  0.00  0.00     0.113 C 
BRANCH  13  14
ATOM     14  C   UNL d   1      -1.302  -0.637   0.653  0.00  0.00    -0.023 C 
ATOM     15  C   UNL d   1      -1.808  -1.751  -0.297  0.00  0.00     0.010 C 
ATOM     16  C   UNL d   1      -3.090  -1.228  -0.947  0.00  0.00     0.001 C 
ATOM     17  C   UNL d   1      -3.128   0.274  -0.696  0.00  0.00     0.001 C 
ATOM     18  C   UNL d   1      -1.767   0.625  -0.111  0.00  0.00     0.010 C 
BRANCH  14  19
ATOM     19  C   UNL d   1      -2.020  -0.778   2.026  0.00  0.00     0.119 C 
BRANCH  19  20
ATOM     20  C   UNL d   1      -1.666   0.251   3.078  0.00  0.00     0.140 C 
ATOM     21  O   UNL d   1      -0.915   1.201   2.926  0.00  0.00    -0.650 OA
BRANCH  20  22
ATOM     22  O   UNL d   1      -2.296   0.016   4.253  0.00  0.00    -0.776 OA
ATOM     23  H   UNL d   1      -2.853  -0.786   4.245  0.00  0.00     0.167 HD
ENDBRANCH  20  22
ENDBRANCH  19  20
ENDBRANCH  14  19
ENDBRANCH  13  14
ENDBRANCH  10  13
ENDBRANCH   4   9
TORSDOF 6
