REMARK  3 active torsions:
REMARK  status: ('A' for Active; 'I' for Inactive)
REMARK    1  A    between atoms: S_2  and  C_1 
REMARK    2  A    between atoms: C_8  and  S_2 
REMARK    3  A    between atoms: S_12  and  C_4 
ROOT
ATOM      1  C   UNL d   1      -0.126  -1.257   0.132  0.00  0.00     0.143 A 
ATOM      2  C   UNL d   1      -0.973  -0.603   1.011  0.00  0.00     0.138 A 
ATOM      3  C   UNL d   1       0.058  -0.350  -0.938  0.00  0.00     0.110 A 
ATOM      4  N   UNL d   1      -0.652   0.771  -0.772  0.00  0.00    -0.291 N 
ATOM      5  HN  UNL d   1      -0.710   1.578  -1.393  1.00  0.00     0.187 HD
ATOM      6  N   UNL d   1      -1.267   0.587   0.398  0.00  0.00    -0.284 N 
ATOM      7  N   UNL d   1      -1.516  -0.870   2.218  0.00  0.00    -0.383 N 
ATOM      8  H   UNL d   1      -1.879   1.320   0.739  0.00  0.00     0.188 HD
ATOM      9  H   UNL d   1      -1.259  -1.672   2.788  0.00  0.00     0.157 HD
ATOM     10  H   UNL d   1      -2.027  -0.176   2.761  0.00  0.00     0.157 HD
ENDROOT
BRANCH   1  11
ATOM     11  S   UNL d   1       0.601  -2.803   0.239  0.00  0.00     0.213 S 
ATOM     12  O   UNL d   1       0.069  -3.555  -0.881  0.00  0.00    -0.217 OA
ATOM     13  O   UNL d   1       2.017  -2.546   0.411  0.00  0.00    -0.217 OA
BRANCH  11  14
ATOM     14  C   UNL d   1       0.009  -3.568   1.730  0.00  0.00     0.064 A 
ATOM     15  C   UNL d   1      -1.179  -4.309   1.704  0.00  0.00     0.025 A 
ATOM     16  C   UNL d   1      -1.696  -4.821   2.896  0.00  0.00     0.025 A 
ATOM     17  C   UNL d   1      -1.019  -4.604   4.097  0.00  0.00     0.034 A 
ATOM     18  C   UNL d   1       0.189  -3.904   4.116  0.00  0.00     0.025 A 
ATOM     19 CL   UNL d   1      -1.691  -5.180   5.572  0.00  0.00    -0.084 Cl
ATOM     20  C   UNL d   1       0.716  -3.394   2.926  0.00  0.00     0.025 A 
ENDBRANCH  11  14
ENDBRANCH   1  11
BRANCH   3  21
ATOM     21  S   UNL d   1       1.077  -0.539  -2.349  0.00  0.00    -0.114 SA
ATOM     22  C   UNL d   1       0.828   1.041  -3.196  0.00  0.00     0.097 C 
ENDBRANCH   3  21
TORSDOF 3
