REMARK  4 active torsions:
REMARK  status: ('A' for Active; 'I' for Inactive)
REMARK    1  A    between atoms: S_8  and  C_1 
REMARK    2  A    between atoms: C_3  and  C_2 
REMARK    3  A    between atoms: C_7  and  C_3 
REMARK    4  A    between atoms: C_5  and  S_8 
ROOT
ATOM      1  C   UNL d   1       4.266  -3.485   0.252  0.00  0.00     0.062 C 
ATOM      2  C   UNL d   1       3.342  -2.531   0.066  0.00  0.00     0.054 C 
ENDROOT
BRANCH   1   3
ATOM      3  C   UNL d   1       5.710  -3.166   0.145  0.00  0.00     0.182 C 
ATOM      4  O   UNL d   1       6.111  -2.208  -0.510  0.00  0.00    -0.288 OA
BRANCH   3   5
ATOM      5  C   UNL d   1       6.672  -4.068   0.835  0.00  0.00     0.014 A 
ATOM      6  C   UNL d   1       7.965  -4.196   0.309  0.00  0.00     0.017 A 
ATOM      7  C   UNL d   1       8.916  -4.989   0.957  0.00  0.00     0.020 A 
ATOM      8  C   UNL d   1       8.576  -5.651   2.136  0.00  0.00     0.011 A 
ATOM      9  C   UNL d   1       7.293  -5.534   2.668  0.00  0.00     0.020 A 
ATOM     10 BR   UNL d   1       9.872  -6.692   3.036  0.00  0.00    -0.051 Br
ATOM     11  C   UNL d   1       6.339  -4.743   2.019  0.00  0.00     0.017 A 
ENDBRANCH   3   5
ENDBRANCH   1   3
BRANCH   2  12
ATOM     12  S   UNL d   1       1.667  -2.933   0.199  0.00  0.00    -0.100 SA
BRANCH  12  13
ATOM     13  C   UNL d   1       0.981  -1.654   1.256  0.00  0.00     0.028 A 
ATOM     14  C   UNL d   1      -0.311  -1.228   0.889  0.00  0.00     0.044 A 
ATOM     15  C   UNL d   1      -1.044  -0.363   1.703  0.00  0.00     0.035 A 
ATOM     16 CL   UNL d   1      -2.643   0.087   1.254  0.00  0.00    -0.084 Cl
ATOM     17  C   UNL d   1      -0.503   0.113   2.891  0.00  0.00     0.025 A 
ATOM     18  C   UNL d   1       0.782  -0.281   3.263  0.00  0.00     0.027 A 
ATOM     19  C   UNL d   1       1.520  -1.168   2.462  0.00  0.00     0.051 A 
ATOM     20 CL   UNL d   1       3.054  -1.653   3.096  0.00  0.00    -0.083 Cl
ENDBRANCH  12  13
ENDBRANCH   2  12
TORSDOF 4
