REMARK  7 active torsions:
REMARK  status: ('A' for Active; 'I' for Inactive)
REMARK    1  A    between atoms: N_3  and  C_1 
REMARK    2  A    between atoms: N_6  and  C_1 
REMARK    3  A    between atoms: C_2  and  N_3 
REMARK    4  A    between atoms: C_14  and  N_6 
REMARK    5  A    between atoms: C_8  and  O_12 
REMARK    6  A    between atoms: C_22  and  C_8 
REMARK    7  A    between atoms: O_12  and  C_15 
ROOT
ATOM      1  C   UNL d   1       1.022   0.411  -0.284  0.00  0.00     0.176 C 
ATOM      2  S   UNL d   1       2.562   0.910  -0.733  0.00  0.00    -0.041 SA
ENDROOT
BRANCH   1   3
ATOM      3  N   UNL d   1       0.393  -0.745  -0.764  0.00  0.00    -0.332 N 
ATOM      4  H   UNL d   1      -0.525  -0.532  -1.134  0.00  0.00     0.168 HD
BRANCH   3   5
ATOM      5  C   UNL d   1       1.042  -1.868  -1.341  0.00  0.00     0.046 A 
ATOM      6  C   UNL d   1       2.026  -2.584  -0.621  0.00  0.00    -0.034 A 
ATOM      7  C   UNL d   1       2.589  -3.740  -1.192  0.00  0.00     0.015 A 
ATOM      8  C   UNL d   1       2.500  -2.242   0.767  0.00  0.00     0.050 C 
ATOM      9  C   UNL d   1       2.162  -4.229  -2.427  0.00  0.00    -0.061 A 
ATOM     10  C   UNL d   1       1.179  -3.526  -3.122  0.00  0.00     0.015 A 
ATOM     11  C   UNL d   1       2.756  -5.493  -2.972  0.00  0.00     0.048 C 
ATOM     12  C   UNL d   1       0.618  -2.341  -2.603  0.00  0.00    -0.034 A 
ATOM     13  C   UNL d   1      -0.401  -1.646  -3.468  0.00  0.00     0.050 C 
ENDBRANCH   3   5
ENDBRANCH   1   3
BRANCH   1  14
ATOM     14  N   UNL d   1       0.154   1.049   0.615  0.00  0.00    -0.333 N 
ATOM     15  H   UNL d   1      -0.423   0.395   1.131  0.00  0.00     0.168 HD
BRANCH  14  16
ATOM     16  C   UNL d   1       0.250   2.350   1.153  0.00  0.00     0.034 A 
ATOM     17  C   UNL d   1       0.781   3.416   0.430  0.00  0.00     0.032 A 
ATOM     18  C   UNL d   1       0.913   4.677   1.004  0.00  0.00     0.039 A 
ATOM     19  C   UNL d   1       0.451   4.897   2.298  0.00  0.00     0.079 A 
ATOM     20  C   UNL d   1      -0.131   3.858   3.025  0.00  0.00     0.039 A 
ATOM     21  C   UNL d   1      -0.247   2.587   2.445  0.00  0.00     0.032 A 
BRANCH  19  22
ATOM     22  O   UNL d   1       0.626   6.128   2.962  0.00  0.00    -0.279 OA
BRANCH  22  23
ATOM     23  C   UNL d   1       0.573   7.329   2.250  0.00  0.00     0.263 C 
ATOM     24  O   UNL d   1       0.266   7.475   1.074  0.00  0.00    -0.265 OA
BRANCH  23  25
ATOM     25  C   UNL d   1       0.988   8.466   3.147  0.00  0.00     0.107 C 
ATOM     26  C   UNL d   1       2.489   8.675   3.095  0.00  0.00     0.015 C 
ENDBRANCH  23  25
ENDBRANCH  22  23
ENDBRANCH  19  22
ENDBRANCH  14  16
ENDBRANCH   1  14
TORSDOF 7
