REMARK  2 active torsions:
REMARK  status: ('A' for Active; 'I' for Inactive)
REMARK    1  A    between atoms: S_10  and  C_3 
REMARK    2  A    between atoms: C_16  and  S_10 
ROOT
ATOM      1  N   UNL d   1       1.179   1.290   0.001  0.00  0.00    -0.350 N 
ATOM      2  HN  UNL d   1       1.167   2.309  -0.044  1.00  0.00     0.166 HD
ATOM      3  C   UNL d   1       2.349   0.623   0.056  0.00  0.00     0.071 A 
ATOM      4  C   UNL d   1       1.224  -1.482   0.116  0.00  0.00     0.059 A 
ATOM      5  C   UNL d   1      -0.018  -0.812   0.064  0.00  0.00     0.013 A 
ATOM      6  C   UNL d   1       0.029   0.596   0.008  0.00  0.00     0.044 A 
ATOM      7  N   UNL d   1       1.371  -4.072   0.186  0.00  0.00    -0.191 NA
ATOM      8  C   UNL d   1       1.306  -2.915   0.157  0.00  0.00     0.100 C 
ATOM      9  C   UNL d   1       2.415  -0.756   0.111  0.00  0.00     0.060 A 
ATOM     10  C   UNL d   1      -1.280  -1.461   0.056  0.00  0.00     0.034 A 
ATOM     11  C   UNL d   1      -1.165   1.304  -0.051  0.00  0.00     0.032 A 
ATOM     12  C   UNL d   1      -2.458  -0.721  -0.015  0.00  0.00     0.011 A 
ATOM     13  C   UNL d   1      -2.406   0.663  -0.067  0.00  0.00     0.021 A 
ATOM     14 BR   UNL d   1      -4.128  -1.604  -0.051  0.00  0.00    -0.051 Br
ENDROOT
BRANCH   3  15
ATOM     15  S   UNL d   1       3.874   1.546   0.003  0.00  0.00    -0.108 SA
BRANCH  15  16
ATOM     16  C   UNL d   1       3.350   3.201   0.604  0.00  0.00     0.045 C 
ATOM     17  C   UNL d   1       2.951   3.144   2.077  0.00  0.00     0.021 C 
ATOM     18  C   UNL d   1       4.526   4.163   0.426  0.00  0.00     0.021 C 
ENDBRANCH  15  16
ENDBRANCH   3  15
TORSDOF 2
