REMARK  2 active torsions:
REMARK  status: ('A' for Active; 'I' for Inactive)
REMARK    1  A    between atoms: C_6  and  N_1 
REMARK    2  A    between atoms: N_7  and  C_6 
ROOT
ATOM      1  N   UNL d   1       0.046  -1.431   0.097  0.00  0.00    -0.319 N 
ATOM      2  C   UNL d   1       1.129  -0.565   0.037  0.00  0.00     0.047 A 
ATOM      3  C   UNL d   1      -1.143  -0.720   0.079  0.00  0.00     0.047 A 
ATOM      4  C   UNL d   1      -0.812   0.636   0.055  0.00  0.00     0.003 A 
ATOM      5  C   UNL d   1       0.614   0.733   0.046  0.00  0.00     0.003 A 
ATOM      6  C   UNL d   1       2.515  -0.803  -0.020  0.00  0.00     0.030 A 
ATOM      7  C   UNL d   1      -2.481  -1.154   0.072  0.00  0.00     0.030 A 
ATOM      8  C   UNL d   1       1.510   1.825   0.017  0.00  0.00     0.014 A 
ATOM      9  C   UNL d   1      -1.850   1.591   0.028  0.00  0.00     0.014 A 
ATOM     10  C   UNL d   1       3.381   0.295  -0.039  0.00  0.00     0.002 A 
ATOM     11  C   UNL d   1      -3.490  -0.188   0.035  0.00  0.00     0.002 A 
ATOM     12  C   UNL d   1      -3.182   1.168   0.014  0.00  0.00     0.001 A 
ATOM     13  C   UNL d   1       2.888   1.594  -0.019  0.00  0.00     0.001 A 
ENDROOT
BRANCH   1  14
ATOM     14  C   UNL d   1       0.126  -2.892   0.001  0.00  0.00     0.403 C 
BRANCH  14  15
ATOM     15  N   UNL d   1       0.037  -3.510   1.347  0.00  0.00     0.106 N 
ATOM     16  C   UNL d   1       1.298  -3.323   2.086  0.00  0.00     0.274 C 
ATOM     17  C   UNL d   1       1.395  -4.126   3.383  0.00  0.00     0.030 C 
ATOM     18  C   UNL d   1       1.117  -5.600   3.140  0.00  0.00     0.003 C 
ATOM     19  C   UNL d   1      -0.238  -5.753   2.469  0.00  0.00     0.030 C 
ATOM     20  C   UNL d   1      -0.313  -4.931   1.182  0.00  0.00     0.274 C 
ENDBRANCH  14  15
ENDBRANCH   1  14
TORSDOF 2
