REMARK  7 active torsions:
REMARK  status: ('A' for Active; 'I' for Inactive)
REMARK    1  A    between atoms: C_10  and  C_1 
REMARK    2  A    between atoms: N_7  and  C_2 
REMARK    3  A    between atoms: N_3  and  C_11 
REMARK    4  A    between atoms: C_12  and  N_7 
REMARK    5  A    between atoms: O_17  and  C_10 
REMARK    6  A    between atoms: C_13  and  C_12 
REMARK    7  A    between atoms: C_21  and  O_17 
ROOT
ATOM      1  C   UNL d   1       0.037   1.411  -0.159  0.00  0.00     0.108 A 
ATOM      2  C   UNL d   1      -1.286   0.989  -0.227  0.00  0.00     0.138 A 
ATOM      3  N   UNL d   1       0.014  -0.875  -0.001  0.00  0.00    -0.302 N 
ATOM      4  HN  UNL d   1       0.294  -1.852   0.077  1.00  0.00     0.186 HD
ATOM      5  N   UNL d   1      -1.227  -0.372  -0.081  0.00  0.00    -0.284 N 
ATOM      6  C   UNL d   1       0.798   0.210  -0.047  0.00  0.00     0.042 A 
ATOM      7  C   UNL d   1       2.272   0.048   0.035  0.00  0.00     0.071 C 
ATOM      8  H   UNL d   1      -2.015  -1.007  -0.064  0.00  0.00     0.188 HD
ENDROOT
BRANCH   2   9
ATOM      9  N   UNL d   1      -2.502   1.577  -0.382  0.00  0.00    -0.349 N 
ATOM     10  HN  UNL d   1      -3.307   1.305   0.182  1.00  0.00     0.166 HD
BRANCH   9  11
ATOM     11  C   UNL d   1      -2.583   2.505  -1.288  0.00  0.00     0.103 C 
BRANCH  11  12
ATOM     12  C   UNL d   1      -3.859   3.204  -1.563  0.00  0.00     0.012 A 
ATOM     13  C   UNL d   1      -4.073   3.966  -2.716  0.00  0.00     0.114 A 
ATOM     14  C   UNL d   1      -5.324   4.534  -3.002  0.00  0.00     0.037 A 
ATOM     15  C   UNL d   1      -6.373   4.354  -2.104  0.00  0.00     0.002 A 
ATOM     16  C   UNL d   1      -6.169   3.623  -0.932  0.00  0.00     0.001 A 
ATOM     17  C   UNL d   1      -4.922   3.050  -0.663  0.00  0.00     0.015 A 
BRANCH  13  18
ATOM     18  N   UNL d   1      -3.017   4.182  -3.677  0.00  0.00    -0.115 N 
ATOM     19  O   UNL d   1      -2.044   4.848  -3.309  0.00  0.00    -0.532 OA
ATOM     20  O   UNL d   1      -3.179   3.701  -4.807  0.00  0.00    -0.532 OA
ENDBRANCH  13  18
ENDBRANCH  11  12
ENDBRANCH   9  11
ENDBRANCH   2   9
BRANCH   1  21
ATOM     21  C   UNL d   1       0.488   2.785  -0.249  0.00  0.00     0.299 C 
ATOM     22  O   UNL d   1      -0.214   3.749   0.027  0.00  0.00    -0.259 OA
BRANCH  21  23
ATOM     23  O   UNL d   1       1.726   2.881  -0.813  0.00  0.00    -0.318 OA
BRANCH  23  24
ATOM     24  C   UNL d   1       2.021   4.156  -1.406  0.00  0.00     0.174 C 
ATOM     25  C   UNL d   1       1.510   4.150  -2.837  0.00  0.00     0.034 C 
ENDBRANCH  23  24
ENDBRANCH  21  23
ENDBRANCH   1  21
TORSDOF 7
