REMARK  8 active torsions:
REMARK  status: ('A' for Active; 'I' for Inactive)
REMARK    1  A    between atoms: C_7  and  N_1 
REMARK    2  A    between atoms: C_2  and  C_13 
REMARK    3  A    between atoms: C_4  and  N_19 
REMARK    4  A    between atoms: N_18  and  C_4 
REMARK    5  A    between atoms: C_15  and  C_6 
REMARK    6  A    between atoms: N_19  and  N_8 
REMARK    7  A    between atoms: C_12  and  C_27 
REMARK    8  A    between atoms: C_27  and  N_18 
ROOT
ATOM      1  N   UNL d   1      -5.061   3.702   7.360  0.00  0.00    -0.307 N 
ATOM      2  HN  UNL d   1      -5.408   4.446   6.754  1.00  0.00     0.186 HD
ATOM      3  C   UNL d   1      -4.146   2.885   6.949  0.00  0.00     0.144 C 
ENDROOT
BRANCH   3   4
ATOM      4  C   UNL d   1      -3.547   3.144   5.668  0.00  0.00     0.093 A 
ATOM      5  O   UNL d   1      -2.729   2.219   5.072  0.00  0.00    -0.309 OA
ATOM      6  C   UNL d   1      -2.329   2.750   3.868  0.00  0.00     0.086 A 
ATOM      7  C   UNL d   1      -2.864   4.018   3.724  0.00  0.00     0.041 A 
ATOM      8  C   UNL d   1      -3.653   4.260   4.863  0.00  0.00     0.041 A 
BRANCH   6   9
ATOM      9  C   UNL d   1      -1.482   1.932   2.999  0.00  0.00    -0.002 A 
ATOM     10  C   UNL d   1      -1.072   0.637   3.351  0.00  0.00     0.017 A 
ATOM     11  C   UNL d   1      -0.289  -0.133   2.477  0.00  0.00     0.037 A 
ATOM     12  C   UNL d   1       0.089   0.394   1.235  0.00  0.00     0.102 A 
ATOM     13  C   UNL d   1      -0.299   1.684   0.869  0.00  0.00     0.037 A 
ATOM     14  C   UNL d   1      -1.078   2.441   1.750  0.00  0.00     0.017 A 
BRANCH  12  15
ATOM     15  N   UNL d   1       0.890  -0.410   0.305  0.00  0.00    -0.116 N 
ATOM     16  O   UNL d   1       1.184   0.091  -0.790  0.00  0.00    -0.532 OA
ATOM     17  O   UNL d   1       1.227  -1.547   0.669  0.00  0.00    -0.532 OA
ENDBRANCH  12  15
ENDBRANCH   6   9
ENDBRANCH   3   4
BRANCH   1  18
ATOM     18  N   UNL d   1      -5.548   3.544   8.620  0.00  0.00    -0.277 N 
ATOM     19  H   UNL d   1      -4.992   3.059   9.320  0.00  0.00     0.189 HD
BRANCH  18  20
ATOM     20  C   UNL d   1      -6.739   4.131   8.980  0.00  0.00     0.186 C 
ATOM     21  S   UNL d   1      -7.963   4.595   7.936  0.00  0.00    -0.040 SA
BRANCH  20  22
ATOM     22  N   UNL d   1      -6.926   4.364  10.315  0.00  0.00    -0.360 N 
ATOM     23  H   UNL d   1      -7.825   4.791  10.501  0.00  0.00     0.162 HD
BRANCH  22  24
ATOM     24  C   UNL d   1      -5.863   4.728  11.231  0.00  0.00     0.187 C 
BRANCH  24  25
ATOM     25  C   UNL d   1      -5.348   3.517  11.906  0.00  0.00     0.070 A 
ATOM     26  O   UNL d   1      -4.334   2.849  11.280  0.00  0.00    -0.325 OA
ATOM     27  C   UNL d   1      -4.013   1.793  12.070  0.00  0.00     0.142 A 
ATOM     28  C   UNL d   1      -4.811   1.767  13.190  0.00  0.00     0.027 A 
ATOM     29  C   UNL d   1      -5.675   2.882  13.086  0.00  0.00     0.036 A 
ENDBRANCH  24  25
ENDBRANCH  22  24
ENDBRANCH  20  22
ENDBRANCH  18  20
ENDBRANCH   1  18
TORSDOF 8
