REMARK  1 active torsions:
REMARK  status: ('A' for Active; 'I' for Inactive)
REMARK    1  A    between atoms: C_7  and  N_1 
ROOT
ATOM      1  N   UNL d   1      -0.645  -1.284  -0.052  0.00  0.00    -0.279 N 
ATOM      2  C   UNL d   1       0.553  -1.020  -0.708  0.00  0.00     0.331 A 
ATOM      3  N   UNL d   1       1.027   0.263  -0.589  0.00  0.00    -0.273 N 
ATOM      4  C   UNL d   1      -1.341  -0.288   0.612  0.00  0.00     0.146 A 
ATOM      5  C   UNL d   1      -0.867   0.954   0.708  0.00  0.00     0.199 A 
ATOM      6  C   UNL d   1       0.430   1.291   0.095  0.00  0.00     0.289 A 
ATOM      7  O   UNL d   1       1.177  -1.851  -1.363  0.00  0.00    -0.246 OA
ATOM      8  O   UNL d   1       0.938   2.403   0.180  0.00  0.00    -0.265 OA
ATOM      9  F   UNL d   1      -1.525   1.931   1.357  0.00  0.00    -0.199 F 
ATOM     10  H   UNL d   1       1.912   0.462  -1.032  0.00  0.00     0.173 HD
ENDROOT
BRANCH   1  11
ATOM     11  C   UNL d   1      -1.164  -2.641  -0.130  0.00  0.00     0.232 C 
ATOM     12  O   UNL d   1      -1.984  -2.946   1.013  0.00  0.00    -0.366 OA
ATOM     13  C   UNL d   1      -3.130  -3.683   0.562  0.00  0.00     0.170 C 
ATOM     14  C   UNL d   1      -2.881  -4.047  -0.886  0.00  0.00     0.031 C 
ATOM     15  C   UNL d   1      -2.030  -2.894  -1.356  0.00  0.00     0.056 C 
ENDBRANCH   1  11
TORSDOF 1
