REMARK  8 active torsions:
REMARK  status: ('A' for Active; 'I' for Inactive)
REMARK    1  A    between atoms: C_2  and  C_1 
REMARK    2  A    between atoms: C_3  and  C_1 
REMARK    3  A    between atoms: C_5  and  C_2 
REMARK    4  A    between atoms: S_4  and  C_3 
REMARK    5  A    between atoms: C_6  and  C_3 
REMARK    6  A    between atoms: C_15  and  S_4 
REMARK    7  A    between atoms: C_17  and  C_7 
REMARK    8  A    between atoms: O_20  and  C_16 
ROOT
ATOM      1  C   UNL d   1       2.576   0.030   0.028  0.00  0.00     0.092 C 
ENDROOT
BRANCH   1   2
ATOM      2  C   UNL d   1       1.048  -0.070   0.068  0.00  0.00     0.104 C 
BRANCH   2   3
ATOM      3  C   UNL d   1       0.514  -1.013   1.134  0.00  0.00     0.161 C 
ATOM      4  O   UNL d   1       1.239  -1.750   1.802  0.00  0.00    -0.292 OA
BRANCH   3   5
ATOM      5  C   UNL d   1      -0.976  -1.061   1.327  0.00  0.00     0.010 A 
ATOM      6  C   UNL d   1      -1.850  -0.377   0.469  0.00  0.00     0.018 A 
ATOM      7  C   UNL d   1      -3.231  -0.407   0.684  0.00  0.00     0.037 A 
ATOM      8  C   UNL d   1      -3.755  -1.118   1.762  0.00  0.00     0.068 A 
ATOM      9  C   UNL d   1      -2.897  -1.847   2.587  0.00  0.00     0.037 A 
ATOM     10  C   UNL d   1      -1.513  -1.814   2.378  0.00  0.00     0.018 A 
BRANCH   8  11
ATOM     11  O   UNL d   1      -5.089  -1.190   2.059  0.00  0.00    -0.356 OA
ATOM     12  C   UNL d   1      -5.813   0.015   1.815  0.00  0.00     0.210 C 
ENDBRANCH   8  11
ENDBRANCH   3   5
ENDBRANCH   2   3
ENDBRANCH   1   2
BRANCH   1  13
ATOM     13  S   UNL d   1       3.137   0.918  -1.538  0.00  0.00    -0.120 SA
BRANCH  13  14
ATOM     14  C   UNL d   1       2.466  -0.086  -2.836  0.00  0.00     0.001 A 
ATOM     15  C   UNL d   1       1.609   0.512  -3.767  0.00  0.00     0.018 A 
ATOM     16  C   UNL d   1       1.101  -0.227  -4.835  0.00  0.00     0.001 A 
ATOM     17  C   UNL d   1       1.459  -1.565  -4.982  0.00  0.00     0.000 A 
ATOM     18  C   UNL d   1       2.323  -2.163  -4.063  0.00  0.00     0.001 A 
ATOM     19  C   UNL d   1       2.827  -1.425  -2.991  0.00  0.00     0.018 A 
ENDBRANCH  13  14
ENDBRANCH   1  13
BRANCH   1  20
ATOM     20  C   UNL d   1       3.191   0.823   1.180  0.00  0.00    -0.044 A 
ATOM     21  C   UNL d   1       4.229   0.260   1.934  0.00  0.00     0.009 A 
ATOM     22  C   UNL d   1       5.002   1.056   2.786  0.00  0.00     0.008 A 
ATOM     23  C   UNL d   1       4.761   2.432   2.900  0.00  0.00    -0.055 A 
ATOM     24  C   UNL d   1       3.652   2.970   2.237  0.00  0.00     0.008 A 
ATOM     25  C   UNL d   1       2.870   2.174   1.397  0.00  0.00     0.009 A 
BRANCH  23  26
ATOM     26  C   UNL d   1       5.716   3.354   3.637  0.00  0.00     0.010 C 
ATOM     27  C   UNL d   1       5.783   3.048   5.131  0.00  0.00     0.015 C 
ATOM     28  C   UNL d   1       7.112   3.313   3.001  0.00  0.00     0.015 C 
ENDBRANCH  23  26
ENDBRANCH   1  20
TORSDOF 8
