REMARK  2 active torsions:
REMARK  status: ('A' for Active; 'I' for Inactive)
REMARK    1  A    between atoms: C_8  and  C_1 
REMARK    2  A    between atoms: S_13  and  C_5 
ROOT
ATOM      1  C   UNL d   1       2.134  -0.011   0.033  0.00  0.00     0.119 A 
ATOM      2  S   UNL d   1       1.499   0.976   1.299  0.00  0.00    -0.043 SA
ATOM      3  N   UNL d   1       1.229  -0.348  -0.869  0.00  0.00    -0.291 N 
ATOM      4  HN  UNL d   1       1.430  -0.929  -1.683  1.00  0.00     0.187 HD
ATOM      5  C   UNL d   1      -0.015   0.887   0.513  0.00  0.00     0.126 A 
ATOM      6  N   UNL d   1      -0.019   0.174  -0.589  0.00  0.00    -0.287 N 
ATOM      7  HN  UNL d   1      -0.845   0.023  -1.169  1.00  0.00     0.188 HD
ENDROOT
BRANCH   1   8
ATOM      8  C   UNL d   1       3.543  -0.407  -0.003  0.00  0.00     0.083 A 
ATOM      9  N   UNL d   1       4.348   0.006   1.014  0.00  0.00    -0.361 N 
ATOM     10  C   UNL d   1       5.644  -0.378   0.936  0.00  0.00     0.105 A 
ATOM     11  HN  UNL d   1       3.996   0.570   1.788  1.00  0.00     0.165 HD
ATOM     12  C   UNL d   1       6.133  -1.143  -0.108  0.00  0.00     0.104 A 
ATOM     13  N   UNL d   1       5.347  -1.562  -1.124  0.00  0.00    -0.372 N 
ATOM     14  C   UNL d   1       4.046  -1.178  -1.047  0.00  0.00     0.120 A 
ATOM     15  HN  UNL d   1       5.705  -2.126  -1.894  1.00  0.00     0.164 HD
ENDBRANCH   1   8
BRANCH   5  16
ATOM     16  S   UNL d   1      -1.450   1.677   1.111  0.00  0.00    -0.117 SA
ATOM     17  H   UNL d   1      -0.886   2.252   2.181  0.00  0.00     0.109 HD
ENDBRANCH   5  16
TORSDOF 2
