REMARK  4 active torsions:
REMARK  status: ('A' for Active; 'I' for Inactive)
REMARK    1  A    between atoms: N_2  and  S_1 
REMARK    2  A    between atoms: C_16  and  S_1 
REMARK    3  A    between atoms: C_3  and  N_9 
REMARK    4  A    between atoms: C_7  and  C_4 
ROOT
ATOM      1  C   UNL d   1       3.616  -2.111  -3.930  0.00  0.00     0.045 A 
ATOM      2  C   UNL d   1       5.598  -1.938  -5.317  0.00  0.00     0.119 A 
ATOM      3  N   UNL d   1       5.447  -3.208  -5.775  0.00  0.00    -0.352 N 
ATOM      4  HN  UNL d   1       6.122  -3.606  -6.428  1.00  0.00     0.166 HD
ATOM      5  C   UNL d   1       4.713  -1.377  -4.395  0.00  0.00     0.064 A 
ATOM      6  C   UNL d   1       3.434  -3.428  -4.457  0.00  0.00     0.017 A 
ATOM      7  C   UNL d   1       4.400  -3.928  -5.355  0.00  0.00     0.045 A 
ATOM      8  C   UNL d   1       2.320  -4.258  -4.166  0.00  0.00     0.016 A 
ATOM      9  C   UNL d   1       4.265  -5.220  -5.849  0.00  0.00     0.030 A 
ATOM     10  C   UNL d   1       2.217  -5.560  -4.646  0.00  0.00     0.001 A 
ATOM     11  C   UNL d   1       3.201  -6.047  -5.489  0.00  0.00     0.002 A 
ENDROOT
BRANCH   1  12
ATOM     12  N   UNL d   1       2.708  -1.563  -3.021  0.00  0.00    -0.377 N 
ATOM     13  C   UNL d   1       2.499  -0.104  -2.911  0.00  0.00     0.143 C 
ATOM     14  C   UNL d   1       1.050   0.158  -2.446  0.00  0.00     0.155 C 
ATOM     15  N   UNL d   1       0.722  -0.573  -1.180  0.00  0.00    -0.304 N 
ATOM     16  C   UNL d   1       1.023  -2.036  -1.294  0.00  0.00     0.155 C 
ATOM     17  C   UNL d   1       2.494  -2.259  -1.727  0.00  0.00     0.143 C 
BRANCH  15  18
ATOM     18  S   UNL d   1       1.149   0.163   0.285  0.00  0.00     0.260 S 
ATOM     19  O   UNL d   1       1.353   1.579   0.052  0.00  0.00    -0.200 OA
ATOM     20  O   UNL d   1       2.159  -0.644   0.936  0.00  0.00    -0.200 OA
BRANCH  18  21
ATOM     21  C   UNL d   1      -0.366  -0.013   1.202  0.00  0.00     0.079 A 
ATOM     22  C   UNL d   1      -0.573  -1.137   2.011  0.00  0.00     0.025 A 
ATOM     23  C   UNL d   1      -1.770  -1.258   2.719  0.00  0.00     0.002 A 
ATOM     24  C   UNL d   1      -2.742  -0.259   2.629  0.00  0.00     0.000 A 
ATOM     25  C   UNL d   1      -2.519   0.870   1.841  0.00  0.00     0.002 A 
ATOM     26  C   UNL d   1      -1.328   0.997   1.127  0.00  0.00     0.025 A 
ENDBRANCH  18  21
ENDBRANCH  15  18
ENDBRANCH   1  12
BRANCH   2  27
ATOM     27  C   UNL d   1       6.760  -1.101  -5.833  0.00  0.00     0.432 C 
ATOM     28  F   UNL d   1       7.555  -1.737  -6.741  0.00  0.00    -0.165 F 
ATOM     29  F   UNL d   1       6.343   0.045  -6.450  0.00  0.00    -0.165 F 
ATOM     30  F   UNL d   1       7.596  -0.691  -4.835  0.00  0.00    -0.165 F 
ENDBRANCH   2  27
TORSDOF 4
