REMARK  6 active torsions:
REMARK  status: ('A' for Active; 'I' for Inactive)
REMARK    1  A    between atoms: N_2  and  C_1 
REMARK    2  A    between atoms: C_3  and  C_6 
REMARK    3  A    between atoms: N_7  and  C_4 
REMARK    4  A    between atoms: C_16  and  N_7 
REMARK    5  A    between atoms: C_17  and  N_8 
REMARK    6  A    between atoms: C_22  and  C_17 
ROOT
ATOM      1  N   UNL d   1       1.168  -2.635   0.062  0.00  0.00    -0.383 N 
ATOM      2  H   UNL d   1       0.846  -2.451  -0.883  0.00  0.00     0.160 HD
ENDROOT
BRANCH   1   3
ATOM      3  C   UNL d   1       0.116  -2.799   0.948  0.00  0.00     0.061 A 
ATOM      4  C   UNL d   1       0.074  -3.420   2.205  0.00  0.00     0.130 A 
ATOM      5  C   UNL d   1      -1.034  -3.298   3.078  0.00  0.00     0.054 A 
ATOM      6  C   UNL d   1      -2.176  -2.590   2.695  0.00  0.00     0.050 A 
ATOM      7  C   UNL d   1      -2.197  -2.025   1.422  0.00  0.00     0.018 A 
ATOM      8  C   UNL d   1      -1.070  -2.110   0.589  0.00  0.00     0.032 A 
BRANCH   4   9
ATOM      9  N   UNL d   1       1.097  -4.343   2.660  0.00  0.00    -0.113 N 
ATOM     10  O   UNL d   1       1.351  -5.318   1.939  0.00  0.00    -0.532 OA
ATOM     11  O   UNL d   1       1.585  -4.137   3.780  0.00  0.00    -0.532 OA
ENDBRANCH   4   9
BRANCH   6  12
ATOM     12  C   UNL d   1      -3.367  -2.490   3.618  0.00  0.00     0.417 C 
ATOM     13  F   UNL d   1      -3.009  -2.342   4.923  0.00  0.00    -0.166 F 
ATOM     14  F   UNL d   1      -4.183  -1.438   3.334  0.00  0.00    -0.166 F 
ATOM     15  F   UNL d   1      -4.150  -3.600   3.566  0.00  0.00    -0.166 F 
ENDBRANCH   6  12
ENDBRANCH   1   3
BRANCH   1  16
ATOM     16  C   UNL d   1       2.569  -3.094   0.085  0.00  0.00     0.085 C 
ATOM     17  C   UNL d   1       3.402  -2.538   1.238  0.00  0.00     0.055 C 
ATOM     18  C   UNL d   1       3.571  -1.028   1.157  0.00  0.00     0.275 C 
ATOM     19  N   UNL d   1       4.160  -0.591  -0.111  0.00  0.00     0.092 N 
ATOM     20  C   UNL d   1       3.443  -1.123  -1.274  0.00  0.00     0.275 C 
ATOM     21  C   UNL d   1       3.258  -2.644  -1.219  0.00  0.00     0.055 C 
BRANCH  19  22
ATOM     22  C   UNL d   1       4.320   0.882  -0.159  0.00  0.00     0.311 C 
BRANCH  22  23
ATOM     23  C   UNL d   1       3.031   1.687  -0.173  0.00  0.00    -0.030 A 
ATOM     24  C   UNL d   1       2.373   2.015   1.024  0.00  0.00     0.009 A 
ATOM     25  C   UNL d   1       1.116   2.620   1.002  0.00  0.00     0.001 A 
ATOM     26  C   UNL d   1       0.514   2.932  -0.215  0.00  0.00     0.000 A 
ATOM     27  C   UNL d   1       1.179   2.663  -1.409  0.00  0.00     0.001 A 
ATOM     28  C   UNL d   1       2.432   2.048  -1.389  0.00  0.00     0.009 A 
ENDBRANCH  22  23
ENDBRANCH  19  22
ENDBRANCH   1  16
TORSDOF 6
