REMARK  3 active torsions:
REMARK  status: ('A' for Active; 'I' for Inactive)
REMARK    1  A    between atoms: C_6  and  C_1 
REMARK    2  A    between atoms: S_7  and  C_6 
REMARK    3  A    between atoms: C_9  and  S_7 
ROOT
ATOM      1  C   UNL d   1       1.819  -0.982  -0.023  0.00  0.00    -0.008 A 
ATOM      2  C   UNL d   1       1.347  -0.244   1.039  0.00  0.00     0.083 A 
ATOM      3  S   UNL d   1       0.869   1.323   0.642  0.00  0.00    -0.077 SA
ATOM      4  C   UNL d   1       1.785  -0.189  -1.242  0.00  0.00    -0.010 A 
ATOM      5  C   UNL d   1       1.281   1.097  -1.012  0.00  0.00     0.017 A 
ATOM      6 CL   UNL d   1       1.202  -0.748   2.681  0.00  0.00    -0.076 Cl
ATOM      7  C   UNL d   1       2.174  -0.512  -2.568  0.00  0.00     0.013 A 
ATOM      8  C   UNL d   1       1.155   2.043  -2.048  0.00  0.00     0.020 A 
ATOM      9  C   UNL d   1       2.050   0.424  -3.600  0.00  0.00     0.001 A 
ATOM     10  C   UNL d   1       1.543   1.690  -3.341  0.00  0.00     0.001 A 
ENDROOT
BRANCH   1  11
ATOM     11  C   UNL d   1       2.301  -2.403   0.062  0.00  0.00     0.121 C 
BRANCH  11  12
ATOM     12  S   UNL d   1       4.099  -2.433   0.385  0.00  0.00    -0.125 SA
BRANCH  12  13
ATOM     13  C   UNL d   1       4.473  -4.180   0.399  0.00  0.00     0.001 A 
ATOM     14  C   UNL d   1       5.743  -4.568  -0.052  0.00  0.00     0.020 A 
ATOM     15  C   UNL d   1       6.139  -5.909  -0.015  0.00  0.00     0.025 A 
ATOM     16  C   UNL d   1       5.266  -6.871   0.482  0.00  0.00     0.034 A 
ATOM     17  C   UNL d   1       4.003  -6.503   0.937  0.00  0.00     0.025 A 
ATOM     18 CL   UNL d   1       5.756  -8.519   0.551  0.00  0.00    -0.084 Cl
ATOM     19  C   UNL d   1       3.609  -5.160   0.900  0.00  0.00     0.020 A 
ENDBRANCH  12  13
ENDBRANCH  11  12
ENDBRANCH   1  11
TORSDOF 3
