REMARK  4 active torsions:
REMARK  status: ('A' for Active; 'I' for Inactive)
REMARK       I    between atoms: N_2  and  C_1 
REMARK       I    between atoms: N_4  and  C_1 
REMARK       I    between atoms: C_3  and  N_6 
REMARK    1  A    between atoms: O_7  and  C_3 
REMARK    2  A    between atoms: C_5  and  N_4 
REMARK    3  A    between atoms: N_6  and  C_20 
REMARK    4  A    between atoms: C_17  and  O_7 
ROOT
ATOM      1  C   UNL d   1       1.035   0.341  -0.204  0.00  0.00     0.322 C 
ATOM      2  N   UNL d   1       0.742   0.438   1.159  0.00  0.00    -0.334 N 
ATOM      3  N   UNL d   1       1.766   1.383  -0.733  0.00  0.00    -0.309 N 
ATOM      4  O   UNL d   1       0.659  -0.625  -0.865  0.00  0.00    -0.247 OA
ATOM      5  C   UNL d   1       1.022   1.528   2.089  0.00  0.00     0.129 C 
ATOM      6  C   UNL d   1      -0.082  -0.594   1.779  0.00  0.00     0.129 C 
ATOM      7  C   UNL d   1      -1.456  -0.044   2.152  0.00  0.00     0.045 C 
ATOM      8  C   UNL d   1      -0.267   2.276   2.407  0.00  0.00     0.045 C 
ATOM      9  C   UNL d   1      -1.466   1.374   2.761  0.00  0.00     0.089 C 
ATOM     10  H   UNL d   1       1.990   2.138  -0.112  0.00  0.00     0.170 HD
ENDROOT
BRANCH   3  11
ATOM     11  C   UNL d   1       2.282   1.520  -2.048  0.00  0.00     0.039 A 
ATOM     12  C   UNL d   1       2.068   0.610  -3.088  0.00  0.00     0.053 A 
ATOM     13  C   UNL d   1       2.647   0.826  -4.346  0.00  0.00     0.037 A 
ATOM     14 CL   UNL d   1       2.371  -0.299  -5.622  0.00  0.00    -0.084 Cl
ATOM     15  C   UNL d   1       3.446   1.939  -4.587  0.00  0.00     0.048 A 
ATOM     16  C   UNL d   1       3.657   2.846  -3.557  0.00  0.00     0.037 A 
ATOM     17  C   UNL d   1       3.078   2.647  -2.300  0.00  0.00     0.053 A 
ATOM     18 CL   UNL d   1       4.649   4.228  -3.828  0.00  0.00    -0.084 Cl
ENDBRANCH   3  11
BRANCH   9  19
ATOM     19  N   UNL d   1      -1.857   1.402   4.176  0.00  0.00    -0.332 N 
ATOM     20  C   UNL d   1      -1.248   0.795   5.222  0.00  0.00     0.361 C 
ATOM     21  O   UNL d   1      -0.175   0.207   5.170  0.00  0.00    -0.238 OA
ATOM     22  H   UNL d   1      -2.707   1.889   4.425  0.00  0.00     0.165 HD
BRANCH  20  23
ATOM     23  O   UNL d   1      -2.021   0.958   6.328  0.00  0.00    -0.294 OA
BRANCH  23  24
ATOM     24  C   UNL d   1      -1.575   0.541   7.653  0.00  0.00     0.061 C 
ATOM     25  C   UNL d   1      -0.282   1.273   8.032  0.00  0.00     0.046 C 
ATOM     26  C   UNL d   1      -2.702   0.968   8.616  0.00  0.00     0.046 C 
ATOM     27  C   UNL d   1      -1.406  -0.979   7.758  0.00  0.00     0.046 C 
ENDBRANCH  23  24
ENDBRANCH  20  23
ENDBRANCH   9  19
TORSDOF 4
