REMARK  4 active torsions:
REMARK  status: ('A' for Active; 'I' for Inactive)
REMARK    1  A    between atoms: C_6  and  C_2 
REMARK    2  A    between atoms: O_17  and  C_5 
REMARK    3  A    between atoms: O_18  and  C_7 
REMARK    4  A    between atoms: O_19  and  C_9 
ROOT
ATOM      1  C   UNL d   1      -4.880  -0.277  -1.469  0.00  0.00     0.136 A 
ATOM      2  C   UNL d   1      -3.035  -1.214  -0.157  0.00  0.00     0.002 A 
ATOM      3  C   UNL d   1      -3.497  -0.602  -1.343  0.00  0.00     0.114 A 
ATOM      4  C   UNL d   1      -5.773  -0.539  -0.413  0.00  0.00     0.104 A 
ATOM      5  C   UNL d   1      -3.952  -1.505   0.866  0.00  0.00     0.017 A 
ATOM      6  C   UNL d   1      -5.298  -1.173   0.736  0.00  0.00     0.040 A 
ENDROOT
BRANCH   2   7
ATOM      7  C   UNL d   1      -1.643  -1.586   0.126  0.00  0.00     0.041 C 
ATOM      8  C   UNL d   1      -0.744  -0.829   0.777  0.00  0.00     0.058 C 
ATOM      9  C   UNL d   1      -1.018   0.555   1.353  0.00  0.00     0.174 C 
ATOM     10  N   UNL d   1       0.638  -1.141   0.874  0.00  0.00    -0.280 NA
ATOM     11  C   UNL d   1       0.293   1.245   1.723  0.00  0.00     0.064 C 
ATOM     12  O   UNL d   1      -2.118   1.057   1.531  0.00  0.00    -0.291 OA
ATOM     13  C   UNL d   1       0.950   0.372   2.807  0.00  0.00     0.027 C 
ATOM     14  C   UNL d   1       1.173   1.231   0.456  0.00  0.00     0.027 C 
ATOM     15  C   UNL d   1       1.155  -1.064   2.277  0.00  0.00     0.096 C 
ATOM     16  C   UNL d   1       1.476  -0.226   0.038  0.00  0.00     0.096 C 
ENDBRANCH   2   7
BRANCH   3  17
ATOM     17  O   UNL d   1      -2.753  -0.287  -2.454  0.00  0.00    -0.352 OA
ATOM     18  C   UNL d   1      -1.345  -0.251  -2.429  0.00  0.00     0.210 C 
ENDBRANCH   3  17
BRANCH   1  19
ATOM     19  O   UNL d   1      -5.376   0.387  -2.570  0.00  0.00    -0.351 OA
ATOM     20  C   UNL d   1      -5.026  -0.156  -3.839  0.00  0.00     0.210 C 
ENDBRANCH   1  19
BRANCH   4  21
ATOM     21  O   UNL d   1      -7.119  -0.285  -0.344  0.00  0.00    -0.353 OA
ATOM     22  C   UNL d   1      -7.703   0.577  -1.307  0.00  0.00     0.210 C 
ENDBRANCH   4  21
TORSDOF 4
