REMARK  5 active torsions:
REMARK  status: ('A' for Active; 'I' for Inactive)
REMARK    1  A    between atoms: C_6  and  C_1 
REMARK    2  A    between atoms: C_15  and  C_6 
REMARK    3  A    between atoms: C_7  and  S_14 
REMARK    4  A    between atoms: S_14  and  C_18 
REMARK    5  A    between atoms: C_18  and  C_15 
ROOT
ATOM      1  C   UNL d   1       3.562   0.244   0.033  0.00  0.00     0.167 C 
ATOM      2  O   UNL d   1       4.200  -0.812   0.038  0.00  0.00    -0.292 OA
ENDROOT
BRANCH   1   3
ATOM      3  C   UNL d   1       2.086   0.282   0.025  0.00  0.00     0.058 A 
ATOM      4  S   UNL d   1       1.275   1.793   0.037  0.00  0.00    -0.085 SA
ATOM      5  C   UNL d   1      -0.282   1.093   0.025  0.00  0.00     0.016 A 
ATOM      6  C   UNL d   1      -1.514   1.779   0.023  0.00  0.00     0.019 A 
ATOM      7  C   UNL d   1      -0.210  -0.296   0.018  0.00  0.00    -0.012 A 
ATOM      8  C   UNL d   1      -2.699   1.043   0.021  0.00  0.00     0.001 A 
ATOM      9  C   UNL d   1      -2.662  -0.343   0.021  0.00  0.00     0.001 A 
ATOM     10  C   UNL d   1      -1.435  -1.016   0.016  0.00  0.00     0.013 A 
ATOM     11  C   UNL d   1       1.169  -0.770   0.007  0.00  0.00    -0.030 A 
ATOM     12  C   UNL d   1       1.486  -2.237  -0.026  0.00  0.00     0.050 C 
ENDBRANCH   1   3
BRANCH   1  13
ATOM     13  C   UNL d   1       4.320   1.573   0.031  0.00  0.00     0.095 C 
BRANCH  13  14
ATOM     14  C   UNL d   1       5.840   1.403   0.011  0.00  0.00     0.087 C 
BRANCH  14  15
ATOM     15  S   UNL d   1       6.599   3.065  -0.168  0.00  0.00    -0.129 SA
BRANCH  15  16
ATOM     16  C   UNL d   1       8.349   2.720   0.018  0.00  0.00     0.007 A 
ATOM     17  C   UNL d   1       8.985   3.284   1.143  0.00  0.00     0.027 A 
ATOM     18  C   UNL d   1      10.376   3.196   1.333  0.00  0.00    -0.039 A 
ATOM     19  C   UNL d   1      11.017   3.877   2.511  0.00  0.00     0.050 C 
ATOM     20  C   UNL d   1      11.134   2.513   0.377  0.00  0.00     0.040 A 
ATOM     21  C   UNL d   1      10.518   1.953  -0.744  0.00  0.00     0.032 A 
ATOM     22 CL   UNL d   1      12.851   2.370   0.512  0.00  0.00    -0.084 Cl
ATOM     23  C   UNL d   1       9.130   2.067  -0.952  0.00  0.00    -0.044 A 
ATOM     24  C   UNL d   1       8.567   1.542  -2.244  0.00  0.00     0.049 C 
ENDBRANCH  15  16
ENDBRANCH  14  15
ENDBRANCH  13  14
ENDBRANCH   1  13
TORSDOF 5
