REMARK  8 active torsions:
REMARK  status: ('A' for Active; 'I' for Inactive)
REMARK    1  A    between atoms: C_4  and  C_1 
REMARK    2  A    between atoms: C_14  and  C_5 
REMARK    3  A    between atoms: C_6  and  C_8 
REMARK    4  A    between atoms: O_16  and  N_10 
REMARK    5  A    between atoms: C_12  and  O_16 
REMARK       I    between atoms: N_15  and  C_12 
REMARK    6  A    between atoms: C_13  and  C_17 
REMARK    7  A    between atoms: N_29  and  C_13 
REMARK    8  A    between atoms: C_30  and  N_15 
ROOT
ATOM      1  C   UNL d   1       8.595   3.737  -3.460  0.00  0.00    -0.009 A 
ATOM      2  C   UNL d   1       6.813   4.006  -1.282  0.00  0.00     0.004 A 
ATOM      3  C   UNL d   1       7.365   3.069  -3.463  0.00  0.00     0.014 A 
ATOM      4  C   UNL d   1       8.926   4.531  -2.353  0.00  0.00     0.014 A 
ATOM      5  C   UNL d   1       6.479   3.206  -2.386  0.00  0.00     0.015 A 
ATOM      6  C   UNL d   1       8.048   4.660  -1.270  0.00  0.00     0.015 A 
ENDROOT
BRANCH   2   7
ATOM      7  C   UNL d   1       5.834   4.215  -0.159  0.00  0.00     0.109 C 
ATOM      8  N   UNL d   1       6.128   5.056   0.800  0.00  0.00    -0.244 N 
ATOM      9  HN  UNL d   1       7.006   5.568   0.892  1.00  0.00     0.196 HD
BRANCH   8  10
ATOM     10  O   UNL d   1       5.024   5.139   1.691  0.00  0.00    -0.179 OA
BRANCH  10  11
ATOM     11  C   UNL d   1       5.196   6.038   2.723  0.00  0.00     0.387 C 
ATOM     12  N   UNL d   1       6.473   6.534   2.835  0.00  0.00    -0.301 N 
ATOM     13  H   UNL d   1       7.089   6.157   2.124  0.00  0.00     0.171 HD
ATOM     14  O   UNL d   1       4.248   6.288   3.463  0.00  0.00    -0.236 OA
BRANCH  12  15
ATOM     15  C   UNL d   1       6.972   7.429   3.802  0.00  0.00     0.037 A 
ATOM     16  C   UNL d   1       6.176   8.031   4.780  0.00  0.00     0.031 A 
ATOM     17  C   UNL d   1       6.731   8.912   5.716  0.00  0.00     0.026 A 
ATOM     18  C   UNL d   1       8.094   9.193   5.678  0.00  0.00     0.034 A 
ATOM     19  C   UNL d   1       8.900   8.601   4.710  0.00  0.00     0.026 A 
ATOM     20 CL   UNL d   1       8.777  10.274   6.827  0.00  0.00    -0.084 Cl
ATOM     21  C   UNL d   1       8.341   7.723   3.772  0.00  0.00     0.031 A 
ENDBRANCH  12  15
ENDBRANCH  10  11
ENDBRANCH   8  10
BRANCH   7  22
ATOM     22  N   UNL d   1       4.639   3.526  -0.182  0.00  0.00    -0.286 NA
ATOM     23  H   UNL d   1       4.116   3.636   0.682  0.00  0.00     0.125 HD
ATOM     24  H   UNL d   1       4.686   2.553  -0.465  0.00  0.00     0.125 HD
ENDBRANCH   7  22
ENDBRANCH   2   7
BRANCH   1  25
ATOM     25  C   UNL d   1       9.531   3.636  -4.573  0.00  0.00     0.050 A 
ATOM     26  N   UNL d   1      10.344   4.705  -4.925  0.00  0.00    -0.349 N 
ATOM     27  C   UNL d   1      11.185   4.356  -5.875  0.00  0.00     0.087 A 
ATOM     28  HN  UNL d   1      10.296   5.633  -4.505  1.00  0.00     0.166 HD
ATOM     29  S   UNL d   1      10.990   2.735  -6.442  0.00  0.00    -0.081 SA
ATOM     30  C   UNL d   1       9.723   2.493  -5.319  0.00  0.00     0.082 A 
BRANCH  27  31
ATOM     31  C   UNL d   1      12.239   5.223  -6.422  0.00  0.00     0.028 A 
ATOM     32  C   UNL d   1      12.991   6.122  -5.643  0.00  0.00     0.063 A 
ATOM     33  C   UNL d   1      13.957   6.928  -6.286  0.00  0.00     0.034 A 
ATOM     34  C   UNL d   1      14.163   6.801  -7.646  0.00  0.00     0.088 A 
ATOM     35  N   UNL d   1      13.468   5.946  -8.414  0.00  0.00    -0.374 N 
ATOM     36  C   UNL d   1      12.527   5.194  -7.792  0.00  0.00     0.102 A 
ATOM     37  HN  UNL d   1      13.641   5.866  -9.416  1.00  0.00     0.164 HD
BRANCH  32  38
ATOM     38  C   UNL d   1      12.851   6.311  -4.151  0.00  0.00     0.418 C 
ATOM     39  F   UNL d   1      12.271   5.304  -3.452  0.00  0.00    -0.166 F 
ATOM     40  F   UNL d   1      14.079   6.459  -3.562  0.00  0.00    -0.166 F 
ATOM     41  F   UNL d   1      12.174   7.450  -3.837  0.00  0.00    -0.166 F 
ENDBRANCH  32  38
ENDBRANCH  27  31
ENDBRANCH   1  25
TORSDOF 8
