REMARK  3 active torsions:
REMARK  status: ('A' for Active; 'I' for Inactive)
REMARK    1  A    between atoms: N_9  and  C_1 
REMARK    2  A    between atoms: C_8  and  C_5 
REMARK    3  A    between atoms: O_11  and  C_5 
ROOT
ATOM      1  C   UNL d   1      -2.402   0.057  -0.089  0.00  0.00     0.120 A 
ATOM      2  C   UNL d   1      -0.228  -0.773  -0.060  0.00  0.00     0.017 A 
ATOM      3  N   UNL d   1      -1.625   1.108  -0.048  0.00  0.00    -0.343 N 
ATOM      4  HN  UNL d   1      -1.918   2.085  -0.034  1.00  0.00     0.167 HD
ATOM      5  C   UNL d   1      -1.629  -1.317  -0.052  0.00  0.00     0.172 A 
ATOM      6  C   UNL d   1      -0.308   0.624  -0.028  0.00  0.00     0.043 A 
ATOM      7  C   UNL d   1       0.990  -1.435  -0.093  0.00  0.00     0.037 A 
ATOM      8  C   UNL d   1       0.841   1.394  -0.009  0.00  0.00     0.032 A 
ATOM      9  C   UNL d   1       2.147  -0.659  -0.082  0.00  0.00     0.034 A 
ATOM     10  C   UNL d   1       2.080   0.744  -0.035  0.00  0.00     0.026 A 
ATOM     11 CL   UNL d   1       3.686  -1.430  -0.133  0.00  0.00    -0.084 Cl
ENDROOT
BRANCH   5  12
ATOM     12  C   UNL d   1      -1.975  -2.139   1.185  0.00  0.00    -0.012 A 
ATOM     13  C   UNL d   1      -1.870  -1.585   2.476  0.00  0.00     0.011 A 
ATOM     14  C   UNL d   1      -2.164  -2.343   3.612  0.00  0.00     0.001 A 
ATOM     15  C   UNL d   1      -2.568  -3.668   3.480  0.00  0.00     0.000 A 
ATOM     16  C   UNL d   1      -2.680  -4.235   2.214  0.00  0.00     0.001 A 
ATOM     17  C   UNL d   1      -2.386  -3.479   1.077  0.00  0.00     0.011 A 
ENDBRANCH   5  12
BRANCH   5  18
ATOM     18  O   UNL d   1      -1.891  -2.022  -1.260  0.00  0.00    -0.373 OA
ATOM     19  H   UNL d   1      -1.528  -1.473  -1.977  0.00  0.00     0.212 HD
ENDBRANCH   5  18
BRANCH   1  20
ATOM     20  N   UNL d   1      -3.764   0.134  -0.187  0.00  0.00    -0.386 N 
ATOM     21  H   UNL d   1      -4.156   1.032   0.072  0.00  0.00     0.157 HD
ATOM     22  H   UNL d   1      -4.293  -0.676   0.117  0.00  0.00     0.157 HD
ENDBRANCH   1  20
TORSDOF 3
