REMARK  6 active torsions:
REMARK  status: ('A' for Active; 'I' for Inactive)
REMARK    1  A    between atoms: N_3  and  C_1 
REMARK    2  A    between atoms: N_4  and  C_2 
REMARK    3  A    between atoms: N_5  and  C_12 
REMARK    4  A    between atoms: N_6  and  C_11 
REMARK    5  A    between atoms: C_9  and  S_13 
REMARK    6  A    between atoms: S_13  and  C_10 
ROOT
ATOM      1  S   UNL d   1       1.952   2.514  -0.075  0.00  0.00    -0.086 SA
ENDROOT
BRANCH   1   2
ATOM      2  C   UNL d   1       3.539   1.976  -0.701  0.00  0.00     0.038 A 
ATOM      3  C   UNL d   1       4.769   2.259  -0.078  0.00  0.00     0.122 A 
ATOM      4  C   UNL d   1       6.004   2.000  -0.696  0.00  0.00     0.073 A 
ATOM      5  C   UNL d   1       6.008   1.435  -1.975  0.00  0.00     0.105 A 
ATOM      6  C   UNL d   1       4.802   1.108  -2.605  0.00  0.00     0.037 A 
ATOM      7  C   UNL d   1       3.583   1.383  -1.972  0.00  0.00     0.024 A 
BRANCH   3   8
ATOM      8  N   UNL d   1       4.813   2.839   1.252  0.00  0.00    -0.114 N 
ATOM      9  O   UNL d   1       5.402   3.919   1.373  0.00  0.00    -0.532 OA
ATOM     10  O   UNL d   1       4.315   2.176   2.171  0.00  0.00    -0.532 OA
ENDBRANCH   3   8
BRANCH   5  11
ATOM     11  N   UNL d   1       7.280   1.212  -2.673  0.00  0.00    -0.116 N 
ATOM     12  O   UNL d   1       8.320   1.534  -2.084  0.00  0.00    -0.532 OA
ATOM     13  O   UNL d   1       7.232   0.721  -3.809  0.00  0.00    -0.532 OA
ENDBRANCH   5  11
ENDBRANCH   1   2
BRANCH   1  14
ATOM     14  C   UNL d   1       1.066   0.986   0.213  0.00  0.00     0.038 A 
ATOM     15  C   UNL d   1      -0.116   0.621  -0.458  0.00  0.00     0.122 A 
ATOM     16  C   UNL d   1      -0.889  -0.487  -0.072  0.00  0.00     0.073 A 
ATOM     17  C   UNL d   1      -0.458  -1.260   1.010  0.00  0.00     0.105 A 
ATOM     18  C   UNL d   1       0.732  -0.942   1.677  0.00  0.00     0.037 A 
ATOM     19  C   UNL d   1       1.479   0.177   1.282  0.00  0.00     0.024 A 
BRANCH  15  20
ATOM     20  N   UNL d   1      -0.585   1.375  -1.607  0.00  0.00    -0.114 N 
ATOM     21  O   UNL d   1      -1.719   1.863  -1.530  0.00  0.00    -0.532 OA
ATOM     22  O   UNL d   1       0.155   1.411  -2.597  0.00  0.00    -0.532 OA
ENDBRANCH  15  20
BRANCH  17  23
ATOM     23  N   UNL d   1      -1.265  -2.402   1.461  0.00  0.00    -0.116 N 
ATOM     24  O   UNL d   1      -2.327  -2.622   0.863  0.00  0.00    -0.532 OA
ATOM     25  O   UNL d   1      -0.833  -3.072   2.408  0.00  0.00    -0.532 OA
ENDBRANCH  17  23
ENDBRANCH   1  14
TORSDOF 6
