REMARK  8 active torsions:
REMARK  status: ('A' for Active; 'I' for Inactive)
REMARK    1  A    between atoms: N_3  and  S_1 
REMARK    2  A    between atoms: C_6  and  S_1 
REMARK    3  A    between atoms: S_2  and  N_4 
REMARK    4  A    between atoms: C_12  and  N_3 
REMARK    5  A    between atoms: N_4  and  C_5 
REMARK    6  A    between atoms: C_23  and  C_21 
REMARK    7  A    between atoms: C_24  and  C_23 
REMARK    8  A    between atoms: C_25  and  C_24 
ROOT
ATOM      1  N   UNL d   1       0.348  -1.704  -0.290  0.00  0.00    -0.281 N 
ATOM      2  H   UNL d   1       0.918  -2.363   0.237  0.00  0.00     0.179 HD
ENDROOT
BRANCH   1   3
ATOM      3  S   UNL d   1       0.902  -0.110  -0.116  0.00  0.00     0.263 S 
ATOM      4  O   UNL d   1       0.230   0.745  -1.074  0.00  0.00    -0.200 OA
ATOM      5  O   UNL d   1       2.345  -0.190  -0.060  0.00  0.00    -0.200 OA
BRANCH   3   6
ATOM      6  C   UNL d   1       0.336   0.334   1.514  0.00  0.00     0.079 A 
ATOM      7  C   UNL d   1       1.155   0.068   2.614  0.00  0.00     0.026 A 
ATOM      8  C   UNL d   1       0.715   0.397   3.897  0.00  0.00     0.009 A 
ATOM      9  C   UNL d   1      -0.538   0.996   4.091  0.00  0.00    -0.058 A 
ATOM     10  C   UNL d   1      -1.332   1.293   2.971  0.00  0.00     0.009 A 
ATOM     11  C   UNL d   1      -0.896   0.970   1.684  0.00  0.00     0.026 A 
BRANCH   9  12
ATOM     12  C   UNL d   1      -1.006   1.332   5.489  0.00  0.00     0.038 C 
BRANCH  12  13
ATOM     13  C   UNL d   1      -2.310   0.641   5.907  0.00  0.00     0.004 C 
BRANCH  13  14
ATOM     14  C   UNL d   1      -2.212  -0.887   5.918  0.00  0.00    -0.004 C 
ATOM     15  C   UNL d   1      -3.522  -1.517   6.369  0.00  0.00     0.005 C 
ENDBRANCH  13  14
ENDBRANCH  12  13
ENDBRANCH   9  12
ENDBRANCH   3   6
ENDBRANCH   1   3
BRANCH   1  16
ATOM     16  C   UNL d   1      -1.057  -1.926  -0.320  0.00  0.00     0.044 A 
ATOM     17  C   UNL d   1      -1.750  -2.241   0.847  0.00  0.00     0.055 A 
ATOM     18  C   UNL d   1      -3.145  -2.325   0.828  0.00  0.00     0.030 A 
ATOM     19  C   UNL d   1      -3.856  -2.142  -0.372  0.00  0.00    -0.040 A 
ATOM     20  C   UNL d   1      -3.134  -1.856  -1.543  0.00  0.00     0.011 A 
ATOM     21  C   UNL d   1      -5.355  -2.217  -0.453  0.00  0.00     0.050 C 
ATOM     22  C   UNL d   1      -1.745  -1.732  -1.513  0.00  0.00     0.031 A 
BRANCH  18  23
ATOM     23  N   UNL d   1      -3.801  -2.592   2.069  0.00  0.00    -0.185 NA
ATOM     24  H   UNL d   1      -4.619  -2.012   2.267  0.00  0.00     0.146 HD
BRANCH  23  25
ATOM     25  S   UNL d   1      -4.139  -4.199   2.466  0.00  0.00     0.210 S 
ATOM     26  O   UNL d   1      -5.329  -4.147   3.286  0.00  0.00    -0.211 OA
ATOM     27  O   UNL d   1      -4.073  -5.028   1.283  0.00  0.00    -0.211 OA
ATOM     28  C   UNL d   1      -2.773  -4.611   3.531  0.00  0.00     0.180 C 
ENDBRANCH  23  25
ENDBRANCH  18  23
ENDBRANCH   1  16
TORSDOF 8
