REMARK  3 active torsions:
REMARK  status: ('A' for Active; 'I' for Inactive)
REMARK       I    between atoms: C_3  and  N_1 
REMARK    1  A    between atoms: C_5  and  C_2 
REMARK       I    between atoms: N_11  and  C_3 
REMARK    2  A    between atoms: N_4  and  C_9 
REMARK    3  A    between atoms: C_19  and  N_11 
ROOT
ATOM      1  N   UNL d   1       0.905  -0.693  -0.004  0.00  0.00    -0.205 N 
ATOM      2  C   UNL d   1      -0.408  -1.182   0.025  0.00  0.00     0.074 A 
ATOM      3  C   UNL d   1       2.127  -1.382  -0.083  0.00  0.00     0.346 C 
ATOM      4  N   UNL d   1       0.949   0.671  -0.028  0.00  0.00    -0.301 N 
ATOM      5  HN  UNL d   1       1.774   1.269  -0.000  1.00  0.00     0.186 HD
ATOM      6  N   UNL d   1       2.630  -1.646   1.180  0.00  0.00    -0.307 N 
ATOM      7  C   UNL d   1      -1.200  -0.043  -0.034  0.00  0.00     0.051 A 
ATOM      8  C   UNL d   1      -0.324   1.046  -0.097  0.00  0.00     0.110 A 
ATOM      9  O   UNL d   1       2.571  -1.668  -1.187  0.00  0.00    -0.245 OA
ATOM     10  H   UNL d   1       2.051  -1.410   1.980  0.00  0.00     0.170 HD
ENDROOT
BRANCH   2  11
ATOM     11  C   UNL d   1      -0.815  -2.605   0.046  0.00  0.00     0.015 A 
ATOM     12  C   UNL d   1      -1.942  -3.078   0.760  0.00  0.00     0.049 A 
ATOM     13  C   UNL d   1      -2.332  -4.425   0.702  0.00  0.00     0.060 A 
ATOM     14 CL   UNL d   1      -2.911  -2.067   1.782  0.00  0.00    -0.083 Cl
ATOM     15  C   UNL d   1      -1.583  -5.331  -0.050  0.00  0.00     0.104 A 
ATOM     16  C   UNL d   1      -0.464  -4.896  -0.761  0.00  0.00     0.037 A 
ATOM     17  C   UNL d   1      -0.102  -3.544  -0.724  0.00  0.00     0.018 A 
BRANCH  15  18
ATOM     18  N   UNL d   1      -1.978  -6.743  -0.094  0.00  0.00    -0.116 N 
ATOM     19  O   UNL d   1      -2.976  -7.081   0.554  0.00  0.00    -0.532 OA
ATOM     20  O   UNL d   1      -1.287  -7.513  -0.772  0.00  0.00    -0.532 OA
ENDBRANCH  15  18
ENDBRANCH   2  11
BRANCH   6  21
ATOM     21  C   UNL d   1       3.929  -2.131   1.455  0.00  0.00     0.036 A 
ATOM     22  C   UNL d   1       4.931  -2.229   0.481  0.00  0.00     0.031 A 
ATOM     23  C   UNL d   1       6.231  -2.618   0.828  0.00  0.00     0.026 A 
ATOM     24  C   UNL d   1       6.533  -2.927   2.149  0.00  0.00     0.034 A 
ATOM     25  C   UNL d   1       5.540  -2.870   3.123  0.00  0.00     0.026 A 
ATOM     26 CL   UNL d   1       8.140  -3.359   2.582  0.00  0.00    -0.084 Cl
ATOM     27  C   UNL d   1       4.242  -2.468   2.777  0.00  0.00     0.031 A 
ENDBRANCH   6  21
TORSDOF 3
