REMARK  5 active torsions:
REMARK  status: ('A' for Active; 'I' for Inactive)
REMARK       I    between atoms: C_2  and  N_5 
REMARK    1  A    between atoms: C_9  and  C_2 
REMARK    2  A    between atoms: N_5  and  C_20 
REMARK    3  A    between atoms: C_19  and  N_6 
REMARK    4  A    between atoms: N_12  and  C_10 
REMARK    5  A    between atoms: C_21  and  C_19 
ROOT
ATOM      1  C   UNL d   1      -4.226  -3.637   3.202  0.00  0.00     0.035 A 
ATOM      2  C   UNL d   1      -3.075  -1.209   2.299  0.00  0.00    -0.030 A 
ATOM      3  C   UNL d   1      -3.183  -3.642   2.276  0.00  0.00     0.030 A 
ATOM      4  C   UNL d   1      -4.706  -2.402   3.655  0.00  0.00     0.030 A 
ATOM      5  C   UNL d   1      -4.136  -1.200   3.209  0.00  0.00     0.011 A 
ATOM      6  C   UNL d   1      -2.614  -2.446   1.830  0.00  0.00     0.011 A 
ENDROOT
BRANCH   1   7
ATOM      7  N   UNL d   1      -4.801  -4.820   3.736  0.00  0.00    -0.323 N 
ATOM      8  C   UNL d   1      -4.418  -6.121   3.450  0.00  0.00     0.256 C 
ATOM      9  O   UNL d   1      -3.596  -6.473   2.610  0.00  0.00    -0.267 OA
ATOM     10  H   UNL d   1      -5.484  -4.680   4.466  0.00  0.00     0.169 HD
BRANCH   8  11
ATOM     11  C   UNL d   1      -5.028  -7.187   4.294  0.00  0.00     0.032 A 
ATOM     12  C   UNL d   1      -6.336  -7.131   4.769  0.00  0.00     0.019 A 
ATOM     13  C   UNL d   1      -6.833  -8.179   5.562  0.00  0.00     0.030 A 
ATOM     14  C   UNL d   1      -6.056  -9.299   5.919  0.00  0.00     0.029 A 
ATOM     15  C   UNL d   1      -4.756  -9.340   5.396  0.00  0.00     0.030 A 
ATOM     16  C   UNL d   1      -4.249  -8.308   4.593  0.00  0.00     0.019 A 
BRANCH  14  17
ATOM     17  N   UNL d   1      -6.599 -10.330   6.686  0.00  0.00    -0.390 N 
ATOM     18  C   UNL d   1      -7.413  -9.975   7.852  0.00  0.00     0.149 C 
ATOM     19  C   UNL d   1      -5.887 -11.600   6.829  0.00  0.00     0.149 C 
ENDBRANCH  14  17
ENDBRANCH   8  11
ENDBRANCH   1   7
BRANCH   2  20
ATOM     20  C   UNL d   1      -2.441   0.066   1.788  0.00  0.00     0.311 C 
BRANCH  20  21
ATOM     21  N   UNL d   1      -1.814   0.911   2.821  0.00  0.00     0.094 N 
ATOM     22  C   UNL d   1      -0.781   0.247   3.634  0.00  0.00     0.287 C 
ATOM     23  C   UNL d   1       0.472  -0.171   2.886  0.00  0.00     0.170 C 
ATOM     24  S   UNL d   1       1.233   1.230   2.108  0.00  0.00     0.147 S 
ATOM     25  C   UNL d   1      -0.127   2.044   1.312  0.00  0.00     0.170 C 
ATOM     26  O   UNL d   1       2.114   0.732   1.068  0.00  0.00    -0.228 OA
ATOM     27  O   UNL d   1       1.743   2.109   3.143  0.00  0.00    -0.228 OA
ATOM     28  C   UNL d   1      -1.307   2.178   2.261  0.00  0.00     0.287 C 
ENDBRANCH  20  21
ENDBRANCH   2  20
TORSDOF 5
