REMARK  5 active torsions:
REMARK  status: ('A' for Active; 'I' for Inactive)
REMARK    1  A    between atoms: C_3  and  C_1 
REMARK    2  A    between atoms: S_13  and  C_6 
REMARK    3  A    between atoms: C_17  and  S_13 
REMARK    4  A    between atoms: C_15  and  C_17 
REMARK    5  A    between atoms: C_16  and  C_15 
ROOT
ATOM      1  C   UNL d   1      -0.006   1.103  -0.002  0.00  0.00     0.153 A 
ATOM      2  N   UNL d   1       0.848   0.029   0.115  0.00  0.00    -0.314 N 
ATOM      3  N   UNL d   1      -1.250   0.660   0.066  0.00  0.00    -0.281 N 
ATOM      4  HN  UNL d   1      -2.091   1.237   0.019  1.00  0.00     0.188 HD
ATOM      5  C   UNL d   1       0.037  -1.073   0.240  0.00  0.00     0.163 A 
ATOM      6  N   UNL d   1      -1.222  -0.708   0.210  0.00  0.00    -0.278 N 
ATOM      7  HN  UNL d   1      -2.031  -1.325   0.281  1.00  0.00     0.189 HD
ATOM      8  C   UNL d   1       2.287   0.016   0.120  0.00  0.00     0.160 C 
ENDROOT
BRANCH   5   9
ATOM      9  S   UNL d   1       0.643  -2.684   0.416  0.00  0.00    -0.085 SA
BRANCH   9  10
ATOM     10  C   UNL d   1      -0.899  -3.639   0.532  0.00  0.00     0.166 C 
BRANCH  10  11
ATOM     11  C   UNL d   1      -0.634  -5.109   0.840  0.00  0.00     0.169 C 
ATOM     12  O   UNL d   1       0.481  -5.572   1.078  0.00  0.00    -0.291 OA
BRANCH  11  13
ATOM     13  C   UNL d   1      -1.805  -6.048   0.860  0.00  0.00     0.011 A 
ATOM     14  C   UNL d   1      -3.125  -5.607   0.697  0.00  0.00     0.017 A 
ATOM     15  C   UNL d   1      -4.181  -6.527   0.703  0.00  0.00     0.025 A 
ATOM     16  C   UNL d   1      -3.924  -7.887   0.872  0.00  0.00     0.034 A 
ATOM     17  C   UNL d   1      -2.619  -8.337   1.048  0.00  0.00     0.025 A 
ATOM     18 CL   UNL d   1      -5.225  -9.011   0.860  0.00  0.00    -0.084 Cl
ATOM     19  C   UNL d   1      -1.563  -7.420   1.044  0.00  0.00     0.017 A 
ENDBRANCH  11  13
ENDBRANCH  10  11
ENDBRANCH   9  10
ENDBRANCH   5   9
BRANCH   1  20
ATOM     20  C   UNL d   1       0.333   2.550  -0.179  0.00  0.00     0.102 A 
ATOM     21  N   UNL d   1       1.582   3.010  -0.310  0.00  0.00    -0.257 N 
ATOM     22  O   UNL d   1       1.476   4.380  -0.445  0.00  0.00    -0.242 OA
ATOM     23  HN  UNL d   1       2.440   2.459  -0.311  1.00  0.00     0.195 HD
ATOM     24  C   UNL d   1       0.166   4.740  -0.396  0.00  0.00     0.074 A 
ATOM     25  C   UNL d   1      -0.603   3.613  -0.233  0.00  0.00     0.070 A 
ATOM     26  C   UNL d   1      -0.114   6.181  -0.524  0.00  0.00     0.079 C 
ENDBRANCH   1  20
TORSDOF 5
