REMARK  5 active torsions:
REMARK  status: ('A' for Active; 'I' for Inactive)
REMARK    1  A    between atoms: S_8  and  C_1 
REMARK    2  A    between atoms: C_3  and  C_2 
REMARK    3  A    between atoms: C_5  and  C_3 
REMARK    4  A    between atoms: C_4  and  S_8 
REMARK    5  A    between atoms: O_17  and  C_14 
ROOT
ATOM      1  C   UNL d   1      -1.962   4.349   0.021  0.00  0.00     0.062 C 
ATOM      2  C   UNL d   1      -1.644   3.081  -0.269  0.00  0.00     0.054 C 
ENDROOT
BRANCH   1   3
ATOM      3  C   UNL d   1      -3.337   4.898  -0.167  0.00  0.00     0.182 C 
ATOM      4  O   UNL d   1      -3.475   6.086  -0.443  0.00  0.00    -0.288 OA
BRANCH   3   5
ATOM      5  C   UNL d   1      -4.532   4.021  -0.002  0.00  0.00     0.014 A 
ATOM      6  C   UNL d   1      -4.537   2.924   0.873  0.00  0.00     0.018 A 
ATOM      7  C   UNL d   1      -5.641   2.067   0.934  0.00  0.00     0.037 A 
ATOM      8  C   UNL d   1      -6.766   2.323   0.152  0.00  0.00     0.068 A 
ATOM      9  C   UNL d   1      -6.802   3.469  -0.646  0.00  0.00     0.037 A 
ATOM     10  C   UNL d   1      -5.689   4.312  -0.731  0.00  0.00     0.018 A 
BRANCH   8  11
ATOM     11  O   UNL d   1      -7.894   1.550   0.134  0.00  0.00    -0.356 OA
ATOM     12  C   UNL d   1      -7.674   0.154   0.322  0.00  0.00     0.210 C 
ENDBRANCH   8  11
ENDBRANCH   3   5
ENDBRANCH   1   3
BRANCH   2  13
ATOM     13  S   UNL d   1      -0.139   2.356   0.150  0.00  0.00    -0.099 SA
BRANCH  13  14
ATOM     14  C   UNL d   1       0.901   2.488  -1.316  0.00  0.00     0.048 A 
ATOM     15  C   UNL d   1       2.291   2.692  -1.115  0.00  0.00     0.052 A 
ATOM     16 CL   UNL d   1       3.000   2.923   0.457  0.00  0.00    -0.083 Cl
ATOM     17  C   UNL d   1       3.198   2.695  -2.185  0.00  0.00     0.025 A 
ATOM     18  C   UNL d   1       2.750   2.507  -3.484  0.00  0.00     0.003 A 
ATOM     19  C   UNL d   1       1.395   2.307  -3.712  0.00  0.00     0.025 A 
ATOM     20  C   UNL d   1       0.478   2.279  -2.647  0.00  0.00     0.052 A 
ATOM     21 CL   UNL d   1      -1.147   1.899  -3.111  0.00  0.00    -0.083 Cl
ENDBRANCH  13  14
ENDBRANCH   2  13
TORSDOF 5
