REMARK  4 active torsions:
REMARK  status: ('A' for Active; 'I' for Inactive)
REMARK    1  A    between atoms: C_16  and  C_3 
REMARK    2  A    between atoms: C_15  and  C_4 
REMARK    3  A    between atoms: C_14  and  C_5 
REMARK    4  A    between atoms: C_8  and  C_11 
ROOT
ATOM      1  N   UNL d   1       1.359   0.350  -0.067  0.00  0.00    -0.336 N 
ATOM      2  HN  UNL d   1       2.323   0.672  -0.158  1.00  0.00     0.168 HD
ATOM      3  C   UNL d   1       1.045  -0.985  -0.066  0.00  0.00     0.091 A 
ATOM      4  C   UNL d   1      -0.269  -1.425   0.096  0.00  0.00     0.103 A 
ATOM      5  C   UNL d   1       0.334   1.219   0.057  0.00  0.00     0.147 A 
ATOM      6  N   UNL d   1      -1.262  -0.503   0.167  0.00  0.00    -0.295 N 
ATOM      7  HN  UNL d   1      -2.234  -0.803   0.237  1.00  0.00     0.187 HD
ATOM      8  N   UNL d   1      -0.955   0.829   0.144  0.00  0.00    -0.283 N 
ATOM      9  HN  UNL d   1      -1.698   1.526   0.192  1.00  0.00     0.188 HD
ENDROOT
BRANCH   5  10
ATOM     10  C   UNL d   1       0.640   2.664   0.177  0.00  0.00     0.078 A 
ATOM     11  N   UNL d   1      -0.411   3.517   0.334  0.00  0.00    -0.362 N 
ATOM     12  C   UNL d   1      -0.159   4.836   0.503  0.00  0.00     0.104 A 
ATOM     13  HN  UNL d   1      -1.370   3.169   0.323  1.00  0.00     0.165 HD
ATOM     14  C   UNL d   1       1.112   5.382   0.532  0.00  0.00     0.063 A 
ATOM     15  C   UNL d   1       2.187   4.509   0.358  0.00  0.00     0.020 A 
ATOM     16  C   UNL d   1       1.952   3.144   0.179  0.00  0.00     0.034 A 
BRANCH  14  17
ATOM     17  C   UNL d   1       1.315   6.850   0.749  0.00  0.00     0.418 C 
ATOM     18  F   UNL d   1       0.155   7.548   0.899  0.00  0.00    -0.166 F 
ATOM     19  F   UNL d   1       2.054   7.113   1.862  0.00  0.00    -0.166 F 
ATOM     20  F   UNL d   1       1.975   7.442  -0.284  0.00  0.00    -0.166 F 
ENDBRANCH  14  17
ENDBRANCH   5  10
BRANCH   3  21
ATOM     21  C   UNL d   1       2.198  -1.890  -0.237  0.00  0.00     0.061 A 
ATOM     22  N   UNL d   1       2.016  -2.982  -1.025  0.00  0.00    -0.364 N 
ATOM     23  C   UNL d   1       3.016  -3.890  -1.083  0.00  0.00     0.088 A 
ATOM     24  HN  UNL d   1       1.154  -3.112  -1.555  1.00  0.00     0.165 HD
ATOM     25  C   UNL d   1       4.235  -3.735  -0.447  0.00  0.00     0.017 A 
ATOM     26  C   UNL d   1       4.448  -2.574   0.283  0.00  0.00     0.004 A 
ATOM     27  C   UNL d   1       3.420  -1.640   0.391  0.00  0.00     0.032 A 
ENDBRANCH   3  21
BRANCH   4  28
ATOM     28  C   UNL d   1      -0.701  -2.819   0.288  0.00  0.00     0.062 A 
ATOM     29  N   UNL d   1       0.090  -3.601   1.073  0.00  0.00    -0.364 N 
ATOM     30  C   UNL d   1      -0.257  -4.896   1.230  0.00  0.00     0.088 A 
ATOM     31  HN  UNL d   1       0.919  -3.220   1.528  1.00  0.00     0.165 HD
ATOM     32  C   UNL d   1      -1.402  -5.456   0.696  0.00  0.00     0.017 A 
ATOM     33  C   UNL d   1      -2.243  -4.638  -0.049  0.00  0.00     0.004 A 
ATOM     34  C   UNL d   1      -1.889  -3.307  -0.259  0.00  0.00     0.032 A 
ENDBRANCH   4  28
TORSDOF 4
