REMARK  6 active torsions:
REMARK  status: ('A' for Active; 'I' for Inactive)
REMARK    1  A    between atoms: C_8  and  C_2 
REMARK    2  A    between atoms: S_9  and  C_5 
REMARK    3  A    between atoms: C_21  and  S_9 
REMARK    4  A    between atoms: C_11  and  C_21 
REMARK       I    between atoms: N_12  and  C_11 
REMARK    5  A    between atoms: C_25  and  N_12 
REMARK    6  A    between atoms: C_14  and  C_15 
ROOT
ATOM      1  N   UNL d   1       1.003   0.144   0.140  0.00  0.00    -0.315 N 
ATOM      2  C   UNL d   1       0.084   1.155  -0.050  0.00  0.00     0.134 C 
ATOM      3  N   UNL d   1      -1.112   0.597  -0.154  0.00  0.00    -0.283 N 
ATOM      4  HN  UNL d   1      -1.975   1.083  -0.398  1.00  0.00     0.188 HD
ATOM      5  C   UNL d   1       0.262  -0.983   0.365  0.00  0.00     0.163 C 
ATOM      6  N   UNL d   1      -0.999  -0.741   0.119  0.00  0.00    -0.278 N 
ATOM      7  HN  UNL d   1      -1.758  -1.422   0.129  1.00  0.00     0.189 HD
ATOM      8  C   UNL d   1       2.441   0.204   0.082  0.00  0.00     0.160 C 
ENDROOT
BRANCH   5   9
ATOM      9  S   UNL d   1       0.887  -2.381   1.160  0.00  0.00    -0.083 SA
BRANCH   9  10
ATOM     10  C   UNL d   1      -0.515  -3.515   1.136  0.00  0.00     0.185 C 
BRANCH  10  11
ATOM     11  C   UNL d   1      -1.742  -3.184   1.976  0.00  0.00     0.231 C 
ATOM     12  N   UNL d   1      -1.802  -1.950   2.594  0.00  0.00    -0.327 N 
ATOM     13  H   UNL d   1      -1.157  -1.251   2.253  0.00  0.00     0.169 HD
ATOM     14  O   UNL d   1      -2.620  -4.054   2.060  0.00  0.00    -0.272 OA
BRANCH  12  15
ATOM     15  C   UNL d   1      -2.791  -1.490   3.487  0.00  0.00     0.034 A 
ATOM     16  C   UNL d   1      -3.761  -2.325   4.047  0.00  0.00     0.030 A 
ATOM     17  C   UNL d   1      -4.684  -1.826   4.968  0.00  0.00     0.017 A 
ATOM     18  C   UNL d   1      -4.638  -0.489   5.362  0.00  0.00     0.009 A 
ATOM     19  C   UNL d   1      -3.696   0.368   4.781  0.00  0.00     0.017 A 
ATOM     20  C   UNL d   1      -2.776  -0.137   3.849  0.00  0.00     0.030 A 
BRANCH  18  21
ATOM     21  C   UNL d   1      -5.600  -0.047   6.406  0.00  0.00     0.155 C 
ATOM     22  O   UNL d   1      -6.691  -0.607   6.504  0.00  0.00    -0.293 OA
ATOM     23  C   UNL d   1      -5.195   1.032   7.373  0.00  0.00     0.096 C 
ENDBRANCH  18  21
ENDBRANCH  12  15
ENDBRANCH  10  11
ENDBRANCH   9  10
ENDBRANCH   5   9
BRANCH   2  24
ATOM     24  C   UNL d   1       0.341   2.595  -0.089  0.00  0.00     0.010 A 
ATOM     25  C   UNL d   1      -0.443   3.425  -0.904  0.00  0.00     0.027 A 
ATOM     26  C   UNL d   1      -0.237   4.817  -0.937  0.00  0.00    -0.025 A 
ATOM     27  C   UNL d   1      -1.025   5.664  -1.736  0.00  0.00     0.012 A 
ATOM     28  C   UNL d   1       0.781   5.385  -0.140  0.00  0.00    -0.026 A 
ATOM     29  C   UNL d   1      -0.803   7.043  -1.749  0.00  0.00     0.001 A 
ATOM     30  C   UNL d   1       0.211   7.595  -0.971  0.00  0.00     0.001 A 
ATOM     31  C   UNL d   1       1.001   6.771  -0.172  0.00  0.00     0.012 A 
ATOM     32  C   UNL d   1       1.545   4.560   0.690  0.00  0.00     0.013 A 
ATOM     33  C   UNL d   1       1.308   3.186   0.734  0.00  0.00     0.016 A 
ENDBRANCH   2  24
TORSDOF 6
