REMARK  2 active torsions:
REMARK  status: ('A' for Active; 'I' for Inactive)
REMARK    1  A    between atoms: N_8  and  C_1 
REMARK    2  A    between atoms: C_7  and  N_8 
ROOT
ATOM      1  C   UNL d   1       2.443  -0.018   0.390  0.00  0.00     0.150 A 
ATOM      2  N   UNL d   1       1.601   0.986   0.454  0.00  0.00    -0.335 N 
ATOM      3  HN  UNL d   1       1.852   1.961   0.287  1.00  0.00     0.168 HD
ATOM      4  C   UNL d   1       0.331   0.550   0.777  0.00  0.00     0.053 A 
ATOM      5  S   UNL d   1       1.727  -1.562   0.646  0.00  0.00    -0.051 SA
ATOM      6  C   UNL d   1       0.195  -0.828   0.961  0.00  0.00     0.041 A 
ATOM      7  C   UNL d   1      -1.035  -1.418   1.334  0.00  0.00    -0.041 A 
ATOM      8  C   UNL d   1      -0.790   1.386   0.937  0.00  0.00     0.050 A 
ATOM      9  C   UNL d   1      -2.014   0.822   1.285  0.00  0.00     0.013 A 
ATOM     10  C   UNL d   1      -2.136  -0.549   1.486  0.00  0.00     0.027 A 
ATOM     11 BR   UNL d   1      -3.528   1.937   1.488  0.00  0.00    -0.051 Br
ATOM     12  C   UNL d   1      -1.237  -2.886   1.582  0.00  0.00     0.049 C 
ENDROOT
BRANCH   1  13
ATOM     13  N   UNL d   1       3.773   0.068   0.146  0.00  0.00    -0.336 N 
ATOM     14  H   UNL d   1       4.263  -0.768  -0.141  0.00  0.00     0.168 HD
BRANCH  13  15
ATOM     15  C   UNL d   1       4.544   1.249   0.127  0.00  0.00     0.046 A 
ATOM     16  C   UNL d   1       4.482   2.202   1.174  0.00  0.00    -0.034 A 
ATOM     17  C   UNL d   1       5.191   3.412   1.066  0.00  0.00     0.015 A 
ATOM     18  C   UNL d   1       3.694   1.996   2.443  0.00  0.00     0.050 C 
ATOM     19  C   UNL d   1       5.999   3.687  -0.037  0.00  0.00    -0.061 A 
ATOM     20  C   UNL d   1       6.097   2.732  -1.048  0.00  0.00     0.015 A 
ATOM     21  C   UNL d   1       6.727   4.994  -0.121  0.00  0.00     0.048 C 
ATOM     22  C   UNL d   1       5.380   1.520  -0.984  0.00  0.00    -0.034 A 
ATOM     23  C   UNL d   1       5.539   0.584  -2.155  0.00  0.00     0.050 C 
ENDBRANCH  13  15
ENDBRANCH   1  13
TORSDOF 2
