REMARK  5 active torsions:
REMARK  status: ('A' for Active; 'I' for Inactive)
REMARK    1  A    between atoms: N_2  and  C_1 
REMARK    2  A    between atoms: N_3  and  C_5 
REMARK    3  A    between atoms: O_9  and  C_6 
REMARK    4  A    between atoms: N_7  and  O_9 
REMARK    5  A    between atoms: C_17  and  C_12 
ROOT
ATOM      1  C   UNL d   1       3.708  -1.331   1.022  0.00  0.00     0.141 A 
ATOM      2  C   UNL d   1       2.989  -2.244   1.821  0.00  0.00     0.075 A 
ATOM      3  C   UNL d   1       1.660  -1.966   2.160  0.00  0.00     0.105 A 
ATOM      4  C   UNL d   1       3.104  -0.146   0.572  0.00  0.00     0.132 A 
ATOM      5  C   UNL d   1       1.038  -0.803   1.697  0.00  0.00     0.039 A 
ATOM      6  C   UNL d   1       1.757   0.093   0.903  0.00  0.00     0.044 A 
ENDROOT
BRANCH   4   7
ATOM      7  O   UNL d   1       3.842   0.752  -0.167  0.00  0.00    -0.235 OA
BRANCH   7   8
ATOM      8  N   UNL d   1       3.221   2.003  -0.214  0.00  0.00    -0.264 N 
ATOM      9  C   UNL d   1       4.029   2.950  -0.594  0.00  0.00     0.039 C 
ATOM     10  C   UNL d   1       5.494   2.735  -0.926  0.00  0.00     0.071 C 
ATOM     11  HN  UNL d   1       2.241   2.157   0.024  1.00  0.00     0.194 HD
BRANCH   9  12
ATOM     12  C   UNL d   1       3.488   4.350  -0.678  0.00  0.00    -0.012 A 
ATOM     13  C   UNL d   1       2.143   4.585  -0.350  0.00  0.00     0.013 A 
ATOM     14  C   UNL d   1       1.617   5.878  -0.388  0.00  0.00     0.001 A 
ATOM     15  C   UNL d   1       2.427   6.949  -0.758  0.00  0.00     0.000 A 
ATOM     16  C   UNL d   1       3.761   6.727  -1.094  0.00  0.00     0.001 A 
ATOM     17  C   UNL d   1       4.291   5.433  -1.057  0.00  0.00     0.013 A 
ENDBRANCH   9  12
ENDBRANCH   7   8
ENDBRANCH   4   7
BRANCH   1  18
ATOM     18  N   UNL d   1       5.107  -1.657   0.700  0.00  0.00    -0.113 N 
ATOM     19  O   UNL d   1       5.637  -2.570   1.350  0.00  0.00    -0.532 OA
ATOM     20  O   UNL d   1       5.679  -1.034  -0.203  0.00  0.00    -0.532 OA
ENDBRANCH   1  18
BRANCH   3  21
ATOM     21  N   UNL d   1       0.908  -2.897   3.010  0.00  0.00    -0.116 N 
ATOM     22  O   UNL d   1       1.481  -3.938   3.365  0.00  0.00    -0.532 OA
ATOM     23  O   UNL d   1      -0.248  -2.588   3.324  0.00  0.00    -0.532 OA
ENDBRANCH   3  21
TORSDOF 5
