REMARK  5 active torsions:
REMARK  status: ('A' for Active; 'I' for Inactive)
REMARK    1  A    between atoms: C_2  and  C_1 
REMARK       I    between atoms: N_3  and  C_2 
REMARK       I    between atoms: C_10  and  N_3 
REMARK    2  A    between atoms: C_4  and  O_8 
REMARK    3  A    between atoms: N_9  and  C_5 
REMARK    4  A    between atoms: O_8  and  C_11 
REMARK    5  A    between atoms: C_12  and  N_9 
ROOT
ATOM      1  C   UNL d   1       0.481   2.203   0.576  0.00  0.00     0.122 C 
ATOM      2  C   UNL d   1      -0.178   1.091   0.198  0.00  0.00     0.116 C 
ATOM      3  C   UNL d   1      -0.045   3.514   0.413  0.00  0.00     0.106 C 
ATOM      4  N   UNL d   1      -0.415   4.602   0.251  0.00  0.00    -0.191 NA
ENDROOT
BRANCH   1   5
ATOM      5  C   UNL d   1       1.861   2.007   1.114  0.00  0.00     0.249 C 
ATOM      6  N   UNL d   1       2.442   3.008   1.846  0.00  0.00    -0.194 NA
ATOM      7  C   UNL d   1       1.879   3.440   3.033  0.00  0.00     0.200 C 
ATOM      8  H   UNL d   1       3.433   2.823   1.944  0.00  0.00     0.139 HD
ATOM      9  O   UNL d   1       0.697   3.320   3.330  0.00  0.00    -0.280 OA
ATOM     10  C   UNL d   1       2.865   4.156   3.918  0.00  0.00     0.111 C 
ATOM     11  O   UNL d   1       2.514   0.987   0.887  0.00  0.00    -0.273 OA
ENDBRANCH   1   5
BRANCH   2  12
ATOM     12  N   UNL d   1      -1.426   0.913  -0.367  0.00  0.00    -0.362 N 
ATOM     13  H   UNL d   1      -1.762  -0.050  -0.274  0.00  0.00     0.165 HD
BRANCH  12  14
ATOM     14  C   UNL d   1      -1.881   1.438  -1.607  0.00  0.00     0.066 A 
ATOM     15  C   UNL d   1      -3.244   1.314  -1.952  0.00  0.00     0.104 A 
ATOM     16  C   UNL d   1      -3.745   1.843  -3.146  0.00  0.00     0.039 A 
ATOM     17  C   UNL d   1      -2.885   2.487  -4.031  0.00  0.00     0.003 A 
ATOM     18  C   UNL d   1      -1.536   2.620  -3.712  0.00  0.00     0.002 A 
ATOM     19  C   UNL d   1      -1.039   2.103  -2.510  0.00  0.00     0.032 A 
BRANCH  15  20
ATOM     20  O   UNL d   1      -4.149   0.788  -1.064  0.00  0.00    -0.253 OA
BRANCH  20  21
ATOM     21  C   UNL d   1      -4.214  -0.626  -1.159  0.00  0.00     0.530 C 
ATOM     22  F   UNL d   1      -3.004  -1.192  -0.936  0.00  0.00    -0.144 F 
ATOM     23  F   UNL d   1      -5.060  -1.085  -0.210  0.00  0.00    -0.144 F 
ATOM     24  F   UNL d   1      -4.677  -1.017  -2.364  0.00  0.00    -0.144 F 
ENDBRANCH  20  21
ENDBRANCH  15  20
ENDBRANCH  12  14
ENDBRANCH   2  12
TORSDOF 5
