REMARK  4 active torsions:
REMARK  status: ('A' for Active; 'I' for Inactive)
REMARK    1  A    between atoms: C_6  and  N_1 
REMARK    2  A    between atoms: C_2  and  C_9 
REMARK    3  A    between atoms: N_12  and  C_11 
REMARK    4  A    between atoms: N_18  and  N_12 
ROOT
ATOM      1  C   UNL d   1      -2.120  -2.213   4.362  0.00  0.00     0.086 A 
ATOM      2  O   UNL d   1      -2.526  -3.520   4.460  0.00  0.00    -0.309 OA
ATOM      3  C   UNL d   1      -2.551  -1.514   5.473  0.00  0.00     0.041 A 
ATOM      4  C   UNL d   1      -3.220  -3.642   5.635  0.00  0.00     0.092 A 
ATOM      5  C   UNL d   1      -3.262  -2.425   6.281  0.00  0.00     0.041 A 
ATOM      6  C   UNL d   1      -3.747  -4.922   6.022  0.00  0.00     0.138 C 
ENDROOT
BRANCH   1   7
ATOM      7  C   UNL d   1      -1.363  -1.826   3.171  0.00  0.00    -0.002 A 
ATOM      8  C   UNL d   1      -1.042  -2.746   2.161  0.00  0.00     0.017 A 
ATOM      9  C   UNL d   1      -0.336  -2.343   1.016  0.00  0.00     0.037 A 
ATOM     10  C   UNL d   1       0.055  -1.005   0.879  0.00  0.00     0.102 A 
ATOM     11  C   UNL d   1      -0.244  -0.076   1.878  0.00  0.00     0.037 A 
ATOM     12  C   UNL d   1      -0.947  -0.492   3.014  0.00  0.00     0.017 A 
BRANCH  10  13
ATOM     13  N   UNL d   1       0.777  -0.569  -0.324  0.00  0.00    -0.116 N 
ATOM     14  O   UNL d   1       1.071   0.633  -0.416  0.00  0.00    -0.532 OA
ATOM     15  O   UNL d   1       1.047  -1.427  -1.174  0.00  0.00    -0.532 OA
ENDBRANCH  10  13
ENDBRANCH   1   7
BRANCH   6  16
ATOM     16  N   UNL d   1      -4.435  -5.013   7.118  0.00  0.00    -0.330 N 
ATOM     17  HN  UNL d   1      -4.664  -4.194   7.683  1.00  0.00     0.180 HD
BRANCH  16  18
ATOM     18  N   UNL d   1      -4.831  -6.257   7.467  0.00  0.00    -0.245 NA
ATOM     19  C   UNL d   1      -5.713  -6.333   8.627  0.00  0.00     0.132 C 
ATOM     20  H   UNL d   1      -5.224  -6.801   6.697  0.00  0.00     0.145 HD
ENDBRANCH  16  18
ENDBRANCH   6  16
TORSDOF 4
