REMARK  1 active torsions:
REMARK  status: ('A' for Active; 'I' for Inactive)
REMARK    1  A    between atoms: C_8  and  C_5 
ROOT
ATOM      1  O   UNL d   1      -0.458   1.831  -0.123  0.00  0.00    -0.340 OA
ATOM      2  C   UNL d   1      -1.343  -0.892  -0.296  0.00  0.00     0.165 C 
ATOM      3  C   UNL d   1       0.086  -0.544  -0.210  0.00  0.00     0.043 A 
ATOM      4  C   UNL d   1       0.446   0.801  -0.172  0.00  0.00     0.083 A 
ATOM      5  C   UNL d   1      -1.755   1.459   0.388  0.00  0.00     0.169 C 
ATOM      6  C   UNL d   1      -2.304   0.258  -0.383  0.00  0.00     0.121 C 
ATOM      7  O   UNL d   1      -1.706  -2.062  -0.379  0.00  0.00    -0.292 OA
ATOM      8  C   UNL d   1       1.067  -1.540  -0.194  0.00  0.00     0.018 A 
ATOM      9  C   UNL d   1       1.794   1.159  -0.147  0.00  0.00     0.038 A 
ATOM     10  C   UNL d   1       2.414  -1.179  -0.137  0.00  0.00     0.001 A 
ATOM     11  C   UNL d   1       2.777   0.169  -0.117  0.00  0.00     0.003 A 
ENDROOT
BRANCH   5  12
ATOM     12  C   UNL d   1      -1.806   1.353   1.915  0.00  0.00    -0.029 A 
ATOM     13  C   UNL d   1      -0.700   1.672   2.721  0.00  0.00     0.010 A 
ATOM     14  C   UNL d   1      -0.768   1.582   4.111  0.00  0.00     0.001 A 
ATOM     15  C   UNL d   1      -1.953   1.200   4.729  0.00  0.00     0.000 A 
ATOM     16  C   UNL d   1      -3.072   0.911   3.954  0.00  0.00     0.001 A 
ATOM     17  C   UNL d   1      -3.001   0.992   2.560  0.00  0.00     0.010 A 
ENDBRANCH   5  12
TORSDOF 1
