REMARK  5 active torsions:
REMARK  status: ('A' for Active; 'I' for Inactive)
REMARK    1  A    between atoms: C_2  and  C_1 
REMARK       I    between atoms: N_3  and  C_10 
REMARK    2  A    between atoms: C_8  and  N_3 
REMARK    3  A    between atoms: C_10  and  C_19 
REMARK    4  A    between atoms: S_13  and  C_11 
REMARK    5  A    between atoms: C_19  and  S_13 
ROOT
ATOM      1  N   UNL d   1      -2.502   4.072   8.135  0.00  0.00    -0.191 NA
ATOM      2  C   UNL d   1      -2.304   3.333   9.007  0.00  0.00     0.102 C 
ATOM      3  C   UNL d   1      -1.594   1.094   9.780  0.00  0.00     0.055 A 
ATOM      4  C   UNL d   1      -2.052   2.393  10.058  0.00  0.00     0.071 A 
ATOM      5  C   UNL d   1      -2.337   2.776  11.380  0.00  0.00     0.025 A 
ATOM      6  C   UNL d   1      -1.401   0.208  10.856  0.00  0.00     0.031 A 
ATOM      7  C   UNL d   1      -2.145   1.882  12.427  0.00  0.00     0.002 A 
ATOM      8  C   UNL d   1      -1.671   0.603  12.169  0.00  0.00     0.002 A 
ENDROOT
BRANCH   3   9
ATOM      9  N   UNL d   1      -1.301   0.691   8.451  0.00  0.00    -0.325 N 
ATOM     10  C   UNL d   1      -1.377  -0.611   7.984  0.00  0.00     0.231 C 
ATOM     11  O   UNL d   1      -1.873  -1.540   8.625  0.00  0.00    -0.272 OA
ATOM     12  H   UNL d   1      -1.165   1.410   7.746  0.00  0.00     0.169 HD
BRANCH  10  13
ATOM     13  C   UNL d   1      -0.946  -0.842   6.546  0.00  0.00     0.184 C 
BRANCH  13  14
ATOM     14  S   UNL d   1       0.417   0.236   6.005  0.00  0.00    -0.103 SA
BRANCH  14  15
ATOM     15  C   UNL d   1       0.556  -0.290   4.303  0.00  0.00     0.070 A 
ATOM     16  C   UNL d   1       1.494   0.314   3.475  0.00  0.00     0.038 A 
ATOM     17  C   UNL d   1       1.519  -0.030   2.123  0.00  0.00     0.020 A 
ATOM     18  C   UNL d   1       0.607  -0.967   1.627  0.00  0.00     0.063 A 
ATOM     19  C   UNL d   1      -0.256  -1.554   2.538  0.00  0.00     0.105 A 
ATOM     20  N   UNL d   1      -0.300  -1.234   3.854  0.00  0.00    -0.360 N 
ATOM     21  HN  UNL d   1      -0.958  -1.692   4.485  1.00  0.00     0.166 HD
BRANCH  18  22
ATOM     22  C   UNL d   1       0.527  -1.297   0.168  0.00  0.00     0.418 C 
ATOM     23  F   UNL d   1      -0.453  -2.192  -0.136  0.00  0.00    -0.166 F 
ATOM     24  F   UNL d   1       1.682  -1.827  -0.317  0.00  0.00    -0.166 F 
ATOM     25  F   UNL d   1       0.272  -0.197  -0.593  0.00  0.00    -0.166 F 
ENDBRANCH  18  22
ENDBRANCH  14  15
ENDBRANCH  13  14
ENDBRANCH  10  13
ENDBRANCH   3   9
TORSDOF 5
