REMARK  1 active torsions:
REMARK  status: ('A' for Active; 'I' for Inactive)
REMARK    1  A    between atoms: C_7  and  C_1 
ROOT
ATOM      1  C   UNL d   1       3.401   1.378   0.015  0.00  0.00     0.086 A 
ATOM      2  C   UNL d   1       3.836  -0.033   0.093  0.00  0.00     0.302 A 
ATOM      3  C   UNL d   1       2.092   1.686  -0.034  0.00  0.00     0.035 A 
ATOM      4  O   UNL d   1       2.853  -1.011  -0.010  0.00  0.00    -0.274 OA
ATOM      5  C   UNL d   1       1.077   0.643  -0.033  0.00  0.00     0.000 A 
ATOM      6  C   UNL d   1       1.487  -0.685  -0.035  0.00  0.00     0.089 A 
ATOM      7  O   UNL d   1       5.010  -0.355   0.255  0.00  0.00    -0.259 OA
ATOM      8  C   UNL d   1      -0.291   0.925  -0.033  0.00  0.00     0.033 A 
ATOM      9  C   UNL d   1       0.577  -1.739  -0.042  0.00  0.00     0.039 A 
ATOM     10  C   UNL d   1      -1.215  -0.126  -0.034  0.00  0.00     0.011 A 
ATOM     11  C   UNL d   1      -0.787  -1.455  -0.040  0.00  0.00     0.022 A 
ATOM     12 BR   UNL d   1      -3.067   0.255  -0.025  0.00  0.00    -0.051 Br
ENDROOT
BRANCH   1  13
ATOM     13  C   UNL d   1       4.353   2.535   0.011  0.00  0.00     0.161 C 
ATOM     14  O   UNL d   1       3.957   3.660   0.331  0.00  0.00    -0.293 OA
ATOM     15  C   UNL d   1       5.789   2.358  -0.419  0.00  0.00     0.097 C 
ENDBRANCH   1  13
TORSDOF 1
