REMARK  8 active torsions:
REMARK  status: ('A' for Active; 'I' for Inactive)
REMARK    1  A    between atoms: N_2  and  C_1 
REMARK    2  A    between atoms: C_3  and  C_1 
REMARK    3  A    between atoms: N_4  and  C_1 
REMARK    4  A    between atoms: C_6  and  C_1 
REMARK       I    between atoms: C_5  and  N_2 
REMARK    5  A    between atoms: C_7  and  N_4 
REMARK    6  A    between atoms: C_8  and  C_5 
REMARK    7  A    between atoms: O_17  and  C_6 
REMARK    8  A    between atoms: C_25  and  O_17 
ROOT
ATOM      1  C   UNL d   1       1.094   0.103  -0.024  0.00  0.00     0.297 C 
ENDROOT
BRANCH   1   2
ATOM      2  N   UNL d   1       0.647   0.292   1.354  0.00  0.00    -0.315 N 
ATOM      3  C   UNL d   1       0.426   1.474   1.999  0.00  0.00     0.254 C 
ATOM      4  O   UNL d   1       0.577   2.562   1.473  0.00  0.00    -0.268 OA
ATOM      5  H   UNL d   1       0.832  -0.515   1.915  0.00  0.00     0.166 HD
BRANCH   3   6
ATOM      6  C   UNL d   1       0.002   1.329   3.442  0.00  0.00     0.033 A 
ATOM      7  C   UNL d   1      -0.011   2.470   4.252  0.00  0.00     0.041 A 
ATOM      8  C   UNL d   1      -0.351   2.358   5.601  0.00  0.00     0.035 A 
ATOM      9 CL   UNL d   1      -0.354   3.760   6.601  0.00  0.00    -0.084 Cl
ATOM     10  C   UNL d   1      -0.688   1.125   6.159  0.00  0.00     0.024 A 
ATOM     11  C   UNL d   1      -0.711  -0.010   5.352  0.00  0.00     0.003 A 
ATOM     12  C   UNL d   1      -0.385   0.095   3.998  0.00  0.00     0.017 A 
ENDBRANCH   3   6
ENDBRANCH   1   2
BRANCH   1  13
ATOM     13  C   UNL d   1       0.527   1.099  -1.110  0.00  0.00     0.442 C 
ATOM     14  F   UNL d   1      -0.621   1.713  -0.737  0.00  0.00    -0.166 F 
ATOM     15  F   UNL d   1       1.399   2.054  -1.504  0.00  0.00    -0.166 F 
ATOM     16  F   UNL d   1       0.202   0.391  -2.238  0.00  0.00    -0.166 F 
ENDBRANCH   1  13
BRANCH   1  17
ATOM     17  N   UNL d   1       0.592  -1.296  -0.290  0.00  0.00    -0.345 N 
ATOM     18  H   UNL d   1       0.383  -1.401  -1.286  0.00  0.00     0.163 HD
BRANCH  17  19
ATOM     19  C   UNL d   1       1.082  -2.486   0.253  0.00  0.00     0.069 A 
ATOM     20  C   UNL d   1       1.966  -2.603   1.336  0.00  0.00     0.142 A 
ATOM     21  F   UNL d   1       2.483  -1.507   1.916  0.00  0.00    -0.204 F 
ATOM     22  C   UNL d   1       2.319  -3.835   1.887  0.00  0.00     0.044 A 
ATOM     23  C   UNL d   1       1.764  -5.001   1.379  0.00  0.00     0.003 A 
ATOM     24  C   UNL d   1       0.858  -4.926   0.326  0.00  0.00     0.002 A 
ATOM     25  C   UNL d   1       0.517  -3.682  -0.221  0.00  0.00     0.032 A 
ENDBRANCH  17  19
ENDBRANCH   1  17
BRANCH   1  26
ATOM     26  C   UNL d   1       2.619   0.196  -0.283  0.00  0.00     0.318 C 
ATOM     27  O   UNL d   1       3.178  -0.304  -1.256  0.00  0.00    -0.260 OA
BRANCH  26  28
ATOM     28  O   UNL d   1       3.252   0.951   0.661  0.00  0.00    -0.318 OA
BRANCH  28  29
ATOM     29  C   UNL d   1       4.654   1.175   0.453  0.00  0.00     0.174 C 
ATOM     30  C   UNL d   1       5.453   0.072   1.121  0.00  0.00     0.034 C 
ENDBRANCH  28  29
ENDBRANCH  26  28
ENDBRANCH   1  26
TORSDOF 8
