REMARK  5 active torsions:
REMARK  status: ('A' for Active; 'I' for Inactive)
REMARK    1  A    between atoms: S_11  and  C_3 
REMARK    2  A    between atoms: C_4  and  C_5 
REMARK    3  A    between atoms: C_7  and  C_16 
REMARK       I    between atoms: N_10  and  C_7 
REMARK    4  A    between atoms: C_19  and  N_10 
REMARK    5  A    between atoms: C_16  and  S_11 
ROOT
ATOM      1  N   UNL d   1      -1.573   0.804   0.035  0.00  0.00    -0.336 N 
ATOM      2  HN  UNL d   1      -2.190   1.534  -0.321  1.00  0.00     0.168 HD
ATOM      3  C   UNL d   1      -0.535   1.093   0.839  0.00  0.00     0.145 A 
ATOM      4  C   UNL d   1      -1.762  -0.498  -0.280  0.00  0.00     0.052 A 
ATOM      5  N   UNL d   1       0.318   0.187   1.337  0.00  0.00    -0.347 N 
ATOM      6  HN  UNL d   1       1.090   0.456   1.948  1.00  0.00     0.167 HD
ATOM      7  C   UNL d   1      -0.925  -1.496   0.174  0.00  0.00     0.048 A 
ATOM      8  C   UNL d   1       0.104  -1.093   0.989  0.00  0.00     0.092 A 
ENDROOT
BRANCH   3   9
ATOM      9  S   UNL d   1      -0.222   2.789   1.284  0.00  0.00    -0.085 SA
BRANCH   9  10
ATOM     10  C   UNL d   1      -1.452   3.598   0.232  0.00  0.00     0.185 C 
BRANCH  10  11
ATOM     11  C   UNL d   1      -1.428   5.119   0.245  0.00  0.00     0.231 C 
ATOM     12  N   UNL d   1      -0.341   5.724   0.843  0.00  0.00    -0.327 N 
ATOM     13  H   UNL d   1       0.373   5.101   1.209  0.00  0.00     0.169 HD
ATOM     14  O   UNL d   1      -2.341   5.715  -0.333  0.00  0.00    -0.272 OA
BRANCH  12  15
ATOM     15  C   UNL d   1      -0.072   7.111   0.910  0.00  0.00     0.034 A 
ATOM     16  C   UNL d   1      -0.996   8.095   0.548  0.00  0.00     0.029 A 
ATOM     17  C   UNL d   1      -0.651   9.450   0.579  0.00  0.00     0.002 A 
ATOM     18  C   UNL d   1       0.624   9.838   0.979  0.00  0.00     0.000 A 
ATOM     19  C   UNL d   1       1.546   8.870   1.371  0.00  0.00     0.002 A 
ATOM     20  C   UNL d   1       1.196   7.514   1.348  0.00  0.00     0.029 A 
ENDBRANCH  12  15
ENDBRANCH  10  11
ENDBRANCH   9  10
ENDBRANCH   3   9
BRANCH   4  21
ATOM     21  C   UNL d   1      -2.920  -0.749  -1.158  0.00  0.00     0.031 A 
ATOM     22  S   UNL d   1      -3.692  -2.288  -1.201  0.00  0.00    -0.100 SA
ATOM     23  C   UNL d   1      -4.839  -1.774  -2.354  0.00  0.00     0.050 A 
ATOM     24  C   UNL d   1      -4.659  -0.457  -2.707  0.00  0.00     0.008 A 
ATOM     25  C   UNL d   1      -3.562   0.133  -2.014  0.00  0.00     0.021 A 
ENDBRANCH   4  21
TORSDOF 5
