REMARK  4 active torsions:
REMARK  status: ('A' for Active; 'I' for Inactive)
REMARK    1  A    between atoms: C_2  and  S_1 
REMARK    2  A    between atoms: O_12  and  C_9 
REMARK    3  A    between atoms: C_14  and  O_12 
REMARK    4  A    between atoms: C_15  and  C_14 
ROOT
ATOM      1  C   UNL d   1       0.565  -0.966   1.383  0.00  0.00     0.202 A 
ATOM      2  N   UNL d   1       0.790  -2.296   1.351  0.00  0.00    -0.340 N 
ATOM      3  HN  UNL d   1       1.186  -2.770   0.539  1.00  0.00     0.167 HD
ATOM      4  N   UNL d   1       0.021  -0.246   2.381  0.00  0.00    -0.340 N 
ATOM      5  HN  UNL d   1      -0.134   0.760   2.316  1.00  0.00     0.167 HD
ATOM      6  C   UNL d   1      -0.077  -2.323   3.602  0.00  0.00     0.100 A 
ATOM      7  C   UNL d   1       0.450  -2.949   2.484  0.00  0.00     0.128 A 
ATOM      8  C   UNL d   1      -0.299  -0.963   3.468  0.00  0.00     0.128 A 
ENDROOT
BRANCH   6   9
ATOM      9  O   UNL d   1      -0.312  -3.066   4.721  0.00  0.00    -0.344 OA
BRANCH   9  10
ATOM     10  C   UNL d   1      -0.327  -2.285   5.926  0.00  0.00     0.214 C 
BRANCH  10  11
ATOM     11  C   UNL d   1      -0.062  -3.122   7.148  0.00  0.00    -0.034 A 
ATOM     12  C   UNL d   1       0.649  -2.554   8.220  0.00  0.00     0.009 A 
ATOM     13  C   UNL d   1       0.839  -3.268   9.402  0.00  0.00     0.001 A 
ATOM     14  C   UNL d   1       0.310  -4.550   9.528  0.00  0.00     0.000 A 
ATOM     15  C   UNL d   1      -0.394  -5.123   8.470  0.00  0.00     0.001 A 
ATOM     16  C   UNL d   1      -0.582  -4.412   7.285  0.00  0.00     0.009 A 
ENDBRANCH  10  11
ENDBRANCH   9  10
ENDBRANCH   6   9
BRANCH   1  17
ATOM     17  S   UNL d   1       1.028  -0.035  -0.066  0.00  0.00     0.203 S 
ATOM     18  O   UNL d   1       2.105   0.872   0.289  0.00  0.00    -0.220 OA
ATOM     19  O   UNL d   1      -0.184   0.451  -0.703  0.00  0.00    -0.220 OA
ATOM     20  C   UNL d   1       1.718  -1.259  -1.142  0.00  0.00     0.170 C 
ENDBRANCH   1  17
TORSDOF 4
