REMARK  7 active torsions:
REMARK  status: ('A' for Active; 'I' for Inactive)
REMARK    1  A    between atoms: N_8  and  C_3 
REMARK    2  A    between atoms: C_12  and  C_4 
REMARK    3  A    between atoms: N_9  and  N_5 
REMARK       I    between atoms: C_7  and  N_9 
REMARK    4  A    between atoms: C_15  and  C_7 
REMARK    5  A    between atoms: C_18  and  C_15 
REMARK    6  A    between atoms: O_23  and  C_16 
REMARK    7  A    between atoms: C_17  and  C_18 
ROOT
ATOM      1  C   UNL d   1      -3.898  -3.642  -0.198  0.00  0.00     0.236 C 
ATOM      2  N   UNL d   1      -2.510  -3.670  -0.111  0.00  0.00    -0.270 N 
ATOM      3  O   UNL d   1      -4.571  -2.614  -0.211  0.00  0.00    -0.272 OA
ATOM      4  H   UNL d   1      -1.988  -4.539  -0.102  0.00  0.00     0.190 HD
ENDROOT
BRANCH   2   5
ATOM      5  N   UNL d   1      -1.854  -2.481  -0.081  0.00  0.00    -0.308 N 
ATOM      6  C   UNL d   1      -0.561  -2.483  -0.054  0.00  0.00     0.120 C 
ATOM      7  HN  UNL d   1      -2.372  -1.603  -0.079  1.00  0.00     0.186 HD
BRANCH   6   8
ATOM      8  C   UNL d   1       0.173  -1.192  -0.018  0.00  0.00     0.003 A 
ATOM      9  C   UNL d   1       1.562  -1.107   0.009  0.00  0.00     0.047 A 
ATOM     10  C   UNL d   1       2.191   0.153   0.059  0.00  0.00     0.054 A 
ATOM     11 CL   UNL d   1       2.582  -2.504  -0.007  0.00  0.00    -0.083 Cl
ATOM     12  C   UNL d   1       1.467   1.358   0.080  0.00  0.00     0.031 A 
ATOM     13  C   UNL d   1       0.071   1.238   0.040  0.00  0.00     0.030 A 
ATOM     14  C   UNL d   1      -0.569  -0.008  -0.007  0.00  0.00     0.017 A 
BRANCH  12  15
ATOM     15  N   UNL d   1       2.089   2.592   0.144  0.00  0.00    -0.390 N 
ATOM     16  C   UNL d   1       3.415   2.829  -0.415  0.00  0.00     0.149 C 
ATOM     17  C   UNL d   1       1.443   3.757   0.743  0.00  0.00     0.149 C 
ENDBRANCH  12  15
ENDBRANCH   6   8
ENDBRANCH   2   5
BRANCH   1  18
ATOM     18  C   UNL d   1      -4.540  -5.015  -0.238  0.00  0.00     0.109 C 
BRANCH  18  19
ATOM     19  C   UNL d   1      -5.896  -4.931  -0.942  0.00  0.00     0.048 C 
BRANCH  19  20
ATOM     20  C   UNL d   1      -6.630  -6.248  -0.986  0.00  0.00    -0.058 A 
ATOM     21  C   UNL d   1      -7.539  -6.583   0.028  0.00  0.00     0.010 A 
ATOM     22  C   UNL d   1      -8.251  -7.782  -0.029  0.00  0.00     0.037 A 
ATOM     23  C   UNL d   1      -8.054  -8.650  -1.095  0.00  0.00     0.065 A 
ATOM     24  C   UNL d   1      -7.149  -8.342  -2.106  0.00  0.00     0.037 A 
ATOM     25  C   UNL d   1      -6.436  -7.141  -2.049  0.00  0.00     0.010 A 
BRANCH  23  26
ATOM     26  O   UNL d   1      -8.780  -9.804  -1.117  0.00  0.00    -0.361 OA
ATOM     27  H   UNL d   1      -8.568 -10.287  -1.932  0.00  0.00     0.217 HD
ENDBRANCH  23  26
ENDBRANCH  19  20
ENDBRANCH  18  19
ENDBRANCH   1  18
TORSDOF 7
