REMARK  3 active torsions:
REMARK  status: ('A' for Active; 'I' for Inactive)
REMARK    1  A    between atoms: C_4  and  N_1 
REMARK    2  A    between atoms: S_11  and  C_2 
REMARK    3  A    between atoms: C_5  and  C_3 
ROOT
ATOM      1  C   UNL d   1      -1.497   2.939   1.050  0.00  0.00     0.075 A 
ATOM      2  C   UNL d   1      -0.741   2.451  -0.041  0.00  0.00     0.057 A 
ATOM      3  C   UNL d   1      -1.900   4.293   1.026  0.00  0.00     0.018 A 
ATOM      4  C   UNL d   1      -0.413   3.317  -1.103  0.00  0.00     0.031 A 
ATOM      5  C   UNL d   1      -1.557   5.141  -0.026  0.00  0.00     0.001 A 
ATOM      6  C   UNL d   1      -0.812   4.652  -1.090  0.00  0.00     0.002 A 
ENDROOT
BRANCH   2   7
ATOM      7  N   UNL d   1      -0.332   1.093  -0.155  0.00  0.00    -0.285 N 
ATOM      8  C   UNL d   1       0.856   0.553  -0.621  0.00  0.00     0.164 A 
ATOM      9  N   UNL d   1       0.762  -0.756  -0.692  0.00  0.00    -0.279 N 
ATOM     10  N   UNL d   1      -0.488  -1.112  -0.261  0.00  0.00    -0.294 N 
ATOM     11  HN  UNL d   1       1.490  -1.394  -1.013  1.00  0.00     0.189 HD
ATOM     12  C   UNL d   1      -1.123  -0.013   0.060  0.00  0.00     0.207 A 
ATOM     13  HN  UNL d   1      -0.857  -2.061  -0.199  1.00  0.00     0.187 HD
BRANCH   8  14
ATOM     14  S   UNL d   1       2.333   1.416  -0.913  0.00  0.00    -0.105 SA
ATOM     15  H   UNL d   1       2.021   2.601  -0.373  0.00  0.00     0.110 HD
ENDBRANCH   8  14
ENDBRANCH   2   7
BRANCH   1  16
ATOM     16  C   UNL d   1      -1.889   2.144   2.276  0.00  0.00     0.419 C 
ATOM     17  F   UNL d   1      -1.059   1.106   2.553  0.00  0.00    -0.166 F 
ATOM     18  F   UNL d   1      -1.909   2.898   3.411  0.00  0.00    -0.166 F 
ATOM     19  F   UNL d   1      -3.137   1.615   2.157  0.00  0.00    -0.166 F 
ENDBRANCH   1  16
TORSDOF 3
