REMARK  3 active torsions:
REMARK  status: ('A' for Active; 'I' for Inactive)
REMARK       I    between atoms: C_5  and  N_1 
REMARK    1  A    between atoms: C_2  and  C_12 
REMARK       I    between atoms: N_7  and  C_2 
REMARK    2  A    between atoms: C_6  and  C_11 
REMARK    3  A    between atoms: C_19  and  N_7 
ROOT
ATOM      1  C   UNL d   1      -1.602  -0.035  -1.792  0.00  0.00     0.226 C 
ATOM      2  N   UNL d   1      -1.388  -1.244  -2.425  0.00  0.00    -0.327 N 
ATOM      3  O   UNL d   1      -1.826   1.030  -2.357  0.00  0.00    -0.273 OA
ATOM      4  H   UNL d   1      -1.296  -2.070  -1.849  0.00  0.00     0.169 HD
ENDROOT
BRANCH   2   5
ATOM      5  C   UNL d   1      -1.225  -1.441  -3.816  0.00  0.00     0.034 A 
ATOM      6  C   UNL d   1      -1.156  -0.400  -4.743  0.00  0.00     0.030 A 
ATOM      7  C   UNL d   1      -0.884  -0.655  -6.093  0.00  0.00     0.016 A 
ATOM      8  C   UNL d   1      -0.678  -1.960  -6.553  0.00  0.00    -0.001 A 
ATOM      9  C   UNL d   1      -0.799  -3.007  -5.631  0.00  0.00     0.016 A 
ATOM     10  C   UNL d   1      -1.065  -2.751  -4.277  0.00  0.00     0.030 A 
BRANCH   8  11
ATOM     11  C   UNL d   1      -0.310  -2.193  -7.943  0.00  0.00     0.102 A 
ATOM     12  O   UNL d   1      -0.072  -3.489  -8.327  0.00  0.00    -0.304 OA
ATOM     13  C   UNL d   1       0.287  -3.386  -9.636  0.00  0.00     0.233 A 
ATOM     14  N   UNL d   1       0.296  -2.166 -10.121  0.00  0.00    -0.354 N 
ATOM     15  C   UNL d   1      -0.084  -1.399  -9.049  0.00  0.00     0.127 A 
ATOM     16  HN  UNL d   1       0.529  -1.862 -11.067  1.00  0.00     0.166 HD
ENDBRANCH   8  11
ENDBRANCH   2   5
BRANCH   1  17
ATOM     17  C   UNL d   1      -1.454  -0.085  -0.261  0.00  0.00     0.081 C 
ATOM     18  C   UNL d   1      -1.660   1.313   0.343  0.00  0.00     0.034 C 
ATOM     19  C   UNL d   1      -3.125   1.743   0.298  0.00  0.00     0.126 C 
ATOM     20  N   UNL d   1      -3.987   0.751   0.940  0.00  0.00    -0.352 N 
ATOM     21  C   UNL d   1      -5.146   1.064   1.637  0.00  0.00     0.215 C 
ATOM     22  C   UNL d   1      -3.839  -0.619   0.454  0.00  0.00     0.126 C 
ATOM     23  O   UNL d   1      -5.957   0.197   1.982  0.00  0.00    -0.274 OA
ATOM     24  C   UNL d   1      -5.393   2.494   2.054  0.00  0.00     0.117 C 
ATOM     25  C   UNL d   1      -2.382  -1.079   0.443  0.00  0.00     0.034 C 
ENDBRANCH   1  17
TORSDOF 3
