REMARK  6 active torsions:
REMARK  status: ('A' for Active; 'I' for Inactive)
REMARK    1  A    between atoms: C_2  and  C_1 
REMARK       I    between atoms: N_9  and  C_1 
REMARK    2  A    between atoms: O_10  and  C_4 
REMARK    3  A    between atoms: O_11  and  C_5 
REMARK    4  A    between atoms: C_12  and  O_10 
REMARK    5  A    between atoms: C_14  and  C_12 
REMARK    6  A    between atoms: C_15  and  C_14 
ROOT
ATOM      1  C   UNL d   1       0.275   1.118   0.610  0.00  0.00     0.034 A 
ATOM      2  C   UNL d   1       0.688   2.442   0.411  0.00  0.00     0.056 A 
ATOM      3  C   UNL d   1      -0.084   3.517   0.885  0.00  0.00     0.102 A 
ATOM      4  C   UNL d   1      -1.274   3.252   1.585  0.00  0.00     0.101 A 
ATOM      5  C   UNL d   1      -0.922   0.859   1.276  0.00  0.00     0.020 A 
ATOM      6  C   UNL d   1      -1.682   1.921   1.764  0.00  0.00     0.040 A 
ENDROOT
BRANCH   1   7
ATOM      7  C   UNL d   1       1.071  -0.031   0.110  0.00  0.00     0.249 C 
ATOM      8  O   UNL d   1       0.548  -1.105  -0.161  0.00  0.00    -0.268 OA
ATOM      9  N   UNL d   1       2.421   0.140  -0.006  0.00  0.00    -0.366 N 
ATOM     10  H   UNL d   1       2.911   0.885   0.470  0.00  0.00     0.159 HD
ATOM     11  H   UNL d   1       2.953  -0.689  -0.241  0.00  0.00     0.159 HD
ENDBRANCH   1   7
BRANCH   3  12
ATOM     12  O   UNL d   1       0.335   4.814   0.747  0.00  0.00    -0.348 OA
BRANCH  12  13
ATOM     13  C   UNL d   1       1.049   5.141  -0.447  0.00  0.00     0.176 C 
BRANCH  13  14
ATOM     14  C   UNL d   1       1.261   6.654  -0.460  0.00  0.00     0.026 C 
BRANCH  14  15
ATOM     15  C   UNL d   1       2.061   7.099  -1.680  0.00  0.00    -0.002 C 
ATOM     16  C   UNL d   1       2.308   8.599  -1.669  0.00  0.00     0.005 C 
ENDBRANCH  14  15
ENDBRANCH  13  14
ENDBRANCH  12  13
ENDBRANCH   3  12
BRANCH   4  17
ATOM     17  O   UNL d   1      -2.155   4.138   2.146  0.00  0.00    -0.353 OA
ATOM     18  C   UNL d   1      -1.924   5.529   1.998  0.00  0.00     0.210 C 
ENDBRANCH   4  17
TORSDOF 6
