REMARK  1 active torsions:
REMARK  status: ('A' for Active; 'I' for Inactive)
REMARK    1  A    between atoms: O_10  and  C_3 
ROOT
ATOM      1  N   UNL d   1       1.284  -1.352   0.028  0.00  0.00    -0.334 N 
ATOM      2  HN  UNL d   1       1.324  -2.371   0.043  1.00  0.00     0.168 HD
ATOM      3  C   UNL d   1       2.406  -0.620   0.010  0.00  0.00     0.163 A 
ATOM      4  C   UNL d   1       0.098  -0.706   0.024  0.00  0.00     0.067 A 
ATOM      5  C   UNL d   1       1.239   1.461   0.028  0.00  0.00    -0.023 A 
ATOM      6  C   UNL d   1       2.457   0.761   0.011  0.00  0.00     0.091 A 
ATOM      7  C   UNL d   1       0.018   0.715   0.008  0.00  0.00     0.000 A 
ATOM      8  C   UNL d   1      -1.098  -1.442   0.030  0.00  0.00     0.061 A 
ATOM      9 CL   UNL d   1       3.984   1.573  -0.021  0.00  0.00    -0.079 Cl
ATOM     10 CL   UNL d   1      -1.071  -3.178   0.081  0.00  0.00    -0.082 Cl
ATOM     11  C   UNL d   1      -1.270   1.309  -0.032  0.00  0.00     0.014 A 
ATOM     12  C   UNL d   1       1.275   2.971   0.047  0.00  0.00     0.051 C 
ATOM     13  C   UNL d   1      -2.438   0.549  -0.044  0.00  0.00     0.003 A 
ATOM     14  C   UNL d   1      -2.353  -0.832  -0.006  0.00  0.00     0.026 A 
ENDROOT
BRANCH   3  15
ATOM     15  O   UNL d   1       3.523  -1.391  -0.020  0.00  0.00    -0.345 OA
ATOM     16  H   UNL d   1       3.120  -2.278  -0.029  0.00  0.00     0.219 HD
ENDBRANCH   3  15
TORSDOF 1
