REMARK  5 active torsions:
REMARK  status: ('A' for Active; 'I' for Inactive)
REMARK    1  A    between atoms: C_10  and  N_1 
REMARK    2  A    between atoms: C_9  and  C_2 
REMARK    3  A    between atoms: N_12  and  C_11 
REMARK    4  A    between atoms: C_19  and  N_12 
REMARK    5  A    between atoms: C_20  and  N_12 
ROOT
ATOM      1  N   UNL d   1       0.265  -0.361  -0.967  0.00  0.00    -0.223 N 
ATOM      2  C   UNL d   1       0.925  -0.741   0.207  0.00  0.00     0.145 C 
ATOM      3  N   UNL d   1      -1.100  -0.183   0.688  0.00  0.00    -0.226 N 
ATOM      4  HN  UNL d   1      -1.940   0.010   1.234  1.00  0.00     0.210 HD
ATOM      5  N   UNL d   1      -1.031  -0.110  -0.628  0.00  0.00    -0.219 N 
ATOM      6  HN  UNL d   1      -1.799   0.095  -1.267  1.00  0.00     0.210 HD
ATOM      7  N   UNL d   1       0.097  -0.550   1.219  0.00  0.00    -0.268 N 
ATOM      8  HN  UNL d   1       0.315  -0.656   2.209  1.00  0.00     0.190 HD
ENDROOT
BRANCH   1   9
ATOM      9  C   UNL d   1       0.682  -0.153  -2.317  0.00  0.00     0.060 A 
ATOM     10  C   UNL d   1      -0.305   0.048  -3.302  0.00  0.00     0.033 A 
ATOM     11  C   UNL d   1       0.046   0.282  -4.636  0.00  0.00     0.021 A 
ATOM     12  C   UNL d   1       1.388   0.324  -4.995  0.00  0.00     0.011 A 
ATOM     13  C   UNL d   1       2.378   0.140  -4.032  0.00  0.00     0.021 A 
ATOM     14 BR   UNL d   1       1.869   0.648  -6.793  0.00  0.00    -0.051 Br
ATOM     15  C   UNL d   1       2.030  -0.092  -2.695  0.00  0.00     0.033 A 
ENDBRANCH   1   9
BRANCH   2  16
ATOM     16  C   UNL d   1       2.239  -1.256   0.296  0.00  0.00     0.068 C 
ATOM     17  C   UNL d   1       2.633  -2.353  -0.362  0.00  0.00     0.089 C 
BRANCH  17  18
ATOM     18  N   UNL d   1       3.860  -3.002  -0.272  0.00  0.00    -0.391 N 
BRANCH  18  19
ATOM     19  C   UNL d   1       4.544  -3.212   1.016  0.00  0.00     0.117 C 
ATOM     20  C   UNL d   1       5.608  -2.158   1.264  0.00  0.00     0.026 C 
ENDBRANCH  18  19
BRANCH  18  21
ATOM     21  C   UNL d   1       4.387  -3.777  -1.408  0.00  0.00     0.117 C 
ATOM     22  C   UNL d   1       3.866  -5.204  -1.419  0.00  0.00     0.026 C 
ENDBRANCH  18  21
ENDBRANCH  17  18
ENDBRANCH   2  16
TORSDOF 5
