REMARK  6 active torsions:
REMARK  status: ('A' for Active; 'I' for Inactive)
REMARK    1  A    between atoms: C_3  and  C_1 
REMARK    2  A    between atoms: N_2  and  C_4 
REMARK    3  A    between atoms: C_21  and  N_7 
REMARK    4  A    between atoms: C_9  and  C_21 
REMARK       I    between atoms: N_15  and  C_9 
REMARK    5  A    between atoms: C_30  and  N_15 
REMARK    6  A    between atoms: C_29  and  C_30 
ROOT
ATOM      1  N   UNL d   1      -1.238  -5.040  -0.630  0.00  0.00    -0.364 N 
ATOM      2  N   UNL d   1      -1.048  -8.019  -0.572  0.00  0.00     0.100 N 
ATOM      3  C   UNL d   1      -1.044  -5.751   0.640  0.00  0.00     0.154 C 
ATOM      4  C   UNL d   1      -1.825  -5.839  -1.718  0.00  0.00     0.154 C 
ATOM      5  C   UNL d   1      -1.161  -7.237  -1.830  0.00  0.00     0.293 C 
ATOM      6  C   UNL d   1      -0.393  -7.141   0.435  0.00  0.00     0.293 C 
ENDROOT
BRANCH   2   7
ATOM      7  C   UNL d   1      -2.355  -8.504  -0.078  0.00  0.00     0.374 C 
BRANCH   7   8
ATOM      8  C   UNL d   1      -3.005  -9.502  -1.050  0.00  0.00     0.246 C 
ATOM      9  N   UNL d   1      -2.640 -10.818  -0.865  0.00  0.00    -0.355 N 
ATOM     10  H   UNL d   1      -1.878 -11.025  -0.232  0.00  0.00     0.162 HD
ATOM     11  O   UNL d   1      -3.795  -9.138  -1.917  0.00  0.00    -0.272 OA
BRANCH   9  12
ATOM     12  C   UNL d   1      -3.143 -11.891  -1.698  0.00  0.00     0.161 C 
BRANCH  12  13
ATOM     13  C   UNL d   1      -2.021 -12.597  -2.420  0.00  0.00    -0.038 A 
ATOM     14  C   UNL d   1      -1.787 -13.968  -2.221  0.00  0.00     0.048 A 
ATOM     15  C   UNL d   1      -0.738 -14.555  -2.901  0.00  0.00     0.105 A 
ATOM     16  O   UNL d   1      -0.368 -15.861  -2.816  0.00  0.00    -0.323 OA
ATOM     17  C   UNL d   1       0.062 -13.839  -3.760  0.00  0.00     0.105 A 
ATOM     18  C   UNL d   1       0.772 -15.878  -3.702  0.00  0.00     0.352 A 
ATOM     19  O   UNL d   1       1.038 -14.602  -4.319  0.00  0.00    -0.323 OA
ATOM     20  C   UNL d   1      -0.146 -12.498  -3.995  0.00  0.00     0.040 A 
ATOM     21  C   UNL d   1      -1.200 -11.876  -3.320  0.00  0.00     0.012 A 
ENDBRANCH  12  13
ENDBRANCH   9  12
ENDBRANCH   7   8
ENDBRANCH   2   7
BRANCH   1  22
ATOM     22  C   UNL d   1      -0.451  -3.933  -0.907  0.00  0.00     0.103 A 
ATOM     23  C   UNL d   1      -0.808  -3.030  -1.910  0.00  0.00     0.049 A 
ATOM     24  C   UNL d   1      -0.042  -1.886  -2.147  0.00  0.00     0.021 A 
ATOM     25  C   UNL d   1       1.088  -1.642  -1.373  0.00  0.00     0.063 A 
ATOM     26  C   UNL d   1       1.377  -2.569  -0.389  0.00  0.00     0.106 A 
ATOM     27  N   UNL d   1       0.639  -3.684  -0.147  0.00  0.00    -0.352 N 
ATOM     28  HN  UNL d   1       0.904  -4.326   0.601  1.00  0.00     0.166 HD
BRANCH  25  29
ATOM     29  C   UNL d   1       1.943  -0.431  -1.585  0.00  0.00     0.418 C 
ATOM     30  F   UNL d   1       3.019  -0.366  -0.753  0.00  0.00    -0.166 F 
ATOM     31  F   UNL d   1       1.259   0.732  -1.400  0.00  0.00    -0.166 F 
ATOM     32  F   UNL d   1       2.449  -0.365  -2.849  0.00  0.00    -0.166 F 
ENDBRANCH  25  29
ENDBRANCH   1  22
TORSDOF 6
