REMARK  2 active torsions:
REMARK  status: ('A' for Active; 'I' for Inactive)
REMARK    1  A    between atoms: C_2  and  C_1 
REMARK       I    between atoms: N_8  and  C_2 
REMARK    2  A    between atoms: N_9  and  N_8 
ROOT
ATOM      1  C   UNL d   1      -1.659   2.503   0.073  0.00  0.00     0.272 C 
ATOM      2  O   UNL d   1      -1.205   3.649   0.131  0.00  0.00    -0.266 OA
ATOM      3  N   UNL d   1      -3.037   2.287   0.067  0.00  0.00    -0.289 N 
ATOM      4  H   UNL d   1      -3.394   1.346  -0.097  0.00  0.00     0.183 HD
ENDROOT
BRANCH   1   5
ATOM      5  C   UNL d   1      -0.816   1.317   0.023  0.00  0.00     0.074 A 
ATOM      6  S   UNL d   1      -1.450  -0.272  -0.006  0.00  0.00    -0.096 SA
ATOM      7  C   UNL d   1       0.110  -0.971  -0.012  0.00  0.00     0.057 A 
ATOM      8  C   UNL d   1       1.118  -0.025  -0.001  0.00  0.00    -0.054 A 
ATOM      9  C   UNL d   1       0.567   1.296   0.011  0.00  0.00     0.031 A 
ATOM     10  C   UNL d   1       2.576  -0.334   0.002  0.00  0.00     0.048 C 
ENDBRANCH   1   5
BRANCH   3  11
ATOM     11  N   UNL d   1      -3.930   3.385   0.090  0.00  0.00    -0.247 NA
ATOM     12  H   UNL d   1      -3.352   4.234   0.011  0.00  0.00     0.143 HD
ATOM     13  H   UNL d   1      -4.328   3.446   1.031  0.00  0.00     0.143 HD
ENDBRANCH   3  11
TORSDOF 2
