REMARK  4 active torsions:
REMARK  status: ('A' for Active; 'I' for Inactive)
REMARK    1  A    between atoms: C_13  and  C_1 
REMARK    2  A    between atoms: C_2  and  C_14 
REMARK    3  A    between atoms: O_15  and  C_13 
REMARK    4  A    between atoms: C_14  and  O_15 
ROOT
ATOM      1  O   UNL d   1      -3.095   1.260   1.050  0.00  0.00    -0.372 OA
ENDROOT
BRANCH   1   2
ATOM      2  C   UNL d   1      -3.460  -0.092   1.340  0.00  0.00     0.152 C 
ATOM      3  C   UNL d   1      -4.601  -0.642   0.480  0.00  0.00     0.045 C 
BRANCH   2   4
ATOM      4  C   UNL d   1      -3.849  -0.182   2.832  0.00  0.00    -0.017 C 
ATOM      5  C   UNL d   1      -4.517   0.897   3.486  0.00  0.00    -0.046 C 
ATOM      6  C   UNL d   1      -4.631   0.911   4.901  0.00  0.00    -0.049 C 
ATOM      7  C   UNL d   1      -5.095   2.063   2.708  0.00  0.00     0.049 C 
ATOM      8  C   UNL d   1      -5.139   2.143   5.624  0.00  0.00     0.049 C 
ATOM      9  C   UNL d   1      -4.280  -0.236   5.652  0.00  0.00    -0.049 C 
ATOM     10  C   UNL d   1      -3.772  -1.382   4.990  0.00  0.00    -0.049 C 
ATOM     11  C   UNL d   1      -4.386  -0.193   7.162  0.00  0.00     0.049 C 
ATOM     12  C   UNL d   1      -3.536  -1.351   3.585  0.00  0.00    -0.046 C 
ATOM     13  C   UNL d   1      -3.447  -2.615   5.810  0.00  0.00     0.049 C 
ATOM     14  C   UNL d   1      -2.973  -2.594   2.925  0.00  0.00     0.049 C 
ENDBRANCH   2   4
ENDBRANCH   1   2
BRANCH   1  15
ATOM     15  C   UNL d   1      -2.640   1.582  -0.261  0.00  0.00     0.152 C 
ATOM     16  C   UNL d   1      -2.653   3.116  -0.359  0.00  0.00     0.045 C 
BRANCH  15  17
ATOM     17  C   UNL d   1      -1.258   1.030  -0.662  0.00  0.00    -0.017 C 
ATOM     18  C   UNL d   1      -1.103   0.263  -1.861  0.00  0.00    -0.046 C 
ATOM     19  C   UNL d   1       0.199  -0.075  -2.333  0.00  0.00    -0.049 C 
ATOM     20  C   UNL d   1      -2.276  -0.233  -2.682  0.00  0.00     0.049 C 
ATOM     21  C   UNL d   1       0.392  -0.893  -3.599  0.00  0.00     0.049 C 
ATOM     22  C   UNL d   1       1.352   0.415  -1.670  0.00  0.00    -0.049 C 
ATOM     23  C   UNL d   1       1.210   1.159  -0.477  0.00  0.00    -0.049 C 
ATOM     24  C   UNL d   1       2.716   0.143  -2.273  0.00  0.00     0.049 C 
ATOM     25  C   UNL d   1      -0.085   1.385   0.075  0.00  0.00    -0.046 C 
ATOM     26  C   UNL d   1       2.450   1.722   0.190  0.00  0.00     0.049 C 
ATOM     27  C   UNL d   1      -0.165   2.050   1.435  0.00  0.00     0.049 C 
ENDBRANCH  15  17
ENDBRANCH   1  15
TORSDOF 4
