REMARK  4 active torsions:
REMARK  status: ('A' for Active; 'I' for Inactive)
REMARK    1  A    between atoms: N_6  and  S_1 
REMARK    2  A    between atoms: C_7  and  S_1 
REMARK    3  A    between atoms: C_2  and  C_11 
REMARK    4  A    between atoms: C_11  and  N_6 
ROOT
ATOM      1  N   UNL d   1       0.445   0.468   1.358  0.00  0.00    -0.211 NA
ATOM      2  H   UNL d   1      -0.535   0.745   1.393  0.00  0.00     0.140 HD
ENDROOT
BRANCH   1   3
ATOM      3  S   UNL d   1       0.854  -0.219  -0.134  0.00  0.00     0.241 S 
ATOM      4  O   UNL d   1       2.098  -0.938   0.023  0.00  0.00    -0.206 OA
ATOM      5  O   UNL d   1       0.664   0.800  -1.141  0.00  0.00    -0.206 OA
BRANCH   3   6
ATOM      6  C   UNL d   1      -0.455  -1.406  -0.359  0.00  0.00     0.074 A 
ATOM      7  C   UNL d   1      -1.747  -0.939  -0.629  0.00  0.00     0.026 A 
ATOM      8  C   UNL d   1      -2.789  -1.853  -0.796  0.00  0.00     0.025 A 
ATOM      9  C   UNL d   1      -2.531  -3.221  -0.709  0.00  0.00     0.034 A 
ATOM     10  C   UNL d   1      -1.235  -3.686  -0.474  0.00  0.00     0.025 A 
ATOM     11 CL   UNL d   1      -3.821  -4.343  -0.893  0.00  0.00    -0.084 Cl
ATOM     12  C   UNL d   1      -0.187  -2.777  -0.300  0.00  0.00     0.026 A 
ENDBRANCH   3   6
ENDBRANCH   1   3
BRANCH   1  13
ATOM     13  C   UNL d   1       0.885  -0.281   2.540  0.00  0.00     0.144 C 
BRANCH  13  14
ATOM     14  C   UNL d   1       0.416   0.442   3.772  0.00  0.00    -0.026 A 
ATOM     15  C   UNL d   1      -0.426  -0.131   4.807  0.00  0.00    -0.009 A 
ATOM     16  C   UNL d   1      -0.607   0.754   5.877  0.00  0.00     0.015 A 
ATOM     17  C   UNL d   1      -1.042  -1.407   4.902  0.00  0.00     0.037 A 
ATOM     18  C   UNL d   1      -1.347   0.398   7.023  0.00  0.00     0.021 A 
ATOM     19  S   UNL d   1       0.176   2.257   5.589  0.00  0.00    -0.101 SA
ATOM     20  C   UNL d   1      -1.928  -0.870   7.089  0.00  0.00     0.025 A 
ATOM     21  C   UNL d   1      -1.782  -1.757   6.035  0.00  0.00     0.035 A 
ATOM     22 CL   UNL d   1      -2.513  -3.313   6.119  0.00  0.00    -0.084 Cl
ATOM     23  C   UNL d   1       0.784   1.737   4.089  0.00  0.00     0.059 A 
ENDBRANCH  13  14
ENDBRANCH   1  13
TORSDOF 4
