REMARK  6 active torsions:
REMARK  status: ('A' for Active; 'I' for Inactive)
REMARK    1  A    between atoms: C_2  and  C_1 
REMARK       I    between atoms: N_7  and  C_1 
REMARK    2  A    between atoms: C_3  and  N_5 
REMARK    3  A    between atoms: N_6  and  C_3 
REMARK    4  A    between atoms: N_5  and  C_4 
REMARK    5  A    between atoms: C_8  and  N_6 
REMARK    6  A    between atoms: C_14  and  N_7 
ROOT
ATOM      1  C   UNL d   1       1.000  -1.435  -1.232  0.00  0.00     0.059 A 
ATOM      2  C   UNL d   1       1.913  -2.514  -1.383  0.00  0.00     0.050 A 
ATOM      3  C   UNL d   1       0.171  -1.052  -2.298  0.00  0.00     0.019 A 
ATOM      4  C   UNL d   1       1.947  -3.199  -2.601  0.00  0.00     0.030 A 
ATOM      5  C   UNL d   1       0.235  -1.739  -3.509  0.00  0.00     0.001 A 
ATOM      6  C   UNL d   1       1.115  -2.810  -3.656  0.00  0.00     0.002 A 
ENDROOT
BRANCH   2   7
ATOM      7  N   UNL d   1       2.647  -2.939  -0.254  0.00  0.00    -0.332 N 
ATOM      8  H   UNL d   1       2.216  -2.657   0.635  0.00  0.00     0.168 HD
BRANCH   7   9
ATOM      9  C   UNL d   1       3.751  -3.710  -0.032  0.00  0.00     0.176 C 
ATOM     10  S   UNL d   1       3.858  -4.337   1.522  0.00  0.00    -0.041 SA
BRANCH   9  11
ATOM     11  N   UNL d   1       4.659  -3.833  -1.054  0.00  0.00    -0.332 N 
ATOM     12  H   UNL d   1       4.312  -3.661  -1.985  0.00  0.00     0.168 HD
BRANCH  11  13
ATOM     13  C   UNL d   1       6.001  -4.315  -1.029  0.00  0.00     0.056 A 
ATOM     14  C   UNL d   1       6.564  -4.840  -2.205  0.00  0.00     0.061 A 
ATOM     15  C   UNL d   1       7.874  -5.341  -2.219  0.00  0.00     0.033 A 
ATOM     16 CL   UNL d   1       5.646  -4.927  -3.671  0.00  0.00    -0.082 Cl
ATOM     17  C   UNL d   1       8.662  -5.296  -1.064  0.00  0.00    -0.060 A 
ATOM     18  C   UNL d   1       8.128  -4.723   0.091  0.00  0.00     0.009 A 
ATOM     19  C   UNL d   1      10.054  -5.856  -1.066  0.00  0.00     0.048 C 
ATOM     20  C   UNL d   1       6.818  -4.230   0.102  0.00  0.00     0.032 A 
ENDBRANCH  11  13
ENDBRANCH   9  11
ENDBRANCH   7   9
ENDBRANCH   2   7
BRANCH   1  21
ATOM     21  C   UNL d   1       0.848  -0.770   0.098  0.00  0.00     0.258 C 
ATOM     22  N   UNL d   1       0.585   0.590   0.109  0.00  0.00    -0.323 N 
ATOM     23  H   UNL d   1       0.498   1.065  -0.779  0.00  0.00     0.169 HD
ATOM     24  O   UNL d   1       0.962  -1.487   1.092  0.00  0.00    -0.267 OA
BRANCH  22  25
ATOM     25  C   UNL d   1       0.390   1.385   1.264  0.00  0.00     0.035 A 
ATOM     26  C   UNL d   1       0.624   0.931   2.570  0.00  0.00     0.032 A 
ATOM     27  C   UNL d   1       0.366   1.750   3.671  0.00  0.00     0.044 A 
ATOM     28  C   UNL d   1      -0.126   3.031   3.471  0.00  0.00     0.116 A 
ATOM     29  C   UNL d   1      -0.342   3.513   2.186  0.00  0.00     0.044 A 
ATOM     30  F   UNL d   1      -0.394   3.809   4.526  0.00  0.00    -0.206 F 
ATOM     31  C   UNL d   1      -0.074   2.695   1.083  0.00  0.00     0.032 A 
ENDBRANCH  22  25
ENDBRANCH   1  21
TORSDOF 6
