REMARK  4 active torsions:
REMARK  status: ('A' for Active; 'I' for Inactive)
REMARK    1  A    between atoms: C_5  and  C_1 
REMARK       I    between atoms: N_8  and  C_5 
REMARK    2  A    between atoms: C_12  and  N_8 
REMARK    3  A    between atoms: C_9  and  C_12 
REMARK    4  A    between atoms: O_13  and  C_9 
ROOT
ATOM      1  C   UNL d   1      -2.665  -1.506   0.018  0.00  0.00     0.270 C 
ATOM      2  N   UNL d   1      -3.817  -0.753   0.029  0.00  0.00    -0.346 N 
ATOM      3  O   UNL d   1      -2.684  -2.735   0.017  0.00  0.00    -0.266 OA
ATOM      4  H   UNL d   1      -3.735   0.263   0.031  0.00  0.00     0.163 HD
ENDROOT
BRANCH   1   5
ATOM      5  C   UNL d   1      -1.414  -0.742   0.011  0.00  0.00     0.124 A 
ATOM      6  N   UNL d   1      -1.387   0.603   0.013  0.00  0.00    -0.256 N 
ATOM      7  O   UNL d   1      -0.046   0.955   0.006  0.00  0.00    -0.242 OA
ATOM      8  HN  UNL d   1      -2.188   1.234   0.017  1.00  0.00     0.195 HD
ATOM      9  C   UNL d   1       0.723  -0.167   0.001  0.00  0.00     0.075 A 
ATOM     10  C   UNL d   1      -0.096  -1.268   0.002  0.00  0.00     0.071 A 
ATOM     11  C   UNL d   1       2.183   0.028  -0.002  0.00  0.00     0.079 C 
ENDBRANCH   1   5
BRANCH   2  12
ATOM     12  C   UNL d   1      -5.133  -1.366   0.042  0.00  0.00     0.234 C 
BRANCH  12  13
ATOM     13  C   UNL d   1      -6.237  -0.318   0.052  0.00  0.00     0.276 C 
ATOM     14  O   UNL d   1      -6.044   0.892   0.050  0.00  0.00    -0.263 OA
BRANCH  13  15
ATOM     15  O   UNL d   1      -7.461  -0.917   0.064  0.00  0.00    -0.325 OA
ATOM     16  C   UNL d   1      -8.559  -0.002   0.074  0.00  0.00     0.213 C 
ENDBRANCH  13  15
ENDBRANCH  12  13
ENDBRANCH   2  12
TORSDOF 4
