REMARK  5 active torsions:
REMARK  status: ('A' for Active; 'I' for Inactive)
REMARK    1  A    between atoms: C_5  and  C_1 
REMARK    2  A    between atoms: N_8  and  C_2 
REMARK       I    between atoms: C_9  and  N_8 
REMARK    3  A    between atoms: O_17  and  C_9 
REMARK    4  A    between atoms: N_10  and  O_17 
REMARK    5  A    between atoms: C_12  and  C_13 
ROOT
ATOM      1  C   UNL d   1       2.108  -4.467  -0.065  0.00  0.00     0.092 C 
ATOM      2  C   UNL d   1       1.782  -3.066   0.060  0.00  0.00     0.078 C 
ATOM      3  N   UNL d   1       3.342  -4.589  -0.589  0.00  0.00    -0.258 N 
ATOM      4  HN  UNL d   1       3.893  -5.445  -0.655  1.00  0.00     0.195 HD
ATOM      5  C   UNL d   1       2.725  -2.459  -0.742  0.00  0.00     0.096 C 
ATOM      6  O   UNL d   1       3.716  -3.340  -1.016  0.00  0.00    -0.240 OA
ATOM      7  C   UNL d   1       2.786  -1.179  -1.464  0.00  0.00     0.081 C 
ENDROOT
BRANCH   2   8
ATOM      8  N   UNL d   1       0.619  -2.416   0.469  0.00  0.00    -0.198 NA
ATOM      9  C   UNL d   1       0.339  -2.239   1.816  0.00  0.00     0.364 C 
ATOM     10  O   UNL d   1      -0.813  -2.275   2.218  0.00  0.00    -0.243 OA
ATOM     11  H   UNL d   1      -0.229  -2.780   0.047  0.00  0.00     0.139 HD
BRANCH   9  12
ATOM     12  O   UNL d   1       1.450  -1.994   2.590  0.00  0.00    -0.185 OA
BRANCH  12  13
ATOM     13  N   UNL d   1       1.304  -2.638   3.838  0.00  0.00    -0.258 N 
ATOM     14  C   UNL d   1       2.090  -2.129   4.745  0.00  0.00     0.062 C 
ATOM     15  C   UNL d   1       2.874  -0.852   4.545  0.00  0.00     0.073 C 
ATOM     16  HN  UNL d   1       0.659  -3.409   4.010  1.00  0.00     0.194 HD
BRANCH  14  17
ATOM     17  C   UNL d   1       2.272  -2.876   5.972  0.00  0.00     0.099 A 
ATOM     18  O   UNL d   1       3.135  -2.409   6.928  0.00  0.00    -0.321 OA
ATOM     19  C   UNL d   1       3.223  -3.358   7.894  0.00  0.00     0.142 A 
ATOM     20  C   UNL d   1       2.419  -4.430   7.591  0.00  0.00     0.027 A 
ATOM     21  C   UNL d   1       1.785  -4.109   6.367  0.00  0.00     0.041 A 
ENDBRANCH  14  17
ENDBRANCH  12  13
ENDBRANCH   9  12
ENDBRANCH   2   8
BRANCH   1  22
ATOM     22  C   UNL d   1       1.290  -5.683   0.093  0.00  0.00     0.038 A 
ATOM     23  C   UNL d   1       0.000  -5.766  -0.480  0.00  0.00     0.048 A 
ATOM     24 CL   UNL d   1      -0.773  -4.461  -1.322  0.00  0.00    -0.083 Cl
ATOM     25  C   UNL d   1      -0.717  -6.972  -0.498  0.00  0.00     0.025 A 
ATOM     26  C   UNL d   1      -0.154  -8.136   0.007  0.00  0.00     0.003 A 
ATOM     27  C   UNL d   1       1.118  -8.089   0.564  0.00  0.00     0.025 A 
ATOM     28  C   UNL d   1       1.831  -6.879   0.625  0.00  0.00     0.048 A 
ATOM     29 CL   UNL d   1       3.395  -6.977   1.370  0.00  0.00    -0.083 Cl
ENDBRANCH   1  22
TORSDOF 5
