REMARK  6 active torsions:
REMARK  status: ('A' for Active; 'I' for Inactive)
REMARK    1  A    between atoms: C_2  and  S_1 
REMARK    2  A    between atoms: C_3  and  S_1 
REMARK    3  A    between atoms: C_8  and  C_6 
REMARK    4  A    between atoms: C_9  and  C_7 
REMARK    5  A    between atoms: O_16  and  C_8 
REMARK    6  A    between atoms: O_15  and  C_9 
ROOT
ATOM      1  S   UNL d   1       1.540   0.791  -0.111  0.00  0.00     0.086 S 
ATOM      2  O   UNL d   1       1.930  -0.649  -0.246  0.00  0.00    -0.247 OA
ENDROOT
BRANCH   1   3
ATOM      3  C   UNL d   1       0.661   0.945   1.463  0.00  0.00     0.048 A 
ATOM      4  C   UNL d   1      -0.661   0.525   1.892  0.00  0.00     0.011 A 
ATOM      5  C   UNL d   1      -1.733  -0.143   1.192  0.00  0.00     0.050 A 
ATOM      6  C   UNL d   1      -0.982   0.818   3.264  0.00  0.00    -0.024 A 
ATOM      7  C   UNL d   1      -2.991  -0.411   1.780  0.00  0.00     0.019 A 
ATOM      8  C   UNL d   1      -3.236  -0.089   3.100  0.00  0.00     0.002 A 
ATOM      9  C   UNL d   1      -2.228   0.508   3.833  0.00  0.00     0.012 A 
ATOM     10  C   UNL d   1      -0.071   1.428   4.133  0.00  0.00     0.012 A 
ATOM     11  C   UNL d   1       1.190   1.791   3.713  0.00  0.00     0.002 A 
ATOM     12  C   UNL d   1       1.544   1.547   2.401  0.00  0.00     0.022 A 
BRANCH   5  13
ATOM     13  C   UNL d   1      -1.655  -0.678  -0.169  0.00  0.00     0.177 C 
ATOM     14  O   UNL d   1      -2.437  -0.453  -1.072  0.00  0.00    -0.646 OA
BRANCH  13  15
ATOM     15  O   UNL d   1      -0.707  -1.617  -0.241  0.00  0.00    -0.773 OA
ATOM     16  H   UNL d   1      -0.695  -1.909  -1.173  0.00  0.00     0.167 HD
ENDBRANCH  13  15
ENDBRANCH   5  13
ENDBRANCH   1   3
BRANCH   1  17
ATOM     17  C   UNL d   1       0.401   1.188  -1.451  0.00  0.00     0.048 C 
ATOM     18  C   UNL d   1      -0.489   2.319  -1.543  0.00  0.00     0.011 C 
ATOM     19  C   UNL d   1      -0.615   3.463  -0.681  0.00  0.00     0.050 C 
ATOM     20  C   UNL d   1      -1.375   2.326  -2.667  0.00  0.00    -0.024 C 
ATOM     21  C   UNL d   1      -1.639   4.416  -0.836  0.00  0.00     0.019 C 
ATOM     22  C   UNL d   1      -2.531   4.321  -1.887  0.00  0.00     0.002 C 
ATOM     23  C   UNL d   1      -2.377   3.297  -2.809  0.00  0.00     0.012 C 
ATOM     24  C   UNL d   1      -1.277   1.373  -3.689  0.00  0.00     0.012 C 
ATOM     25  C   UNL d   1      -0.316   0.381  -3.654  0.00  0.00     0.002 C 
ATOM     26  C   UNL d   1       0.507   0.293  -2.546  0.00  0.00     0.022 C 
BRANCH  19  27
ATOM     27  C   UNL d   1       0.372   3.855   0.348  0.00  0.00     0.177 C 
ATOM     28  O   UNL d   1       0.066   4.220   1.466  0.00  0.00    -0.646 OA
BRANCH  27  29
ATOM     29  O   UNL d   1       1.632   3.901  -0.138  0.00  0.00    -0.773 OA
ATOM     30  H   UNL d   1       1.704   3.756  -1.100  0.00  0.00     0.167 HD
ENDBRANCH  27  29
ENDBRANCH  19  27
ENDBRANCH   1  17
TORSDOF 6
