REMARK  6 active torsions:
REMARK  status: ('A' for Active; 'I' for Inactive)
REMARK    1  A    between atoms: O_18  and  C_1 
REMARK    2  A    between atoms: N_5  and  C_2 
REMARK    3  A    between atoms: O_20  and  C_3 
REMARK    4  A    between atoms: O_19  and  C_4 
REMARK       I    between atoms: C_9  and  N_5 
REMARK    5  A    between atoms: C_15  and  N_7 
REMARK    6  A    between atoms: C_13  and  C_12 
ROOT
ATOM      1  N   UNL d   1      -3.659  -0.625  -0.243  0.00  0.00    -0.365 N 
ATOM      2  HN  UNL d   1      -3.355  -1.597  -0.292  1.00  0.00     0.165 HD
ATOM      3  C   UNL d   1      -2.816   0.327   0.001  0.00  0.00     0.100 C 
ENDROOT
BRANCH   1   4
ATOM      4  C   UNL d   1      -5.008  -0.276  -0.439  0.00  0.00     0.034 A 
ATOM      5  C   UNL d   1      -5.397   0.878  -1.130  0.00  0.00     0.059 A 
ATOM      6  C   UNL d   1      -6.741   1.212  -1.325  0.00  0.00     0.042 A 
ATOM      7  C   UNL d   1      -7.733   0.301  -0.914  0.00  0.00    -0.035 A 
ATOM      8  C   UNL d   1      -7.346  -0.868  -0.235  0.00  0.00     0.011 A 
ATOM      9  C   UNL d   1      -9.196   0.526  -1.179  0.00  0.00     0.050 C 
ATOM     10  C   UNL d   1      -5.998  -1.143   0.011  0.00  0.00     0.030 A 
BRANCH   6  11
ATOM     11  N   UNL d   1      -7.111   2.439  -1.928  0.00  0.00    -0.327 N 
ATOM     12  C   UNL d   1      -6.298   3.550  -2.094  0.00  0.00     0.218 C 
ATOM     13  O   UNL d   1      -5.132   3.674  -1.718  0.00  0.00    -0.274 OA
ATOM     14  C   UNL d   1      -6.983   4.698  -2.786  0.00  0.00     0.117 C 
ATOM     15  H   UNL d   1      -8.094   2.561  -2.134  0.00  0.00     0.169 HD
ENDBRANCH   6  11
ENDBRANCH   1   4
BRANCH   3  16
ATOM     16  C   UNL d   1      -1.370   0.088   0.139  0.00  0.00    -0.015 A 
ATOM     17  C   UNL d   1      -0.845  -1.200   0.153  0.00  0.00     0.052 A 
ATOM     18  C   UNL d   1       0.534  -1.407   0.286  0.00  0.00     0.105 A 
ATOM     19  C   UNL d   1       1.392  -0.293   0.381  0.00  0.00     0.135 A 
ATOM     20  C   UNL d   1       0.857   1.014   0.271  0.00  0.00     0.105 A 
ATOM     21  C   UNL d   1      -0.527   1.196   0.207  0.00  0.00     0.052 A 
BRANCH  18  22
ATOM     22  O   UNL d   1       0.839  -2.741   0.301  0.00  0.00    -0.353 OA
ATOM     23  C   UNL d   1       2.190  -3.149   0.422  0.00  0.00     0.210 C 
ENDBRANCH  18  22
BRANCH  19  24
ATOM     24  O   UNL d   1       2.749  -0.492   0.452  0.00  0.00    -0.351 OA
ATOM     25  C   UNL d   1       3.391   0.155   1.552  0.00  0.00     0.210 C 
ENDBRANCH  19  24
BRANCH  20  26
ATOM     26  O   UNL d   1       1.746   2.062   0.213  0.00  0.00    -0.353 OA
ATOM     27  C   UNL d   1       1.253   3.297  -0.300  0.00  0.00     0.210 C 
ENDBRANCH  20  26
ENDBRANCH   3  16
TORSDOF 6
