REMARK  4 active torsions:
REMARK  status: ('A' for Active; 'I' for Inactive)
REMARK    1  A    between atoms: N_2  and  C_1 
REMARK    2  A    between atoms: C_3  and  C_6 
REMARK    3  A    between atoms: S_7  and  C_4 
REMARK    4  A    between atoms: C_15  and  S_7 
ROOT
ATOM      1  C   UNL d   1       1.443  -0.071  -0.141  0.00  0.00     0.120 A 
ATOM      2  C   UNL d   1       0.701  -1.255  -0.083  0.00  0.00     0.034 A 
ATOM      3  C   UNL d   1       0.852   1.203  -0.020  0.00  0.00     0.053 A 
ATOM      4  C   UNL d   1      -0.536   1.323   0.131  0.00  0.00     0.050 A 
ATOM      5  C   UNL d   1      -0.696  -1.107   0.040  0.00  0.00     0.022 A 
ATOM      6  C   UNL d   1      -1.303   0.154   0.143  0.00  0.00     0.017 A 
ENDROOT
BRANCH   2   7
ATOM      7  S   UNL d   1       1.233  -2.960  -0.198  0.00  0.00    -0.123 SA
BRANCH   7   8
ATOM      8  C   UNL d   1       2.840  -3.082   0.693  0.00  0.00     0.044 C 
ATOM      9  C   UNL d   1       2.765  -2.600   2.138  0.00  0.00     0.021 C 
ATOM     10  C   UNL d   1       3.263  -4.554   0.664  0.00  0.00     0.021 C 
ENDBRANCH   7   8
ENDBRANCH   2   7
BRANCH   1  11
ATOM     11  N   UNL d   1       2.866  -0.074  -0.376  0.00  0.00    -0.114 N 
ATOM     12  O   UNL d   1       3.256  -0.464  -1.481  0.00  0.00    -0.532 OA
ATOM     13  O   UNL d   1       3.592   0.354   0.536  0.00  0.00    -0.532 OA
ENDBRANCH   1  11
BRANCH   4  14
ATOM     14  C   UNL d   1      -1.202   2.674   0.269  0.00  0.00     0.417 C 
ATOM     15  F   UNL d   1      -0.320   3.713   0.277  0.00  0.00    -0.166 F 
ATOM     16  F   UNL d   1      -2.078   2.926  -0.742  0.00  0.00    -0.166 F 
ATOM     17  F   UNL d   1      -1.917   2.778   1.421  0.00  0.00    -0.166 F 
ENDBRANCH   4  14
TORSDOF 4
