REMARK  3 active torsions:
REMARK  status: ('A' for Active; 'I' for Inactive)
REMARK    1  A    between atoms: C_9  and  C_1 
REMARK    2  A    between atoms: O_21  and  C_5 
REMARK    3  A    between atoms: C_18  and  N_10 
ROOT
ATOM      1  C   UNL d   1      -0.243   3.477   0.222  0.00  0.00     0.102 C 
ATOM      2  N   UNL d   1       0.737   4.315   0.080  0.00  0.00    -0.365 N 
ATOM      3  HN  UNL d   1       1.694   3.979  -0.023  1.00  0.00     0.165 HD
ENDROOT
BRANCH   2   4
ATOM      4  C   UNL d   1       0.459   5.695   0.071  0.00  0.00     0.032 A 
ATOM      5  C   UNL d   1       1.210   6.515  -0.784  0.00  0.00     0.043 A 
ATOM      6  C   UNL d   1       1.003   7.900  -0.817  0.00  0.00     0.000 A 
ATOM      7  C   UNL d   1       1.780   8.785  -1.671  0.00  0.00     0.020 A 
ATOM      8  C   UNL d   1       0.030   8.452   0.011  0.00  0.00     0.089 A 
ATOM      9  C   UNL d   1       1.512  10.096  -1.678  0.00  0.00     0.083 A 
ATOM     10  C   UNL d   1       0.447  10.693  -0.848  0.00  0.00     0.288 A 
ATOM     11  O   UNL d   1      -0.241   9.834  -0.004  0.00  0.00    -0.275 OA
ATOM     12  O   UNL d   1       0.202  11.891  -0.912  0.00  0.00    -0.260 OA
ATOM     13  C   UNL d   1      -0.712   7.668   0.886  0.00  0.00     0.040 A 
ATOM     14  C   UNL d   1      -0.482   6.292   0.924  0.00  0.00     0.032 A 
ENDBRANCH   2   4
BRANCH   1  15
ATOM     15  C   UNL d   1      -0.019   2.016   0.260  0.00  0.00     0.016 A 
ATOM     16  C   UNL d   1      -1.084   1.148   0.528  0.00  0.00     0.099 A 
ATOM     17  C   UNL d   1      -0.861  -0.234   0.558  0.00  0.00     0.069 A 
ATOM     18 CL   UNL d   1      -2.163  -1.317   0.892  0.00  0.00    -0.081 Cl
ATOM     19  C   UNL d   1       0.409  -0.753   0.320  0.00  0.00     0.050 A 
ATOM     20  C   UNL d   1       1.464   0.119   0.054  0.00  0.00     0.036 A 
ATOM     21  C   UNL d   1       1.259   1.498   0.025  0.00  0.00     0.039 A 
ATOM     22 CL   UNL d   1       3.035  -0.517  -0.243  0.00  0.00    -0.084 Cl
BRANCH  16  23
ATOM     23  O   UNL d   1      -2.334   1.656   0.768  0.00  0.00    -0.358 OA
ATOM     24  H   UNL d   1      -2.935   0.905   0.937  0.00  0.00     0.217 HD
ENDBRANCH  16  23
ENDBRANCH   1  15
TORSDOF 3
