REMARK  6 active torsions:
REMARK  status: ('A' for Active; 'I' for Inactive)
REMARK    1  A    between atoms: C_8  and  C_2 
REMARK    2  A    between atoms: S_20  and  C_5 
REMARK    3  A    between atoms: C_12  and  C_21 
REMARK    4  A    between atoms: C_28  and  S_20 
REMARK    5  A    between atoms: C_22  and  C_28 
REMARK       I    between atoms: N_23  and  C_22 
REMARK    6  A    between atoms: C_32  and  N_23 
ROOT
ATOM      1  N   UNL d   1      -1.087  -0.734   0.515  0.00  0.00    -0.315 N 
ATOM      2  C   UNL d   1      -1.313   0.197  -0.481  0.00  0.00     0.134 C 
ATOM      3  N   UNL d   1      -0.141   0.518  -1.005  0.00  0.00    -0.283 N 
ATOM      4  HN  UNL d   1       0.020   1.252  -1.695  1.00  0.00     0.188 HD
ATOM      5  C   UNL d   1       0.232  -1.082   0.401  0.00  0.00     0.163 C 
ATOM      6  N   UNL d   1       0.822  -0.298  -0.467  0.00  0.00    -0.278 N 
ATOM      7  HN  UNL d   1       1.815  -0.296  -0.701  1.00  0.00     0.189 HD
ATOM      8  C   UNL d   1      -2.004  -1.211   1.517  0.00  0.00     0.160 C 
ENDROOT
BRANCH   5   9
ATOM      9  S   UNL d   1       0.962  -2.429   1.216  0.00  0.00    -0.083 SA
BRANCH   9  10
ATOM     10  C   UNL d   1       2.320  -2.747   0.050  0.00  0.00     0.185 C 
BRANCH  10  11
ATOM     11  C   UNL d   1       3.001  -4.093   0.233  0.00  0.00     0.231 C 
ATOM     12  N   UNL d   1       3.163  -4.516   1.538  0.00  0.00    -0.327 N 
ATOM     13  H   UNL d   1       2.587  -4.057   2.235  0.00  0.00     0.169 HD
ATOM     14  O   UNL d   1       3.428  -4.688  -0.759  0.00  0.00    -0.272 OA
BRANCH  12  15
ATOM     15  C   UNL d   1       3.989  -5.574   1.983  0.00  0.00     0.034 A 
ATOM     16  C   UNL d   1       4.960  -6.176   1.178  0.00  0.00     0.030 A 
ATOM     17  C   UNL d   1       5.800  -7.172   1.688  0.00  0.00     0.018 A 
ATOM     18  C   UNL d   1       5.684  -7.593   3.017  0.00  0.00     0.048 A 
ATOM     19  C   UNL d   1       4.695  -7.005   3.821  0.00  0.00     0.018 A 
ATOM     20  C   UNL d   1       3.862  -6.000   3.311  0.00  0.00     0.030 A 
BRANCH  18  21
ATOM     21  C   UNL d   1       6.610  -8.641   3.585  0.00  0.00     0.417 C 
ATOM     22  F   UNL d   1       7.538  -9.092   2.695  0.00  0.00    -0.166 F 
ATOM     23  F   UNL d   1       7.316  -8.182   4.656  0.00  0.00    -0.166 F 
ATOM     24  F   UNL d   1       5.944  -9.745   4.023  0.00  0.00    -0.166 F 
ENDBRANCH  18  21
ENDBRANCH  12  15
ENDBRANCH  10  11
ENDBRANCH   9  10
ENDBRANCH   5   9
BRANCH   2  25
ATOM     25  C   UNL d   1      -2.600   0.743  -0.938  0.00  0.00     0.012 A 
ATOM     26  C   UNL d   1      -2.647   2.101  -1.331  0.00  0.00     0.049 A 
ATOM     27  C   UNL d   1      -3.889   2.545  -1.827  0.00  0.00     0.086 A 
ATOM     28  N   UNL d   1      -4.242   3.755  -2.277  0.00  0.00    -0.240 N 
ATOM     29  C   UNL d   1      -5.045   1.668  -1.926  0.00  0.00     0.085 A 
ATOM     30  O   UNL d   1      -5.572   3.645  -2.651  0.00  0.00    -0.156 OA
ATOM     31  HN  UNL d   1      -3.654   4.587  -2.334  1.00  0.00     0.197 HD
ATOM     32  N   UNL d   1      -6.067   2.370  -2.428  0.00  0.00    -0.240 N 
ATOM     33  HN  UNL d   1      -7.014   2.036  -2.608  1.00  0.00     0.197 HD
ATOM     34  C   UNL d   1      -4.998   0.317  -1.542  0.00  0.00     0.035 A 
ATOM     35  C   UNL d   1      -3.740  -0.111  -1.066  0.00  0.00     0.018 A 
ENDBRANCH   2  25
TORSDOF 6
