REMARK  3 active torsions:
REMARK  status: ('A' for Active; 'I' for Inactive)
REMARK       I    between atoms: C_2  and  N_1 
REMARK       I    between atoms: C_3  and  N_1 
REMARK    1  A    between atoms: O_9  and  C_2 
REMARK    2  A    between atoms: C_6  and  C_3 
REMARK    3  A    between atoms: C_10  and  O_9 
ROOT
ATOM      1  N   UNL d   1       1.304   3.280  -0.373  0.00  0.00    -0.197 NA
ATOM      2  C   UNL d   1       2.151   2.498  -0.245  0.00  0.00     0.068 C 
ATOM      3  C   UNL d   1       3.148   1.449  -0.070  0.00  0.00     0.227 C 
ENDROOT
BRANCH   3   4
ATOM      4  C   UNL d   1       2.567   0.061   0.124  0.00  0.00     0.238 C 
ATOM      5  N   UNL d   1       1.196  -0.054   0.222  0.00  0.00    -0.272 N 
ATOM      6  C   UNL d   1       0.515  -1.230   0.076  0.00  0.00     0.367 C 
ATOM      7  H   UNL d   1       0.591   0.748   0.120  0.00  0.00     0.174 HD
ATOM      8  O   UNL d   1       0.967  -2.361   0.085  0.00  0.00    -0.238 OA
ATOM      9  O   UNL d   1       3.346  -0.885   0.241  0.00  0.00    -0.272 OA
BRANCH   6  10
ATOM     10  O   UNL d   1      -0.801  -0.929  -0.096  0.00  0.00    -0.304 OA
BRANCH  10  11
ATOM     11  C   UNL d   1      -1.658  -2.040  -0.407  0.00  0.00     0.176 C 
ATOM     12  C   UNL d   1      -1.716  -2.216  -1.913  0.00  0.00     0.034 C 
ENDBRANCH  10  11
ENDBRANCH   6  10
ENDBRANCH   3   4
TORSDOF 3
