REMARK  4 active torsions:
REMARK  status: ('A' for Active; 'I' for Inactive)
REMARK    1  A    between atoms: C_8  and  N_1 
REMARK    2  A    between atoms: C_2  and  C_4 
REMARK    3  A    between atoms: C_6  and  C_8 
REMARK    4  A    between atoms: O_16  and  C_7 
ROOT
ATOM      1  N   UNL d   1       1.212   0.037   0.720  0.00  0.00     0.092 N 
ATOM      2  C   UNL d   1      -1.614   0.186  -0.247  0.00  0.00     0.025 C 
ATOM      3  C   UNL d   1      -0.955   1.374   0.470  0.00  0.00     0.040 C 
ATOM      4  C   UNL d   1      -0.999  -1.103   0.293  0.00  0.00     0.040 C 
ATOM      5  C   UNL d   1       0.576   1.348   0.528  0.00  0.00     0.273 C 
ATOM      6  C   UNL d   1       0.511  -1.107   0.111  0.00  0.00     0.273 C 
ENDROOT
BRANCH   1   7
ATOM      7  C   UNL d   1       2.570   0.061   0.146  0.00  0.00     0.311 C 
BRANCH   7   8
ATOM      8  C   UNL d   1       3.684   0.597   1.015  0.00  0.00    -0.029 C 
ATOM      9  C   UNL d   1       4.721   1.297   0.380  0.00  0.00     0.021 C 
ATOM     10  C   UNL d   1       6.029   1.192   0.858  0.00  0.00    -0.025 A 
ATOM     11  C   UNL d   1       7.107   1.688   0.111  0.00  0.00     0.012 A 
ATOM     12  C   UNL d   1       6.272   0.453   2.037  0.00  0.00    -0.026 A 
ATOM     13  C   UNL d   1       8.413   1.336   0.444  0.00  0.00     0.001 A 
ATOM     14  C   UNL d   1       8.653   0.525   1.551  0.00  0.00     0.001 A 
ATOM     15  C   UNL d   1       7.594   0.125   2.369  0.00  0.00     0.012 A 
ATOM     16  C   UNL d   1       5.188  -0.012   2.797  0.00  0.00     0.013 C 
ATOM     17  C   UNL d   1       3.894   0.052   2.284  0.00  0.00     0.010 C 
ENDBRANCH   7   8
ENDBRANCH   1   7
BRANCH   2  18
ATOM     18  C   UNL d   1      -1.650   0.211  -1.781  0.00  0.00    -0.021 A 
ATOM     19  C   UNL d   1      -2.779  -0.276  -2.469  0.00  0.00     0.074 A 
ATOM     20  C   UNL d   1      -2.793  -0.316  -3.875  0.00  0.00     0.037 A 
ATOM     21  C   UNL d   1      -1.698   0.143  -4.615  0.00  0.00     0.003 A 
ATOM     22  C   UNL d   1      -0.582   0.624  -3.950  0.00  0.00     0.001 A 
ATOM     23  C   UNL d   1      -0.562   0.653  -2.553  0.00  0.00     0.010 A 
BRANCH  19  24
ATOM     24  O   UNL d   1      -3.820  -0.741  -1.711  0.00  0.00    -0.355 OA
ATOM     25  C   UNL d   1      -5.113  -0.665  -2.297  0.00  0.00     0.210 C 
ENDBRANCH  19  24
ENDBRANCH   2  18
TORSDOF 4
