REMARK  3 active torsions:
REMARK  status: ('A' for Active; 'I' for Inactive)
REMARK    1  A    between atoms: C_3  and  C_1 
REMARK    2  A    between atoms: C_5  and  C_3 
REMARK    3  A    between atoms: O_11  and  C_6 
ROOT
ATOM      1  C   UNL d   1      -1.261   0.597  -0.840  0.00  0.00    -0.052 A 
ATOM      2  C   UNL d   1      -4.035   0.304  -0.437  0.00  0.00     0.068 A 
ATOM      3  C   UNL d   1      -1.859  -0.669  -0.880  0.00  0.00     0.010 A 
ATOM      4  C   UNL d   1      -2.072   1.718  -0.624  0.00  0.00     0.010 A 
ATOM      5  C   UNL d   1      -3.444   1.568  -0.411  0.00  0.00     0.037 A 
ATOM      6  C   UNL d   1      -3.239  -0.816  -0.677  0.00  0.00     0.037 A 
ENDROOT
BRANCH   1   7
ATOM      7  C   UNL d   1       0.234   0.757  -0.997  0.00  0.00     0.107 C 
BRANCH   7   8
ATOM      8  C   UNL d   1       0.686   0.890  -2.437  0.00  0.00     0.075 C 
ATOM      9  S   UNL d   1       0.870   2.358  -3.208  0.00  0.00    -0.066 SA
ATOM     10  N   UNL d   1       0.987  -0.265  -3.099  0.00  0.00    -0.393 N 
ATOM     11  H   UNL d   1       1.289  -0.213  -4.065  0.00  0.00     0.156 HD
ATOM     12  H   UNL d   1       0.844  -1.183  -2.699  0.00  0.00     0.156 HD
ENDBRANCH   7   8
ENDBRANCH   1   7
BRANCH   2  13
ATOM     13  O   UNL d   1      -5.375   0.288  -0.168  0.00  0.00    -0.356 OA
ATOM     14  C   UNL d   1      -6.101  -0.839  -0.642  0.00  0.00     0.210 C 
ENDBRANCH   2  13
TORSDOF 3
