REMARK  3 active torsions:
REMARK  status: ('A' for Active; 'I' for Inactive)
REMARK    1  A    between atoms: C_10  and  C_2 
REMARK       I    between atoms: N_15  and  C_10 
REMARK    2  A    between atoms: N_13  and  N_15 
REMARK    3  A    between atoms: C_18  and  C_17 
ROOT
ATOM      1  C   UNL d   1      -3.487  -1.482  -0.037  0.00  0.00     0.270 C 
ATOM      2  N   UNL d   1      -3.511  -2.866  -0.000  0.00  0.00    -0.266 N 
ATOM      3  O   UNL d   1      -4.541  -0.852  -0.126  0.00  0.00    -0.266 OA
ATOM      4  H   UNL d   1      -4.426  -3.300  -0.064  0.00  0.00     0.190 HD
ENDROOT
BRANCH   1   5
ATOM      5  C   UNL d   1      -2.192  -0.736   0.064  0.00  0.00     0.036 A 
ATOM      6  C   UNL d   1      -0.992  -1.263  -0.458  0.00  0.00     0.051 A 
ATOM      7  C   UNL d   1       0.151  -0.472  -0.243  0.00  0.00     0.086 A 
ATOM      8  C   UNL d   1       0.093   0.824   0.414  0.00  0.00     0.085 A 
ATOM      9  N   UNL d   1       1.425  -0.721  -0.570  0.00  0.00    -0.240 N 
ATOM     10  N   UNL d   1       1.332   1.325   0.465  0.00  0.00    -0.240 N 
ATOM     11  C   UNL d   1      -1.113   1.376   0.879  0.00  0.00     0.035 A 
ATOM     12  O   UNL d   1       2.147   0.376  -0.131  0.00  0.00    -0.156 OA
ATOM     13  HN  UNL d   1       1.619   2.221   0.860  1.00  0.00     0.197 HD
ATOM     14  C   UNL d   1      -2.243   0.552   0.685  0.00  0.00     0.019 A 
ATOM     15  HN  UNL d   1       1.788  -1.547  -1.045  1.00  0.00     0.197 HD
ENDBRANCH   1   5
BRANCH   2  16
ATOM     16  N   UNL d   1      -2.406  -3.621   0.197  0.00  0.00    -0.308 N 
ATOM     17  C   UNL d   1      -2.560  -4.906   0.189  0.00  0.00     0.118 C 
ATOM     18  HN  UNL d   1      -1.490  -3.196   0.345  1.00  0.00     0.186 HD
BRANCH  17  19
ATOM     19  C   UNL d   1      -1.383  -5.792   0.310  0.00  0.00    -0.019 A 
ATOM     20  C   UNL d   1      -0.098  -5.243   0.408  0.00  0.00     0.013 A 
ATOM     21  C   UNL d   1       1.016  -6.079   0.471  0.00  0.00     0.001 A 
ATOM     22  C   UNL d   1       0.847  -7.460   0.441  0.00  0.00     0.000 A 
ATOM     23  C   UNL d   1      -0.435  -8.010   0.352  0.00  0.00     0.001 A 
ATOM     24  C   UNL d   1      -1.555  -7.177   0.286  0.00  0.00     0.013 A 
ENDBRANCH  17  19
ENDBRANCH   2  16
TORSDOF 3
