REMARK  4 active torsions:
REMARK  status: ('A' for Active; 'I' for Inactive)
REMARK    1  A    between atoms: N_2  and  C_1 
REMARK    2  A    between atoms: N_4  and  C_1 
REMARK    3  A    between atoms: C_3  and  N_2 
REMARK    4  A    between atoms: N_10  and  N_4 
ROOT
ATOM      1  N   UNL d   1       0.436   1.109  -0.326  0.00  0.00    -0.332 N 
ATOM      2  H   UNL d   1       0.554   0.196  -0.733  0.00  0.00     0.168 HD
ENDROOT
BRANCH   1   3
ATOM      3  C   UNL d   1      -0.151   1.090   0.937  0.00  0.00     0.188 C 
ATOM      4  S   UNL d   1       0.267   2.117   2.217  0.00  0.00    -0.039 SA
BRANCH   3   5
ATOM      5  N   UNL d   1      -1.133   0.080   1.101  0.00  0.00    -0.295 N 
ATOM      6  C   UNL d   1      -1.530  -0.916   0.106  0.00  0.00     0.174 C 
BRANCH   5   7
ATOM      7  N   UNL d   1      -2.021   0.161   2.218  0.00  0.00    -0.246 NA
ATOM      8  H   UNL d   1      -2.266   1.153   2.339  0.00  0.00     0.143 HD
ATOM      9  H   UNL d   1      -1.467  -0.052   3.052  0.00  0.00     0.143 HD
ENDBRANCH   5   7
ENDBRANCH   3   5
ENDBRANCH   1   3
BRANCH   1  10
ATOM     10  C   UNL d   1       1.111   2.165  -0.994  0.00  0.00     0.040 A 
ATOM     11  C   UNL d   1       2.055   1.881  -2.004  0.00  0.00    -0.034 A 
ATOM     12  C   UNL d   1       2.740   2.952  -2.622  0.00  0.00     0.032 A 
ATOM     13  C   UNL d   1       2.467   0.494  -2.419  0.00  0.00     0.050 C 
ATOM     14  C   UNL d   1       2.460   4.273  -2.288  0.00  0.00     0.034 A 
ATOM     15  C   UNL d   1       1.477   4.555  -1.350  0.00  0.00     0.026 A 
ATOM     16 CL   UNL d   1       3.319   5.554  -3.045  0.00  0.00    -0.084 Cl
ATOM     17  C   UNL d   1       0.803   3.506  -0.721  0.00  0.00     0.032 A 
ENDBRANCH   1  10
TORSDOF 4
