REMARK  7 active torsions:
REMARK  status: ('A' for Active; 'I' for Inactive)
REMARK    1  A    between atoms: C_3  and  S_1 
REMARK    2  A    between atoms: C_5  and  S_1 
REMARK    3  A    between atoms: C_2  and  C_3 
REMARK    4  A    between atoms: C_4  and  C_2 
REMARK    5  A    between atoms: C_6  and  C_3 
REMARK    6  A    between atoms: C_8  and  C_4 
REMARK    7  A    between atoms: O_15  and  C_12 
ROOT
ATOM      1  C   UNL d   1       0.645   1.772  -0.172  0.00  0.00     0.092 C 
ENDROOT
BRANCH   1   2
ATOM      2  C   UNL d   1      -0.273   1.826  -1.413  0.00  0.00     0.104 C 
BRANCH   2   3
ATOM      3  C   UNL d   1      -1.634   1.179  -1.235  0.00  0.00     0.161 C 
ATOM      4  O   UNL d   1      -2.090   0.903  -0.128  0.00  0.00    -0.292 OA
BRANCH   3   5
ATOM      5  C   UNL d   1      -2.499   0.986  -2.446  0.00  0.00     0.010 A 
ATOM      6  C   UNL d   1      -2.054   1.272  -3.745  0.00  0.00     0.015 A 
ATOM      7  C   UNL d   1      -2.916   1.113  -4.835  0.00  0.00     0.001 A 
ATOM      8  C   UNL d   1      -4.222   0.673  -4.640  0.00  0.00     0.000 A 
ATOM      9  C   UNL d   1      -4.669   0.380  -3.351  0.00  0.00     0.001 A 
ATOM     10  C   UNL d   1      -3.809   0.536  -2.260  0.00  0.00     0.015 A 
ENDBRANCH   3   5
ENDBRANCH   2   3
ENDBRANCH   1   2
BRANCH   1  11
ATOM     11  S   UNL d   1       1.116  -0.002   0.275  0.00  0.00    -0.119 SA
BRANCH  11  12
ATOM     12  C   UNL d   1       1.854  -0.649  -1.224  0.00  0.00     0.007 C 
ATOM     13  C   UNL d   1       3.240  -0.740  -1.448  0.00  0.00    -0.045 C 
ATOM     14  C   UNL d   1       4.293  -0.469  -0.408  0.00  0.00     0.049 C 
ATOM     15  C   UNL d   1       3.703  -1.169  -2.707  0.00  0.00     0.008 C 
ATOM     16  C   UNL d   1       2.819  -1.620  -3.684  0.00  0.00     0.001 C 
ATOM     17  C   UNL d   1       1.459  -1.667  -3.407  0.00  0.00     0.001 C 
ATOM     18  C   UNL d   1       0.983  -1.187  -2.187  0.00  0.00     0.019 C 
ENDBRANCH  11  12
ENDBRANCH   1  11
BRANCH   1  19
ATOM     19  C   UNL d   1       1.846   2.737  -0.258  0.00  0.00    -0.043 C 
ATOM     20  C   UNL d   1       1.768   3.951  -0.969  0.00  0.00     0.011 C 
ATOM     21  C   UNL d   1       2.865   4.817  -1.084  0.00  0.00     0.037 C 
ATOM     22  C   UNL d   1       4.072   4.496  -0.480  0.00  0.00     0.068 C 
ATOM     23  C   UNL d   1       4.142   3.364   0.322  0.00  0.00     0.037 C 
ATOM     24  C   UNL d   1       3.035   2.515   0.452  0.00  0.00     0.011 C 
BRANCH  22  25
ATOM     25  O   UNL d   1       5.212   5.245  -0.561  0.00  0.00    -0.356 OA
ATOM     26  C   UNL d   1       5.376   5.949  -1.789  0.00  0.00     0.210 C 
ENDBRANCH  22  25
ENDBRANCH   1  19
TORSDOF 7
