REMARK  4 active torsions:
REMARK  status: ('A' for Active; 'I' for Inactive)
REMARK    1  A    between atoms: C_7  and  N_1 
REMARK    2  A    between atoms: C_9  and  C_2 
REMARK    3  A    between atoms: C_10  and  C_5 
REMARK    4  A    between atoms: O_12  and  C_6 
ROOT
ATOM      1  N   UNL d   1      -0.636   1.223   0.020  0.00  0.00    -0.276 N 
ATOM      2  C   UNL d   1      -0.664  -1.250   0.018  0.00  0.00     0.077 A 
ATOM      3  C   UNL d   1      -1.414   0.050   0.028  0.00  0.00     0.266 A 
ATOM      4  C   UNL d   1       1.432   0.014   0.040  0.00  0.00     0.073 A 
ATOM      5  C   UNL d   1       0.766   1.191   0.034  0.00  0.00     0.073 A 
ATOM      6  C   UNL d   1       0.680  -1.233   0.018  0.00  0.00     0.102 A 
ATOM      7  O   UNL d   1      -2.647   0.036   0.043  0.00  0.00    -0.267 OA
ATOM      8 BR   UNL d   1       3.316  -0.133   0.082  0.00  0.00    -0.046 Br
ENDROOT
BRANCH   1   9
ATOM      9  C   UNL d   1      -1.367   2.447   0.008  0.00  0.00     0.043 A 
ATOM     10  C   UNL d   1      -1.739   3.051   1.215  0.00  0.00     0.030 A 
ATOM     11  C   UNL d   1      -2.502   4.220   1.200  0.00  0.00     0.002 A 
ATOM     12  C   UNL d   1      -2.894   4.783  -0.015  0.00  0.00     0.000 A 
ATOM     13  C   UNL d   1      -2.527   4.179  -1.218  0.00  0.00     0.002 A 
ATOM     14  C   UNL d   1      -1.766   3.009  -1.209  0.00  0.00     0.030 A 
ENDBRANCH   1   9
BRANCH   5  15
ATOM     15  C   UNL d   1       1.526   2.465   0.051  0.00  0.00    -0.007 A 
ATOM     16  C   UNL d   1       1.944   3.059  -1.148  0.00  0.00     0.014 A 
ATOM     17  C   UNL d   1       2.748   4.200  -1.125  0.00  0.00     0.001 A 
ATOM     18  C   UNL d   1       3.137   4.756   0.093  0.00  0.00     0.000 A 
ATOM     19  C   UNL d   1       2.715   4.180   1.290  0.00  0.00     0.001 A 
ATOM     20  C   UNL d   1       1.913   3.038   1.271  0.00  0.00     0.014 A 
ENDBRANCH   5  15
BRANCH   2  21
ATOM     21  C   UNL d   1      -1.393  -2.532  -0.000  0.00  0.00    -0.018 A 
ATOM     22  C   UNL d   1      -1.737  -3.169   1.200  0.00  0.00     0.012 A 
ATOM     23  C   UNL d   1      -2.380  -4.408   1.181  0.00  0.00     0.001 A 
ATOM     24  C   UNL d   1      -2.685  -5.018  -0.035  0.00  0.00     0.000 A 
ATOM     25  C   UNL d   1      -2.352  -4.388  -1.234  0.00  0.00     0.001 A 
ATOM     26  C   UNL d   1      -1.708  -3.149  -1.218  0.00  0.00     0.012 A 
ENDBRANCH   2  21
BRANCH   6  27
ATOM     27  O   UNL d   1       1.406  -2.416  -0.007  0.00  0.00    -0.358 OA
ATOM     28  H   UNL d   1       2.355  -2.195  -0.017  0.00  0.00     0.217 HD
ENDBRANCH   6  27
TORSDOF 4
