REMARK  6 active torsions:
REMARK  status: ('A' for Active; 'I' for Inactive)
REMARK    1  A    between atoms: C_6  and  S_1 
REMARK    2  A    between atoms: C_8  and  S_1 
REMARK    3  A    between atoms: C_2  and  C_13 
REMARK    4  A    between atoms: C_18  and  C_8 
REMARK    5  A    between atoms: C_13  and  S_14 
REMARK    6  A    between atoms: S_14  and  C_18 
ROOT
ATOM      1  C   UNL d   1       0.943  -1.217  -2.548  0.00  0.00     0.089 C 
ENDROOT
BRANCH   1   2
ATOM      2  S   UNL d   1       0.074  -2.452  -3.576  0.00  0.00    -0.164 SA
BRANCH   2   3
ATOM      3  C   UNL d   1       0.833  -2.100  -5.200  0.00  0.00     0.114 C 
BRANCH   3   4
ATOM      4  C   UNL d   1       0.232  -2.998  -6.247  0.00  0.00    -0.031 A 
ATOM      5  C   UNL d   1       0.731  -4.247  -6.567  0.00  0.00     0.059 A 
ATOM      6  S   UNL d   1      -0.169  -5.034  -7.779  0.00  0.00    -0.101 SA
ATOM      7  C   UNL d   1      -1.262  -3.717  -7.927  0.00  0.00     0.015 A 
ATOM      8  C   UNL d   1      -0.937  -2.679  -7.046  0.00  0.00    -0.011 A 
ATOM      9  C   UNL d   1      -2.366  -3.631  -8.801  0.00  0.00     0.019 A 
ATOM     10  C   UNL d   1      -1.765  -1.526  -7.059  0.00  0.00     0.013 A 
ATOM     11  C   UNL d   1      -2.856  -1.435  -7.929  0.00  0.00     0.001 A 
ATOM     12  C   UNL d   1      -3.153  -2.478  -8.791  0.00  0.00     0.001 A 
ENDBRANCH   3   4
ENDBRANCH   2   3
ENDBRANCH   1   2
BRANCH   1  13
ATOM     13  C   UNL d   1       0.447  -1.347  -1.113  0.00  0.00     0.156 C 
BRANCH  13  14
ATOM     14  S   UNL d   1       1.257  -0.167  -0.063  0.00  0.00     0.176 S 
ATOM     15  O   UNL d   1       2.668  -0.496  -0.019  0.00  0.00    -0.223 OA
ATOM     16  O   UNL d   1       0.823   1.161  -0.462  0.00  0.00    -0.223 OA
BRANCH  14  17
ATOM     17  C   UNL d   1       0.589  -0.481   1.561  0.00  0.00     0.059 A 
ATOM     18  C   UNL d   1       1.221  -1.408   2.394  0.00  0.00     0.024 A 
ATOM     19  C   UNL d   1       0.775  -1.573   3.708  0.00  0.00     0.008 A 
ATOM     20  C   UNL d   1      -0.291  -0.808   4.201  0.00  0.00    -0.062 A 
ATOM     21  C   UNL d   1      -0.925   0.107   3.351  0.00  0.00     0.008 A 
ATOM     22  C   UNL d   1      -0.713  -0.955   5.636  0.00  0.00     0.048 C 
ATOM     23  C   UNL d   1      -0.485   0.276   2.034  0.00  0.00     0.024 A 
ENDBRANCH  14  17
ENDBRANCH  13  14
ENDBRANCH   1  13
TORSDOF 6
