REMARK  6 active torsions:
REMARK  status: ('A' for Active; 'I' for Inactive)
REMARK    1  A    between atoms: N_3  and  C_1 
REMARK    2  A    between atoms: N_6  and  C_1 
REMARK       I    between atoms: C_2  and  N_5 
REMARK    3  A    between atoms: C_9  and  C_2 
REMARK    4  A    between atoms: C_4  and  N_3 
REMARK    5  A    between atoms: N_5  and  N_6 
REMARK    6  A    between atoms: O_21  and  C_16 
ROOT
ATOM      1  N   UNL d   1       0.049  -0.209  -1.081  0.00  0.00    -0.273 N 
ATOM      2  H   UNL d   1       0.352   0.169  -1.974  0.00  0.00     0.189 HD
ENDROOT
BRANCH   1   3
ATOM      3  N   UNL d   1      -1.213  -0.795  -1.015  0.00  0.00    -0.264 N 
ATOM      4  C   UNL d   1      -1.847  -1.360  -2.107  0.00  0.00     0.270 C 
ATOM      5  O   UNL d   1      -3.074  -1.422  -2.127  0.00  0.00    -0.266 OA
ATOM      6  H   UNL d   1      -1.846  -0.396  -0.326  0.00  0.00     0.190 HD
BRANCH   4   7
ATOM      7  C   UNL d   1      -1.065  -1.859  -3.276  0.00  0.00     0.033 A 
ATOM      8  C   UNL d   1       0.262  -2.293  -3.181  0.00  0.00     0.020 A 
ATOM      9  C   UNL d   1       0.965  -2.690  -4.326  0.00  0.00     0.038 A 
ATOM     10  C   UNL d   1       0.334  -2.700  -5.570  0.00  0.00     0.068 A 
ATOM     11  C   UNL d   1      -1.011  -2.333  -5.655  0.00  0.00     0.038 A 
ATOM     12  C   UNL d   1      -1.707  -1.913  -4.519  0.00  0.00     0.020 A 
BRANCH  10  13
ATOM     13  O   UNL d   1       0.908  -3.051  -6.760  0.00  0.00    -0.356 OA
ATOM     14  C   UNL d   1       2.291  -3.380  -6.735  0.00  0.00     0.210 C 
ENDBRANCH  10  13
ENDBRANCH   4   7
ENDBRANCH   1   3
BRANCH   1  15
ATOM     15  C   UNL d   1       0.904  -0.165   0.002  0.00  0.00     0.191 C 
ATOM     16  S   UNL d   1       0.717  -1.022   1.422  0.00  0.00    -0.039 SA
BRANCH  15  17
ATOM     17  N   UNL d   1       2.026   0.620  -0.171  0.00  0.00    -0.332 N 
ATOM     18  H   UNL d   1       2.786   0.420   0.472  0.00  0.00     0.168 HD
BRANCH  17  19
ATOM     19  C   UNL d   1       2.139   1.781  -0.968  0.00  0.00     0.040 A 
ATOM     20  C   UNL d   1       3.394   2.225  -1.407  0.00  0.00    -0.034 A 
ATOM     21  C   UNL d   1       3.461   3.400  -2.184  0.00  0.00     0.032 A 
ATOM     22  C   UNL d   1       4.689   1.512  -1.127  0.00  0.00     0.050 C 
ATOM     23  C   UNL d   1       2.303   4.111  -2.511  0.00  0.00     0.034 A 
ATOM     24  C   UNL d   1       1.067   3.687  -2.055  0.00  0.00     0.026 A 
ATOM     25 CL   UNL d   1       2.412   5.529  -3.479  0.00  0.00    -0.084 Cl
ATOM     26  C   UNL d   1       0.989   2.534  -1.274  0.00  0.00     0.032 A 
ENDBRANCH  17  19
ENDBRANCH  15  17
ENDBRANCH   1  15
TORSDOF 6
