REMARK  3 active torsions:
REMARK  status: ('A' for Active; 'I' for Inactive)
REMARK       I    between atoms: N_3  and  C_1 
REMARK    1  A    between atoms: C_4  and  C_1 
REMARK    2  A    between atoms: N_2  and  C_4 
REMARK    3  A    between atoms: C_6  and  N_3 
ROOT
ATOM      1  C   UNL d   1       1.150   0.148   0.123  0.00  0.00     0.250 C 
ATOM      2  N   UNL d   1       0.757  -1.134   0.468  0.00  0.00    -0.326 N 
ATOM      3  O   UNL d   1       2.207   0.688   0.453  0.00  0.00    -0.271 OA
ATOM      4  H   UNL d   1      -0.075  -1.472  -0.010  0.00  0.00     0.169 HD
ENDROOT
BRANCH   1   5
ATOM      5  C   UNL d   1       0.198   0.884  -0.821  0.00  0.00     0.374 C 
BRANCH   5   6
ATOM      6  N   UNL d   1      -1.240   0.578  -0.596  0.00  0.00     0.097 N 
ATOM      7  C   UNL d   1      -1.670   0.995   0.755  0.00  0.00     0.273 C 
ATOM      8  C   UNL d   1      -3.153   0.683   0.972  0.00  0.00     0.030 C 
ATOM      9  C   UNL d   1      -4.026   1.358  -0.079  0.00  0.00     0.003 C 
ATOM     10  C   UNL d   1      -3.518   1.045  -1.480  0.00  0.00     0.030 C 
ATOM     11  C   UNL d   1      -2.022   1.328  -1.604  0.00  0.00     0.273 C 
ENDBRANCH   5   6
ENDBRANCH   1   5
BRANCH   2  12
ATOM     12  C   UNL d   1       1.389  -1.977   1.404  0.00  0.00     0.034 A 
ATOM     13  C   UNL d   1       2.380  -1.527   2.282  0.00  0.00     0.031 A 
ATOM     14  C   UNL d   1       2.984  -2.397   3.197  0.00  0.00     0.020 A 
ATOM     15  C   UNL d   1       2.601  -3.731   3.237  0.00  0.00     0.006 A 
ATOM     16  C   UNL d   1       1.605  -4.198   2.381  0.00  0.00     0.020 A 
ATOM     17  I   UNL d   1       3.517  -5.022   4.582  0.00  0.00    -0.045 I 
ATOM     18  C   UNL d   1       0.993  -3.319   1.474  0.00  0.00     0.031 A 
ENDBRANCH   2  12
TORSDOF 3
