REMARK  2 active torsions:
REMARK  status: ('A' for Active; 'I' for Inactive)
REMARK    1  A    between atoms: N_2  and  C_1 
REMARK    2  A    between atoms: N_5  and  C_3 
REMARK       I    between atoms: C_9  and  N_5 
ROOT
ATOM      1  C   UNL d   1       2.389   1.457  -0.059  0.00  0.00     0.131 A 
ATOM      2  C   UNL d   1       3.133   0.273   0.059  0.00  0.00     0.068 A 
ATOM      3  C   UNL d   1       0.985   1.443  -0.076  0.00  0.00     0.058 A 
ATOM      4  C   UNL d   1       0.305   0.223  -0.023  0.00  0.00     0.019 A 
ATOM      5  C   UNL d   1       2.428  -0.936   0.108  0.00  0.00     0.040 A 
ATOM      6  C   UNL d   1       1.018  -0.984   0.056  0.00  0.00    -0.042 A 
ATOM      7 BR   UNL d   1      -1.590   0.299  -0.058  0.00  0.00    -0.050 Br
ATOM      8  C   UNL d   1       0.380  -2.348   0.057  0.00  0.00     0.049 C 
ENDROOT
BRANCH   2   9
ATOM      9  N   UNL d   1       4.550   0.291   0.107  0.00  0.00    -0.325 N 
ATOM     10  C   UNL d   1       5.319  -0.596   0.836  0.00  0.00     0.218 C 
ATOM     11  O   UNL d   1       4.886  -1.464   1.588  0.00  0.00    -0.274 OA
ATOM     12  C   UNL d   1       6.800  -0.358   0.692  0.00  0.00     0.117 C 
ATOM     13  H   UNL d   1       5.014   1.142  -0.216  0.00  0.00     0.169 HD
ENDBRANCH   2   9
BRANCH   1  14
ATOM     14  N   UNL d   1       3.052   2.751  -0.069  0.00  0.00    -0.113 N 
ATOM     15  O   UNL d   1       4.101   2.845  -0.731  0.00  0.00    -0.532 OA
ATOM     16  O   UNL d   1       2.545   3.663   0.593  0.00  0.00    -0.532 OA
ENDBRANCH   1  14
TORSDOF 2
