REMARK  3 active torsions:
REMARK  status: ('A' for Active; 'I' for Inactive)
REMARK    1  A    between atoms: C_10  and  C_4 
REMARK       I    between atoms: C_7  and  N_9 
REMARK    2  A    between atoms: C_11  and  C_7 
REMARK    3  A    between atoms: N_9  and  C_17 
ROOT
ATOM      1  C   UNL d   1       3.681  -0.722  -0.291  0.00  0.00    -0.008 A 
ATOM      2  C   UNL d   1       4.563  -0.089   0.590  0.00  0.00     0.016 A 
ATOM      3  C   UNL d   1       4.185  -1.735  -1.113  0.00  0.00     0.016 A 
ATOM      4  C   UNL d   1       6.406  -1.495  -0.160  0.00  0.00     0.035 A 
ATOM      5  C   UNL d   1       5.914  -0.467   0.653  0.00  0.00     0.030 A 
ATOM      6  C   UNL d   1       5.530  -2.117  -1.047  0.00  0.00     0.030 A 
ENDROOT
BRANCH   4   7
ATOM      7  N   UNL d   1       7.768  -1.850  -0.029  0.00  0.00    -0.323 N 
ATOM      8  C   UNL d   1       8.427  -2.861  -0.709  0.00  0.00     0.256 C 
ATOM      9  O   UNL d   1       7.952  -3.599  -1.566  0.00  0.00    -0.267 OA
ATOM     10  H   UNL d   1       8.308  -1.279   0.607  0.00  0.00     0.169 HD
BRANCH   8  11
ATOM     11  C   UNL d   1       9.868  -3.043  -0.376  0.00  0.00     0.032 A 
ATOM     12  C   UNL d   1      10.383  -2.801   0.905  0.00  0.00     0.020 A 
ATOM     13  C   UNL d   1      11.743  -3.009   1.157  0.00  0.00     0.043 A 
ATOM     14  C   UNL d   1      12.574  -3.465   0.137  0.00  0.00     0.116 A 
ATOM     15  C   UNL d   1      12.073  -3.728  -1.132  0.00  0.00     0.043 A 
ATOM     16  F   UNL d   1      13.874  -3.664   0.387  0.00  0.00    -0.206 F 
ATOM     17  C   UNL d   1      10.717  -3.521  -1.388  0.00  0.00     0.020 A 
ENDBRANCH   8  11
ENDBRANCH   4   7
BRANCH   1  18
ATOM     18  C   UNL d   1       2.276  -0.337  -0.332  0.00  0.00     0.060 A 
ATOM     19  N   UNL d   1       1.721   0.624   0.505  0.00  0.00    -0.335 N 
ATOM     20  C   UNL d   1       0.467   0.659   0.153  0.00  0.00     0.147 A 
ATOM     21  HN  UNL d   1       2.186   1.174   1.227  1.00  0.00     0.168 HD
ATOM     22  N   UNL d   1       0.183  -0.206  -0.848  0.00  0.00    -0.335 N 
ATOM     23  S   UNL d   1      -0.908   1.535   0.688  0.00  0.00    -0.092 SA
ATOM     24  C   UNL d   1       1.313  -0.864  -1.186  0.00  0.00     0.123 A 
ATOM     25  C   UNL d   1      -1.165  -0.223  -1.363  0.00  0.00     0.141 C 
ATOM     26  C   UNL d   1      -2.035   0.481  -0.318  0.00  0.00     0.102 C 
ENDBRANCH   1  18
TORSDOF 3
