REMARK  8 active torsions:
REMARK  status: ('A' for Active; 'I' for Inactive)
REMARK    1  A    between atoms: N_2  and  C_1 
REMARK    2  A    between atoms: N_4  and  C_1 
REMARK    3  A    between atoms: C_5  and  N_2 
REMARK    4  A    between atoms: C_13  and  N_4 
REMARK    5  A    between atoms: N_7  and  C_14 
REMARK    6  A    between atoms: C_15  and  N_7 
REMARK    7  A    between atoms: C_16  and  N_7 
REMARK    8  A    between atoms: C_14  and  C_13 
ROOT
ATOM      1  C   UNL d   1       1.806   0.308  -1.021  0.00  0.00     0.172 C 
ATOM      2  S   UNL d   1       0.520   1.368  -1.085  0.00  0.00    -0.041 SA
ENDROOT
BRANCH   1   3
ATOM      3  N   UNL d   1       2.235  -0.623  -1.938  0.00  0.00    -0.333 N 
ATOM      4  H   UNL d   1       3.088  -1.086  -1.665  0.00  0.00     0.168 HD
BRANCH   3   5
ATOM      5  C   UNL d   1       1.865  -0.868  -3.284  0.00  0.00     0.034 A 
ATOM      6  C   UNL d   1       2.800  -1.576  -4.064  0.00  0.00     0.032 A 
ATOM      7  C   UNL d   1       2.592  -1.789  -5.427  0.00  0.00     0.044 A 
ATOM      8  C   UNL d   1       1.426  -1.325  -6.016  0.00  0.00     0.116 A 
ATOM      9  C   UNL d   1       0.469  -0.667  -5.267  0.00  0.00     0.044 A 
ATOM     10  F   UNL d   1       1.227  -1.521  -7.330  0.00  0.00    -0.206 F 
ATOM     11  C   UNL d   1       0.684  -0.440  -3.900  0.00  0.00     0.032 A 
ENDBRANCH   3   5
ENDBRANCH   1   3
BRANCH   1  12
ATOM     12  N   UNL d   1       2.605   0.428   0.091  0.00  0.00    -0.365 N 
ATOM     13  H   UNL d   1       2.285   1.178   0.699  0.00  0.00     0.161 HD
BRANCH  12  14
ATOM     14  C   UNL d   1       3.364  -0.618   0.764  0.00  0.00     0.152 C 
BRANCH  14  15
ATOM     15  C   UNL d   1       4.861  -0.684   0.389  0.00  0.00     0.292 C 
BRANCH  15  16
ATOM     16  N   UNL d   1       5.606  -1.733   1.127  0.00  0.00     0.089 N 
BRANCH  16  17
ATOM     17  C   UNL d   1       5.044  -3.084   0.976  0.00  0.00     0.268 C 
ATOM     18  C   UNL d   1       5.098  -3.676  -0.429  0.00  0.00     0.037 C 
ENDBRANCH  16  17
BRANCH  16  19
ATOM     19  C   UNL d   1       7.048  -1.652   0.829  0.00  0.00     0.268 C 
ATOM     20  C   UNL d   1       7.910  -2.607   1.654  0.00  0.00     0.037 C 
ENDBRANCH  16  19
ENDBRANCH  15  16
ENDBRANCH  14  15
ENDBRANCH  12  14
ENDBRANCH   1  12
TORSDOF 8
