REMARK  5 active torsions:
REMARK  status: ('A' for Active; 'I' for Inactive)
REMARK    1  A    between atoms: C_5  and  C_1 
REMARK    2  A    between atoms: CA_3  and  C_7 
REMARK    3  A    between atoms: OXT_13  and  C_7 
REMARK    4  A    between atoms: O_17  and  C_8 
REMARK    5  A    between atoms: O_18  and  C_12 
ROOT
ATOM      1  C   UNL d   1      -1.691  -0.159   0.142  0.00  0.00     0.319 C 
ATOM      2  N   UNL d   1      -1.294   1.266   0.162  0.00  0.00     0.118 N 
ATOM      3  CA  UNL d   1      -0.067   1.366  -0.702  0.00  0.00     0.336 C 
ATOM      4  S   UNL d   1      -0.162  -1.149   0.006  0.00  0.00    -0.117 SA
ATOM      5  C   UNL d   1       0.943   0.287  -0.273  0.00  0.00     0.044 C 
ATOM      6  C   UNL d   1       1.695   0.591   1.030  0.00  0.00     0.029 C 
ATOM      7  C   UNL d   1       1.929  -0.075  -1.386  0.00  0.00     0.029 C 
ATOM      8  H   UNL d   1      -1.010   1.450   1.128  0.00  0.00     0.319 HD
ENDROOT
BRANCH   1   9
ATOM      9  C   UNL d   1      -2.581  -0.511   1.325  0.00  0.00     0.021 A 
ATOM     10  C   UNL d   1      -3.987  -0.480   1.275  0.00  0.00     0.077 A 
ATOM     11  C   UNL d   1      -4.745  -0.878   2.393  0.00  0.00     0.040 A 
ATOM     12  C   UNL d   1      -4.127  -1.329   3.561  0.00  0.00     0.039 A 
ATOM     13  C   UNL d   1      -2.744  -1.385   3.631  0.00  0.00     0.069 A 
ATOM     14  C   UNL d   1      -1.987  -0.927   2.547  0.00  0.00     0.049 A 
BRANCH  10  15
ATOM     15  O   UNL d   1      -4.777  -0.224   0.187  0.00  0.00    -0.355 OA
ATOM     16  C   UNL d   1      -4.494   0.930  -0.591  0.00  0.00     0.210 C 
ENDBRANCH  10  15
BRANCH  13  17
ATOM     17  O   UNL d   1      -2.031  -1.857   4.699  0.00  0.00    -0.356 OA
ATOM     18  C   UNL d   1      -2.681  -2.880   5.452  0.00  0.00     0.210 C 
ENDBRANCH  13  17
ENDBRANCH   1   9
BRANCH   3  19
ATOM     19  C   UNL d   1       0.477   2.801  -0.620  0.00  0.00     0.175 C 
ATOM     20  O   UNL d   1       1.633   3.138  -0.795  0.00  0.00    -0.648 OA
BRANCH  19  21
ATOM     21  OXT UNL d   1      -0.521   3.691  -0.362  0.00  0.00    -0.775 OA
ATOM     22  HXT UNL d   1      -1.360   3.186  -0.246  0.00  0.00     0.167 HD
ENDBRANCH  19  21
ENDBRANCH   3  19
TORSDOF 5
