REMARK  6 active torsions:
REMARK  status: ('A' for Active; 'I' for Inactive)
REMARK    1  A    between atoms: O_4  and  C_1 
REMARK    2  A    between atoms: C_10  and  O_4 
REMARK    3  A    between atoms: C_5  and  C_11 
REMARK    4  A    between atoms: N_12  and  C_5 
REMARK    5  A    between atoms: O_18  and  N_8 
REMARK    6  A    between atoms: C_11  and  C_15 
ROOT
ATOM      1  C   UNL d   1      -8.925  -3.624  -5.084  0.00  0.00     0.076 C 
ATOM      2  C   UNL d   1      -7.779  -4.468  -2.677  0.00  0.00    -0.051 C 
ATOM      3  C   UNL d   1      -7.928  -2.851  -4.484  0.00  0.00     0.038 C 
ATOM      4  C   UNL d   1      -9.449  -4.730  -4.417  0.00  0.00     0.038 C 
ATOM      5  C   UNL d   1      -8.876  -5.153  -3.218  0.00  0.00     0.010 C 
ATOM      6  C   UNL d   1      -7.333  -3.293  -3.298  0.00  0.00     0.010 C 
ENDROOT
BRANCH   1   7
ATOM      7  O   UNL d   1      -9.419  -3.398  -6.348  0.00  0.00    -0.307 OA
BRANCH   7   8
ATOM      8  C   UNL d   1      -8.559  -2.974  -7.342  0.00  0.00     0.122 A 
ATOM      9  C   UNL d   1      -7.262  -3.463  -7.562  0.00  0.00     0.085 A 
ATOM     10 CL   UNL d   1      -6.558  -4.808  -6.736  0.00  0.00    -0.080 Cl
ATOM     11  C   UNL d   1      -6.502  -2.874  -8.568  0.00  0.00     0.114 A 
ATOM     12  N   UNL d   1      -6.955  -1.913  -9.405  0.00  0.00    -0.372 N 
ATOM     13  C   UNL d   1      -8.243  -1.536  -9.239  0.00  0.00     0.114 A 
ATOM     14  HN  UNL d   1      -6.359  -1.497 -10.120  1.00  0.00     0.164 HD
ATOM     15  C   UNL d   1      -9.071  -2.025  -8.238  0.00  0.00     0.085 A 
ATOM     16 CL   UNL d   1     -10.700  -1.465  -8.156  0.00  0.00    -0.080 Cl
ENDBRANCH   7   8
ENDBRANCH   1   7
BRANCH   2  17
ATOM     17  C   UNL d   1      -7.049  -5.032  -1.481  0.00  0.00     0.110 C 
BRANCH  17  18
ATOM     18  C   UNL d   1      -5.971  -6.066  -1.816  0.00  0.00     0.079 C 
ATOM     19  N   UNL d   1      -5.016  -6.226  -0.944  0.00  0.00    -0.262 N 
ATOM     20  HN  UNL d   1      -4.937  -5.707  -0.069  1.00  0.00     0.195 HD
BRANCH  19  21
ATOM     21  O   UNL d   1      -4.109  -7.211  -1.372  0.00  0.00    -0.289 OA
ATOM     22  H   UNL d   1      -3.522  -7.296  -0.595  0.00  0.00     0.244 HD
ENDBRANCH  19  21
BRANCH  18  23
ATOM     23  N   UNL d   1      -6.045  -6.812  -2.971  0.00  0.00    -0.290 NA
ATOM     24  H   UNL d   1      -6.418  -6.336  -3.785  0.00  0.00     0.125 HD
ATOM     25  H   UNL d   1      -5.170  -7.287  -3.149  0.00  0.00     0.125 HD
ENDBRANCH  18  23
ENDBRANCH  17  18
ENDBRANCH   2  17
TORSDOF 6
