REMARK  5 active torsions:
REMARK  status: ('A' for Active; 'I' for Inactive)
REMARK    1  A    between atoms: C_10  and  N_1 
REMARK    2  A    between atoms: C_3  and  C_7 
REMARK    3  A    between atoms: C_8  and  N_13 
REMARK    4  A    between atoms: C_9  and  C_10 
REMARK       I    between atoms: N_14  and  C_9 
REMARK    5  A    between atoms: N_13  and  N_14 
ROOT
ATOM      1  N   UNL d   1       0.615   1.146  -0.425  0.00  0.00    -0.307 N 
ATOM      2  C   UNL d   1      -0.750   0.741  -0.198  0.00  0.00     0.055 A 
ATOM      3  C   UNL d   1       1.667   0.234  -0.539  0.00  0.00     0.234 C 
ATOM      4  C   UNL d   1      -1.772   1.693  -0.023  0.00  0.00     0.047 A 
ATOM      5  S   UNL d   1       0.024  -1.950  -0.475  0.00  0.00    -0.118 SA
ATOM      6  C   UNL d   1      -3.127   1.328   0.103  0.00  0.00     0.050 A 
ATOM      7  C   UNL d   1      -1.129  -0.618  -0.210  0.00  0.00     0.028 A 
ATOM      8  C   UNL d   1       1.488  -1.111   0.125  0.00  0.00     0.182 C 
ATOM      9  O   UNL d   1       2.757   0.551  -1.027  0.00  0.00    -0.272 OA
ATOM     10  C   UNL d   1      -3.467  -0.026   0.091  0.00  0.00     0.017 A 
ATOM     11  C   UNL d   1      -2.475  -0.990  -0.059  0.00  0.00     0.021 A 
ENDROOT
BRANCH   1  12
ATOM     12  C   UNL d   1       0.972   2.556  -0.607  0.00  0.00     0.236 C 
BRANCH  12  13
ATOM     13  C   UNL d   1       0.510   3.183  -1.920  0.00  0.00     0.254 C 
ATOM     14  N   UNL d   1       1.389   3.100  -2.977  0.00  0.00    -0.266 N 
ATOM     15  H   UNL d   1       2.308   2.659  -2.937  0.00  0.00     0.190 HD
ATOM     16  O   UNL d   1      -0.585   3.737  -2.033  0.00  0.00    -0.270 OA
BRANCH  14  17
ATOM     17  N   UNL d   1       1.027   3.798  -4.146  0.00  0.00    -0.274 N 
ATOM     18  H   UNL d   1       0.136   4.281  -4.057  0.00  0.00     0.189 HD
BRANCH  17  19
ATOM     19  C   UNL d   1       1.954   4.237  -5.050  0.00  0.00     0.186 C 
ATOM     20  S   UNL d   1       3.562   3.778  -5.071  0.00  0.00    -0.040 SA
ATOM     21  N   UNL d   1       1.515   5.085  -6.024  0.00  0.00    -0.370 N 
ATOM     22  C   UNL d   1       0.180   5.583  -6.294  0.00  0.00     0.148 C 
ATOM     23  H   UNL d   1       2.230   5.330  -6.700  0.00  0.00     0.161 HD
ENDBRANCH  17  19
ENDBRANCH  14  17
ENDBRANCH  12  13
ENDBRANCH   1  12
BRANCH   6  24
ATOM     24  C   UNL d   1      -4.212   2.374   0.211  0.00  0.00     0.417 C 
ATOM     25  F   UNL d   1      -3.741   3.646   0.326  0.00  0.00    -0.166 F 
ATOM     26  F   UNL d   1      -5.042   2.374  -0.868  0.00  0.00    -0.166 F 
ATOM     27  F   UNL d   1      -5.011   2.176   1.297  0.00  0.00    -0.166 F 
ENDBRANCH   6  24
TORSDOF 5
