REMARK  2 active torsions:
REMARK  status: ('A' for Active; 'I' for Inactive)
REMARK    1  A    between atoms: S_9  and  C_1 
REMARK    2  A    between atoms: C_11  and  S_9 
ROOT
ATOM      1  C   UNL d   1       2.432  -0.547  -0.115  0.00  0.00     0.096 A 
ATOM      2  C   UNL d   1       2.419   0.846  -0.172  0.00  0.00     0.085 A 
ATOM      3  N   UNL d   1       1.302  -1.288  -0.006  0.00  0.00    -0.349 N 
ATOM      4  HN  UNL d   1       1.355  -2.305   0.043  1.00  0.00     0.166 HD
ATOM      5  C   UNL d   1       1.178   1.512  -0.059  0.00  0.00    -0.026 A 
ATOM      6  C   UNL d   1      -0.014   0.738   0.010  0.00  0.00    -0.002 A 
ATOM      7  C   UNL d   1       3.638   1.573  -0.378  0.00  0.00     0.103 C 
ATOM      8  C   UNL d   1       0.117  -0.667   0.035  0.00  0.00     0.043 A 
ATOM      9  N   UNL d   1       4.608   2.183  -0.570  0.00  0.00    -0.191 NA
ATOM     10  C   UNL d   1       1.098   3.022  -0.047  0.00  0.00     0.050 C 
ATOM     11  C   UNL d   1      -1.318   1.291   0.042  0.00  0.00     0.014 A 
ATOM     12  C   UNL d   1      -1.024  -1.454   0.089  0.00  0.00     0.030 A 
ATOM     13  C   UNL d   1      -2.451   0.479   0.081  0.00  0.00     0.001 A 
ATOM     14  C   UNL d   1      -2.304  -0.898   0.107  0.00  0.00     0.002 A 
ENDROOT
BRANCH   1  15
ATOM     15  S   UNL d   1       3.933  -1.523  -0.191  0.00  0.00    -0.071 SA
BRANCH  15  16
ATOM     16  C   UNL d   1       4.461  -1.419   1.511  0.00  0.00     0.007 A 
ATOM     17  C   UNL d   1       3.673  -1.933   2.544  0.00  0.00     0.019 A 
ATOM     18  C   UNL d   1       4.080  -1.804   3.875  0.00  0.00     0.008 A 
ATOM     19  C   UNL d   1       5.288  -1.171   4.189  0.00  0.00    -0.062 A 
ATOM     20  C   UNL d   1       6.088  -0.682   3.151  0.00  0.00     0.008 A 
ATOM     21  C   UNL d   1       5.683  -0.977   5.623  0.00  0.00     0.048 C 
ATOM     22  C   UNL d   1       5.681  -0.810   1.820  0.00  0.00     0.019 A 
ENDBRANCH  15  16
ENDBRANCH   1  15
TORSDOF 2
