REMARK  4 active torsions:
REMARK  status: ('A' for Active; 'I' for Inactive)
REMARK    1  A    between atoms: C_10  and  C_4 
REMARK       I    between atoms: C_7  and  N_9 
REMARK    2  A    between atoms: C_11  and  C_7 
REMARK    3  A    between atoms: N_9  and  C_21 
REMARK    4  A    between atoms: C_12  and  C_13 
ROOT
ATOM      1  C   UNL d   1       7.899  -3.859  -3.781  0.00  0.00    -0.008 A 
ATOM      2  C   UNL d   1       6.700  -3.333  -3.286  0.00  0.00     0.016 A 
ATOM      3  C   UNL d   1       9.062  -3.674  -3.025  0.00  0.00     0.016 A 
ATOM      4  C   UNL d   1       7.828  -2.506  -1.290  0.00  0.00     0.035 A 
ATOM      5  C   UNL d   1       9.025  -3.006  -1.797  0.00  0.00     0.030 A 
ATOM      6  C   UNL d   1       6.665  -2.658  -2.055  0.00  0.00     0.030 A 
ENDROOT
BRANCH   4   7
ATOM      7  N   UNL d   1       7.724  -1.857  -0.039  0.00  0.00    -0.323 N 
ATOM      8  C   UNL d   1       8.744  -1.674   0.881  0.00  0.00     0.256 C 
ATOM      9  O   UNL d   1       9.915  -2.023   0.759  0.00  0.00    -0.267 OA
ATOM     10  H   UNL d   1       6.816  -1.474   0.184  0.00  0.00     0.169 HD
BRANCH   8  11
ATOM     11  C   UNL d   1       8.378  -0.943   2.123  0.00  0.00     0.032 A 
ATOM     12  C   UNL d   1       7.125  -1.054   2.732  0.00  0.00     0.017 A 
ATOM     13  C   UNL d   1       6.843  -0.307   3.885  0.00  0.00     0.009 A 
ATOM     14  C   UNL d   1       7.796   0.559   4.459  0.00  0.00    -0.051 A 
ATOM     15  C   UNL d   1       9.063   0.612   3.855  0.00  0.00     0.009 A 
ATOM     16  C   UNL d   1       9.350  -0.130   2.707  0.00  0.00     0.017 A 
BRANCH  14  17
ATOM     17  C   UNL d   1       7.437   1.427   5.680  0.00  0.00    -0.024 C 
ATOM     18  C   UNL d   1       8.604   2.317   6.167  0.00  0.00     0.019 C 
ATOM     19  C   UNL d   1       6.270   2.369   5.310  0.00  0.00     0.019 C 
ATOM     20  C   UNL d   1       7.010   0.542   6.869  0.00  0.00     0.019 C 
ENDBRANCH  14  17
ENDBRANCH   8  11
ENDBRANCH   4   7
BRANCH   1  21
ATOM     21  C   UNL d   1       7.927  -4.582  -5.045  0.00  0.00     0.060 A 
ATOM     22  N   UNL d   1       6.792  -4.833  -5.809  0.00  0.00    -0.335 N 
ATOM     23  C   UNL d   1       7.249  -5.493  -6.837  0.00  0.00     0.147 A 
ATOM     24  HN  UNL d   1       5.828  -4.565  -5.612  1.00  0.00     0.168 HD
ATOM     25  N   UNL d   1       8.588  -5.679  -6.783  0.00  0.00    -0.335 N 
ATOM     26  S   UNL d   1       6.533  -6.192  -8.232  0.00  0.00    -0.092 SA
ATOM     27  C   UNL d   1       9.059  -5.115  -5.651  0.00  0.00     0.123 A 
ATOM     28  C   UNL d   1       9.221  -6.342  -7.897  0.00  0.00     0.141 C 
ATOM     29  C   UNL d   1       8.104  -7.053  -8.666  0.00  0.00     0.102 C 
ENDBRANCH   1  21
TORSDOF 4
