REMARK  2 active torsions:
REMARK  status: ('A' for Active; 'I' for Inactive)
REMARK       I    between atoms: N_2  and  C_1 
REMARK    1  A    between atoms: C_6  and  C_1 
REMARK    2  A    between atoms: C_7  and  N_2 
ROOT
ATOM      1  N   UNL d   1       2.448  -7.659   1.726  0.00  0.00    -0.191 NA
ATOM      2  C   UNL d   1       2.134  -6.594   1.385  0.00  0.00     0.099 C 
ATOM      3  C   UNL d   1       0.950  -2.683   0.225  0.00  0.00     0.035 A 
ATOM      4  C   UNL d   1       1.739  -5.279   0.975  0.00  0.00     0.044 A 
ATOM      5  C   UNL d   1       2.226  -2.918   0.744  0.00  0.00     0.031 A 
ATOM      6  C   UNL d   1       0.073  -3.764   0.075  0.00  0.00     0.031 A 
ATOM      7  C   UNL d   1       2.619  -4.207   1.119  0.00  0.00     0.025 A 
ATOM      8  C   UNL d   1       0.465  -5.057   0.444  0.00  0.00     0.025 A 
ENDROOT
BRANCH   3   9
ATOM      9  N   UNL d   1       0.471  -1.396  -0.101  0.00  0.00    -0.323 N 
ATOM     10  C   UNL d   1       1.216  -0.230  -0.137  0.00  0.00     0.256 C 
ATOM     11  O   UNL d   1       2.440  -0.155  -0.138  0.00  0.00    -0.267 OA
ATOM     12  H   UNL d   1      -0.504  -1.331  -0.362  0.00  0.00     0.169 HD
BRANCH  10  13
ATOM     13  C   UNL d   1       0.433   1.037  -0.200  0.00  0.00     0.032 A 
ATOM     14  C   UNL d   1      -0.819   1.163   0.417  0.00  0.00     0.017 A 
ATOM     15  C   UNL d   1      -1.476   2.396   0.417  0.00  0.00     0.001 A 
ATOM     16  C   UNL d   1      -0.886   3.505  -0.190  0.00  0.00     0.000 A 
ATOM     17  C   UNL d   1       0.361   3.385  -0.803  0.00  0.00     0.001 A 
ATOM     18  C   UNL d   1       1.021   2.155  -0.806  0.00  0.00     0.017 A 
ENDBRANCH  10  13
ENDBRANCH   3   9
TORSDOF 2
