REMARK  4 active torsions:
REMARK  status: ('A' for Active; 'I' for Inactive)
REMARK    1  A    between atoms: O_5  and  C_1 
REMARK       I    between atoms: N_6  and  C_1 
REMARK    2  A    between atoms: N_2  and  C_3 
REMARK    3  A    between atoms: C_4  and  O_5 
REMARK    4  A    between atoms: C_9  and  N_6 
ROOT
ATOM      1  C   UNL d   1      -1.425  -1.312  -0.059  0.00  0.00     0.064 A 
ATOM      2  C   UNL d   1      -0.966  -0.555   1.042  0.00  0.00     0.107 A 
ATOM      3  C   UNL d   1      -1.793  -0.231   2.136  0.00  0.00     0.040 A 
ATOM      4  C   UNL d   1      -2.781  -1.690   0.002  0.00  0.00     0.032 A 
ATOM      5  C   UNL d   1      -3.117  -0.645   2.157  0.00  0.00     0.003 A 
ATOM      6  C   UNL d   1      -3.617  -1.359   1.079  0.00  0.00     0.002 A 
ENDROOT
BRANCH   2   7
ATOM      7  O   UNL d   1       0.275   0.118   0.954  0.00  0.00    -0.259 OA
BRANCH   7   8
ATOM      8  C   UNL d   1       1.042   0.134   2.103  0.00  0.00     0.370 C 
ATOM      9  N   UNL d   1       1.600   1.347   2.426  0.00  0.00    -0.302 N 
ATOM     10  H   UNL d   1       2.208   1.264   3.231  0.00  0.00     0.171 HD
ATOM     11  O   UNL d   1       1.248  -0.851   2.805  0.00  0.00    -0.238 OA
BRANCH   9  12
ATOM     12  C   UNL d   1       1.391   2.642   1.911  0.00  0.00     0.037 A 
ATOM     13  C   UNL d   1       0.493   2.966   0.888  0.00  0.00     0.032 A 
ATOM     14  C   UNL d   1       0.358   4.288   0.450  0.00  0.00     0.044 A 
ATOM     15  C   UNL d   1       1.115   5.291   1.036  0.00  0.00     0.116 A 
ATOM     16  C   UNL d   1       1.997   4.999   2.066  0.00  0.00     0.044 A 
ATOM     17  F   UNL d   1       0.991   6.553   0.605  0.00  0.00    -0.206 F 
ATOM     18  C   UNL d   1       2.131   3.678   2.505  0.00  0.00     0.032 A 
ENDBRANCH   9  12
ENDBRANCH   7   8
ENDBRANCH   2   7
BRANCH   1  19
ATOM     19  N   UNL d   1      -0.641  -1.735  -1.120  0.00  0.00    -0.375 N 
ATOM     20  C   UNL d   1      -1.155  -1.800  -2.501  0.00  0.00     0.149 C 
ATOM     21  C   UNL d   1      -0.614  -3.066  -3.185  0.00  0.00     0.187 C 
ATOM     22  O   UNL d   1       0.823  -3.077  -3.183  0.00  0.00    -0.388 OA
ATOM     23  C   UNL d   1       1.312  -3.064  -1.831  0.00  0.00     0.187 C 
ATOM     24  C   UNL d   1       0.825  -1.835  -1.039  0.00  0.00     0.149 C 
ENDBRANCH   1  19
TORSDOF 4
