REMARK  7 active torsions:
REMARK  status: ('A' for Active; 'I' for Inactive)
REMARK    1  A    between atoms: C_12  and  C_3 
REMARK    2  A    between atoms: S_13  and  C_6 
REMARK    3  A    between atoms: C_11  and  C_7 
REMARK    4  A    between atoms: O_21  and  C_12 
REMARK    5  A    between atoms: C_20  and  S_13 
REMARK    6  A    between atoms: C_14  and  C_20 
REMARK    7  A    between atoms: O_22  and  C_14 
ROOT
ATOM      1  C   UNL d   1      -0.280  -0.725  -0.021  0.00  0.00     0.068 A 
ATOM      2  C   UNL d   1      -0.238   0.725  -0.018  0.00  0.00     0.015 A 
ATOM      3  C   UNL d   1      -1.564  -1.235  -0.013  0.00  0.00     0.107 A 
ATOM      4  N   UNL d   1       0.852  -1.475  -0.023  0.00  0.00    -0.350 N 
ATOM      5  HN  UNL d   1       0.846  -2.495  -0.029  1.00  0.00     0.166 HD
ATOM      6  C   UNL d   1       0.932   1.507  -0.019  0.00  0.00     0.016 A 
ATOM      7  C   UNL d   1       2.009  -0.727  -0.018  0.00  0.00     0.118 A 
ATOM      8  S   UNL d   1      -2.715   0.055  -0.008  0.00  0.00    -0.093 SA
ATOM      9  C   UNL d   1       2.075   0.697  -0.005  0.00  0.00     0.053 A 
ATOM     10  C   UNL d   1      -1.506   1.259  -0.013  0.00  0.00     0.065 A 
ENDROOT
BRANCH   6  11
ATOM     11  S   UNL d   1       0.885   3.270   0.026  0.00  0.00    -0.119 SA
BRANCH  11  12
ATOM     12  C   UNL d   1       2.364   3.784  -0.900  0.00  0.00     0.190 C 
BRANCH  12  13
ATOM     13  C   UNL d   1       2.361   3.260  -2.314  0.00  0.00     0.268 C 
ATOM     14  O   UNL d   1       2.889   2.207  -2.649  0.00  0.00    -0.264 OA
BRANCH  13  15
ATOM     15  O   UNL d   1       1.704   4.107  -3.154  0.00  0.00    -0.326 OA
ATOM     16  C   UNL d   1       1.671   3.662  -4.512  0.00  0.00     0.213 C 
ENDBRANCH  13  15
ENDBRANCH  12  13
ENDBRANCH  11  12
ENDBRANCH   6  11
BRANCH   7  17
ATOM     17  C   UNL d   1       3.349  -1.466  -0.008  0.00  0.00     0.432 C 
ATOM     18  F   UNL d   1       3.249  -2.825  -0.013  0.00  0.00    -0.165 F 
ATOM     19  F   UNL d   1       4.131  -1.147  -1.080  0.00  0.00    -0.165 F 
ATOM     20  F   UNL d   1       4.099  -1.154   1.091  0.00  0.00    -0.165 F 
ENDBRANCH   7  17
BRANCH   3  21
ATOM     21  C   UNL d   1      -2.098  -2.582  -0.007  0.00  0.00     0.302 C 
ATOM     22  O   UNL d   1      -3.294  -2.870  -0.010  0.00  0.00    -0.259 OA
BRANCH  21  23
ATOM     23  O   UNL d   1      -1.113  -3.526   0.003  0.00  0.00    -0.322 OA
ATOM     24  C   UNL d   1      -1.611  -4.866   0.005  0.00  0.00     0.213 C 
ENDBRANCH  21  23
ENDBRANCH   3  21
TORSDOF 7
