REMARK  2 active torsions:
REMARK  status: ('A' for Active; 'I' for Inactive)
REMARK       I    between atoms: N_2  and  C_1 
REMARK    1  A    between atoms: C_6  and  C_1 
REMARK    2  A    between atoms: C_7  and  N_2 
ROOT
ATOM      1  N   UNL d   1       2.185   6.560   4.446  0.00  0.00    -0.191 NA
ATOM      2  C   UNL d   1       1.888   5.608   3.853  0.00  0.00     0.099 C 
ATOM      3  C   UNL d   1       0.842   2.106   1.690  0.00  0.00     0.034 A 
ATOM      4  C   UNL d   1       1.524   4.433   3.119  0.00  0.00     0.044 A 
ATOM      5  C   UNL d   1       1.812   2.986   1.201  0.00  0.00     0.031 A 
ATOM      6  C   UNL d   1       0.187   2.418   2.887  0.00  0.00     0.031 A 
ATOM      7  C   UNL d   1       2.151   4.144   1.906  0.00  0.00     0.025 A 
ATOM      8  C   UNL d   1       0.540   3.568   3.606  0.00  0.00     0.025 A 
ENDROOT
BRANCH   3   9
ATOM      9  N   UNL d   1       0.473   0.928   1.005  0.00  0.00    -0.327 N 
ATOM     10  C   UNL d   1       1.241   0.290   0.045  0.00  0.00     0.226 C 
ATOM     11  O   UNL d   1       2.426   0.562  -0.179  0.00  0.00    -0.273 OA
ATOM     12  H   UNL d   1      -0.383   0.469   1.298  0.00  0.00     0.169 HD
BRANCH  10  13
ATOM     13  C   UNL d   1       0.514  -0.833  -0.732  0.00  0.00     0.078 C 
ATOM     14  C   UNL d   1       0.936  -0.973  -2.226  0.00  0.00     0.014 C 
ATOM     15  C   UNL d   1      -0.519  -1.336  -2.551  0.00  0.00     0.002 C 
ATOM     16  C   UNL d   1      -0.926  -0.594  -1.264  0.00  0.00     0.014 C 
ENDBRANCH  10  13
ENDBRANCH   3   9
TORSDOF 2
