REMARK  4 active torsions:
REMARK  status: ('A' for Active; 'I' for Inactive)
REMARK    1  A    between atoms: C_12  and  N_1 
REMARK    2  A    between atoms: C_11  and  N_3 
REMARK    3  A    between atoms: C_17  and  C_12 
REMARK    4  A    between atoms: O_21  and  C_18 
ROOT
ATOM      1  N   UNL d   1       2.101   0.677   0.015  0.00  0.00    -0.260 N 
ATOM      2  C   UNL d   1       2.130  -0.729   0.157  0.00  0.00     0.338 A 
ATOM      3  N   UNL d   1       0.898  -1.406   0.104  0.00  0.00    -0.247 N 
ATOM      4  C   UNL d   1      -0.274  -0.677   0.024  0.00  0.00     0.150 A 
ATOM      5  C   UNL d   1      -0.242   0.682  -0.067  0.00  0.00     0.147 A 
ATOM      6  C   UNL d   1       0.949   1.455  -0.090  0.00  0.00     0.282 A 
ATOM      7  N   UNL d   1      -1.565  -1.132  -0.022  0.00  0.00    -0.336 N 
ATOM      8  HN  UNL d   1      -1.881  -2.101   0.006  1.00  0.00     0.168 HD
ATOM      9  N   UNL d   1      -1.544   1.086  -0.133  0.00  0.00    -0.345 N 
ATOM     10  C   UNL d   1      -2.308  -0.049  -0.109  0.00  0.00     0.182 A 
ATOM     11  O   UNL d   1       3.198  -1.312   0.378  0.00  0.00    -0.246 OA
ATOM     12  O   UNL d   1       0.930   2.676  -0.174  0.00  0.00    -0.265 OA
ATOM     13  H   UNL d   1      -1.872   2.041  -0.198  0.00  0.00     0.167 HD
ENDROOT
BRANCH   3  14
ATOM     14  C   UNL d   1       0.829  -2.828   0.179  0.00  0.00     0.046 A 
ATOM     15  C   UNL d   1      -0.098  -3.478   1.004  0.00  0.00     0.033 A 
ATOM     16  C   UNL d   1      -0.087  -4.872   1.142  0.00  0.00     0.039 A 
ATOM     17  C   UNL d   1       0.834  -5.640   0.433  0.00  0.00     0.068 A 
ATOM     18  C   UNL d   1       1.722  -5.011  -0.437  0.00  0.00     0.039 A 
ATOM     19  C   UNL d   1       1.736  -3.616  -0.546  0.00  0.00     0.033 A 
BRANCH  17  20
ATOM     20  O   UNL d   1       0.917  -7.004   0.480  0.00  0.00    -0.356 OA
ATOM     21  C   UNL d   1       0.623  -7.583   1.747  0.00  0.00     0.210 C 
ENDBRANCH  17  20
ENDBRANCH   3  14
BRANCH   1  22
ATOM     22  C   UNL d   1       3.381   1.374   0.044  0.00  0.00     0.175 C 
BRANCH  22  23
ATOM     23  C   UNL d   1       4.061   1.377  -1.308  0.00  0.00    -0.040 A 
ATOM     24  C   UNL d   1       3.813   2.402  -2.232  0.00  0.00     0.009 A 
ATOM     25  C   UNL d   1       4.411   2.375  -3.494  0.00  0.00     0.001 A 
ATOM     26  C   UNL d   1       5.254   1.323  -3.848  0.00  0.00     0.000 A 
ATOM     27  C   UNL d   1       5.511   0.301  -2.937  0.00  0.00     0.001 A 
ATOM     28  C   UNL d   1       4.921   0.331  -1.674  0.00  0.00     0.009 A 
ENDBRANCH  22  23
ENDBRANCH   1  22
TORSDOF 4
