REMARK  3 active torsions:
REMARK  status: ('A' for Active; 'I' for Inactive)
REMARK    1  A    between atoms: N_2  and  C_1 
REMARK    2  A    between atoms: C_4  and  N_2 
REMARK    3  A    between atoms: C_5  and  C_4 
ROOT
ATOM      1  C   UNL d   1       1.083  -1.508   2.109  0.00  0.00     0.113 C 
ATOM      2  C   UNL d   1      -0.026  -2.330   2.772  0.00  0.00     0.037 C 
ENDROOT
BRANCH   1   3
ATOM      3  N   UNL d   1       0.568  -0.780   0.957  0.00  0.00    -0.359 N 
ATOM      4  H   UNL d   1       0.248   0.168   1.130  0.00  0.00     0.162 HD
BRANCH   3   5
ATOM      5  C   UNL d   1       0.278  -1.241  -0.278  0.00  0.00     0.165 C 
ATOM      6  S   UNL d   1      -0.507  -0.281  -1.381  0.00  0.00    -0.041 SA
ATOM      7  N   UNL d   1       0.610  -2.507  -0.587  0.00  0.00    -0.376 N 
ATOM      8  H   UNL d   1       1.346  -2.990  -0.098  0.00  0.00     0.158 HD
ATOM      9  H   UNL d   1       0.456  -2.797  -1.546  0.00  0.00     0.158 HD
ENDBRANCH   3   5
ENDBRANCH   1   3
BRANCH   1  10
ATOM     10  C   UNL d   1       1.792  -0.540   3.042  0.00  0.00    -0.036 A 
ATOM     11  C   UNL d   1       1.141   0.114   4.100  0.00  0.00     0.009 A 
ATOM     12  C   UNL d   1       1.836   1.003   4.925  0.00  0.00     0.001 A 
ATOM     13  C   UNL d   1       3.184   1.264   4.696  0.00  0.00     0.000 A 
ATOM     14  C   UNL d   1       3.839   0.644   3.635  0.00  0.00     0.001 A 
ATOM     15  C   UNL d   1       3.147  -0.245   2.812  0.00  0.00     0.009 A 
ENDBRANCH   1  10
TORSDOF 3
