REMARK  7 active torsions:
REMARK  status: ('A' for Active; 'I' for Inactive)
REMARK       I    between atoms: N_2  and  C_1 
REMARK    1  A    between atoms: C_8  and  C_1 
REMARK    2  A    between atoms: C_5  and  N_2 
REMARK    3  A    between atoms: N_3  and  C_8 
REMARK    4  A    between atoms: C_10  and  N_4 
REMARK    5  A    between atoms: O_7  and  C_6 
REMARK    6  A    between atoms: C_15  and  O_7 
REMARK    7  A    between atoms: C_16  and  C_10 
ROOT
ATOM      1  C   UNL d   1       0.694   0.741  -0.419  0.00  0.00     0.250 C 
ATOM      2  N   UNL d   1       0.857  -0.442  -1.125  0.00  0.00    -0.323 N 
ATOM      3  O   UNL d   1       1.096   1.845  -0.783  0.00  0.00    -0.271 OA
ATOM      4  H   UNL d   1       0.822  -1.295  -0.582  0.00  0.00     0.169 HD
ENDROOT
BRANCH   1   5
ATOM      5  C   UNL d   1       0.065   0.534   0.957  0.00  0.00     0.375 C 
BRANCH   5   6
ATOM      6  N   UNL d   1      -1.409   0.416   0.896  0.00  0.00     0.100 N 
ATOM      7  C   UNL d   1      -1.954   0.442   2.273  0.00  0.00     0.303 C 
ATOM      8  C   UNL d   1      -1.711  -0.862   3.072  0.00  0.00     0.303 C 
ATOM      9  N   UNL d   1      -2.186  -2.093   2.401  0.00  0.00     0.096 N 
ATOM     10  C   UNL d   1      -1.642  -2.119   1.023  0.00  0.00     0.303 C 
ATOM     11  C   UNL d   1      -1.887  -0.811   0.226  0.00  0.00     0.303 C 
BRANCH   9  12
ATOM     12  C   UNL d   1      -3.658  -2.179   2.344  0.00  0.00     0.311 C 
BRANCH  12  13
ATOM     13  C   UNL d   1      -4.351  -2.148   3.685  0.00  0.00    -0.030 A 
ATOM     14  C   UNL d   1      -5.204  -1.082   4.010  0.00  0.00     0.009 A 
ATOM     15  C   UNL d   1      -5.882  -1.063   5.227  0.00  0.00     0.001 A 
ATOM     16  C   UNL d   1      -5.713  -2.109   6.132  0.00  0.00     0.000 A 
ATOM     17  C   UNL d   1      -4.861  -3.171   5.828  0.00  0.00     0.001 A 
ATOM     18  C   UNL d   1      -4.174  -3.185   4.609  0.00  0.00     0.009 A 
ENDBRANCH  12  13
ENDBRANCH   9  12
ENDBRANCH   5   6
ENDBRANCH   1   5
BRANCH   2  19
ATOM     19  C   UNL d   1       1.520  -0.522  -2.366  0.00  0.00     0.069 A 
ATOM     20  C   UNL d   1       2.364  -1.610  -2.652  0.00  0.00     0.102 A 
ATOM     21  C   UNL d   1       2.963  -1.690  -3.915  0.00  0.00     0.039 A 
ATOM     22  C   UNL d   1       2.745  -0.698  -4.874  0.00  0.00     0.003 A 
ATOM     23  C   UNL d   1       1.913   0.379  -4.584  0.00  0.00     0.002 A 
ATOM     24  C   UNL d   1       1.304   0.468  -3.332  0.00  0.00     0.032 A 
BRANCH  20  25
ATOM     25  O   UNL d   1       2.627  -2.681  -1.824  0.00  0.00    -0.309 OA
BRANCH  25  26
ATOM     26  C   UNL d   1       2.926  -2.518  -0.490  0.00  0.00     0.076 A 
ATOM     27  C   UNL d   1       2.712  -3.649   0.304  0.00  0.00     0.037 A 
ATOM     28  C   UNL d   1       2.896  -3.589   1.687  0.00  0.00     0.003 A 
ATOM     29  C   UNL d   1       3.286  -2.392   2.283  0.00  0.00     0.000 A 
ATOM     30  C   UNL d   1       3.543  -1.273   1.492  0.00  0.00     0.003 A 
ATOM     31  C   UNL d   1       3.400  -1.346   0.104  0.00  0.00     0.037 A 
ENDBRANCH  25  26
ENDBRANCH  20  25
ENDBRANCH   2  19
TORSDOF 7
