REMARK  8 active torsions:
REMARK  status: ('A' for Active; 'I' for Inactive)
REMARK    1  A    between atoms: C_18  and  N_1 
REMARK    2  A    between atoms: C_8  and  C_2 
REMARK    3  A    between atoms: S_10  and  C_5 
REMARK    4  A    between atoms: C_9  and  O_13 
REMARK    5  A    between atoms: C_26  and  S_10 
REMARK    6  A    between atoms: O_13  and  C_25 
REMARK    7  A    between atoms: C_20  and  C_18 
REMARK    8  A    between atoms: C_27  and  C_26 
ROOT
ATOM      1  N   UNL d   1      -0.263  -1.246   0.023  0.00  0.00    -0.307 N 
ATOM      2  C   UNL d   1       0.970  -0.622  -0.087  0.00  0.00     0.135 A 
ATOM      3  N   UNL d   1       0.745   0.676  -0.245  0.00  0.00    -0.283 N 
ATOM      4  HN  UNL d   1       1.465   1.388  -0.370  1.00  0.00     0.188 HD
ATOM      5  C   UNL d   1      -1.200  -0.244  -0.051  0.00  0.00     0.163 A 
ATOM      6  N   UNL d   1      -0.604   0.910  -0.213  0.00  0.00    -0.278 N 
ATOM      7  HN  UNL d   1      -1.061   1.818  -0.299  1.00  0.00     0.189 HD
ENDROOT
BRANCH   5   8
ATOM      8  S   UNL d   1      -2.911  -0.494   0.063  0.00  0.00    -0.088 SA
BRANCH   8   9
ATOM      9  C   UNL d   1      -3.541   1.052  -0.660  0.00  0.00     0.121 C 
BRANCH   9  10
ATOM     10  C   UNL d   1      -5.050   1.125  -0.598  0.00  0.00    -0.048 A 
ATOM     11  C   UNL d   1      -5.682   1.778   0.469  0.00  0.00     0.011 A 
ATOM     12  C   UNL d   1      -7.075   1.863   0.522  0.00  0.00     0.037 A 
ATOM     13  C   UNL d   1      -7.870   1.308  -0.484  0.00  0.00     0.078 A 
ATOM     14  C   UNL d   1      -7.254   0.610  -1.521  0.00  0.00     0.037 A 
ATOM     15  C   UNL d   1      -5.853   0.532  -1.583  0.00  0.00     0.011 A 
BRANCH  13  16
ATOM     16  O   UNL d   1      -9.205   1.483  -0.299  0.00  0.00    -0.255 OA
BRANCH  16  17
ATOM     17  C   UNL d   1     -10.084   1.481  -1.414  0.00  0.00     0.530 C 
ATOM     18  F   UNL d   1      -9.465   1.641  -2.602  0.00  0.00    -0.144 F 
ATOM     19  F   UNL d   1     -10.787   0.329  -1.436  0.00  0.00    -0.144 F 
ATOM     20  F   UNL d   1     -10.958   2.503  -1.267  0.00  0.00    -0.144 F 
ENDBRANCH  16  17
ENDBRANCH  13  16
ENDBRANCH   9  10
ENDBRANCH   8   9
ENDBRANCH   5   8
BRANCH   1  21
ATOM     21  C   UNL d   1      -0.540  -2.672   0.052  0.00  0.00     0.159 C 
BRANCH  21  22
ATOM     22  C   UNL d   1      -0.663  -3.287   1.423  0.00  0.00    -0.017 C 
ATOM     23  C   UNL d   1      -0.493  -2.698   2.615  0.00  0.00     0.008 C 
ENDBRANCH  21  22
ENDBRANCH   1  21
BRANCH   2  24
ATOM     24  C   UNL d   1       2.323  -1.210  -0.079  0.00  0.00     0.011 A 
ATOM     25  C   UNL d   1       3.357  -0.535  -0.746  0.00  0.00     0.029 A 
ATOM     26  C   UNL d   1       4.691  -1.001  -0.718  0.00  0.00    -0.009 A 
ATOM     27  C   UNL d   1       5.735  -0.316  -1.354  0.00  0.00     0.015 A 
ATOM     28  C   UNL d   1       5.013  -2.180  -0.022  0.00  0.00     0.042 A 
ATOM     29  C   UNL d   1       7.035  -0.802  -1.274  0.00  0.00     0.018 A 
ATOM     30  C   UNL d   1       7.249  -1.968  -0.563  0.00  0.00     0.088 A 
ATOM     31  N   UNL d   1       6.266  -2.662   0.052  0.00  0.00    -0.365 N 
ATOM     32  HN  UNL d   1       6.468  -3.525   0.558  1.00  0.00     0.165 HD
ATOM     33  C   UNL d   1       3.988  -2.848   0.625  0.00  0.00     0.031 A 
ATOM     34  C   UNL d   1       2.667  -2.373   0.616  0.00  0.00     0.017 A 
ENDBRANCH   2  24
TORSDOF 8
