REMARK  3 active torsions:
REMARK  status: ('A' for Active; 'I' for Inactive)
REMARK    1  A    between atoms: N_12  and  N_5 
REMARK    2  A    between atoms: C_15  and  N_7 
REMARK    3  A    between atoms: C_18  and  C_16 
ROOT
ATOM      1  C   UNL d   1      -0.200  -0.690   0.031  0.00  0.00     0.146 A 
ATOM      2  C   UNL d   1      -0.246   0.680  -0.005  0.00  0.00     0.097 A 
ATOM      3  N   UNL d   1       0.926  -1.444   0.021  0.00  0.00    -0.328 N 
ATOM      4  HN  UNL d   1       0.904  -2.464   0.038  1.00  0.00     0.168 HD
ATOM      5  N   UNL d   1       2.130   0.636   0.024  0.00  0.00    -0.208 N 
ATOM      6  C   UNL d   1       0.965   1.446  -0.037  0.00  0.00     0.283 A 
ATOM      7  N   UNL d   1      -1.524  -1.129   0.008  0.00  0.00    -0.239 N 
ATOM      8  C   UNL d   1       2.039  -0.766  -0.014  0.00  0.00     0.104 A 
ATOM      9  N   UNL d   1      -2.384  -0.059  -0.051  0.00  0.00    -0.302 N 
ATOM     10  HN  UNL d   1      -3.403  -0.083  -0.083  1.00  0.00     0.186 HD
ATOM     11  C   UNL d   1      -1.597   1.018  -0.057  0.00  0.00     0.128 A 
ATOM     12  O   UNL d   1       0.928   2.669  -0.151  0.00  0.00    -0.265 OA
ATOM     13  C   UNL d   1       3.319  -1.575  -0.069  0.00  0.00     0.091 C 
ENDROOT
BRANCH   5  14
ATOM     14  N   UNL d   1       3.396   1.204  -0.137  0.00  0.00    -0.300 N 
ATOM     15  C   UNL d   1       3.601   2.384   0.360  0.00  0.00     0.119 C 
ATOM     16  HN  UNL d   1       4.137   0.705  -0.629  1.00  0.00     0.186 HD
BRANCH  15  17
ATOM     17  C   UNL d   1       4.816   3.165   0.052  0.00  0.00    -0.019 A 
ATOM     18  C   UNL d   1       5.853   2.622  -0.712  0.00  0.00     0.013 A 
ATOM     19  C   UNL d   1       6.943   3.420  -1.062  0.00  0.00     0.001 A 
ATOM     20  C   UNL d   1       6.995   4.754  -0.652  0.00  0.00     0.000 A 
ATOM     21  C   UNL d   1       5.964   5.291   0.118  0.00  0.00     0.001 A 
ATOM     22  C   UNL d   1       4.873   4.497   0.475  0.00  0.00     0.013 A 
ENDBRANCH  15  17
ENDBRANCH   5  14
BRANCH   7  23
ATOM     23  C   UNL d   1      -2.042  -2.459   0.021  0.00  0.00     0.058 A 
ATOM     24  C   UNL d   1      -1.212  -3.574   0.200  0.00  0.00     0.031 A 
ATOM     25  C   UNL d   1      -1.751  -4.864   0.194  0.00  0.00     0.002 A 
ATOM     26  C   UNL d   1      -3.118  -5.052   0.008  0.00  0.00     0.000 A 
ATOM     27  C   UNL d   1      -3.953  -3.952  -0.166  0.00  0.00     0.002 A 
ATOM     28  C   UNL d   1      -3.421  -2.660  -0.155  0.00  0.00     0.031 A 
ENDBRANCH   7  23
TORSDOF 3
