REMARK  4 active torsions:
REMARK  status: ('A' for Active; 'I' for Inactive)
REMARK    1  A    between atoms: N_2  and  C_1 
REMARK    2  A    between atoms: C_3  and  N_2 
REMARK    3  A    between atoms: C_9  and  N_5 
REMARK    4  A    between atoms: C_11  and  C_9 
ROOT
ATOM      1  C   UNL d   1       1.109  -0.150   0.044  0.00  0.00     0.172 C 
ATOM      2  S   UNL d   1       0.141   1.141  -0.377  0.00  0.00    -0.041 SA
ATOM      3  N   UNL d   1       2.458   0.002   0.037  0.00  0.00    -0.363 N 
ATOM      4  H   UNL d   1       2.758   0.939  -0.208  0.00  0.00     0.162 HD
ENDROOT
BRANCH   1   5
ATOM      5  N   UNL d   1       0.568  -1.370   0.261  0.00  0.00    -0.332 N 
ATOM      6  H   UNL d   1      -0.316  -1.543  -0.212  0.00  0.00     0.168 HD
BRANCH   5   7
ATOM      7  C   UNL d   1       0.783  -2.231   1.368  0.00  0.00     0.056 A 
ATOM      8  C   UNL d   1       0.258  -3.534   1.333  0.00  0.00     0.060 A 
ATOM      9 CL   UNL d   1      -0.517  -4.145  -0.088  0.00  0.00    -0.082 Cl
ATOM     10  C   UNL d   1       0.379  -4.383   2.435  0.00  0.00     0.026 A 
ATOM     11  C   UNL d   1       1.003  -3.927   3.596  0.00  0.00     0.002 A 
ATOM     12  C   UNL d   1       1.523  -2.634   3.644  0.00  0.00     0.002 A 
ATOM     13  C   UNL d   1       1.427  -1.792   2.533  0.00  0.00     0.031 A 
ENDBRANCH   5   7
ENDBRANCH   1   5
BRANCH   3  14
ATOM     14  C   UNL d   1       3.442  -1.044  -0.209  0.00  0.00     0.160 C 
BRANCH  14  15
ATOM     15  C   UNL d   1       3.881  -1.153  -1.652  0.00  0.00    -0.038 A 
ATOM     16  C   UNL d   1       5.162  -1.637  -1.941  0.00  0.00     0.025 A 
ATOM     17  C   UNL d   1       5.544  -1.796  -3.265  0.00  0.00     0.088 A 
ATOM     18  N   UNL d   1       4.746  -1.514  -4.315  0.00  0.00    -0.375 N 
ATOM     19  C   UNL d   1       3.508  -1.065  -4.024  0.00  0.00     0.088 A 
ATOM     20  HN  UNL d   1       5.062  -1.634  -5.277  1.00  0.00     0.164 HD
ATOM     21  C   UNL d   1       3.034  -0.879  -2.732  0.00  0.00     0.025 A 
ENDBRANCH  14  15
ENDBRANCH   3  14
TORSDOF 4
