REMARK  4 active torsions:
REMARK  status: ('A' for Active; 'I' for Inactive)
REMARK    1  A    between atoms: C_4  and  C_1 
REMARK    2  A    between atoms: N_9  and  C_2 
REMARK       I    between atoms: C_3  and  N_8 
REMARK       I    between atoms: N_7  and  C_3 
REMARK    3  A    between atoms: C_5  and  C_6 
REMARK    4  A    between atoms: C_10  and  N_7 
ROOT
ATOM      1  C   UNL d   1      -3.389   5.741  -0.886  0.00  0.00     0.322 C 
ATOM      2  N   UNL d   1      -3.591   6.271  -2.145  0.00  0.00    -0.308 N 
ATOM      3  N   UNL d   1      -3.497   4.354  -0.817  0.00  0.00    -0.333 N 
ATOM      4  N   UNL d   1      -1.381   2.363  -0.148  0.00  0.00    -0.267 NA
ATOM      5  O   UNL d   1      -3.180   6.424   0.111  0.00  0.00    -0.247 OA
ATOM      6  C   UNL d   1      -3.371   3.734   0.509  0.00  0.00     0.142 C 
ATOM      7  C   UNL d   1      -1.938   3.293   0.876  0.00  0.00     0.117 C 
ATOM      8  C   UNL d   1      -1.978   3.177  -2.428  0.00  0.00     0.035 C 
ATOM      9  C   UNL d   1      -3.400   3.427  -1.945  0.00  0.00     0.129 C 
ATOM     10  C   UNL d   1      -0.905   3.105  -1.344  0.00  0.00     0.098 C 
ATOM     11  H   UNL d   1      -4.255   5.727  -2.674  0.00  0.00     0.170 HD
ENDROOT
BRANCH   2  12
ATOM     12  C   UNL d   1      -3.685   7.671  -2.342  0.00  0.00     0.051 A 
ATOM     13  C   UNL d   1      -2.748   8.611  -1.883  0.00  0.00     0.074 A 
ATOM     14  C   UNL d   1      -3.064   9.984  -2.012  0.00  0.00     0.018 A 
ATOM     15  C   UNL d   1      -4.245  10.407  -2.621  0.00  0.00     0.001 A 
ATOM     16  C   UNL d   1      -5.121   9.467  -3.147  0.00  0.00     0.002 A 
ATOM     17  C   UNL d   1      -4.837   8.109  -3.019  0.00  0.00     0.030 A 
BRANCH  13  18
ATOM     18  C   UNL d   1      -1.378   8.282  -1.340  0.00  0.00     0.419 C 
ATOM     19  F   UNL d   1      -1.006   6.972  -1.365  0.00  0.00    -0.166 F 
ATOM     20  F   UNL d   1      -0.406   8.917  -2.071  0.00  0.00    -0.166 F 
ATOM     21  F   UNL d   1      -1.187   8.720  -0.063  0.00  0.00    -0.166 F 
ENDBRANCH  13  18
ENDBRANCH   2  12
BRANCH   4  22
ATOM     22  C   UNL d   1      -0.505   1.379   0.333  0.00  0.00     0.097 A 
ATOM     23  C   UNL d   1      -0.862   0.413   1.282  0.00  0.00     0.086 A 
ATOM     24  C   UNL d   1       0.118  -0.513   1.714  0.00  0.00     0.021 A 
ATOM     25  C   UNL d   1       1.382  -0.524   1.151  0.00  0.00     0.018 A 
ATOM     26  C   UNL d   1       1.635   0.407   0.177  0.00  0.00     0.089 A 
ATOM     27  N   UNL d   1       0.738   1.337  -0.212  0.00  0.00    -0.356 N 
ATOM     28  HN  UNL d   1       0.997   2.018  -0.926  1.00  0.00     0.166 HD
BRANCH  23  29
ATOM     29  C   UNL d   1      -2.228   0.258   1.880  0.00  0.00     0.420 C 
ATOM     30  F   UNL d   1      -3.264   0.775   1.167  0.00  0.00    -0.166 F 
ATOM     31  F   UNL d   1      -2.564  -1.056   2.071  0.00  0.00    -0.166 F 
ATOM     32  F   UNL d   1      -2.312   0.822   3.122  0.00  0.00    -0.166 F 
ENDBRANCH  23  29
ENDBRANCH   4  22
TORSDOF 4
