REMARK  1 active torsions:
REMARK  status: ('A' for Active; 'I' for Inactive)
REMARK    1  A    between atoms: C_4  and  C_2 
REMARK       I    between atoms: N_8  and  C_4 
ROOT
ATOM      1  C   UNL d   1       0.025   0.406   0.083  0.00  0.00     0.126 A 
ATOM      2  C   UNL d   1       0.081   1.744   0.771  0.00  0.00     0.119 A 
ATOM      3  C   UNL d   1       0.053   1.664  -0.738  0.00  0.00     0.060 A 
ATOM      4 CL   UNL d   1      -1.504  -0.475   0.159  0.00  0.00    -0.101 Cl
ATOM      5 CL   UNL d   1       1.420  -0.654   0.018  0.00  0.00    -0.101 Cl
ENDROOT
BRANCH   2   6
ATOM      6  C   UNL d   1       1.298   2.204   1.466  0.00  0.00     0.222 C 
ATOM      7  O   UNL d   1       2.367   2.360   0.894  0.00  0.00    -0.273 OA
ATOM      8  N   UNL d   1       1.148   2.473   2.792  0.00  0.00    -0.370 N 
ATOM      9  H   UNL d   1       0.275   2.378   3.293  0.00  0.00     0.159 HD
ATOM     10  H   UNL d   1       1.962   2.801   3.297  0.00  0.00     0.159 HD
ENDBRANCH   2   6
TORSDOF 1
