REMARK  2 active torsions:
REMARK  status: ('A' for Active; 'I' for Inactive)
REMARK       I    between atoms: N_2  and  C_1 
REMARK    1  A    between atoms: C_3  and  C_1 
REMARK       I    between atoms: C_4  and  N_2 
REMARK       I    between atoms: N_8  and  C_4 
REMARK    2  A    between atoms: C_13  and  N_8 
ROOT
ATOM      1  C   UNL d   1       1.078  -0.272  -0.360  0.00  0.00     0.262 C 
ATOM      2  N   UNL d   1       0.487   0.951  -0.615  0.00  0.00    -0.275 N 
ATOM      3  C   UNL d   1       1.033   2.115  -1.097  0.00  0.00     0.327 C 
ATOM      4  N   UNL d   1       2.392   2.124  -1.253  0.00  0.00    -0.309 N 
ATOM      5  O   UNL d   1       2.268  -0.504  -0.549  0.00  0.00    -0.267 OA
ATOM      6  O   UNL d   1       0.259   3.043  -1.326  0.00  0.00    -0.247 OA
ATOM      7  H   UNL d   1      -0.506   1.061  -0.454  0.00  0.00     0.173 HD
ATOM      8  H   UNL d   1       2.847   1.217  -1.168  0.00  0.00     0.170 HD
ENDROOT
BRANCH   1   9
ATOM      9  C   UNL d   1       0.164  -1.351   0.113  0.00  0.00     0.071 A 
ATOM     10  C   UNL d   1      -1.087  -1.077   0.678  0.00  0.00     0.135 A 
ATOM     11  C   UNL d   1      -1.948  -2.101   1.060  0.00  0.00     0.085 A 
ATOM     12  F   UNL d   1      -1.498   0.188   0.853  0.00  0.00    -0.205 F 
ATOM     13  C   UNL d   1      -1.549  -3.417   0.874  0.00  0.00     0.119 A 
ATOM     14  C   UNL d   1      -0.304  -3.719   0.330  0.00  0.00     0.043 A 
ATOM     15  F   UNL d   1      -2.378  -4.410   1.218  0.00  0.00    -0.206 F 
ATOM     16  C   UNL d   1       0.559  -2.686  -0.045  0.00  0.00     0.023 A 
ENDBRANCH   1   9
BRANCH   4  17
ATOM     17  C   UNL d   1       3.210   3.254  -1.448  0.00  0.00     0.036 A 
ATOM     18  C   UNL d   1       2.724   4.567  -1.416  0.00  0.00     0.031 A 
ATOM     19  C   UNL d   1       3.598   5.655  -1.485  0.00  0.00     0.026 A 
ATOM     20  C   UNL d   1       4.965   5.435  -1.600  0.00  0.00     0.034 A 
ATOM     21  C   UNL d   1       5.463   4.138  -1.676  0.00  0.00     0.026 A 
ATOM     22 CL   UNL d   1       6.044   6.775  -1.625  0.00  0.00    -0.084 Cl
ATOM     23  C   UNL d   1       4.586   3.047  -1.600  0.00  0.00     0.031 A 
ENDBRANCH   4  17
TORSDOF 2
