REMARK  8 active torsions:
REMARK  status: ('A' for Active; 'I' for Inactive)
REMARK    1  A    between atoms: S_7  and  C_1 
REMARK    2  A    between atoms: C_15  and  S_7 
REMARK    3  A    between atoms: C_8  and  C_15 
REMARK       I    between atoms: N_16  and  C_8 
REMARK    4  A    between atoms: C_9  and  C_18 
REMARK    5  A    between atoms: C_21  and  N_16 
REMARK    6  A    between atoms: S_17  and  C_22 
REMARK    7  A    between atoms: C_18  and  S_17 
REMARK    8  A    between atoms: C_22  and  C_21 
ROOT
ATOM      1  C   UNL d   1      -6.217  -1.494   0.032  0.00  0.00     0.227 C 
ATOM      2  O   UNL d   1      -6.756  -0.409  -0.165  0.00  0.00    -0.273 OA
ATOM      3  N   UNL d   1      -6.931  -2.675   0.115  0.00  0.00    -0.360 N 
ATOM      4  H   UNL d   1      -6.463  -3.511   0.448  0.00  0.00     0.162 HD
ENDROOT
BRANCH   1   5
ATOM      5  C   UNL d   1      -4.710  -1.650   0.148  0.00  0.00     0.185 C 
BRANCH   5   6
ATOM      6  S   UNL d   1      -4.044  -0.713   1.541  0.00  0.00    -0.077 SA
BRANCH   6   7
ATOM      7  C   UNL d   1      -4.609  -1.657   2.886  0.00  0.00     0.188 A 
ATOM      8  N   UNL d   1      -5.180  -2.843   2.768  0.00  0.00    -0.329 N 
ATOM      9  C   UNL d   1      -5.477  -3.192   4.063  0.00  0.00     0.068 A 
ATOM     10  HN  UNL d   1      -5.358  -3.375   1.916  1.00  0.00     0.168 HD
ATOM     11  C   UNL d   1      -6.115  -4.319   4.597  0.00  0.00     0.032 A 
ATOM     12  C   UNL d   1      -5.052  -2.198   4.926  0.00  0.00     0.105 A 
ATOM     13  C   UNL d   1      -6.336  -4.366   5.981  0.00  0.00     0.002 A 
ATOM     14  C   UNL d   1      -5.885  -3.341   6.819  0.00  0.00     0.003 A 
ATOM     15  C   UNL d   1      -5.210  -2.225   6.307  0.00  0.00     0.040 A 
ATOM     16  O   UNL d   1      -4.479  -1.216   4.178  0.00  0.00    -0.285 OA
ENDBRANCH   6   7
ENDBRANCH   5   6
ENDBRANCH   1   5
BRANCH   3  17
ATOM     17  C   UNL d   1      -8.368  -2.706  -0.087  0.00  0.00     0.132 C 
BRANCH  17  18
ATOM     18  C   UNL d   1      -9.059  -3.916   0.542  0.00  0.00     0.094 C 
BRANCH  18  19
ATOM     19  S   UNL d   1      -8.745  -4.168   2.323  0.00  0.00    -0.161 SA
BRANCH  19  20
ATOM     20  C   UNL d   1      -9.174  -2.524   2.992  0.00  0.00     0.139 C 
BRANCH  20  21
ATOM     21  C   UNL d   1     -10.640  -2.304   2.957  0.00  0.00     0.061 A 
ATOM     22  O   UNL d   1     -11.149  -1.728   1.830  0.00  0.00    -0.326 OA
ATOM     23  C   UNL d   1     -12.493  -1.650   2.001  0.00  0.00     0.142 A 
ATOM     24  C   UNL d   1     -12.855  -2.159   3.229  0.00  0.00     0.027 A 
ATOM     25  C   UNL d   1     -11.655  -2.575   3.849  0.00  0.00     0.035 A 
ENDBRANCH  20  21
ENDBRANCH  19  20
ENDBRANCH  18  19
ENDBRANCH  17  18
ENDBRANCH   3  17
TORSDOF 8
