REMARK  6 active torsions:
REMARK  status: ('A' for Active; 'I' for Inactive)
REMARK    1  A    between atoms: C_7  and  S_1 
REMARK    2  A    between atoms: C_18  and  S_1 
REMARK    3  A    between atoms: C_12  and  C_6 
REMARK    4  A    between atoms: C_10  and  N_19 
REMARK    5  A    between atoms: S_22  and  C_11 
REMARK    6  A    between atoms: N_19  and  C_13 
ROOT
ATOM      1  C   UNL d   1       0.512   1.153   0.939  0.00  0.00     0.160 C 
ATOM      2  C   UNL d   1      -0.220   2.113   0.344  0.00  0.00     0.141 C 
ATOM      3  C   UNL d   1       0.911  -0.028   0.278  0.00  0.00     0.113 C 
ATOM      4  N   UNL d   1       1.239  -0.983  -0.288  0.00  0.00    -0.191 NA
ENDROOT
BRANCH   1   5
ATOM      5  S   UNL d   1       0.875   1.315   2.627  0.00  0.00     0.218 S 
ATOM      6  O   UNL d   1      -0.116   0.577   3.390  0.00  0.00    -0.216 OA
ATOM      7  O   UNL d   1       1.126   2.711   2.943  0.00  0.00    -0.216 OA
BRANCH   5   8
ATOM      8  C   UNL d   1       2.434   0.470   2.881  0.00  0.00     0.065 A 
ATOM      9  C   UNL d   1       3.628   1.200   2.856  0.00  0.00     0.025 A 
ATOM     10  C   UNL d   1       4.836   0.558   3.145  0.00  0.00     0.025 A 
ATOM     11  C   UNL d   1       4.845  -0.800   3.466  0.00  0.00     0.034 A 
ATOM     12  C   UNL d   1       3.653  -1.524   3.505  0.00  0.00     0.025 A 
ATOM     13 CL   UNL d   1       6.332  -1.581   3.837  0.00  0.00    -0.084 Cl
ATOM     14  C   UNL d   1       2.441  -0.888   3.223  0.00  0.00     0.025 A 
ENDBRANCH   5   8
ENDBRANCH   1   5
BRANCH   2  15
ATOM     15  N   UNL d   1      -0.718   2.172  -0.943  0.00  0.00    -0.199 N 
ATOM     16  H   UNL d   1      -0.637   1.377  -1.565  0.00  0.00     0.183 HD
BRANCH  15  17
ATOM     17  C   UNL d   1      -1.464   3.214  -1.505  0.00  0.00     0.685 A 
ATOM     18  N   UNL d   1      -1.655   4.321  -0.797  0.00  0.00    -0.180 N 
ATOM     19  C   UNL d   1      -2.379   5.287  -1.360  0.00  0.00     0.103 A 
ATOM     20  HN  UNL d   1      -1.263   4.427   0.139  1.00  0.00     0.185 HD
ATOM     21  N   UNL d   1      -2.902   5.178  -2.576  0.00  0.00    -0.325 N 
ATOM     22  C   UNL d   1      -2.659   4.036  -3.212  0.00  0.00     0.160 A 
ATOM     23  HN  UNL d   1      -3.456   5.925  -2.996  1.00  0.00     0.169 HD
ATOM     24  N   UNL d   1      -1.945   3.022  -2.727  0.00  0.00    -0.170 N 
ATOM     25  HN  UNL d   1      -1.780   2.165  -3.254  1.00  0.00     0.186 HD
BRANCH  19  26
ATOM     26  C   UNL d   1      -2.639   6.526  -0.541  0.00  0.00     0.054 A 
ATOM     27  C   UNL d   1      -2.761   7.896  -1.162  0.00  0.00     0.013 A 
ATOM     28  C   UNL d   1      -1.534   7.546  -0.373  0.00  0.00     0.013 A 
ENDBRANCH  19  26
BRANCH  22  29
ATOM     29  S   UNL d   1      -3.401   3.913  -4.828  0.00  0.00    -0.098 SA
ATOM     30  C   UNL d   1      -2.904   2.251  -5.333  0.00  0.00     0.099 C 
ENDBRANCH  22  29
ENDBRANCH  15  17
ENDBRANCH   2  15
TORSDOF 6
