REMARK  4 active torsions:
REMARK  status: ('A' for Active; 'I' for Inactive)
REMARK    1  A    between atoms: C_4  and  C_1 
REMARK    2  A    between atoms: N_13  and  C_1 
REMARK    3  A    between atoms: N_6  and  N_2 
REMARK       I    between atoms: C_5  and  N_6 
REMARK    4  A    between atoms: C_9  and  C_5 
ROOT
ATOM      1  C   UNL d   1       1.146   0.071  -0.056  0.00  0.00     0.121 C 
ATOM      2  N   UNL d   1       0.437   0.945   0.602  0.00  0.00    -0.285 N 
ATOM      3  HN  UNL d   1      -0.566   1.042   0.441  1.00  0.00     0.188 HD
ENDROOT
BRANCH   2   4
ATOM      4  N   UNL d   1       1.085   1.723   1.514  0.00  0.00    -0.265 N 
ATOM      5  C   UNL d   1       0.358   2.600   2.308  0.00  0.00     0.270 C 
ATOM      6  O   UNL d   1      -0.848   2.781   2.242  0.00  0.00    -0.266 OA
ATOM      7  H   UNL d   1       2.083   1.617   1.606  0.00  0.00     0.190 HD
BRANCH   5   8
ATOM      8  C   UNL d   1       1.161   3.385   3.294  0.00  0.00     0.033 A 
ATOM      9  C   UNL d   1       0.671   4.638   3.689  0.00  0.00     0.019 A 
ATOM     10  C   UNL d   1       1.372   5.413   4.617  0.00  0.00     0.025 A 
ATOM     11  C   UNL d   1       2.561   4.933   5.159  0.00  0.00     0.034 A 
ATOM     12  C   UNL d   1       3.056   3.685   4.781  0.00  0.00     0.025 A 
ATOM     13 CL   UNL d   1       3.417   5.876   6.316  0.00  0.00    -0.084 Cl
ATOM     14  C   UNL d   1       2.356   2.906   3.853  0.00  0.00     0.019 A 
ENDBRANCH   5   8
ENDBRANCH   2   4
BRANCH   1  15
ATOM     15  C   UNL d   1       0.423  -0.817  -1.034  0.00  0.00     0.087 A 
ATOM     16  N   UNL d   1       1.218  -1.651  -1.768  0.00  0.00    -0.361 N 
ATOM     17  C   UNL d   1       0.550  -2.457  -2.628  0.00  0.00     0.105 A 
ATOM     18  HN  UNL d   1       2.234  -1.665  -1.676  1.00  0.00     0.165 HD
ATOM     19  C   UNL d   1      -0.831  -2.430  -2.764  0.00  0.00     0.104 A 
ATOM     20  N   UNL d   1      -1.615  -1.594  -2.047  0.00  0.00    -0.372 N 
ATOM     21  C   UNL d   1      -0.958  -0.784  -1.174  0.00  0.00     0.120 A 
ATOM     22  HN  UNL d   1      -2.630  -1.572  -2.153  1.00  0.00     0.164 HD
ENDBRANCH   1  15
BRANCH   1  23
ATOM     23  N   UNL d   1       2.514  -0.111   0.062  0.00  0.00    -0.286 NA
ATOM     24  H   UNL d   1       3.071   0.715   0.214  0.00  0.00     0.125 HD
ATOM     25  H   UNL d   1       2.883  -0.678  -0.705  0.00  0.00     0.125 HD
ENDBRANCH   1  23
TORSDOF 4
