REMARK  2 active torsions:
REMARK  status: ('A' for Active; 'I' for Inactive)
REMARK    1  A    between atoms: C_2  and  N_1 
REMARK    2  A    between atoms: O_8  and  C_3 
ROOT
ATOM      1  C   UNL d   1       0.196  -1.281  -0.226  0.00  0.00     0.153 A 
ATOM      2  C   UNL d   1      -0.857  -1.220  -1.123  0.00  0.00     0.175 A 
ATOM      3  N   UNL d   1      -1.547  -2.330  -1.489  0.00  0.00    -0.345 N 
ATOM      4  HN  UNL d   1      -2.319  -2.277  -2.154  1.00  0.00     0.167 HD
ATOM      5  C   UNL d   1       0.580  -2.506   0.326  0.00  0.00     0.042 A 
ATOM      6  C   UNL d   1      -1.173  -3.509  -0.939  0.00  0.00     0.090 A 
ATOM      7  C   UNL d   1      -0.127  -3.645  -0.039  0.00  0.00     0.020 A 
ENDROOT
BRANCH   1   8
ATOM      8  N   UNL d   1       0.916  -0.089   0.138  0.00  0.00    -0.111 N 
ATOM      9  O   UNL d   1       0.282   0.824   0.684  0.00  0.00    -0.532 OA
ATOM     10  O   UNL d   1       2.140  -0.096  -0.057  0.00  0.00    -0.532 OA
ENDBRANCH   1   8
BRANCH   2  11
ATOM     11  O   UNL d   1      -1.199  -0.013  -1.690  0.00  0.00    -0.339 OA
ATOM     12  C   UNL d   1      -2.298  -0.097  -2.594  0.00  0.00     0.211 C 
ENDBRANCH   2  11
TORSDOF 2
