REMARK  1 active torsions:
REMARK  status: ('A' for Active; 'I' for Inactive)
REMARK    1  A    between atoms: C_12  and  C_8 
ROOT
ATOM      1  C   UNL d   1      -0.232   0.750   0.024  0.00  0.00     0.129 A 
ATOM      2  N   UNL d   1      -0.282  -0.647   0.045  0.00  0.00    -0.244 N 
ATOM      3  N   UNL d   1      -1.566  -1.093   0.071  0.00  0.00    -0.292 N 
ATOM      4  HN  UNL d   1      -1.881  -2.062   0.124  1.00  0.00     0.187 HD
ATOM      5  C   UNL d   1      -1.536   1.177  -0.002  0.00  0.00     0.082 A 
ATOM      6  N   UNL d   1       0.941   1.449   0.018  0.00  0.00    -0.345 N 
ATOM      7  HN  UNL d   1       0.959   2.469   0.016  1.00  0.00     0.167 HD
ATOM      8  C   UNL d   1      -2.331   0.007   0.014  0.00  0.00     0.062 A 
ATOM      9  C   UNL d   1       0.905  -1.398   0.030  0.00  0.00     0.034 A 
ATOM     10  C   UNL d   1       2.085  -0.751   0.010  0.00  0.00     0.051 A 
ATOM     11  C   UNL d   1       2.033   0.744   0.013  0.00  0.00     0.009 A 
ATOM     12  C   UNL d   1       0.838  -2.894   0.023  0.00  0.00     0.070 C 
ATOM     13  C   UNL d   1       3.349   1.481   0.011  0.00  0.00     0.068 C 
ENDROOT
BRANCH   8  14
ATOM     14  C   UNL d   1      -3.792  -0.073  -0.034  0.00  0.00    -0.008 A 
ATOM     15  C   UNL d   1      -4.540   0.920  -0.688  0.00  0.00     0.015 A 
ATOM     16  C   UNL d   1      -5.934   0.834  -0.754  0.00  0.00     0.024 A 
ATOM     17  C   UNL d   1      -6.590  -0.243  -0.163  0.00  0.00     0.034 A 
ATOM     18  C   UNL d   1      -5.866  -1.232   0.498  0.00  0.00     0.024 A 
ATOM     19 CL   UNL d   1      -8.304  -0.354  -0.258  0.00  0.00    -0.084 Cl
ATOM     20  C   UNL d   1      -4.471  -1.148   0.559  0.00  0.00     0.015 A 
ENDBRANCH   8  14
TORSDOF 1
