REMARK  8 active torsions:
REMARK  status: ('A' for Active; 'I' for Inactive)
REMARK    1  A    between atoms: N_4  and  C_1 
REMARK    2  A    between atoms: N_5  and  C_1 
REMARK       I    between atoms: C_2  and  N_8 
REMARK    3  A    between atoms: O_9  and  C_2 
REMARK       I    between atoms: C_3  and  N_6 
REMARK    4  A    between atoms: C_13  and  C_3 
REMARK    5  A    between atoms: N_6  and  N_4 
REMARK    6  A    between atoms: C_14  and  N_5 
REMARK    7  A    between atoms: N_8  and  C_13 
REMARK    8  A    between atoms: C_12  and  O_9 
ROOT
ATOM      1  C   UNL d   1      -0.144  -2.674  -2.514  0.00  0.00     0.253 C 
ATOM      2  N   UNL d   1      -0.886  -1.748  -3.227  0.00  0.00    -0.266 N 
ATOM      3  O   UNL d   1      -0.095  -2.581  -1.287  0.00  0.00    -0.270 OA
ATOM      4  H   UNL d   1      -1.492  -1.162  -2.655  0.00  0.00     0.190 HD
ENDROOT
BRANCH   2   5
ATOM      5  N   UNL d   1      -1.300  -1.998  -4.533  0.00  0.00    -0.273 N 
ATOM      6  H   UNL d   1      -1.486  -2.965  -4.797  0.00  0.00     0.189 HD
BRANCH   5   7
ATOM      7  C   UNL d   1      -1.171  -1.107  -5.571  0.00  0.00     0.191 C 
ATOM      8  S   UNL d   1      -1.610  -1.683  -7.082  0.00  0.00    -0.039 SA
BRANCH   7   9
ATOM      9  N   UNL d   1      -0.754   0.160  -5.221  0.00  0.00    -0.332 N 
ATOM     10  H   UNL d   1      -0.971   0.418  -4.268  0.00  0.00     0.168 HD
BRANCH   9  11
ATOM     11  C   UNL d   1      -0.306   1.197  -6.066  0.00  0.00     0.034 A 
ATOM     12  C   UNL d   1      -0.538   2.522  -5.681  0.00  0.00     0.029 A 
ATOM     13  C   UNL d   1      -0.138   3.576  -6.507  0.00  0.00     0.002 A 
ATOM     14  C   UNL d   1       0.532   3.320  -7.702  0.00  0.00     0.000 A 
ATOM     15  C   UNL d   1       0.817   2.008  -8.063  0.00  0.00     0.002 A 
ATOM     16  C   UNL d   1       0.405   0.953  -7.245  0.00  0.00     0.029 A 
ENDBRANCH   9  11
ENDBRANCH   7   9
ENDBRANCH   5   7
ENDBRANCH   2   5
BRANCH   1  17
ATOM     17  C   UNL d   1       0.665  -3.718  -3.282  0.00  0.00     0.229 C 
BRANCH  17  18
ATOM     18  N   UNL d   1      -0.137  -4.536  -4.175  0.00  0.00    -0.328 N 
ATOM     19  C   UNL d   1       0.386  -5.053  -5.323  0.00  0.00     0.361 C 
ATOM     20  O   UNL d   1       1.514  -4.843  -5.733  0.00  0.00    -0.238 OA
ATOM     21  H   UNL d   1      -0.961  -5.007  -3.827  0.00  0.00     0.165 HD
BRANCH  19  22
ATOM     22  O   UNL d   1      -0.551  -5.830  -5.909  0.00  0.00    -0.294 OA
BRANCH  22  23
ATOM     23  C   UNL d   1      -0.252  -6.546  -7.137  0.00  0.00     0.061 C 
ATOM     24  C   UNL d   1       0.884  -7.553  -6.913  0.00  0.00     0.046 C 
ATOM     25  C   UNL d   1      -1.544  -7.311  -7.471  0.00  0.00     0.046 C 
ATOM     26  C   UNL d   1       0.059  -5.586  -8.292  0.00  0.00     0.046 C 
ENDBRANCH  22  23
ENDBRANCH  19  22
ENDBRANCH  17  18
ENDBRANCH   1  17
TORSDOF 8
