REMARK  6 active torsions:
REMARK  status: ('A' for Active; 'I' for Inactive)
REMARK    1  A    between atoms: N_4  and  S_1 
REMARK    2  A    between atoms: C_5  and  S_1 
REMARK    3  A    between atoms: S_2  and  C_6 
REMARK    4  A    between atoms: N_15  and  S_2 
REMARK    5  A    between atoms: C_3  and  C_7 
REMARK    6  A    between atoms: C_14  and  N_4 
ROOT
ATOM      1  N   UNL d   1       0.464  -1.644  -0.259  0.00  0.00    -0.281 N 
ATOM      2  H   UNL d   1      -0.480  -1.776   0.101  0.00  0.00     0.179 HD
ENDROOT
BRANCH   1   3
ATOM      3  S   UNL d   1       0.989  -0.045  -0.092  0.00  0.00     0.263 S 
ATOM      4  O   UNL d   1       2.426   0.010  -0.259  0.00  0.00    -0.200 OA
ATOM      5  O   UNL d   1       0.347   0.468   1.098  0.00  0.00    -0.200 OA
BRANCH   3   6
ATOM      6  C   UNL d   1       0.243   0.787  -1.486  0.00  0.00     0.080 A 
ATOM      7  C   UNL d   1      -1.033   1.352  -1.353  0.00  0.00     0.041 A 
ATOM      8  C   UNL d   1      -1.601   2.067  -2.420  0.00  0.00     0.049 A 
ATOM      9  C   UNL d   1      -0.868   2.203  -3.612  0.00  0.00     0.016 A 
ATOM     10  C   UNL d   1       0.406   1.645  -3.735  0.00  0.00     0.002 A 
ATOM     11  C   UNL d   1       0.970   0.943  -2.670  0.00  0.00     0.025 A 
BRANCH   8  12
ATOM     12  C   UNL d   1      -2.964   2.709  -2.303  0.00  0.00     0.417 C 
ATOM     13  F   UNL d   1      -3.569   2.485  -1.104  0.00  0.00    -0.166 F 
ATOM     14  F   UNL d   1      -2.918   4.061  -2.456  0.00  0.00    -0.166 F 
ATOM     15  F   UNL d   1      -3.831   2.254  -3.250  0.00  0.00    -0.166 F 
ENDBRANCH   8  12
ENDBRANCH   3   6
ENDBRANCH   1   3
BRANCH   1  16
ATOM     16  C   UNL d   1       0.834  -2.364  -1.424  0.00  0.00     0.044 A 
ATOM     17  C   UNL d   1      -0.059  -2.455  -2.485  0.00  0.00     0.054 A 
ATOM     18  C   UNL d   1       0.354  -3.075  -3.665  0.00  0.00     0.076 A 
ATOM     19  C   UNL d   1       1.623  -3.649  -3.778  0.00  0.00     0.025 A 
ATOM     20  C   UNL d   1       2.509  -3.557  -2.707  0.00  0.00     0.004 A 
ATOM     21  C   UNL d   1       2.120  -2.899  -1.537  0.00  0.00     0.030 A 
BRANCH  18  22
ATOM     22  S   UNL d   1      -0.733  -3.066  -5.054  0.00  0.00     0.239 S 
ATOM     23  O   UNL d   1      -0.380  -4.144  -5.947  0.00  0.00    -0.206 OA
ATOM     24  O   UNL d   1      -2.083  -2.835  -4.597  0.00  0.00    -0.206 OA
BRANCH  22  25
ATOM     25  N   UNL d   1      -0.246  -1.646  -5.807  0.00  0.00    -0.225 NA
ATOM     26  H   UNL d   1       0.122  -1.849  -6.737  0.00  0.00     0.136 HD
ATOM     27  H   UNL d   1      -0.999  -0.959  -5.789  0.00  0.00     0.136 HD
ENDBRANCH  22  25
ENDBRANCH  18  22
ENDBRANCH   1  16
TORSDOF 6
