REMARK  9 active torsions:
REMARK  status: ('A' for Active; 'I' for Inactive)
REMARK    1  A    between atoms: C_3  and  C_1 
REMARK    2  A    between atoms: N_4  and  C_2 
REMARK    3  A    between atoms: O_17  and  C_3 
REMARK       I    between atoms: C_5  and  N_4 
REMARK    4  A    between atoms: C_11  and  C_5 
REMARK    5  A    between atoms: C_8  and  C_11 
REMARK    6  A    between atoms: C_12  and  C_8 
REMARK    7  A    between atoms: C_16  and  C_8 
REMARK    8  A    between atoms: C_10  and  C_12 
REMARK    9  A    between atoms: O_18  and  C_10 
ROOT
ATOM      1  N   UNL d   1       3.080  -1.445  -1.763  0.00  0.00    -0.326 N 
ATOM      2  C   UNL d   1       3.308  -1.458  -0.404  0.00  0.00     0.222 C 
ATOM      3  O   UNL d   1       3.022  -2.354   0.384  0.00  0.00    -0.273 OA
ATOM      4  H   UNL d   1       3.603  -0.755  -2.290  0.00  0.00     0.169 HD
ENDROOT
BRANCH   2   5
ATOM      5  C   UNL d   1       3.979  -0.180   0.105  0.00  0.00     0.113 C 
BRANCH   5   6
ATOM      6  C   UNL d   1       2.925   0.850   0.544  0.00  0.00     0.037 C 
BRANCH   6   7
ATOM      7  C   UNL d   1       1.952   0.328   1.623  0.00  0.00     0.119 C 
BRANCH   7   8
ATOM      8  C   UNL d   1       2.605  -0.144   2.901  0.00  0.00     0.140 C 
ATOM      9  O   UNL d   1       2.789   0.560   3.879  0.00  0.00    -0.650 OA
BRANCH   8  10
ATOM     10  O   UNL d   1       2.993  -1.443   2.877  0.00  0.00    -0.776 OA
ATOM     11  H   UNL d   1       2.790  -1.933   2.043  0.00  0.00     0.167 HD
ENDBRANCH   8  10
ENDBRANCH   7   8
ENDBRANCH   6   7
BRANCH   6  12
ATOM     12  C   UNL d   1       3.481   2.208   0.969  0.00  0.00    -0.053 A 
ATOM     13  C   UNL d   1       2.804   3.374   0.567  0.00  0.00     0.007 A 
ATOM     14  C   UNL d   1       3.132   4.620   1.108  0.00  0.00     0.001 A 
ATOM     15  C   UNL d   1       4.149   4.722   2.053  0.00  0.00     0.000 A 
ATOM     16  C   UNL d   1       4.862   3.585   2.425  0.00  0.00     0.001 A 
ATOM     17  C   UNL d   1       4.540   2.337   1.879  0.00  0.00     0.007 A 
ENDBRANCH   6  12
ENDBRANCH   5   6
ENDBRANCH   2   5
BRANCH   1  18
ATOM     18  C   UNL d   1       2.519  -2.469  -2.534  0.00  0.00     0.058 A 
ATOM     19  C   UNL d   1       1.552  -3.508  -2.237  0.00  0.00     0.073 A 
ATOM     20  C   UNL d   1       1.402  -4.349  -3.337  0.00  0.00     0.069 A 
ATOM     21  S   UNL d   1       2.283  -3.864  -4.706  0.00  0.00    -0.110 SA
ATOM     22  C   UNL d   1       2.910  -2.529  -3.862  0.00  0.00     0.080 A 
BRANCH  19  23
ATOM     23  C   UNL d   1       0.695  -3.706  -1.058  0.00  0.00     0.295 C 
ATOM     24  O   UNL d   1       0.381  -2.817  -0.278  0.00  0.00    -0.259 OA
BRANCH  23  25
ATOM     25  O   UNL d   1       0.164  -4.970  -1.037  0.00  0.00    -0.322 OA
ATOM     26  C   UNL d   1      -0.908  -5.217  -0.126  0.00  0.00     0.213 C 
ENDBRANCH  23  25
ENDBRANCH  19  23
ENDBRANCH   1  18
TORSDOF 9
