REMARK  4 active torsions:
REMARK  status: ('A' for Active; 'I' for Inactive)
REMARK    1  A    between atoms: C_11  and  C_2 
REMARK    2  A    between atoms: C_13  and  C_10 
REMARK    3  A    between atoms: C_16  and  C_12 
REMARK    4  A    between atoms: O_25  and  C_22 
ROOT
ATOM      1  N   UNL d   1       0.299   0.646   0.046  0.00  0.00    -0.235 N 
ATOM      2  C   UNL d   1      -0.821   1.466   0.054  0.00  0.00     0.144 A 
ATOM      3  C   UNL d   1       0.154  -0.750   0.008  0.00  0.00     0.130 A 
ATOM      4  N   UNL d   1       1.603   0.994   0.060  0.00  0.00    -0.296 N 
ATOM      5  HN  UNL d   1       1.992   1.936   0.100  1.00  0.00     0.187 HD
ATOM      6  N   UNL d   1      -1.068  -1.361   0.014  0.00  0.00    -0.340 N 
ATOM      7  HN  UNL d   1      -1.156  -2.377  -0.012  1.00  0.00     0.167 HD
ATOM      8  C   UNL d   1      -2.049   0.911   0.047  0.00  0.00     0.067 A 
ATOM      9  C   UNL d   1       1.429  -1.270  -0.034  0.00  0.00     0.077 A 
ATOM     10  C   UNL d   1       2.273  -0.154   0.010  0.00  0.00     0.034 A 
ATOM     11  C   UNL d   1      -2.115  -0.586   0.055  0.00  0.00     0.046 A 
ENDROOT
BRANCH  11  12
ATOM     12  C   UNL d   1      -3.480  -1.195   0.084  0.00  0.00    -0.009 A 
ATOM     13  C   UNL d   1      -4.558  -0.576   0.732  0.00  0.00     0.016 A 
ATOM     14  C   UNL d   1      -5.828  -1.166   0.718  0.00  0.00     0.037 A 
ATOM     15  C   UNL d   1      -6.027  -2.386   0.073  0.00  0.00     0.068 A 
ATOM     16  C   UNL d   1      -4.953  -3.009  -0.564  0.00  0.00     0.037 A 
ATOM     17  C   UNL d   1      -3.682  -2.427  -0.548  0.00  0.00     0.016 A 
BRANCH  15  18
ATOM     18  O   UNL d   1      -7.226  -3.036  -0.033  0.00  0.00    -0.356 OA
ATOM     19  C   UNL d   1      -8.152  -2.802   1.023  0.00  0.00     0.210 C 
ENDBRANCH  15  18
ENDBRANCH  11  12
BRANCH   2  20
ATOM     20  C   UNL d   1      -0.638   2.938   0.050  0.00  0.00     0.434 C 
ATOM     21  F   UNL d   1       0.628   3.405  -0.011  0.00  0.00    -0.165 F 
ATOM     22  F   UNL d   1      -1.299   3.495  -1.004  0.00  0.00    -0.165 F 
ATOM     23  F   UNL d   1      -1.198   3.489   1.163  0.00  0.00    -0.165 F 
ENDBRANCH   2  20
BRANCH  10  24
ATOM     24  C   UNL d   1       3.793  -0.226   0.003  0.00  0.00     0.037 A 
ATOM     25  C   UNL d   1       4.565   0.825   0.779  0.00  0.00     0.011 A 
ATOM     26  C   UNL d   1       4.562   0.870  -0.710  0.00  0.00     0.011 A 
ENDBRANCH  10  24
TORSDOF 4
