REMARK  3 active torsions:
REMARK  status: ('A' for Active; 'I' for Inactive)
REMARK    1  A    between atoms: C_4  and  C_1 
REMARK    2  A    between atoms: C_2  and  C_3 
REMARK    3  A    between atoms: N_12  and  C_4 
ROOT
ATOM      1  C   UNL d   1       0.797   1.279  -0.013  0.00  0.00     0.032 A 
ATOM      2  C   UNL d   1       1.515   0.079  -0.103  0.00  0.00     0.063 A 
ATOM      3  N   UNL d   1      -1.288   0.052   0.171  0.00  0.00    -0.374 N 
ATOM      4  HN  UNL d   1      -2.303   0.046   0.268  1.00  0.00     0.164 HD
ATOM      5  C   UNL d   1      -0.588   1.210   0.112  0.00  0.00     0.102 A 
ATOM      6  C   UNL d   1       0.798  -1.128  -0.037  0.00  0.00     0.034 A 
ATOM      7  C   UNL d   1      -0.581  -1.092   0.094  0.00  0.00     0.088 A 
ENDROOT
BRANCH   1   8
ATOM      8  C   UNL d   1       1.442   2.607  -0.026  0.00  0.00     0.106 C 
ATOM      9  S   UNL d   1       1.100   3.808  -1.133  0.00  0.00    -0.060 SA
BRANCH   8  10
ATOM     10  N   UNL d   1       2.365   2.840   0.957  0.00  0.00    -0.389 N 
ATOM     11  H   UNL d   1       2.598   2.188   1.700  0.00  0.00     0.157 HD
ATOM     12  H   UNL d   1       2.829   3.742   0.980  0.00  0.00     0.157 HD
ENDBRANCH   8  10
ENDBRANCH   1   8
BRANCH   2  13
ATOM     13  C   UNL d   1       3.011   0.028  -0.236  0.00  0.00     0.418 C 
ATOM     14  F   UNL d   1       3.563   1.063  -0.919  0.00  0.00    -0.166 F 
ATOM     15  F   UNL d   1       3.621   0.006   0.983  0.00  0.00    -0.166 F 
ATOM     16  F   UNL d   1       3.438  -1.096  -0.879  0.00  0.00    -0.166 F 
ENDBRANCH   2  13
TORSDOF 3
