REMARK  7 active torsions:
REMARK  status: ('A' for Active; 'I' for Inactive)
REMARK    1  A    between atoms: C_2  and  C_1 
REMARK       I    between atoms: N_3  and  C_1 
REMARK    2  A    between atoms: N_6  and  N_3 
REMARK       I    between atoms: C_4  and  N_6 
REMARK    3  A    between atoms: C_17  and  C_4 
REMARK    4  A    between atoms: C_7  and  C_18 
REMARK       I    between atoms: N_8  and  C_7 
REMARK    5  A    between atoms: C_16  and  N_8 
REMARK    6  A    between atoms: S_15  and  C_17 
REMARK    7  A    between atoms: C_18  and  S_15 
ROOT
ATOM      1  C   UNL d   1      -2.277   2.006   1.071  0.00  0.00     0.245 C 
ATOM      2  N   UNL d   1      -1.215   2.883   1.122  0.00  0.00    -0.267 N 
ATOM      3  O   UNL d   1      -2.212   0.861   1.518  0.00  0.00    -0.271 OA
ATOM      4  H   UNL d   1      -1.283   3.861   0.848  0.00  0.00     0.190 HD
ENDROOT
BRANCH   1   5
ATOM      5  C   UNL d   1      -3.502   2.535   0.353  0.00  0.00     0.178 C 
BRANCH   5   6
ATOM      6  S   UNL d   1      -4.237   3.967   1.221  0.00  0.00    -0.150 SA
BRANCH   6   7
ATOM      7  C   UNL d   1      -5.730   4.100   0.195  0.00  0.00     0.177 C 
BRANCH   7   8
ATOM      8  C   UNL d   1      -6.717   5.196   0.562  0.00  0.00     0.231 C 
ATOM      9  N   UNL d   1      -6.397   5.999   1.635  0.00  0.00    -0.327 N 
ATOM     10  H   UNL d   1      -5.477   5.849   2.041  0.00  0.00     0.169 HD
ATOM     11  O   UNL d   1      -7.726   5.317  -0.140  0.00  0.00    -0.272 OA
BRANCH   9  12
ATOM     12  C   UNL d   1      -7.154   7.083   2.133  0.00  0.00     0.034 A 
ATOM     13  C   UNL d   1      -8.481   7.329   1.766  0.00  0.00     0.029 A 
ATOM     14  C   UNL d   1      -9.161   8.453   2.246  0.00  0.00     0.002 A 
ATOM     15  C   UNL d   1      -8.522   9.343   3.102  0.00  0.00     0.000 A 
ATOM     16  C   UNL d   1      -7.210   9.093   3.501  0.00  0.00     0.002 A 
ATOM     17  C   UNL d   1      -6.533   7.962   3.029  0.00  0.00     0.029 A 
ENDBRANCH   9  12
ENDBRANCH   7   8
ENDBRANCH   6   7
ENDBRANCH   5   6
ENDBRANCH   1   5
BRANCH   2  18
ATOM     18  N   UNL d   1      -0.054   2.485   1.790  0.00  0.00    -0.263 N 
ATOM     19  C   UNL d   1       1.141   3.134   1.532  0.00  0.00     0.277 C 
ATOM     20  O   UNL d   1       1.186   4.085   0.749  0.00  0.00    -0.265 OA
ATOM     21  H   UNL d   1      -0.091   1.614   2.317  0.00  0.00     0.190 HD
BRANCH  19  22
ATOM     22  C   UNL d   1       2.309   2.634   2.245  0.00  0.00     0.074 A 
ATOM     23  S   UNL d   1       2.191   1.458   3.489  0.00  0.00    -0.097 SA
ATOM     24  C   UNL d   1       3.869   1.520   3.807  0.00  0.00     0.050 A 
ATOM     25  C   UNL d   1       4.521   2.394   2.967  0.00  0.00     0.009 A 
ATOM     26  C   UNL d   1       3.622   3.033   2.065  0.00  0.00     0.025 A 
ENDBRANCH  19  22
ENDBRANCH   2  18
TORSDOF 7
