REMARK  6 active torsions:
REMARK  status: ('A' for Active; 'I' for Inactive)
REMARK    1  A    between atoms: C_10  and  N_1 
REMARK    2  A    between atoms: C_9  and  C_2 
REMARK    3  A    between atoms: N_3  and  C_9 
REMARK    4  A    between atoms: S_19  and  C_6 
REMARK    5  A    between atoms: C_30  and  S_19 
REMARK    6  A    between atoms: C_21  and  C_30 
ROOT
ATOM      1  N   UNL d   1      -0.212  -1.031   0.867  0.00  0.00    -0.276 N 
ATOM      2  C   UNL d   1       0.873  -0.604   0.094  0.00  0.00     0.123 A 
ATOM      3  N   UNL d   1       0.595   0.577  -0.434  0.00  0.00    -0.285 N 
ATOM      4  HN  UNL d   1       1.237   1.145  -0.987  1.00  0.00     0.188 HD
ATOM      5  C   UNL d   1      -1.175  -0.057   0.616  0.00  0.00     0.168 A 
ATOM      6  N   UNL d   1      -0.677   0.907  -0.121  0.00  0.00    -0.278 N 
ATOM      7  HN  UNL d   1      -1.164   1.756  -0.408  1.00  0.00     0.189 HD
ENDROOT
BRANCH   2   8
ATOM      8  C   UNL d   1       2.150  -1.306  -0.276  0.00  0.00     0.208 C 
BRANCH   8   9
ATOM      9  N   UNL d   1       2.278  -2.750  -0.570  0.00  0.00    -0.337 N 
ATOM     10  C   UNL d   1       1.192  -3.525  -1.032  0.00  0.00     0.052 A 
ATOM     11  C   UNL d   1       1.182  -4.925  -0.838  0.00  0.00     0.032 A 
ATOM     12  C   UNL d   1       0.097  -2.970  -1.717  0.00  0.00     0.031 A 
ATOM     13  C   UNL d   1       0.065  -5.696  -1.193  0.00  0.00     0.021 A 
ATOM     14  S   UNL d   1       2.576  -5.788  -0.129  0.00  0.00    -0.086 SA
ATOM     15  C   UNL d   1      -1.041  -5.101  -1.790  0.00  0.00     0.002 A 
ATOM     16  C   UNL d   1      -1.016  -3.742  -2.073  0.00  0.00     0.002 A 
ATOM     17  C   UNL d   1       3.881  -4.626  -0.502  0.00  0.00     0.032 A 
ATOM     18  C   UNL d   1       3.622  -3.244  -0.614  0.00  0.00     0.052 A 
ATOM     19  C   UNL d   1       5.187  -5.129  -0.639  0.00  0.00     0.021 A 
ATOM     20  C   UNL d   1       4.732  -2.400  -0.841  0.00  0.00     0.031 A 
ATOM     21  C   UNL d   1       6.031  -2.905  -0.973  0.00  0.00     0.002 A 
ATOM     22  C   UNL d   1       6.257  -4.271  -0.881  0.00  0.00     0.002 A 
ENDBRANCH   8   9
ENDBRANCH   2   8
BRANCH   1  23
ATOM     23  C   UNL d   1      -0.357  -2.233   1.622  0.00  0.00     0.065 A 
ATOM     24  C   UNL d   1       0.617  -2.688   2.521  0.00  0.00     0.062 A 
ATOM     25  C   UNL d   1       0.446  -3.910   3.188  0.00  0.00     0.050 A 
ATOM     26 CL   UNL d   1       1.973  -1.737   3.015  0.00  0.00    -0.082 Cl
ATOM     27  C   UNL d   1      -0.707  -4.665   2.984  0.00  0.00     0.035 A 
ATOM     28  C   UNL d   1      -1.698  -4.210   2.125  0.00  0.00     0.026 A 
ATOM     29 CL   UNL d   1      -0.919  -6.155   3.816  0.00  0.00    -0.084 Cl
ATOM     30  C   UNL d   1      -1.524  -3.004   1.443  0.00  0.00     0.033 A 
ENDBRANCH   1  23
BRANCH   5  31
ATOM     31  S   UNL d   1      -2.797   0.005   1.236  0.00  0.00    -0.088 SA
BRANCH  31  32
ATOM     32  C   UNL d   1      -3.499   1.228   0.078  0.00  0.00     0.108 C 
BRANCH  32  33
ATOM     33  C   UNL d   1      -4.968   1.392   0.329  0.00  0.00    -0.026 C 
ATOM     34  C   UNL d   1      -5.915   1.243  -0.609  0.00  0.00     0.007 C 
ENDBRANCH  32  33
ENDBRANCH  31  32
ENDBRANCH   5  31
TORSDOF 6
