REMARK  5 active torsions:
REMARK  status: ('A' for Active; 'I' for Inactive)
REMARK    1  A    between atoms: C_7  and  N_1 
REMARK    2  A    between atoms: C_9  and  C_2 
REMARK    3  A    between atoms: C_12  and  C_4 
REMARK    4  A    between atoms: C_10  and  C_5 
REMARK    5  A    between atoms: O_11  and  C_6 
ROOT
ATOM      1  N   UNL d   1      -0.655   1.218   0.041  0.00  0.00    -0.277 N 
ATOM      2  C   UNL d   1      -0.715  -1.242  -0.001  0.00  0.00     0.076 A 
ATOM      3  C   UNL d   1      -1.444   0.061   0.116  0.00  0.00     0.266 A 
ATOM      4  C   UNL d   1       1.419  -0.017  -0.069  0.00  0.00     0.004 A 
ATOM      5  C   UNL d   1       0.745   1.168  -0.014  0.00  0.00     0.062 A 
ATOM      6  C   UNL d   1       0.623  -1.238  -0.125  0.00  0.00     0.090 A 
ATOM      7  O   UNL d   1      -2.670   0.060   0.250  0.00  0.00    -0.267 OA
ENDROOT
BRANCH   1   8
ATOM      8  C   UNL d   1      -1.377   2.454   0.026  0.00  0.00     0.043 A 
ATOM      9  C   UNL d   1      -1.715   3.088   1.225  0.00  0.00     0.030 A 
ATOM     10  C   UNL d   1      -2.470   4.261   1.200  0.00  0.00     0.002 A 
ATOM     11  C   UNL d   1      -2.898   4.799  -0.015  0.00  0.00     0.000 A 
ATOM     12  C   UNL d   1      -2.568   4.160  -1.211  0.00  0.00     0.002 A 
ATOM     13  C   UNL d   1      -1.812   2.986  -1.192  0.00  0.00     0.030 A 
ENDBRANCH   1   8
BRANCH   5  14
ATOM     14  C   UNL d   1       1.507   2.444   0.019  0.00  0.00    -0.008 A 
ATOM     15  C   UNL d   1       1.883   3.082  -1.171  0.00  0.00     0.014 A 
ATOM     16  C   UNL d   1       2.677   4.230  -1.135  0.00  0.00     0.001 A 
ATOM     17  C   UNL d   1       3.096   4.753   0.088  0.00  0.00     0.000 A 
ATOM     18  C   UNL d   1       2.718   4.132   1.278  0.00  0.00     0.001 A 
ATOM     19  C   UNL d   1       1.925   2.983   1.245  0.00  0.00     0.014 A 
ENDBRANCH   5  14
BRANCH   2  20
ATOM     20  C   UNL d   1      -1.475  -2.509  -0.003  0.00  0.00    -0.018 A 
ATOM     21  C   UNL d   1      -1.727  -3.184   1.202  0.00  0.00     0.012 A 
ATOM     22  C   UNL d   1      -2.432  -4.390   1.202  0.00  0.00     0.001 A 
ATOM     23  C   UNL d   1      -2.890  -4.929  -0.000  0.00  0.00     0.000 A 
ATOM     24  C   UNL d   1      -2.646  -4.266  -1.200  0.00  0.00     0.001 A 
ATOM     25  C   UNL d   1      -1.940  -3.060  -1.204  0.00  0.00     0.012 A 
ENDBRANCH   2  20
BRANCH   4  26
ATOM     26  C   UNL d   1       2.954  -0.030  -0.055  0.00  0.00     0.039 C 
ATOM     27  C   UNL d   1       3.775  -1.316  -0.066  0.00  0.00     0.010 C 
ENDBRANCH   4  26
BRANCH   6  28
ATOM     28  O   UNL d   1       1.302  -2.410  -0.375  0.00  0.00    -0.359 OA
ATOM     29  H   UNL d   1       1.631  -2.733   0.482  0.00  0.00     0.217 HD
ENDBRANCH   6  28
TORSDOF 5
