REMARK  9 active torsions:
REMARK  status: ('A' for Active; 'I' for Inactive)
REMARK    1  A    between atoms: C_3  and  C_1 
REMARK       I    between atoms: C_2  and  N_7 
REMARK    2  A    between atoms: C_4  and  C_2 
REMARK       I    between atoms: N_8  and  C_3 
REMARK    3  A    between atoms: C_5  and  C_18 
REMARK    4  A    between atoms: C_6  and  C_19 
REMARK    5  A    between atoms: N_7  and  N_8 
REMARK    6  A    between atoms: O_12  and  C_9 
REMARK    7  A    between atoms: C_18  and  O_12 
REMARK    8  A    between atoms: C_19  and  O_28 
REMARK    9  A    between atoms: O_28  and  C_27 
ROOT
ATOM      1  C   UNL d   1       1.507  -0.126   0.021  0.00  0.00     0.069 A 
ATOM      2  C   UNL d   1       0.729  -1.294   0.065  0.00  0.00     0.085 A 
ATOM      3  C   UNL d   1       0.863   1.126  -0.036  0.00  0.00     0.056 A 
ATOM      4  C   UNL d   1      -0.671  -1.181   0.047  0.00  0.00     0.040 A 
ATOM      5  C   UNL d   1      -0.528   1.223  -0.019  0.00  0.00     0.070 A 
ATOM      6  C   UNL d   1      -1.300   0.068  -0.006  0.00  0.00     0.039 A 
ENDROOT
BRANCH   1   7
ATOM      7  C   UNL d   1       2.986  -0.116   0.181  0.00  0.00     0.273 C 
ATOM      8  N   UNL d   1       3.669   0.818  -0.581  0.00  0.00    -0.263 N 
ATOM      9  H   UNL d   1       3.246   1.425  -1.281  0.00  0.00     0.190 HD
ATOM     10  O   UNL d   1       3.551  -0.882   0.949  0.00  0.00    -0.266 OA
BRANCH   8  11
ATOM     11  N   UNL d   1       5.052   0.930  -0.410  0.00  0.00    -0.261 N 
ATOM     12  C   UNL d   1       5.807   1.615  -1.343  0.00  0.00     0.293 C 
ATOM     13  O   UNL d   1       5.288   2.131  -2.335  0.00  0.00    -0.264 OA
ATOM     14  H   UNL d   1       5.479   0.456   0.385  0.00  0.00     0.190 HD
BRANCH  12  15
ATOM     15  C   UNL d   1       7.220   1.671  -1.046  0.00  0.00     0.144 A 
ATOM     16  O   UNL d   1       7.678   1.209   0.162  0.00  0.00    -0.317 OA
ATOM     17  C   UNL d   1       9.021   1.411   0.185  0.00  0.00     0.143 A 
ATOM     18  C   UNL d   1       9.446   1.976  -0.994  0.00  0.00     0.027 A 
ATOM     19  C   UNL d   1       8.287   2.147  -1.789  0.00  0.00     0.045 A 
ENDBRANCH  12  15
ENDBRANCH   8  11
ENDBRANCH   1   7
BRANCH   2  20
ATOM     20  O   UNL d   1       1.164  -2.584   0.217  0.00  0.00    -0.341 OA
BRANCH  20  21
ATOM     21  C   UNL d   1       2.223  -3.020  -0.649  0.00  0.00     0.293 C 
BRANCH  21  22
ATOM     22  C   UNL d   1       2.003  -4.457  -1.120  0.00  0.00     0.408 C 
ATOM     23  F   UNL d   1       0.716  -4.854  -1.006  0.00  0.00    -0.169 F 
ATOM     24  F   UNL d   1       2.342  -4.584  -2.427  0.00  0.00    -0.169 F 
ATOM     25  F   UNL d   1       2.765  -5.332  -0.425  0.00  0.00    -0.169 F 
ENDBRANCH  21  22
ENDBRANCH  20  21
ENDBRANCH   2  20
BRANCH   5  26
ATOM     26  O   UNL d   1      -1.025   2.495  -0.025  0.00  0.00    -0.342 OA
BRANCH  26  27
ATOM     27  C   UNL d   1      -2.215   2.700   0.754  0.00  0.00     0.293 C 
BRANCH  27  28
ATOM     28  C   UNL d   1      -2.264   4.117   1.326  0.00  0.00     0.408 C 
ATOM     29  F   UNL d   1      -1.167   4.845   1.027  0.00  0.00    -0.169 F 
ATOM     30  F   UNL d   1      -3.341   4.791   0.858  0.00  0.00    -0.169 F 
ATOM     31  F   UNL d   1      -2.369   4.084   2.677  0.00  0.00    -0.169 F 
ENDBRANCH  27  28
ENDBRANCH  26  27
ENDBRANCH   5  26
TORSDOF 9
