REMARK  5 active torsions:
REMARK  status: ('A' for Active; 'I' for Inactive)
REMARK    1  A    between atoms: C_2  and  C_1 
REMARK    2  A    between atoms: S_15  and  C_7 
REMARK    3  A    between atoms: C_13  and  C_20 
REMARK       I    between atoms: N_14  and  C_13 
REMARK    4  A    between atoms: C_16  and  N_14 
REMARK    5  A    between atoms: C_20  and  S_15 
ROOT
ATOM      1  C   UNL d   1      -0.871   2.687   1.588  0.00  0.00     0.197 C 
ATOM      2  S   UNL d   1      -0.484   4.168   0.619  0.00  0.00    -0.076 SA
ATOM      3  C   UNL d   1      -2.214   4.413   0.514  0.00  0.00     0.120 C 
ATOM      4  N   UNL d   1      -2.219   2.327   1.145  0.00  0.00    -0.219 NA
ATOM      5  N   UNL d   1      -2.983   3.407   0.808  0.00  0.00    -0.308 N 
ATOM      6  HN  UNL d   1      -4.003   3.422   0.789  1.00  0.00     0.182 HD
ATOM      7  H   UNL d   1      -2.674   1.712   1.820  0.00  0.00     0.148 HD
ENDROOT
BRANCH   3   8
ATOM      8  S   UNL d   1      -2.845   6.000   0.175  0.00  0.00    -0.095 SA
BRANCH   8   9
ATOM      9  C   UNL d   1      -4.324   5.860   1.220  0.00  0.00     0.184 C 
BRANCH   9  10
ATOM     10  C   UNL d   1      -5.138   7.124   1.421  0.00  0.00     0.231 C 
ATOM     11  N   UNL d   1      -4.883   8.173   0.566  0.00  0.00    -0.326 N 
ATOM     12  H   UNL d   1      -4.162   8.015  -0.130  0.00  0.00     0.169 HD
ATOM     13  O   UNL d   1      -6.008   7.114   2.293  0.00  0.00    -0.272 OA
BRANCH  11  14
ATOM     14  C   UNL d   1      -5.570   9.408   0.516  0.00  0.00     0.036 A 
ATOM     15  C   UNL d   1      -6.539   9.800   1.446  0.00  0.00     0.053 A 
ATOM     16  C   UNL d   1      -7.206  11.017   1.300  0.00  0.00     0.036 A 
ATOM     17 CL   UNL d   1      -8.405  11.479   2.447  0.00  0.00    -0.084 Cl
ATOM     18  C   UNL d   1      -6.916  11.862   0.233  0.00  0.00     0.024 A 
ATOM     19  C   UNL d   1      -5.936  11.493  -0.687  0.00  0.00     0.004 A 
ATOM     20  C   UNL d   1      -5.262  10.275  -0.540  0.00  0.00     0.029 A 
ENDBRANCH  11  14
ENDBRANCH   9  10
ENDBRANCH   8   9
ENDBRANCH   3   8
BRANCH   1  21
ATOM     21  C   UNL d   1       0.048   1.517   1.501  0.00  0.00     0.078 A 
ATOM     22  C   UNL d   1       0.500   0.773   0.380  0.00  0.00     0.077 A 
ATOM     23  C   UNL d   1       1.242  -0.261   0.903  0.00  0.00     0.135 A 
ATOM     24 CL   UNL d   1       0.164   1.045  -1.257  0.00  0.00    -0.081 Cl
ATOM     25  N   UNL d   1       1.200  -0.105   2.253  0.00  0.00    -0.306 N 
ATOM     26  N   UNL d   1       0.488   0.962   2.649  0.00  0.00    -0.299 N 
ATOM     27  C   UNL d   1       1.780  -0.983   3.243  0.00  0.00     0.177 C 
ATOM     28  HN  UNL d   1       0.318   1.281   3.603  1.00  0.00     0.187 HD
ENDBRANCH   1  21
TORSDOF 5
