REMARK  3 active torsions:
REMARK  status: ('A' for Active; 'I' for Inactive)
REMARK    1  A    between atoms: C_12  and  C_1 
REMARK    2  A    between atoms: C_13  and  C_7 
REMARK    3  A    between atoms: C_8  and  C_9 
ROOT
ATOM      1  C   UNL d   1      -0.231  -1.069   0.023  0.00  0.00     0.191 A 
ATOM      2  O   UNL d   1      -1.097  -0.007  -0.012  0.00  0.00    -0.271 OA
ATOM      3  N   UNL d   1       1.033  -0.689   0.022  0.00  0.00    -0.276 N 
ATOM      4  HN  UNL d   1       1.853  -1.295   0.048  1.00  0.00     0.189 HD
ATOM      5  N   UNL d   1       1.026   0.692  -0.020  0.00  0.00    -0.277 N 
ATOM      6  HN  UNL d   1       1.840   1.306  -0.034  1.00  0.00     0.189 HD
ATOM      7  C   UNL d   1      -0.240   1.060  -0.040  0.00  0.00     0.174 A 
ENDROOT
BRANCH   1   8
ATOM      8  C   UNL d   1      -0.813  -2.405   0.056  0.00  0.00     0.085 A 
ATOM      9  N   UNL d   1      -2.170  -2.480   0.028  0.00  0.00    -0.362 N 
ATOM     10  C   UNL d   1      -2.732  -3.711   0.063  0.00  0.00     0.104 A 
ATOM     11  HN  UNL d   1      -2.745  -1.639  -0.017  1.00  0.00     0.165 HD
ATOM     12  C   UNL d   1      -2.008  -4.892   0.125  0.00  0.00     0.063 A 
ATOM     13  C   UNL d   1      -0.613  -4.793   0.148  0.00  0.00     0.020 A 
ATOM     14  C   UNL d   1      -0.007  -3.538   0.113  0.00  0.00     0.035 A 
BRANCH  12  15
ATOM     15  C   UNL d   1      -2.705  -6.218   0.169  0.00  0.00     0.418 C 
ATOM     16  F   UNL d   1      -4.062  -6.122   0.135  0.00  0.00    -0.166 F 
ATOM     17  F   UNL d   1      -2.360  -7.021  -0.874  0.00  0.00    -0.166 F 
ATOM     18  F   UNL d   1      -2.408  -6.921   1.296  0.00  0.00    -0.166 F 
ENDBRANCH  12  15
ENDBRANCH   1   8
BRANCH   7  19
ATOM     19  C   UNL d   1      -0.835   2.389  -0.102  0.00  0.00     0.017 A 
ATOM     20  C   UNL d   1      -2.226   2.577  -0.070  0.00  0.00     0.017 A 
ATOM     21  C   UNL d   1      -2.777   3.861  -0.150  0.00  0.00     0.025 A 
ATOM     22  C   UNL d   1      -1.940   4.968  -0.262  0.00  0.00     0.034 A 
ATOM     23  C   UNL d   1      -0.558   4.804  -0.287  0.00  0.00     0.025 A 
ATOM     24 CL   UNL d   1      -2.618   6.545  -0.373  0.00  0.00    -0.084 Cl
ATOM     25  C   UNL d   1      -0.008   3.519  -0.206  0.00  0.00     0.017 A 
ENDBRANCH   7  19
TORSDOF 3
