REMARK  1 active torsions:
REMARK  status: ('A' for Active; 'I' for Inactive)
REMARK    1  A    between atoms: C_2  and  C_1 
REMARK       I    between atoms: N_3  and  C_1 
ROOT
ATOM      1  C   UNL d   1       0.865  -0.139  -0.245  0.00  0.00     0.274 C 
ATOM      2  N   UNL d   1       0.396   1.189  -0.361  0.00  0.00    -0.344 N 
ATOM      3  O   UNL d   1       1.708  -0.521  -1.067  0.00  0.00    -0.268 OA
ATOM      4  O   UNL d   1      -0.468   3.881  -0.879  0.00  0.00    -0.388 OA
ATOM      5  C   UNL d   1      -0.794   1.748   0.296  0.00  0.00     0.152 C 
ATOM      6  C   UNL d   1       0.812   1.930  -1.564  0.00  0.00     0.152 C 
ATOM      7  C   UNL d   1       0.819   3.441  -1.331  0.00  0.00     0.187 C 
ATOM      8  C   UNL d   1      -0.776   3.281   0.381  0.00  0.00     0.187 C 
ENDROOT
BRANCH   1   9
ATOM      9  C   UNL d   1       0.440  -1.068   0.933  0.00  0.00     0.269 C 
ATOM     10 CL   UNL d   1      -1.329  -1.216   1.107  0.00  0.00    -0.073 Cl
ATOM     11 CL   UNL d   1       1.052  -2.737   0.630  0.00  0.00    -0.073 Cl
ATOM     12 CL   UNL d   1       1.194  -0.456   2.429  0.00  0.00    -0.073 Cl
ENDBRANCH   1   9
TORSDOF 1
