REMARK  7 active torsions:
REMARK  status: ('A' for Active; 'I' for Inactive)
REMARK    1  A    between atoms: N_2  and  C_1 
REMARK    2  A    between atoms: C_3  and  C_1 
REMARK    3  A    between atoms: C_4  and  C_1 
REMARK    4  A    between atoms: N_5  and  C_1 
REMARK       I    between atoms: C_6  and  N_2 
REMARK    5  A    between atoms: C_7  and  N_5 
REMARK    6  A    between atoms: O_20  and  C_6 
REMARK    7  A    between atoms: C_23  and  O_20 
ROOT
ATOM      1  C   UNL d   1       0.978  -0.047   0.235  0.00  0.00     0.308 C 
ENDROOT
BRANCH   1   2
ATOM      2  N   UNL d   1       0.501   1.190   0.841  0.00  0.00    -0.295 N 
ATOM      3  C   UNL d   1      -0.809   1.449   0.996  0.00  0.00     0.362 C 
ATOM      4  O   UNL d   1      -1.703   0.804   0.466  0.00  0.00    -0.238 OA
ATOM      5  H   UNL d   1       1.117   1.687   1.468  0.00  0.00     0.168 HD
BRANCH   3   6
ATOM      6  O   UNL d   1      -0.937   2.525   1.794  0.00  0.00    -0.304 OA
BRANCH   6   7
ATOM      7  C   UNL d   1      -2.220   3.155   1.802  0.00  0.00     0.176 C 
ATOM      8  C   UNL d   1      -2.185   4.264   0.768  0.00  0.00     0.034 C 
ENDBRANCH   6   7
ENDBRANCH   3   6
ENDBRANCH   1   2
BRANCH   1   9
ATOM      9  C   UNL d   1       0.525  -0.204  -1.277  0.00  0.00     0.441 C 
ATOM     10  F   UNL d   1      -0.027   0.943  -1.758  0.00  0.00    -0.166 F 
ATOM     11  F   UNL d   1       1.632  -0.401  -2.060  0.00  0.00    -0.166 F 
ATOM     12  F   UNL d   1      -0.323  -1.200  -1.577  0.00  0.00    -0.166 F 
ENDBRANCH   1   9
BRANCH   1  13
ATOM     13  C   UNL d   1       0.548  -1.364   0.996  0.00  0.00     0.441 C 
ATOM     14  F   UNL d   1      -0.095  -1.079   2.161  0.00  0.00    -0.166 F 
ATOM     15  F   UNL d   1      -0.271  -2.199   0.327  0.00  0.00    -0.166 F 
ATOM     16  F   UNL d   1       1.629  -2.115   1.345  0.00  0.00    -0.166 F 
ENDBRANCH   1  13
BRANCH   1  17
ATOM     17  N   UNL d   1       2.476   0.206   0.262  0.00  0.00    -0.346 N 
ATOM     18  H   UNL d   1       2.870   0.394  -0.658  0.00  0.00     0.163 HD
BRANCH  17  19
ATOM     19  C   UNL d   1       3.334   0.306   1.345  0.00  0.00     0.069 A 
ATOM     20  C   UNL d   1       2.944   0.328   2.696  0.00  0.00     0.145 A 
ATOM     21  C   UNL d   1       3.857   0.407   3.743  0.00  0.00     0.086 A 
ATOM     22  F   UNL d   1       1.647   0.325   3.026  0.00  0.00    -0.204 F 
ATOM     23  C   UNL d   1       5.205   0.461   3.450  0.00  0.00     0.119 A 
ATOM     24  C   UNL d   1       5.644   0.435   2.134  0.00  0.00     0.044 A 
ATOM     25  F   UNL d   1       6.095   0.546   4.444  0.00  0.00    -0.206 F 
ATOM     26  C   UNL d   1       4.714   0.359   1.089  0.00  0.00     0.035 A 
ENDBRANCH  17  19
ENDBRANCH   1  17
TORSDOF 7
