REMARK  8 active torsions:
REMARK  status: ('A' for Active; 'I' for Inactive)
REMARK    1  A    between atoms: C_6  and  C_3 
REMARK    2  A    between atoms: C_5  and  C_4 
REMARK    3  A    between atoms: O_14  and  C_5 
REMARK    4  A    between atoms: O_13  and  C_6 
REMARK    5  A    between atoms: S_10  and  C_7 
REMARK    6  A    between atoms: C_15  and  S_10 
REMARK    7  A    between atoms: C_17  and  O_13 
REMARK    8  A    between atoms: C_16  and  O_14 
ROOT
ATOM      1  N   UNL d   1      -1.309  -0.048  -0.056  0.00  0.00    -0.346 N 
ATOM      2  HN  UNL d   1      -2.327  -0.100  -0.053  1.00  0.00     0.166 HD
ATOM      3  C   UNL d   1      -0.664   1.141  -0.004  0.00  0.00     0.110 A 
ATOM      4  C   UNL d   1      -0.546  -1.167  -0.113  0.00  0.00     0.110 A 
ATOM      5  C   UNL d   1       1.480   0.094  -0.082  0.00  0.00     0.010 A 
ATOM      6  C   UNL d   1       0.719   1.258  -0.018  0.00  0.00     0.054 A 
ATOM      7  C   UNL d   1       0.842  -1.144  -0.123  0.00  0.00     0.054 A 
ENDROOT
BRANCH   5   8
ATOM      8  S   UNL d   1       3.257   0.190  -0.009  0.00  0.00    -0.090 SA
BRANCH   8   9
ATOM      9  C   UNL d   1       3.707   0.151  -1.735  0.00  0.00     0.005 A 
ATOM     10  C   UNL d   1       3.297   1.149  -2.624  0.00  0.00     0.019 A 
ATOM     11  C   UNL d   1       3.719   1.130  -3.956  0.00  0.00     0.001 A 
ATOM     12  C   UNL d   1       4.565   0.116  -4.404  0.00  0.00     0.000 A 
ATOM     13  C   UNL d   1       4.983  -0.879  -3.524  0.00  0.00     0.001 A 
ATOM     14  C   UNL d   1       4.558  -0.862  -2.193  0.00  0.00     0.019 A 
ENDBRANCH   8   9
ENDBRANCH   5   8
BRANCH   4  15
ATOM     15  C   UNL d   1      -1.252  -2.480  -0.207  0.00  0.00     0.310 C 
ATOM     16  O   UNL d   1      -0.677  -3.552  -0.317  0.00  0.00    -0.258 OA
BRANCH  15  17
ATOM     17  O   UNL d   1      -2.594  -2.283  -0.219  0.00  0.00    -0.317 OA
BRANCH  17  18
ATOM     18  C   UNL d   1      -3.397  -3.405  -0.601  0.00  0.00     0.175 C 
ATOM     19  C   UNL d   1      -3.560  -3.388  -2.110  0.00  0.00     0.034 C 
ENDBRANCH  17  18
ENDBRANCH  15  17
ENDBRANCH   4  15
BRANCH   3  20
ATOM     20  C   UNL d   1      -1.491   2.375   0.146  0.00  0.00     0.310 C 
ATOM     21  O   UNL d   1      -1.016   3.499   0.219  0.00  0.00    -0.258 OA
BRANCH  20  22
ATOM     22  O   UNL d   1      -2.799   2.045   0.264  0.00  0.00    -0.317 OA
BRANCH  22  23
ATOM     23  C   UNL d   1      -3.679   3.087   0.702  0.00  0.00     0.175 C 
ATOM     24  C   UNL d   1      -3.749   3.055   2.218  0.00  0.00     0.034 C 
ENDBRANCH  22  23
ENDBRANCH  20  22
ENDBRANCH   3  20
TORSDOF 8
