REMARK  6 active torsions:
REMARK  status: ('A' for Active; 'I' for Inactive)
REMARK    1  A    between atoms: C_2  and  C_1 
REMARK    2  A    between atoms: C_6  and  C_2 
REMARK    3  A    between atoms: O_10  and  C_3 
REMARK    4  A    between atoms: C_9  and  C_6 
REMARK    5  A    between atoms: O_17  and  C_8 
REMARK    6  A    between atoms: O_18  and  C_12 
ROOT
ATOM      1  C   UNL d   1       0.911   2.356  -0.210  0.00  0.00     0.166 C 
ATOM      2  O   UNL d   1       1.320   1.673   0.731  0.00  0.00    -0.292 OA
ENDROOT
BRANCH   1   3
ATOM      3  C   UNL d   1       0.988   1.779  -1.583  0.00  0.00     0.043 A 
ATOM      4  C   UNL d   1       1.163   0.394  -1.738  0.00  0.00     0.082 A 
ATOM      5  C   UNL d   1       1.147  -0.190  -3.005  0.00  0.00     0.074 A 
ATOM      6  C   UNL d   1       0.981   0.600  -4.143  0.00  0.00     0.070 A 
ATOM      7  C   UNL d   1       0.888   1.984  -4.003  0.00  0.00     0.038 A 
ATOM      8  C   UNL d   1       0.888   2.571  -2.731  0.00  0.00     0.021 A 
BRANCH   4   9
ATOM      9  O   UNL d   1       1.350  -0.462  -0.684  0.00  0.00    -0.360 OA
ATOM     10  H   UNL d   1       1.464   0.080   0.130  0.00  0.00     0.217 HD
ENDBRANCH   4   9
BRANCH   6  11
ATOM     11  O   UNL d   1       0.940  -0.084  -5.325  0.00  0.00    -0.356 OA
ATOM     12  C   UNL d   1       0.511   0.651  -6.467  0.00  0.00     0.210 C 
ENDBRANCH   6  11
ENDBRANCH   1   3
BRANCH   1  13
ATOM     13  C   UNL d   1       0.293   3.723   0.023  0.00  0.00     0.122 C 
BRANCH  13  14
ATOM     14  C   UNL d   1      -1.178   3.745   0.366  0.00  0.00    -0.051 A 
ATOM     15  C   UNL d   1      -1.826   2.694   1.035  0.00  0.00     0.010 A 
ATOM     16  C   UNL d   1      -3.134   2.853   1.508  0.00  0.00     0.037 A 
ATOM     17  C   UNL d   1      -3.800   4.068   1.348  0.00  0.00     0.068 A 
ATOM     18  C   UNL d   1      -3.200   5.089   0.617  0.00  0.00     0.037 A 
ATOM     19  C   UNL d   1      -1.897   4.929   0.136  0.00  0.00     0.010 A 
BRANCH  17  20
ATOM     20  O   UNL d   1      -5.036   4.170   1.924  0.00  0.00    -0.356 OA
ATOM     21  C   UNL d   1      -5.266   5.429   2.556  0.00  0.00     0.210 C 
ENDBRANCH  17  20
ENDBRANCH  13  14
ENDBRANCH   1  13
TORSDOF 6
