REMARK  3 active torsions:
REMARK  status: ('A' for Active; 'I' for Inactive)
REMARK    1  A    between atoms: C_2  and  C_1 
REMARK    2  A    between atoms: C_13  and  N_3 
REMARK    3  A    between atoms: C_16  and  C_8 
ROOT
ATOM      1  C   UNL d   1      -0.279  -2.864  -0.126  0.00  0.00     0.038 A 
ATOM      2  C   UNL d   1       0.012  -3.597   1.049  0.00  0.00     0.002 A 
ATOM      3  C   UNL d   1      -0.331  -4.997   1.079  0.00  0.00     0.004 A 
ATOM      4  C   UNL d   1      -0.808  -3.564  -1.207  0.00  0.00     0.104 A 
ATOM      5  N   UNL d   1      -1.110  -4.876  -1.208  0.00  0.00    -0.364 N 
ATOM      6  HN  UNL d   1      -1.507  -5.324  -2.034  1.00  0.00     0.165 HD
ATOM      7  C   UNL d   1      -0.873  -5.573  -0.095  0.00  0.00     0.043 A 
ATOM      8  C   UNL d   1      -0.164  -5.851   2.203  0.00  0.00     0.038 A 
ATOM      9  C   UNL d   1      -1.175  -6.927  -0.130  0.00  0.00     0.032 A 
ATOM     10  C   UNL d   1      -0.466  -7.211   2.140  0.00  0.00     0.035 A 
ATOM     11  C   UNL d   1      -0.966  -7.756   0.971  0.00  0.00     0.026 A 
ATOM     12 CL   UNL d   1      -0.206  -8.214   3.511  0.00  0.00    -0.084 Cl
ENDROOT
BRANCH   1  13
ATOM     13  C   UNL d   1       0.011  -1.440  -0.306  0.00  0.00     0.151 A 
ATOM     14  N   UNL d   1      -0.844  -0.462  -0.823  0.00  0.00    -0.224 N 
ATOM     15  N   UNL d   1      -0.095   0.631  -1.108  0.00  0.00     0.001 NA
ATOM     16  N   UNL d   1       1.119   0.380  -0.650  0.00  0.00    -0.007 NA
ATOM     17  N   UNL d   1       1.204  -0.891  -0.160  0.00  0.00    -0.269 N 
ATOM     18  HN  UNL d   1       2.031  -1.332   0.243  1.00  0.00     0.185 HD
BRANCH  14  19
ATOM     19  C   UNL d   1      -2.242  -0.468  -1.079  0.00  0.00     0.056 A 
ATOM     20  C   UNL d   1      -3.111  -1.346  -0.421  0.00  0.00     0.032 A 
ATOM     21  C   UNL d   1      -4.476  -1.342  -0.725  0.00  0.00     0.009 A 
ATOM     22  C   UNL d   1      -4.993  -0.469  -1.692  0.00  0.00    -0.062 A 
ATOM     23  C   UNL d   1      -4.131   0.433  -2.320  0.00  0.00     0.009 A 
ATOM     24  C   UNL d   1      -6.462  -0.468  -2.003  0.00  0.00     0.048 C 
ATOM     25  C   UNL d   1      -2.766   0.443  -2.011  0.00  0.00     0.032 A 
ENDBRANCH  14  19
ENDBRANCH   1  13
BRANCH   2  26
ATOM     26  C   UNL d   1       0.700  -2.963   2.209  0.00  0.00    -0.024 A 
ATOM     27  C   UNL d   1       0.163  -1.852   2.879  0.00  0.00     0.012 A 
ATOM     28  C   UNL d   1       0.831  -1.270   3.963  0.00  0.00     0.001 A 
ATOM     29  C   UNL d   1       2.034  -1.806   4.418  0.00  0.00     0.000 A 
ATOM     30  C   UNL d   1       2.582  -2.910   3.775  0.00  0.00     0.001 A 
ATOM     31  C   UNL d   1       1.933  -3.467   2.671  0.00  0.00     0.012 A 
ENDBRANCH   2  26
TORSDOF 3
