REMARK  4 active torsions:
REMARK  status: ('A' for Active; 'I' for Inactive)
REMARK    1  A    between atoms: C_7  and  C_6 
REMARK       I    between atoms: N_10  and  C_7 
REMARK    2  A    between atoms: C_16  and  N_10 
REMARK    3  A    between atoms: C_17  and  C_16 
REMARK    4  A    between atoms: C_18  and  C_17 
ROOT
ATOM      1  C   UNL d   1      -0.665   0.834   0.033  0.00  0.00     0.005 A 
ATOM      2  C   UNL d   1      -1.154  -0.495  -0.012  0.00  0.00     0.027 A 
ATOM      3  C   UNL d   1      -0.010  -1.421  -0.047  0.00  0.00     0.194 A 
ATOM      4  C   UNL d   1       0.799   0.762   0.029  0.00  0.00    -0.010 A 
ATOM      5  C   UNL d   1       1.200  -0.587  -0.029  0.00  0.00     0.026 A 
ATOM      6  C   UNL d   1      -1.613   1.861   0.065  0.00  0.00     0.044 A 
ATOM      7  O   UNL d   1      -0.062  -2.633  -0.082  0.00  0.00    -0.287 OA
ATOM      8  C   UNL d   1      -2.492  -0.850  -0.036  0.00  0.00     0.016 A 
ATOM      9  C   UNL d   1       1.801   1.721   0.061  0.00  0.00     0.013 A 
ATOM     10  C   UNL d   1       2.514  -1.019  -0.071  0.00  0.00     0.016 A 
ATOM     11  C   UNL d   1      -2.988   1.517   0.029  0.00  0.00     0.018 A 
ATOM     12  C   UNL d   1      -3.420   0.180  -0.019  0.00  0.00     0.002 A 
ATOM     13  C   UNL d   1       3.147   1.316   0.005  0.00  0.00     0.001 A 
ATOM     14  C   UNL d   1       3.502  -0.041  -0.060  0.00  0.00     0.001 A 
ENDROOT
BRANCH   6  15
ATOM     15  C   UNL d   1      -1.254   3.305   0.065  0.00  0.00     0.252 C 
ATOM     16  O   UNL d   1      -0.325   3.717  -0.615  0.00  0.00    -0.268 OA
ATOM     17  N   UNL d   1      -2.039   4.139   0.842  0.00  0.00    -0.357 N 
ATOM     18  H   UNL d   1      -2.824   3.774   1.364  0.00  0.00     0.162 HD
BRANCH  17  19
ATOM     19  C   UNL d   1      -1.742   5.555   0.962  0.00  0.00     0.123 C 
BRANCH  19  20
ATOM     20  C   UNL d   1      -2.221   6.376  -0.236  0.00  0.00     0.019 C 
BRANCH  20  21
ATOM     21  C   UNL d   1      -3.745   6.394  -0.360  0.00  0.00    -0.003 C 
ATOM     22  C   UNL d   1      -4.197   7.240  -1.541  0.00  0.00     0.005 C 
ENDBRANCH  20  21
ENDBRANCH  19  20
ENDBRANCH  17  19
ENDBRANCH   6  15
TORSDOF 4
