REMARK  5 active torsions:
REMARK  status: ('A' for Active; 'I' for Inactive)
REMARK    1  A    between atoms: C_2  and  C_1 
REMARK    2  A    between atoms: C_10  and  C_3 
REMARK    3  A    between atoms: S_4  and  C_13 
REMARK    4  A    between atoms: C_17  and  S_4 
REMARK    5  A    between atoms: C_13  and  C_9 
ROOT
ATOM      1  C   UNL d   1       0.169  -2.704  -0.006  0.00  0.00     0.142 A 
ATOM      2  N   UNL d   1       1.092  -3.120   0.920  0.00  0.00    -0.322 N 
ATOM      3  HN  UNL d   1       1.590  -2.568   1.619  1.00  0.00     0.169 HD
ATOM      4  C   UNL d   1       1.173  -4.406   0.680  0.00  0.00     0.162 A 
ATOM      5  N   UNL d   1      -0.322  -3.677  -0.782  0.00  0.00    -0.242 N 
ATOM      6  HN  UNL d   1      -1.029  -3.607  -1.514  1.00  0.00     0.196 HD
ATOM      7  O   UNL d   1       0.369  -4.811  -0.347  0.00  0.00    -0.222 OA
ENDROOT
BRANCH   1   8
ATOM      8  C   UNL d   1      -0.148  -1.294  -0.097  0.00  0.00     0.071 A 
ATOM      9  C   UNL d   1      -0.408  -0.503  -1.258  0.00  0.00     0.085 A 
ATOM     10  N   UNL d   1      -0.583   0.779  -0.883  0.00  0.00    -0.259 N 
ATOM     11  O   UNL d   1      -0.488   0.820   0.489  0.00  0.00    -0.241 OA
ATOM     12  HN  UNL d   1      -0.754   1.572  -1.501  1.00  0.00     0.195 HD
ATOM     13  C   UNL d   1      -0.208  -0.418   0.962  0.00  0.00     0.089 A 
ATOM     14  C   UNL d   1      -0.033  -0.548   2.422  0.00  0.00     0.080 C 
BRANCH   9  15
ATOM     15  C   UNL d   1      -0.471  -0.861  -2.686  0.00  0.00     0.037 A 
ATOM     16  C   UNL d   1      -1.530  -0.402  -3.506  0.00  0.00     0.048 A 
ATOM     17 CL   UNL d   1      -2.843   0.576  -2.926  0.00  0.00    -0.083 Cl
ATOM     18  C   UNL d   1      -1.593  -0.731  -4.870  0.00  0.00     0.025 A 
ATOM     19  C   UNL d   1      -0.639  -1.562  -5.440  0.00  0.00     0.003 A 
ATOM     20  C   UNL d   1       0.415  -2.021  -4.660  0.00  0.00     0.025 A 
ATOM     21  C   UNL d   1       0.527  -1.639  -3.313  0.00  0.00     0.048 A 
ATOM     22 CL   UNL d   1       2.017  -2.093  -2.546  0.00  0.00    -0.083 Cl
ENDBRANCH   9  15
ENDBRANCH   1   8
BRANCH   4  23
ATOM     23  C   UNL d   1       1.977  -5.434   1.348  0.00  0.00     0.232 C 
BRANCH  23  24
ATOM     24  S   UNL d   1       1.060  -6.009   2.760  0.00  0.00     0.182 S 
ATOM     25  O   UNL d   1       1.774  -7.162   3.289  0.00  0.00    -0.222 OA
ATOM     26  O   UNL d   1       0.734  -4.900   3.630  0.00  0.00    -0.222 OA
BRANCH  24  27
ATOM     27  C   UNL d   1      -0.470  -6.637   2.092  0.00  0.00     0.059 A 
ATOM     28  C   UNL d   1      -0.543  -7.966   1.666  0.00  0.00     0.025 A 
ATOM     29  C   UNL d   1      -1.740  -8.449   1.132  0.00  0.00     0.025 A 
ATOM     30  C   UNL d   1      -2.848  -7.606   1.032  0.00  0.00     0.034 A 
ATOM     31  C   UNL d   1      -2.777  -6.285   1.476  0.00  0.00     0.025 A 
ATOM     32 CL   UNL d   1      -4.313  -8.202   0.358  0.00  0.00    -0.084 Cl
ATOM     33  C   UNL d   1      -1.588  -5.798   2.023  0.00  0.00     0.025 A 
ENDBRANCH  24  27
ENDBRANCH  23  24
ENDBRANCH   4  23
TORSDOF 5
