REMARK  5 active torsions:
REMARK  status: ('A' for Active; 'I' for Inactive)
REMARK    1  A    between atoms: N_2  and  S_1 
REMARK    2  A    between atoms: C_3  and  S_1 
REMARK    3  A    between atoms: C_4  and  N_2 
REMARK    4  A    between atoms: O_16  and  C_9 
REMARK    5  A    between atoms: O_17  and  C_11 
ROOT
ATOM      1  S   UNL d   1       0.803   0.897   0.097  0.00  0.00     0.259 S 
ATOM      2  O   UNL d   1       0.104   0.255   1.183  0.00  0.00    -0.201 OA
ATOM      3  O   UNL d   1       2.255   0.935   0.069  0.00  0.00    -0.201 OA
ENDROOT
BRANCH   1   4
ATOM      4  N   UNL d   1       0.316   2.481   0.002  0.00  0.00    -0.306 N 
ATOM      5  H   UNL d   1       1.110   3.083  -0.211  0.00  0.00     0.173 HD
BRANCH   4   6
ATOM      6  C   UNL d   1      -0.991   2.981  -0.397  0.00  0.00     0.127 C 
ATOM      7  C   UNL d   1      -2.262   2.676   0.358  0.00  0.00    -0.029 A 
ATOM      8  C   UNL d   1      -3.045   3.845   0.470  0.00  0.00    -0.050 A 
ATOM      9  C   UNL d   1      -2.772   1.483   0.840  0.00  0.00     0.010 A 
ATOM     10  C   UNL d   1      -4.273   3.863   1.113  0.00  0.00     0.007 A 
ATOM     11  C   UNL d   1      -2.379   5.002  -0.204  0.00  0.00     0.041 C 
ATOM     12  C   UNL d   1      -4.747   2.671   1.650  0.00  0.00     0.001 A 
ATOM     13  C   UNL d   1      -4.010   1.488   1.500  0.00  0.00     0.001 A 
ATOM     14  C   UNL d   1      -0.938   4.517  -0.130  0.00  0.00     0.035 C 
ENDBRANCH   4   6
ENDBRANCH   1   4
BRANCH   1  15
ATOM     15  C   UNL d   1       0.296   0.132  -1.424  0.00  0.00     0.082 A 
ATOM     16  C   UNL d   1      -0.520  -1.007  -1.377  0.00  0.00     0.065 A 
ATOM     17  C   UNL d   1      -0.878  -1.683  -2.550  0.00  0.00     0.102 A 
ATOM     18  C   UNL d   1      -0.397  -1.198  -3.783  0.00  0.00     0.101 A 
ATOM     19  C   UNL d   1       0.423  -0.060  -3.813  0.00  0.00     0.041 A 
ATOM     20  C   UNL d   1       0.785   0.605  -2.641  0.00  0.00     0.028 A 
BRANCH  17  21
ATOM     21  O   UNL d   1      -1.690  -2.784  -2.563  0.00  0.00    -0.353 OA
ATOM     22  C   UNL d   1      -2.192  -3.277  -1.328  0.00  0.00     0.210 C 
ENDBRANCH  17  21
BRANCH  18  23
ATOM     23  O   UNL d   1      -0.657  -1.694  -5.036  0.00  0.00    -0.353 OA
ATOM     24  C   UNL d   1      -1.009  -3.066  -5.151  0.00  0.00     0.210 C 
ENDBRANCH  18  23
ENDBRANCH   1  15
TORSDOF 5
