REMARK  9 active torsions:
REMARK  status: ('A' for Active; 'I' for Inactive)
REMARK    1  A    between atoms: C_9  and  N_1 
REMARK    2  A    between atoms: C_5  and  C_3 
REMARK    3  A    between atoms: C_7  and  C_5 
REMARK    4  A    between atoms: O_21  and  C_7 
REMARK    5  A    between atoms: N_20  and  C_8 
REMARK    6  A    between atoms: C_10  and  C_13 
REMARK    7  A    between atoms: O_22  and  C_10 
REMARK    8  A    between atoms: C_24  and  O_21 
REMARK    9  A    between atoms: C_25  and  O_22 
ROOT
ATOM      1  N   UNL d   1       0.838  -4.740  -1.787  0.00  0.00    -0.252 N 
ATOM      2  C   UNL d   1      -0.426  -4.232  -2.004  0.00  0.00     0.240 C 
ATOM      3  C   UNL d   1      -0.350  -2.727  -2.108  0.00  0.00     0.128 C 
ATOM      4  C   UNL d   1       1.778  -3.731  -1.709  0.00  0.00     0.232 C 
ATOM      5  C   UNL d   1       1.140  -2.429  -2.099  0.00  0.00     0.123 C 
ATOM      6  O   UNL d   1      -1.487  -4.840  -2.095  0.00  0.00    -0.272 OA
ATOM      7  O   UNL d   1       2.977  -3.809  -1.476  0.00  0.00    -0.273 OA
ENDROOT
BRANCH   1   8
ATOM      8  C   UNL d   1       1.137  -6.135  -1.705  0.00  0.00     0.045 A 
ATOM      9  C   UNL d   1       0.280  -7.096  -2.270  0.00  0.00     0.031 A 
ATOM     10  C   UNL d   1       0.590  -8.462  -2.250  0.00  0.00     0.020 A 
ATOM     11  C   UNL d   1       1.771  -8.906  -1.649  0.00  0.00     0.039 A 
ATOM     12  C   UNL d   1       2.630  -7.971  -1.073  0.00  0.00     0.020 A 
ATOM     13  C   UNL d   1       2.315  -6.603  -1.102  0.00  0.00     0.031 A 
BRANCH  11  14
ATOM     14  C   UNL d   1       2.178 -10.332  -1.679  0.00  0.00     0.293 C 
ATOM     15  O   UNL d   1       3.331 -10.708  -1.553  0.00  0.00    -0.259 OA
BRANCH  14  16
ATOM     16  O   UNL d   1       1.092 -11.109  -1.915  0.00  0.00    -0.318 OA
BRANCH  16  17
ATOM     17  C   UNL d   1       1.358 -12.468  -2.284  0.00  0.00     0.174 C 
ATOM     18  C   UNL d   1       1.357 -12.544  -3.800  0.00  0.00     0.034 C 
ENDBRANCH  16  17
ENDBRANCH  14  16
ENDBRANCH  11  14
ENDBRANCH   1   8
BRANCH   3  19
ATOM     19  C   UNL d   1      -1.302  -2.090  -1.102  0.00  0.00     0.047 C 
ATOM     20  C   UNL d   1      -2.569  -1.699  -1.429  0.00  0.00    -0.008 C 
ATOM     21  C   UNL d   1      -3.199  -1.915  -2.796  0.00  0.00     0.062 C 
BRANCH  19  22
ATOM     22  C   UNL d   1      -0.882  -1.917   0.338  0.00  0.00     0.291 C 
ATOM     23  O   UNL d   1      -1.624  -1.567   1.244  0.00  0.00    -0.260 OA
BRANCH  22  24
ATOM     24  O   UNL d   1       0.441  -2.156   0.496  0.00  0.00    -0.318 OA
BRANCH  24  25
ATOM     25  C   UNL d   1       1.049  -1.594   1.672  0.00  0.00     0.174 C 
ATOM     26  C   UNL d   1       1.299  -2.659   2.717  0.00  0.00     0.034 C 
ENDBRANCH  24  25
ENDBRANCH  22  24
ENDBRANCH  19  22
BRANCH  20  27
ATOM     27  N   UNL d   1      -3.448  -1.066  -0.560  0.00  0.00    -0.306 NA
ATOM     28  H   UNL d   1      -3.165  -1.127   0.426  0.00  0.00     0.124 HD
ATOM     29  H   UNL d   1      -4.420  -1.341  -0.681  0.00  0.00     0.124 HD
ENDBRANCH  20  27
ENDBRANCH   3  19
TORSDOF 9
