REMARK  2 active torsions:
REMARK  status: ('A' for Active; 'I' for Inactive)
REMARK    1  A    between atoms: S_12  and  C_3 
REMARK    2  A    between atoms: C_4  and  C_5 
ROOT
ATOM      1  N   UNL d   1       1.207  -0.705   0.076  0.00  0.00    -0.335 N 
ATOM      2  HN  UNL d   1       2.097  -1.199   0.144  1.00  0.00     0.168 HD
ATOM      3  C   UNL d   1       1.145   0.624  -0.088  0.00  0.00     0.141 A 
ATOM      4  C   UNL d   1       0.023  -1.351   0.145  0.00  0.00     0.069 A 
ATOM      5  N   UNL d   1       0.017   1.344  -0.181  0.00  0.00    -0.347 N 
ATOM      6  HN  UNL d   1       0.033   2.357  -0.298  1.00  0.00     0.167 HD
ATOM      7  C   UNL d   1      -1.192  -0.706   0.048  0.00  0.00     0.049 A 
ATOM      8  C   UNL d   1      -1.135   0.656  -0.111  0.00  0.00     0.092 A 
ENDROOT
BRANCH   4   9
ATOM      9  C   UNL d   1       0.129  -2.790   0.352  0.00  0.00     0.101 A 
ATOM     10  O   UNL d   1      -1.040  -3.503   0.347  0.00  0.00    -0.321 OA
ATOM     11  C   UNL d   1      -0.720  -4.803   0.574  0.00  0.00     0.142 A 
ATOM     12  C   UNL d   1       0.639  -4.945   0.726  0.00  0.00     0.027 A 
ATOM     13  C   UNL d   1       1.188  -3.649   0.577  0.00  0.00     0.041 A 
ENDBRANCH   4   9
BRANCH   3  14
ATOM     14  S   UNL d   1       2.683   1.486  -0.198  0.00  0.00    -0.107 SA
ATOM     15  H   UNL d   1       3.411   0.363  -0.192  0.00  0.00     0.110 HD
ENDBRANCH   3  14
TORSDOF 2
