REMARK  3 active torsions:
REMARK  status: ('A' for Active; 'I' for Inactive)
REMARK    1  A    between atoms: N_2  and  S_1 
REMARK    2  A    between atoms: C_4  and  S_1 
REMARK    3  A    between atoms: C_5  and  N_3 
ROOT
ATOM      1  N   UNL d   1      -0.003  -1.418  -0.042  0.00  0.00    -0.203 NA
ATOM      2  N   UNL d   1       0.423  -3.233  -2.284  0.00  0.00    -0.365 N 
ATOM      3  C   UNL d   1       0.312  -2.863   0.217  0.00  0.00     0.127 C 
ATOM      4  C   UNL d   1      -0.749  -1.278  -1.335  0.00  0.00     0.127 C 
ATOM      5  C   UNL d   1       1.022  -3.562  -0.977  0.00  0.00     0.140 C 
ATOM      6  C   UNL d   1       0.091  -1.816  -2.498  0.00  0.00     0.140 C 
ENDROOT
BRANCH   1   7
ATOM      7  S   UNL d   1       1.271  -0.309   0.187  0.00  0.00     0.243 S 
ATOM      8  O   UNL d   1       0.999   0.883  -0.587  0.00  0.00    -0.206 OA
ATOM      9  O   UNL d   1       2.524  -1.020   0.069  0.00  0.00    -0.206 OA
BRANCH   7  10
ATOM     10  C   UNL d   1       1.066   0.160   1.893  0.00  0.00     0.074 A 
ATOM     11  C   UNL d   1       2.108  -0.025   2.808  0.00  0.00     0.028 A 
ATOM     12  C   UNL d   1       1.963   0.443   4.115  0.00  0.00     0.044 A 
ATOM     13  C   UNL d   1       0.786   1.088   4.491  0.00  0.00     0.116 A 
ATOM     14  C   UNL d   1      -0.254   1.272   3.584  0.00  0.00     0.044 A 
ATOM     15  F   UNL d   1       0.659   1.550   5.740  0.00  0.00    -0.206 F 
ATOM     16  C   UNL d   1      -0.116   0.809   2.275  0.00  0.00     0.028 A 
ENDBRANCH   7  10
ENDBRANCH   1   7
BRANCH   2  17
ATOM     17  C   UNL d   1      -0.319  -4.171  -2.985  0.00  0.00     0.102 A 
ATOM     18  N   UNL d   1      -1.484  -3.789  -3.557  0.00  0.00    -0.352 N 
ATOM     19  C   UNL d   1      -2.140  -4.672  -4.347  0.00  0.00     0.089 A 
ATOM     20  HN  UNL d   1      -1.860  -2.855  -3.397  1.00  0.00     0.166 HD
ATOM     21  C   UNL d   1      -1.697  -5.954  -4.607  0.00  0.00     0.017 A 
ATOM     22  C   UNL d   1      -0.514  -6.356  -4.010  0.00  0.00     0.005 A 
ATOM     23  C   UNL d   1       0.175  -5.460  -3.191  0.00  0.00     0.048 A 
ENDBRANCH   2  17
TORSDOF 3
