REMARK  1 active torsions:
REMARK  status: ('A' for Active; 'I' for Inactive)
REMARK    1  A    between atoms: C_5  and  C_1 
ROOT
ATOM      1  N   UNL d   1       1.610  -4.763  -0.469  0.00  0.00    -0.325 N 
ATOM      2  C   UNL d   1       0.926  -3.606  -0.870  0.00  0.00     0.052 A 
ATOM      3  S   UNL d   1      -0.606  -5.158  -2.601  0.00  0.00    -0.118 SA
ATOM      4  C   UNL d   1       0.687  -1.190  -0.678  0.00  0.00     0.050 A 
ATOM      5  C   UNL d   1       1.227  -6.053  -0.723  0.00  0.00     0.231 C 
ATOM      6  C   UNL d   1      -0.111  -3.642  -1.812  0.00  0.00     0.027 A 
ATOM      7  C   UNL d   1       1.332  -2.385  -0.321  0.00  0.00     0.047 A 
ATOM      8  C   UNL d   1      -0.164  -6.297  -1.270  0.00  0.00     0.182 C 
ATOM      9  O   UNL d   1       1.959  -6.980  -0.377  0.00  0.00    -0.272 OA
ATOM     10  C   UNL d   1      -0.345  -1.235  -1.626  0.00  0.00     0.017 A 
ATOM     11  C   UNL d   1      -0.734  -2.450  -2.196  0.00  0.00     0.021 A 
ATOM     12  H   UNL d   1       2.477  -4.678   0.047  0.00  0.00     0.169 HD
ENDROOT
BRANCH   4  13
ATOM     13  C   UNL d   1       1.083   0.125  -0.053  0.00  0.00     0.417 C 
ATOM     14  F   UNL d   1       2.076   0.007   0.872  0.00  0.00    -0.166 F 
ATOM     15  F   UNL d   1       0.044   0.726   0.591  0.00  0.00    -0.166 F 
ATOM     16  F   UNL d   1       1.530   1.026  -0.970  0.00  0.00    -0.166 F 
ENDBRANCH   4  13
TORSDOF 1
