REMARK  2 active torsions:
REMARK  status: ('A' for Active; 'I' for Inactive)
REMARK    1  A    between atoms: C_7  and  C_2 
REMARK    2  A    between atoms: O_8  and  C_2 
ROOT
ATOM      1  C   UNL d   1      -0.014  -0.549   0.148  0.00  0.00     0.158 C 
ATOM      2  C   UNL d   1      -0.031  -1.898   0.085  0.00  0.00     0.109 C 
ATOM      3  C   UNL d   1       1.228   0.148   0.175  0.00  0.00     0.113 C 
ATOM      4  C   UNL d   1      -1.204   0.233   0.175  0.00  0.00     0.113 C 
ATOM      5  N   UNL d   1       2.233   0.733   0.197  0.00  0.00    -0.191 NA
ATOM      6  N   UNL d   1      -2.161   0.888   0.192  0.00  0.00    -0.191 NA
ENDROOT
BRANCH   2   7
ATOM      7  C   UNL d   1      -1.295  -2.662   0.025  0.00  0.00    -0.001 A 
ATOM      8  C   UNL d   1      -1.874  -2.962  -1.216  0.00  0.00     0.014 A 
ATOM      9  C   UNL d   1      -3.061  -3.694  -1.283  0.00  0.00     0.001 A 
ATOM     10  C   UNL d   1      -3.680  -4.127  -0.113  0.00  0.00     0.000 A 
ATOM     11  C   UNL d   1      -3.120  -3.821   1.127  0.00  0.00     0.001 A 
ATOM     12  C   UNL d   1      -1.934  -3.087   1.198  0.00  0.00     0.014 A 
ENDBRANCH   2   7
BRANCH   2  13
ATOM     13  O   UNL d   1       1.171  -2.590   0.019  0.00  0.00    -0.353 OA
ATOM     14  C   UNL d   1       1.166  -4.013   0.081  0.00  0.00     0.210 C 
ENDBRANCH   2  13
TORSDOF 2
