REMARK  8 active torsions:
REMARK  status: ('A' for Active; 'I' for Inactive)
REMARK    1  A    between atoms: N_2  and  C_1 
REMARK    2  A    between atoms: N_3  and  C_1 
REMARK    3  A    between atoms: C_5  and  N_2 
REMARK    4  A    between atoms: C_6  and  N_3 
REMARK    5  A    between atoms: O_7  and  C_8 
REMARK    6  A    between atoms: C_10  and  O_7 
REMARK    7  A    between atoms: O_20  and  C_9 
REMARK    8  A    between atoms: C_19  and  C_10 
ROOT
ATOM      1  C   UNL d   1       1.123   2.178   1.226  0.00  0.00     0.034 A 
ATOM      2  C   UNL d   1       2.310   4.524   2.208  0.00  0.00     0.069 A 
ATOM      3  C   UNL d   1       2.183   2.775   0.543  0.00  0.00     0.032 A 
ATOM      4  C   UNL d   1       0.606   2.804   2.362  0.00  0.00     0.032 A 
ATOM      5  C   UNL d   1       1.207   3.967   2.856  0.00  0.00     0.039 A 
ATOM      6  C   UNL d   1       2.773   3.944   1.028  0.00  0.00     0.039 A 
ENDROOT
BRANCH   1   7
ATOM      7  N   UNL d   1       0.492   1.014   0.746  0.00  0.00    -0.333 N 
ATOM      8  H   UNL d   1      -0.420   0.797   1.128  0.00  0.00     0.168 HD
BRANCH   7   9
ATOM      9  C   UNL d   1       1.036   0.007  -0.008  0.00  0.00     0.176 C 
ATOM     10  S   UNL d   1       2.597  -0.589   0.130  0.00  0.00    -0.041 SA
BRANCH   9  11
ATOM     11  N   UNL d   1       0.191  -0.648  -0.863  0.00  0.00    -0.333 N 
ATOM     12  H   UNL d   1       0.576  -1.527  -1.197  0.00  0.00     0.168 HD
BRANCH  11  13
ATOM     13  C   UNL d   1      -0.989  -0.215  -1.501  0.00  0.00     0.034 A 
ATOM     14  C   UNL d   1      -1.486   1.089  -1.434  0.00  0.00     0.032 A 
ATOM     15  C   UNL d   1      -2.658   1.445  -2.108  0.00  0.00     0.039 A 
ATOM     16  C   UNL d   1      -3.341   0.503  -2.873  0.00  0.00     0.068 A 
ATOM     17  C   UNL d   1      -2.815  -0.780  -3.002  0.00  0.00     0.039 A 
ATOM     18  C   UNL d   1      -1.652  -1.141  -2.314  0.00  0.00     0.032 A 
BRANCH  16  19
ATOM     19  O   UNL d   1      -4.491   0.751  -3.569  0.00  0.00    -0.356 OA
ATOM     20  C   UNL d   1      -5.355   1.714  -2.972  0.00  0.00     0.210 C 
ENDBRANCH  16  19
ENDBRANCH  11  13
ENDBRANCH   9  11
ENDBRANCH   7   9
ENDBRANCH   1   7
BRANCH   2  21
ATOM     21  O   UNL d   1       2.831   5.654   2.777  0.00  0.00    -0.347 OA
BRANCH  21  22
ATOM     22  C   UNL d   1       4.236   5.834   2.575  0.00  0.00     0.214 C 
BRANCH  22  23
ATOM     23  C   UNL d   1       4.687   7.082   3.293  0.00  0.00    -0.034 A 
ATOM     24  C   UNL d   1       5.664   7.025   4.298  0.00  0.00     0.009 A 
ATOM     25  C   UNL d   1       6.115   8.196   4.909  0.00  0.00     0.001 A 
ATOM     26  C   UNL d   1       5.592   9.431   4.529  0.00  0.00     0.000 A 
ATOM     27  C   UNL d   1       4.614   9.497   3.539  0.00  0.00     0.001 A 
ATOM     28  C   UNL d   1       4.164   8.328   2.923  0.00  0.00     0.009 A 
ENDBRANCH  22  23
ENDBRANCH  21  22
ENDBRANCH   2  21
TORSDOF 8
