REMARK  5 active torsions:
REMARK  status: ('A' for Active; 'I' for Inactive)
REMARK    1  A    between atoms: C_6  and  N_1 
REMARK    2  A    between atoms: C_11  and  C_6 
REMARK    3  A    between atoms: C_12  and  C_11 
REMARK    4  A    between atoms: O_20  and  C_11 
REMARK    5  A    between atoms: N_15  and  C_12 
ROOT
ATOM      1  N   UNL d   1       0.056  -1.507  -0.437  0.00  0.00    -0.343 N 
ATOM      2  C   UNL d   1       0.703   0.627  -0.344  0.00  0.00     0.005 A 
ATOM      3  C   UNL d   1      -0.724   0.576  -0.259  0.00  0.00     0.005 A 
ATOM      4  C   UNL d   1       1.162  -0.680  -0.516  0.00  0.00     0.046 A 
ATOM      5  C   UNL d   1      -1.106  -0.765  -0.329  0.00  0.00     0.046 A 
ATOM      6  C   UNL d   1       2.526  -0.973  -0.691  0.00  0.00     0.032 A 
ATOM      7  C   UNL d   1      -2.458  -1.155  -0.266  0.00  0.00     0.032 A 
ATOM      8  C   UNL d   1      -1.722   1.564  -0.125  0.00  0.00     0.038 A 
ATOM      9  C   UNL d   1       1.642   1.679  -0.287  0.00  0.00     0.038 A 
ATOM     10  C   UNL d   1      -3.065   1.178  -0.065  0.00  0.00     0.035 A 
ATOM     11  C   UNL d   1       3.003   1.386  -0.412  0.00  0.00     0.035 A 
ATOM     12  C   UNL d   1       3.439   0.084  -0.628  0.00  0.00     0.026 A 
ATOM     13  C   UNL d   1      -3.424  -0.160  -0.134  0.00  0.00     0.026 A 
ATOM     14 CL   UNL d   1      -4.283   2.382   0.097  0.00  0.00    -0.084 Cl
ATOM     15 CL   UNL d   1       4.155   2.658  -0.290  0.00  0.00    -0.084 Cl
ENDROOT
BRANCH   1  16
ATOM     16  C   UNL d   1       0.118  -2.957  -0.385  0.00  0.00     0.163 C 
BRANCH  16  17
ATOM     17  C   UNL d   1       0.783  -3.521   0.877  0.00  0.00     0.164 C 
BRANCH  17  18
ATOM     18  C   UNL d   1       0.225  -2.942   2.201  0.00  0.00     0.304 C 
BRANCH  18  19
ATOM     19  N   UNL d   1       0.824  -3.595   3.394  0.00  0.00     0.082 N 
ATOM     20  C   UNL d   1       2.238  -3.229   3.560  0.00  0.00     0.309 C 
ATOM     21  C   UNL d   1       0.096  -3.183   4.603  0.00  0.00     0.309 C 
ENDBRANCH  18  19
ENDBRANCH  17  18
BRANCH  17  22
ATOM     22  O   UNL d   1       0.586  -4.946   0.873  0.00  0.00    -0.392 OA
ATOM     23  H   UNL d   1       0.555  -5.205   1.818  0.00  0.00     0.210 HD
ENDBRANCH  17  22
ENDBRANCH  16  17
ENDBRANCH   1  16
TORSDOF 5
