REMARK  6 active torsions:
REMARK  status: ('A' for Active; 'I' for Inactive)
REMARK       I    between atoms: N_3  and  C_1 
REMARK    1  A    between atoms: C_6  and  C_1 
REMARK    2  A    between atoms: C_2  and  O_4 
REMARK    3  A    between atoms: C_9  and  C_2 
REMARK    4  A    between atoms: C_7  and  N_3 
REMARK    5  A    between atoms: O_4  and  C_11 
REMARK    6  A    between atoms: C_11  and  C_12 
ROOT
ATOM      1  C   UNL d   1       0.947  -2.384  -0.012  0.00  0.00     0.035 A 
ATOM      2  C   UNL d   1       1.933  -2.655   0.941  0.00  0.00     0.038 A 
ATOM      3  C   UNL d   1       2.517  -3.926   1.054  0.00  0.00    -0.032 A 
ATOM      4  C   UNL d   1       1.070  -4.699  -0.726  0.00  0.00     0.003 A 
ATOM      5  C   UNL d   1       0.492  -3.429  -0.820  0.00  0.00     0.029 A 
ATOM      6  C   UNL d   1       2.093  -4.940   0.191  0.00  0.00     0.009 A 
ENDROOT
BRANCH   1   7
ATOM      7  N   UNL d   1       0.409  -1.091  -0.225  0.00  0.00    -0.323 N 
ATOM      8  C   UNL d   1       0.932   0.089   0.277  0.00  0.00     0.256 C 
ATOM      9  O   UNL d   1       1.905   0.181   1.025  0.00  0.00    -0.267 OA
ATOM     10  H   UNL d   1      -0.380  -1.042  -0.853  0.00  0.00     0.169 HD
BRANCH   8  11
ATOM     11  C   UNL d   1       0.288   1.369  -0.142  0.00  0.00     0.032 A 
ATOM     12  C   UNL d   1       0.549   2.501   0.648  0.00  0.00     0.017 A 
ATOM     13  C   UNL d   1       0.055   3.754   0.289  0.00  0.00     0.001 A 
ATOM     14  C   UNL d   1      -0.708   3.888  -0.867  0.00  0.00     0.000 A 
ATOM     15  C   UNL d   1      -0.977   2.771  -1.659  0.00  0.00     0.001 A 
ATOM     16  C   UNL d   1      -0.479   1.512  -1.304  0.00  0.00     0.017 A 
ENDBRANCH   8  11
ENDBRANCH   1   7
BRANCH   3  17
ATOM     17  C   UNL d   1       3.636  -4.120   2.047  0.00  0.00     0.217 C 
BRANCH  17  18
ATOM     18  O   UNL d   1       3.741  -5.484   2.470  0.00  0.00    -0.313 OA
BRANCH  18  19
ATOM     19  C   UNL d   1       3.050  -5.795   3.592  0.00  0.00     0.293 C 
ATOM     20  O   UNL d   1       2.363  -5.042   4.262  0.00  0.00    -0.259 OA
BRANCH  19  21
ATOM     21  C   UNL d   1       3.302  -7.212   3.954  0.00  0.00     0.039 A 
ATOM     22  C   UNL d   1       3.735  -8.155   3.013  0.00  0.00     0.017 A 
ATOM     23  C   UNL d   1       3.971  -9.474   3.405  0.00  0.00     0.001 A 
ATOM     24  C   UNL d   1       3.779  -9.851   4.735  0.00  0.00     0.000 A 
ATOM     25  C   UNL d   1       3.341  -8.917   5.673  0.00  0.00     0.001 A 
ATOM     26  C   UNL d   1       3.096  -7.598   5.282  0.00  0.00     0.017 A 
ENDBRANCH  19  21
ENDBRANCH  18  19
ENDBRANCH  17  18
ENDBRANCH   3  17
TORSDOF 6
