REMARK  3 active torsions:
REMARK  status: ('A' for Active; 'I' for Inactive)
REMARK    1  A    between atoms: C_6  and  N_1 
REMARK    2  A    between atoms: C_7  and  C_6 
REMARK       I    between atoms: N_11  and  C_7 
REMARK    3  A    between atoms: C_13  and  N_11 
ROOT
ATOM      1  N   UNL d   1       1.336  -1.185  -0.406  0.00  0.00    -0.268 N 
ATOM      2  C   UNL d   1       0.122  -0.862   0.152  0.00  0.00     0.374 A 
ATOM      3  C   UNL d   1       1.571  -0.303  -1.424  0.00  0.00     0.146 A 
ATOM      4  O   UNL d   1      -0.442   0.265  -0.468  0.00  0.00    -0.257 OA
ATOM      5  C   UNL d   1       0.490   0.545  -1.443  0.00  0.00     0.125 A 
ATOM      6  N   UNL d   1       2.615  -0.268  -2.264  0.00  0.00    -0.350 N 
ATOM      7  HN  UNL d   1       3.394  -0.924  -2.215  1.00  0.00     0.166 HD
ATOM      8  O   UNL d   1      -0.450  -1.470   1.047  0.00  0.00    -0.237 OA
ATOM      9  C   UNL d   1       0.407   1.531  -2.398  0.00  0.00     0.043 A 
ATOM     10  C   UNL d   1       2.538   0.726  -3.187  0.00  0.00     0.090 A 
ATOM     11  C   UNL d   1       1.470   1.626  -3.297  0.00  0.00     0.020 A 
ENDROOT
BRANCH   1  12
ATOM     12  C   UNL d   1       2.093  -2.380  -0.138  0.00  0.00     0.239 C 
BRANCH  12  13
ATOM     13  C   UNL d   1       3.531  -2.182   0.356  0.00  0.00     0.240 C 
ATOM     14  N   UNL d   1       4.384  -1.669  -0.605  0.00  0.00    -0.326 N 
ATOM     15  H   UNL d   1       3.938  -1.234  -1.414  0.00  0.00     0.169 HD
ATOM     16  O   UNL d   1       3.849  -2.523   1.492  0.00  0.00    -0.271 OA
BRANCH  14  17
ATOM     17  C   UNL d   1       5.780  -1.507  -0.501  0.00  0.00     0.034 A 
ATOM     18  C   UNL d   1       6.559  -2.115   0.486  0.00  0.00     0.029 A 
ATOM     19  C   UNL d   1       7.936  -1.881   0.549  0.00  0.00     0.002 A 
ATOM     20  C   UNL d   1       8.546  -1.040  -0.377  0.00  0.00     0.000 A 
ATOM     21  C   UNL d   1       7.785  -0.454  -1.385  0.00  0.00     0.002 A 
ATOM     22  C   UNL d   1       6.410  -0.697  -1.455  0.00  0.00     0.029 A 
ENDBRANCH  14  17
ENDBRANCH  12  13
ENDBRANCH   1  12
TORSDOF 3
