REMARK  4 active torsions:
REMARK  status: ('A' for Active; 'I' for Inactive)
REMARK    1  A    between atoms: C_7  and  C_1 
REMARK    2  A    between atoms: S_14  and  C_6 
REMARK    3  A    between atoms: C_12  and  C_7 
REMARK    4  A    between atoms: C_13  and  C_12 
ROOT
ATOM      1  C   UNL d   1       3.567   0.229   0.056  0.00  0.00     0.021 C 
ENDROOT
BRANCH   1   2
ATOM      2  C   UNL d   1       2.138   0.262   0.019  0.00  0.00     0.012 A 
ATOM      3  S   UNL d   1       1.372  -1.062  -0.780  0.00  0.00    -0.089 SA
ATOM      4  C   UNL d   1      -0.207  -0.480  -0.475  0.00  0.00     0.016 A 
ATOM      5  C   UNL d   1      -1.423  -1.086  -0.854  0.00  0.00     0.019 A 
ATOM      6  C   UNL d   1      -0.173   0.719   0.233  0.00  0.00    -0.012 A 
ATOM      7  C   UNL d   1      -2.627  -0.464  -0.513  0.00  0.00     0.001 A 
ATOM      8  C   UNL d   1      -2.625   0.732   0.184  0.00  0.00     0.001 A 
ATOM      9  C   UNL d   1      -1.417   1.324   0.559  0.00  0.00     0.013 A 
ATOM     10  C   UNL d   1       1.187   1.135   0.540  0.00  0.00    -0.033 A 
ATOM     11  C   UNL d   1       1.442   2.360   1.369  0.00  0.00     0.050 C 
ENDBRANCH   1   2
BRANCH   1  12
ATOM     12  C   UNL d   1       4.337   1.329   0.039  0.00  0.00     0.031 C 
BRANCH  12  13
ATOM     13  C   UNL d   1       5.809   1.291   0.102  0.00  0.00     0.035 A 
ATOM     14  N   UNL d   1       6.406   0.086   0.034  0.00  0.00    -0.337 N 
ATOM     15  C   UNL d   1       7.746   0.059   0.108  0.00  0.00     0.144 A 
ATOM     16  HN  UNL d   1       5.863  -0.771  -0.069  1.00  0.00     0.168 HD
ATOM     17  N   UNL d   1       8.525   1.143   0.249  0.00  0.00    -0.347 N 
ATOM     18  C   UNL d   1       7.890   2.325   0.313  0.00  0.00     0.092 A 
ATOM     19  HN  UNL d   1       9.541   1.073   0.304  1.00  0.00     0.167 HD
ATOM     20  C   UNL d   1       6.526   2.462   0.241  0.00  0.00     0.046 A 
BRANCH  15  21
ATOM     21  S   UNL d   1       8.499  -1.548   0.005  0.00  0.00    -0.098 SA
ATOM     22  C   UNL d   1      10.243  -1.110   0.206  0.00  0.00     0.099 C 
ENDBRANCH  15  21
ENDBRANCH  12  13
ENDBRANCH   1  12
TORSDOF 4
