REMARK  2 active torsions:
REMARK  status: ('A' for Active; 'I' for Inactive)
REMARK    1  A    between atoms: N_9  and  C_2 
REMARK    2  A    between atoms: N_6  and  C_3 
ROOT
ATOM      1  C   UNL d   1       0.840   0.189   0.021  0.00  0.00     0.097 A 
ATOM      2  C   UNL d   1       0.051   1.352  -0.053  0.00  0.00     0.125 A 
ATOM      3  C   UNL d   1      -1.176  -1.128   0.065  0.00  0.00     0.132 A 
ATOM      4  N   UNL d   1      -1.302   1.261  -0.020  0.00  0.00    -0.343 N 
ATOM      5  HN  UNL d   1      -1.865   2.111  -0.044  1.00  0.00     0.167 HD
ATOM      6  C   UNL d   1       0.228  -1.087   0.065  0.00  0.00    -0.003 A 
ATOM      7  C   UNL d   1      -1.915   0.049   0.046  0.00  0.00     0.040 A 
ATOM      8  C   UNL d   1       2.269   0.273  -0.041  0.00  0.00     0.104 C 
ATOM      9  N   UNL d   1       3.433   0.307  -0.055  0.00  0.00    -0.191 NA
ATOM     10  C   UNL d   1       1.092  -2.326   0.044  0.00  0.00     0.052 C 
ATOM     11  C   UNL d   1      -3.415   0.120   0.061  0.00  0.00     0.071 C 
ENDROOT
BRANCH   2  12
ATOM     12  N   UNL d   1       0.594   2.597  -0.337  0.00  0.00    -0.362 N 
ATOM     13  C   UNL d   1      -0.321   3.603  -0.916  0.00  0.00     0.150 C 
ATOM     14  C   UNL d   1       0.527   4.655  -1.655  0.00  0.00     0.187 C 
ATOM     15  O   UNL d   1       1.514   5.254  -0.796  0.00  0.00    -0.388 OA
ATOM     16  C   UNL d   1       2.373   4.247  -0.226  0.00  0.00     0.187 C 
ATOM     17  C   UNL d   1       1.553   3.230   0.589  0.00  0.00     0.150 C 
ENDBRANCH   2  12
BRANCH   3  18
ATOM     18  N   UNL d   1      -1.872  -2.394   0.034  0.00  0.00    -0.113 N 
ATOM     19  O   UNL d   1      -1.799  -3.101   1.047  0.00  0.00    -0.532 OA
ATOM     20  O   UNL d   1      -2.479  -2.676  -1.006  0.00  0.00    -0.532 OA
ENDBRANCH   3  18
TORSDOF 2
