REMARK  4 active torsions:
REMARK  status: ('A' for Active; 'I' for Inactive)
REMARK    1  A    between atoms: C_8  and  C_1 
REMARK    2  A    between atoms: C_6  and  C_2 
REMARK    3  A    between atoms: O_12  and  C_8 
REMARK    4  A    between atoms: C_18  and  O_12 
ROOT
ATOM      1  C   UNL d   1      -0.788   0.946   0.031  0.00  0.00     0.175 A 
ATOM      2  C   UNL d   1      -0.280  -1.215   0.022  0.00  0.00     0.071 A 
ATOM      3  C   UNL d   1      -1.325  -0.292   0.297  0.00  0.00     0.078 A 
ATOM      4  N   UNL d   1       0.831  -0.555  -0.344  0.00  0.00    -0.260 N 
ATOM      5  HN  UNL d   1       1.730  -0.966  -0.594  1.00  0.00     0.195 HD
ATOM      6  O   UNL d   1       0.517   0.786  -0.314  0.00  0.00    -0.231 OA
ENDROOT
BRANCH   2   7
ATOM      7  C   UNL d   1      -0.320  -2.678   0.050  0.00  0.00     0.036 A 
ATOM      8  C   UNL d   1      -1.327  -3.392  -0.631  0.00  0.00     0.048 A 
ATOM      9 CL   UNL d   1      -2.571  -2.625  -1.565  0.00  0.00    -0.083 Cl
ATOM     10  C   UNL d   1      -1.354  -4.794  -0.615  0.00  0.00     0.025 A 
ATOM     11  C   UNL d   1      -0.371  -5.510   0.059  0.00  0.00     0.003 A 
ATOM     12  C   UNL d   1       0.637  -4.826   0.729  0.00  0.00     0.025 A 
ATOM     13  C   UNL d   1       0.662  -3.423   0.736  0.00  0.00     0.048 A 
ATOM     14 CL   UNL d   1       1.930  -2.695   1.668  0.00  0.00    -0.083 Cl
ENDBRANCH   2   7
BRANCH   1  15
ATOM     15  C   UNL d   1      -1.374   2.257  -0.013  0.00  0.00     0.319 C 
ATOM     16  O   UNL d   1      -2.568   2.502   0.101  0.00  0.00    -0.257 OA
BRANCH  15  17
ATOM     17  O   UNL d   1      -0.409   3.181  -0.282  0.00  0.00    -0.316 OA
BRANCH  17  18
ATOM     18  C   UNL d   1      -0.856   4.457  -0.751  0.00  0.00     0.175 C 
ATOM     19  C   UNL d   1      -0.816   4.430  -2.268  0.00  0.00     0.034 C 
ENDBRANCH  17  18
ENDBRANCH  15  17
ENDBRANCH   1  15
TORSDOF 4
