REMARK  3 active torsions:
REMARK  status: ('A' for Active; 'I' for Inactive)
REMARK    1  A    between atoms: N_3  and  C_8 
REMARK    2  A    between atoms: N_16  and  C_4 
REMARK    3  A    between atoms: C_10  and  C_5 
ROOT
ATOM      1  N   UNL d   1      -1.497  -0.108  -0.559  0.00  0.00    -0.336 N 
ATOM      2  HN  UNL d   1      -2.412   0.071  -0.972  1.00  0.00     0.168 HD
ATOM      3  C   UNL d   1      -0.530   0.772  -0.471  0.00  0.00     0.142 A 
ATOM      4  C   UNL d   1      -1.097  -1.317  -0.009  0.00  0.00     0.051 A 
ATOM      5  S   UNL d   1       0.912   0.212   0.272  0.00  0.00    -0.064 SA
ATOM      6  C   UNL d   1       0.196  -1.331   0.475  0.00  0.00     0.083 A 
ENDROOT
BRANCH   4   7
ATOM      7  C   UNL d   1      -1.993  -2.467   0.022  0.00  0.00    -0.009 A 
ATOM      8  C   UNL d   1      -2.961  -2.622  -0.984  0.00  0.00     0.016 A 
ATOM      9  C   UNL d   1      -3.840  -3.712  -0.972  0.00  0.00     0.037 A 
ATOM     10  C   UNL d   1      -3.757  -4.653   0.062  0.00  0.00     0.102 A 
ATOM     11  C   UNL d   1      -2.801  -4.511   1.074  0.00  0.00     0.037 A 
ATOM     12  C   UNL d   1      -1.925  -3.421   1.050  0.00  0.00     0.016 A 
BRANCH  10  13
ATOM     13  N   UNL d   1      -4.683  -5.791   0.093  0.00  0.00    -0.116 N 
ATOM     14  O   UNL d   1      -5.518  -5.881  -0.819  0.00  0.00    -0.532 OA
ATOM     15  O   UNL d   1      -4.577  -6.595   1.029  0.00  0.00    -0.532 OA
ENDBRANCH  10  13
ENDBRANCH   4   7
BRANCH   3  16
ATOM     16  N   UNL d   1      -0.637   2.034  -0.913  0.00  0.00    -0.380 N 
ATOM     17  H   UNL d   1      -1.578   2.371  -1.078  0.00  0.00     0.158 HD
ATOM     18  H   UNL d   1       0.002   2.728  -0.543  0.00  0.00     0.158 HD
ENDBRANCH   3  16
TORSDOF 3
