REMARK  4 active torsions:
REMARK  status: ('A' for Active; 'I' for Inactive)
REMARK    1  A    between atoms: N_2  and  C_1 
REMARK    2  A    between atoms: N_3  and  C_1 
REMARK    3  A    between atoms: C_4  and  N_3 
REMARK       I    between atoms: C_6  and  N_7 
REMARK    4  A    between atoms: N_7  and  C_14 
ROOT
ATOM      1  N   UNL d   1       0.127  -1.186  -0.526  0.00  0.00    -0.358 N 
ATOM      2  C   UNL d   1       0.550  -2.580  -0.634  0.00  0.00     0.127 C 
ATOM      3  C   UNL d   1      -0.983  -0.833  -1.411  0.00  0.00     0.127 C 
ATOM      4  C   UNL d   1      -2.212  -1.673  -1.108  0.00  0.00     0.045 C 
ATOM      5  C   UNL d   1      -0.619  -3.499  -0.287  0.00  0.00     0.045 C 
ATOM      6  C   UNL d   1      -1.905  -3.176  -1.059  0.00  0.00     0.087 C 
ENDROOT
BRANCH   1   7
ATOM      7  C   UNL d   1       0.978  -0.154  -0.099  0.00  0.00     0.174 C 
ATOM      8  S   UNL d   1       2.643  -0.168  -0.286  0.00  0.00    -0.041 SA
BRANCH   7   9
ATOM      9  N   UNL d   1       0.253   0.810   0.588  0.00  0.00    -0.332 N 
ATOM     10  H   UNL d   1      -0.434   0.410   1.220  0.00  0.00     0.168 HD
BRANCH   9  11
ATOM     11  C   UNL d   1       0.540   2.175   0.801  0.00  0.00     0.056 A 
ATOM     12  C   UNL d   1       0.071   2.810   1.963  0.00  0.00     0.060 A 
ATOM     13 CL   UNL d   1      -0.730   1.915   3.209  0.00  0.00    -0.082 Cl
ATOM     14  C   UNL d   1       0.258   4.182   2.151  0.00  0.00     0.026 A 
ATOM     15  C   UNL d   1       0.887   4.938   1.162  0.00  0.00     0.002 A 
ATOM     16  C   UNL d   1       1.338   4.319  -0.003  0.00  0.00     0.002 A 
ATOM     17  C   UNL d   1       1.171   2.943  -0.182  0.00  0.00     0.031 A 
ENDBRANCH   9  11
ENDBRANCH   7   9
ENDBRANCH   1   7
BRANCH   6  18
ATOM     18  N   UNL d   1      -1.896  -3.774  -2.392  0.00  0.00    -0.357 N 
ATOM     19  C   UNL d   1      -3.065  -4.181  -2.996  0.00  0.00     0.213 C 
ATOM     20  O   UNL d   1      -4.175  -4.066  -2.485  0.00  0.00    -0.274 OA
ATOM     21  C   UNL d   1      -2.886  -4.805  -4.355  0.00  0.00     0.117 C 
ATOM     22  H   UNL d   1      -1.046  -3.755  -2.938  0.00  0.00     0.162 HD
ENDBRANCH   6  18
TORSDOF 4
