REMARK  3 active torsions:
REMARK  status: ('A' for Active; 'I' for Inactive)
REMARK    1  A    between atoms: C_6  and  C_1 
REMARK    2  A    between atoms: N_9  and  N_7 
REMARK    3  A    between atoms: C_11  and  N_9 
ROOT
ATOM      1  C   UNL d   1       3.621   0.259   0.007  0.00  0.00     0.126 C 
ATOM      2  N   UNL d   1       4.228   1.394  -0.092  0.00  0.00    -0.310 N 
ATOM      3  HN  UNL d   1       3.698   2.265  -0.126  1.00  0.00     0.186 HD
ENDROOT
BRANCH   1   4
ATOM      4  C   UNL d   1       2.172   0.217   0.041  0.00  0.00     0.029 A 
ATOM      5  S   UNL d   1       1.427  -1.320   0.053  0.00  0.00    -0.088 SA
ATOM      6  C   UNL d   1      -0.156  -0.658   0.038  0.00  0.00     0.016 A 
ATOM      7  C   UNL d   1      -1.377  -1.362   0.028  0.00  0.00     0.019 A 
ATOM      8  C   UNL d   1      -0.120   0.736   0.035  0.00  0.00    -0.012 A 
ATOM      9  C   UNL d   1      -2.574  -0.643   0.009  0.00  0.00     0.001 A 
ATOM     10  C   UNL d   1      -2.568   0.742  -0.001  0.00  0.00     0.001 A 
ATOM     11  C   UNL d   1      -1.356   1.433   0.014  0.00  0.00     0.013 A 
ATOM     12  C   UNL d   1       1.237   1.246   0.056  0.00  0.00    -0.032 A 
ATOM     13  C   UNL d   1       1.507   2.721   0.081  0.00  0.00     0.050 C 
ENDBRANCH   1   4
BRANCH   2  14
ATOM     14  N   UNL d   1       5.580   1.410  -0.151  0.00  0.00    -0.301 N 
ATOM     15  H   UNL d   1       6.124   0.551  -0.181  0.00  0.00     0.187 HD
BRANCH  14  16
ATOM     16  C   UNL d   1       6.167   2.506  -0.821  0.00  0.00     0.048 A 
ATOM     17  C   UNL d   1       5.404   3.603  -1.259  0.00  0.00     0.031 A 
ATOM     18  C   UNL d   1       5.993   4.704  -1.876  0.00  0.00     0.002 A 
ATOM     19  C   UNL d   1       7.372   4.741  -2.048  0.00  0.00     0.000 A 
ATOM     20  C   UNL d   1       8.154   3.678  -1.596  0.00  0.00     0.002 A 
ATOM     21  C   UNL d   1       7.557   2.573  -0.977  0.00  0.00     0.031 A 
ENDBRANCH  14  16
ENDBRANCH   2  14
TORSDOF 3
