REMARK  0 active torsions:
REMARK  status: ('A' for Active; 'I' for Inactive)
ROOT
ATOM      1  C   UNL d   1      -0.724   1.238   0.001  0.00  0.00     0.090 A 
ATOM      2  C   UNL d   1      -1.432   0.021  -0.001  0.00  0.00     0.090 A 
ATOM      3  C   UNL d   1       1.387   0.013  -0.001  0.00  0.00     0.080 A 
ATOM      4  C   UNL d   1       0.681  -1.203   0.000  0.00  0.00     0.080 A 
ATOM      5  C   UNL d   1       0.683   1.232   0.000  0.00  0.00     0.079 A 
ATOM      6  C   UNL d   1      -0.727  -1.197   0.000  0.00  0.00     0.079 A 
ATOM      7  C   UNL d   1      -1.439   2.487   0.003  0.00  0.00     0.103 C 
ATOM      8  C   UNL d   1      -2.871   0.029  -0.004  0.00  0.00     0.103 C 
ATOM      9  N   UNL d   1      -2.016   3.492   0.005  0.00  0.00    -0.191 NA
ATOM     10  N   UNL d   1      -4.030   0.048  -0.007  0.00  0.00    -0.191 NA
ATOM     11 CL   UNL d   1       3.129   0.014  -0.006  0.00  0.00    -0.081 Cl
ATOM     12 CL   UNL d   1       1.546  -2.714   0.003  0.00  0.00    -0.081 Cl
ATOM     13 CL   UNL d   1      -1.611  -2.698   0.003  0.00  0.00    -0.081 Cl
ATOM     14 CL   UNL d   1       1.547   2.745   0.003  0.00  0.00    -0.081 Cl
ENDROOT
TORSDOF 0
