REMARK  2 active torsions:
REMARK  status: ('A' for Active; 'I' for Inactive)
REMARK    1  A    between atoms: N_2  and  C_1 
REMARK    2  A    between atoms: N_4  and  C_3 
REMARK       I    between atoms: C_7  and  N_4 
ROOT
ATOM      1  C   UNL d   1      -1.212  -1.345  -0.046  0.00  0.00     0.132 A 
ATOM      2  C   UNL d   1      -2.059  -0.220  -0.068  0.00  0.00     0.068 A 
ATOM      3  C   UNL d   1       0.187  -1.209   0.031  0.00  0.00     0.080 A 
ATOM      4  C   UNL d   1      -1.448   1.049  -0.055  0.00  0.00     0.035 A 
ATOM      5  C   UNL d   1       0.744   0.058   0.069  0.00  0.00     0.118 A 
ATOM      6  C   UNL d   1      -0.058   1.188   0.018  0.00  0.00     0.044 A 
ATOM      7  F   UNL d   1       2.074   0.195   0.121  0.00  0.00    -0.206 F 
ENDROOT
BRANCH   2   8
ATOM      8  N   UNL d   1      -3.476  -0.187  -0.103  0.00  0.00    -0.325 N 
ATOM      9  C   UNL d   1      -4.345  -1.164   0.343  0.00  0.00     0.218 C 
ATOM     10  O   UNL d   1      -4.019  -2.198   0.912  0.00  0.00    -0.274 OA
ATOM     11  C   UNL d   1      -5.791  -0.820   0.101  0.00  0.00     0.117 C 
ATOM     12  H   UNL d   1      -3.899   0.716  -0.284  0.00  0.00     0.169 HD
ENDBRANCH   2   8
BRANCH   1  13
ATOM     13  N   UNL d   1      -1.679  -2.694  -0.314  0.00  0.00    -0.113 N 
ATOM     14  O   UNL d   1      -2.275  -2.875  -1.387  0.00  0.00    -0.532 OA
ATOM     15  O   UNL d   1      -1.317  -3.581   0.472  0.00  0.00    -0.532 OA
ENDBRANCH   1  13
TORSDOF 2
