REMARK  4 active torsions:
REMARK  status: ('A' for Active; 'I' for Inactive)
REMARK    1  A    between atoms: C_9  and  C_3 
REMARK    2  A    between atoms: C_8  and  C_7 
REMARK    3  A    between atoms: C_17  and  C_9 
REMARK    4  A    between atoms: N_12  and  C_10 
ROOT
ATOM      1  N   UNL d   1       1.238  -1.124  -0.109  0.00  0.00    -0.297 N 
ATOM      2  HN  UNL d   1       1.760  -2.001  -0.100  1.00  0.00     0.187 HD
ATOM      3  C   UNL d   1      -0.217   1.318  -0.122  0.00  0.00     0.018 A 
ATOM      4  N   UNL d   1      -0.122  -1.104  -0.200  0.00  0.00    -0.266 N 
ATOM      5  C   UNL d   1      -0.919   0.015  -0.248  0.00  0.00     0.266 A 
ATOM      6  C   UNL d   1       1.118   1.322   0.006  0.00  0.00     0.045 A 
ATOM      7  C   UNL d   1       1.838   0.027  -0.035  0.00  0.00     0.059 A 
ATOM      8  O   UNL d   1      -2.138  -0.059  -0.356  0.00  0.00    -0.266 OA
ATOM      9  H   UNL d   1      -0.584  -2.004  -0.275  0.00  0.00     0.190 HD
ENDROOT
BRANCH   3  10
ATOM     10  C   UNL d   1      -1.054   2.563  -0.050  0.00  0.00     0.083 C 
BRANCH  10  11
ATOM     11  C   UNL d   1      -1.262   3.225  -1.391  0.00  0.00    -0.054 A 
ATOM     12  C   UNL d   1      -2.357   2.892  -2.188  0.00  0.00     0.010 A 
ATOM     13  C   UNL d   1      -2.556   3.517  -3.425  0.00  0.00     0.030 A 
ATOM     14  C   UNL d   1      -1.672   4.486  -3.932  0.00  0.00     0.029 A 
ATOM     15  C   UNL d   1      -0.572   4.796  -3.119  0.00  0.00     0.030 A 
ATOM     16  C   UNL d   1      -0.365   4.183  -1.873  0.00  0.00     0.010 A 
BRANCH  14  17
ATOM     17  N   UNL d   1      -1.907   5.113  -5.145  0.00  0.00    -0.390 N 
ATOM     18  C   UNL d   1      -2.532   4.400  -6.254  0.00  0.00     0.149 C 
ATOM     19  C   UNL d   1      -1.318   6.403  -5.482  0.00  0.00     0.149 C 
ENDBRANCH  14  17
ENDBRANCH  10  11
ENDBRANCH   3  10
BRANCH   7  20
ATOM     20  C   UNL d   1       3.326   0.076   0.046  0.00  0.00    -0.008 A 
ATOM     21  C   UNL d   1       4.004  -0.974   0.677  0.00  0.00     0.014 A 
ATOM     22  C   UNL d   1       5.399  -0.957   0.772  0.00  0.00     0.007 A 
ATOM     23  C   UNL d   1       6.135   0.104   0.231  0.00  0.00    -0.062 A 
ATOM     24  C   UNL d   1       5.457   1.142  -0.416  0.00  0.00     0.007 A 
ATOM     25  C   UNL d   1       7.632   0.105   0.326  0.00  0.00     0.048 C 
ATOM     26  C   UNL d   1       4.062   1.127  -0.513  0.00  0.00     0.014 A 
ENDBRANCH   7  20
TORSDOF 4
