REMARK  3 active torsions:
REMARK  status: ('A' for Active; 'I' for Inactive)
REMARK    1  A    between atoms: C_4  and  O_11 
REMARK    2  A    between atoms: C_8  and  C_4 
REMARK    3  A    between atoms: O_11  and  C_6 
ROOT
ATOM      1  C   UNL d   1       1.702  -0.942  -0.315  0.00  0.00     0.048 A 
ATOM      2  C   UNL d   1       1.118   0.304  -0.101  0.00  0.00     0.108 A 
ATOM      3  C   UNL d   1       3.220   0.973  -0.590  0.00  0.00     0.332 A 
ATOM      4  S   UNL d   1       3.393  -0.778  -0.749  0.00  0.00    -0.018 SA
ATOM      5  C   UNL d   1      -0.366  -2.001   0.220  0.00  0.00     0.092 A 
ATOM      6  O   UNL d   1       1.944   1.423  -0.268  0.00  0.00    -0.268 OA
ATOM      7  C   UNL d   1      -0.218   0.441   0.301  0.00  0.00     0.012 A 
ATOM      8  C   UNL d   1       0.974  -2.108  -0.162  0.00  0.00     0.060 A 
ATOM      9  C   UNL d   1      -0.973  -0.742   0.500  0.00  0.00     0.011 A 
ATOM     10  O   UNL d   1       4.165   1.734  -0.746  0.00  0.00    -0.251 OA
ATOM     11  C   UNL d   1      -0.816   1.698   0.522  0.00  0.00     0.015 A 
ATOM     12  C   UNL d   1      -2.296  -0.611   0.977  0.00  0.00     0.015 A 
ATOM     13  C   UNL d   1      -2.131   1.796   0.975  0.00  0.00     0.001 A 
ATOM     14  C   UNL d   1      -2.865   0.642   1.219  0.00  0.00     0.001 A 
ENDROOT
BRANCH   5  15
ATOM     15  O   UNL d   1      -1.186  -3.151   0.380  0.00  0.00    -0.274 OA
BRANCH  15  16
ATOM     16  C   UNL d   1      -1.121  -4.215  -0.511  0.00  0.00     0.299 C 
ATOM     17  O   UNL d   1      -0.292  -4.414  -1.381  0.00  0.00    -0.259 OA
BRANCH  16  18
ATOM     18  C   UNL d   1      -2.323  -5.052  -0.298  0.00  0.00     0.056 A 
ATOM     19  C   UNL d   1      -2.273  -6.437  -0.111  0.00  0.00     0.022 A 
ATOM     20  I   UNL d   1      -0.487  -7.521   0.064  0.00  0.00    -0.043 I 
ATOM     21  C   UNL d   1      -3.465  -7.167   0.005  0.00  0.00     0.019 A 
ATOM     22  C   UNL d   1      -4.701  -6.517  -0.067  0.00  0.00     0.001 A 
ATOM     23  C   UNL d   1      -4.754  -5.140  -0.256  0.00  0.00     0.001 A 
ATOM     24  C   UNL d   1      -3.573  -4.411  -0.377  0.00  0.00     0.019 A 
ENDBRANCH  16  18
ENDBRANCH  15  16
ENDBRANCH   5  15
TORSDOF 3
