REMARK  3 active torsions:
REMARK  status: ('A' for Active; 'I' for Inactive)
REMARK    1  A    between atoms: N_2  and  C_1 
REMARK    2  A    between atoms: N_3  and  C_1 
REMARK    3  A    between atoms: C_5  and  N_3 
ROOT
ATOM      1  N   UNL d   1       0.195  -0.942  -0.257  0.00  0.00    -0.333 N 
ATOM      2  H   UNL d   1       0.762  -1.757  -0.459  0.00  0.00     0.168 HD
ENDROOT
BRANCH   1   3
ATOM      3  C   UNL d   1       0.944   0.219  -0.122  0.00  0.00     0.174 C 
ATOM      4  S   UNL d   1       0.566   1.670  -0.883  0.00  0.00    -0.041 SA
BRANCH   3   5
ATOM      5  N   UNL d   1       2.104   0.014   0.639  0.00  0.00    -0.354 N 
ATOM      6  C   UNL d   1       2.167  -0.981   1.726  0.00  0.00     0.151 C 
ATOM      7  C   UNL d   1       2.431  -0.291   3.073  0.00  0.00     0.187 C 
ATOM      8  O   UNL d   1       3.613   0.522   3.022  0.00  0.00    -0.388 OA
ATOM      9  C   UNL d   1       3.478   1.544   2.021  0.00  0.00     0.187 C 
ATOM     10  C   UNL d   1       3.267   0.922   0.638  0.00  0.00     0.151 C 
ENDBRANCH   3   5
ENDBRANCH   1   3
BRANCH   1  11
ATOM     11  C   UNL d   1      -1.191  -1.082  -0.472  0.00  0.00     0.034 A 
ATOM     12  C   UNL d   1      -2.119  -0.184   0.058  0.00  0.00     0.036 A 
ATOM     13  C   UNL d   1      -3.496  -0.389  -0.111  0.00  0.00    -0.060 A 
ATOM     14  C   UNL d   1      -4.490   0.554   0.501  0.00  0.00     0.048 C 
ATOM     15  C   UNL d   1      -3.936  -1.509  -0.824  0.00  0.00     0.007 A 
ATOM     16  C   UNL d   1      -3.015  -2.417  -1.344  0.00  0.00     0.003 A 
ATOM     17  C   UNL d   1      -1.646  -2.216  -1.151  0.00  0.00     0.029 A 
ENDBRANCH   1  11
TORSDOF 3
