REMARK  4 active torsions:
REMARK  status: ('A' for Active; 'I' for Inactive)
REMARK    1  A    between atoms: N_8  and  S_1 
REMARK    2  A    between atoms: C_9  and  S_1 
REMARK    3  A    between atoms: C_5  and  C_13 
REMARK    4  A    between atoms: C_16  and  N_8 
ROOT
ATOM      1  C   UNL d   1       1.419   3.817  -3.703  0.00  0.00    -0.008 A 
ATOM      2  C   UNL d   1       0.799   1.556  -2.149  0.00  0.00     0.042 A 
ATOM      3  C   UNL d   1       2.379   3.240  -2.857  0.00  0.00     0.016 A 
ATOM      4  C   UNL d   1       0.140   3.244  -3.747  0.00  0.00     0.016 A 
ATOM      5  C   UNL d   1      -0.163   2.109  -2.987  0.00  0.00     0.031 A 
ATOM      6  C   UNL d   1       2.068   2.126  -2.070  0.00  0.00     0.031 A 
ENDROOT
BRANCH   2   7
ATOM      7  N   UNL d   1       0.491   0.362  -1.436  0.00  0.00    -0.281 N 
ATOM      8  H   UNL d   1       0.732   0.333  -0.448  0.00  0.00     0.179 HD
BRANCH   7   9
ATOM      9  S   UNL d   1       0.760  -1.128  -2.200  0.00  0.00     0.263 S 
ATOM     10  O   UNL d   1       0.089  -1.141  -3.481  0.00  0.00    -0.200 OA
ATOM     11  O   UNL d   1       0.494  -2.142  -1.200  0.00  0.00    -0.200 OA
BRANCH   9  12
ATOM     12  C   UNL d   1       2.517  -1.119  -2.493  0.00  0.00     0.079 A 
ATOM     13  C   UNL d   1       3.381  -1.635  -1.523  0.00  0.00     0.026 A 
ATOM     14  C   UNL d   1       4.761  -1.542  -1.716  0.00  0.00     0.008 A 
ATOM     15  C   UNL d   1       5.278  -0.940  -2.871  0.00  0.00    -0.062 A 
ATOM     16  C   UNL d   1       4.399  -0.473  -3.856  0.00  0.00     0.008 A 
ATOM     17  C   UNL d   1       6.764  -0.797  -3.038  0.00  0.00     0.048 C 
ATOM     18  C   UNL d   1       3.019  -0.577  -3.679  0.00  0.00     0.026 A 
ENDBRANCH   9  12
ENDBRANCH   7   9
ENDBRANCH   2   7
BRANCH   1  19
ATOM     19  C   UNL d   1       1.773   4.981  -4.505  0.00  0.00     0.060 A 
ATOM     20  N   UNL d   1       3.059   5.512  -4.544  0.00  0.00    -0.335 N 
ATOM     21  C   UNL d   1       2.953   6.530  -5.351  0.00  0.00     0.147 A 
ATOM     22  HN  UNL d   1       3.891   5.181  -4.055  1.00  0.00     0.168 HD
ATOM     23  S   UNL d   1       4.036   7.743  -5.898  0.00  0.00    -0.092 SA
ATOM     24  N   UNL d   1       1.696   6.689  -5.824  0.00  0.00    -0.335 N 
ATOM     25  C   UNL d   1       2.647   8.736  -6.588  0.00  0.00     0.102 C 
ATOM     26  C   UNL d   1       1.457   7.782  -6.737  0.00  0.00     0.141 C 
ATOM     27  C   UNL d   1       0.912   5.714  -5.314  0.00  0.00     0.123 A 
ENDBRANCH   1  19
TORSDOF 4
