REMARK  5 active torsions:
REMARK  status: ('A' for Active; 'I' for Inactive)
REMARK    1  A    between atoms: C_2  and  S_1 
REMARK    2  A    between atoms: N_3  and  S_1 
REMARK    3  A    between atoms: C_10  and  N_3 
REMARK    4  A    between atoms: O_15  and  C_8 
REMARK    5  A    between atoms: O_20  and  C_12 
ROOT
ATOM      1  N   UNL d   1       4.958  -6.548  -0.341  0.00  0.00    -0.191 NA
ATOM      2  C   UNL d   1       4.624  -5.438  -0.304  0.00  0.00     0.099 C 
ATOM      3  C   UNL d   1       3.238  -1.452  -0.103  0.00  0.00     0.042 A 
ATOM      4  C   UNL d   1       4.191  -4.072  -0.245  0.00  0.00     0.044 A 
ATOM      5  C   UNL d   1       3.240  -2.121  -1.326  0.00  0.00     0.031 A 
ATOM      6  C   UNL d   1       3.758  -2.064   1.037  0.00  0.00     0.031 A 
ATOM      7  C   UNL d   1       3.711  -3.436  -1.396  0.00  0.00     0.025 A 
ATOM      8  C   UNL d   1       4.226  -3.378   0.969  0.00  0.00     0.025 A 
ENDROOT
BRANCH   3   9
ATOM      9  N   UNL d   1       2.676  -0.156   0.020  0.00  0.00    -0.281 N 
ATOM     10  H   UNL d   1       3.148   0.628  -0.428  0.00  0.00     0.179 HD
BRANCH   9  11
ATOM     11  S   UNL d   1       0.990   0.017  -0.025  0.00  0.00     0.266 S 
ATOM     12  O   UNL d   1       0.770   1.437  -0.195  0.00  0.00    -0.200 OA
ATOM     13  O   UNL d   1       0.436  -0.924  -0.975  0.00  0.00    -0.200 OA
BRANCH  11  14
ATOM     14  C   UNL d   1       0.485  -0.506   1.598  0.00  0.00     0.115 A 
ATOM     15  C   UNL d   1       0.550  -1.885   1.869  0.00  0.00     0.065 A 
ATOM     16  C   UNL d   1       0.274  -2.372   3.144  0.00  0.00     0.069 A 
ATOM     17  C   UNL d   1      -0.104  -1.477   4.144  0.00  0.00     0.039 A 
ATOM     18  C   UNL d   1      -0.242  -0.116   3.862  0.00  0.00     0.041 A 
ATOM     19  C   UNL d   1       0.022   0.369   2.578  0.00  0.00     0.091 A 
BRANCH  16  20
ATOM     20  O   UNL d   1       0.356  -3.679   3.537  0.00  0.00    -0.356 OA
ATOM     21  C   UNL d   1       0.606  -4.644   2.521  0.00  0.00     0.210 C 
ENDBRANCH  16  20
BRANCH  19  22
ATOM     22  O   UNL d   1      -0.161   1.706   2.380  0.00  0.00    -0.354 OA
ATOM     23  C   UNL d   1      -1.429   1.964   1.765  0.00  0.00     0.210 C 
ENDBRANCH  19  22
ENDBRANCH  11  14
ENDBRANCH   9  11
ENDBRANCH   3   9
TORSDOF 5
