REMARK  5 active torsions:
REMARK  status: ('A' for Active; 'I' for Inactive)
REMARK    1  A    between atoms: C_7  and  N_1 
REMARK    2  A    between atoms: C_15  and  N_2 
REMARK    3  A    between atoms: S_13  and  C_11 
REMARK    4  A    between atoms: C_19  and  C_15 
REMARK    5  A    between atoms: O_29  and  C_21 
ROOT
ATOM      1  N   UNL d   1       0.861  -1.404  -0.085  0.00  0.00    -0.246 N 
ATOM      2  N   UNL d   1       2.084   0.667  -0.078  0.00  0.00    -0.260 N 
ATOM      3  C   UNL d   1       2.104  -0.751   0.001  0.00  0.00     0.338 A 
ATOM      4  C   UNL d   1      -0.304  -0.665  -0.104  0.00  0.00     0.150 A 
ATOM      5  C   UNL d   1      -0.266   0.695  -0.114  0.00  0.00     0.147 A 
ATOM      6  C   UNL d   1       0.927   1.457  -0.127  0.00  0.00     0.282 A 
ATOM      7  N   UNL d   1      -1.594  -1.119  -0.086  0.00  0.00    -0.336 N 
ATOM      8  HN  UNL d   1      -1.912  -2.088  -0.087  1.00  0.00     0.168 HD
ATOM      9  N   UNL d   1      -1.567   1.104  -0.086  0.00  0.00    -0.345 N 
ATOM     10  C   UNL d   1      -2.336  -0.029  -0.068  0.00  0.00     0.182 A 
ATOM     11  O   UNL d   1       3.171  -1.367   0.094  0.00  0.00    -0.246 OA
ATOM     12  O   UNL d   1       0.914   2.684  -0.185  0.00  0.00    -0.265 OA
ATOM     13  H   UNL d   1      -1.894   2.062  -0.066  0.00  0.00     0.167 HD
ENDROOT
BRANCH   1  14
ATOM     14  C   UNL d   1       0.713  -2.809   0.084  0.00  0.00     0.053 A 
ATOM     15  C   UNL d   1       0.147  -3.640  -0.922  0.00  0.00    -0.015 A 
ATOM     16  C   UNL d   1      -0.069  -5.012  -0.634  0.00  0.00     0.039 A 
ATOM     17  C   UNL d   1      -0.161  -3.080  -2.288  0.00  0.00     0.052 C 
ATOM     18  C   UNL d   1       0.295  -5.518   0.626  0.00  0.00     0.021 A 
ATOM     19  C   UNL d   1       0.895  -4.704   1.586  0.00  0.00     0.004 A 
ATOM     20  C   UNL d   1       1.117  -3.361   1.310  0.00  0.00     0.031 A 
BRANCH  16  21
ATOM     21  S   UNL d   1      -0.624  -6.217  -1.894  0.00  0.00     0.046 S 
ATOM     22  O   UNL d   1      -0.617  -7.559  -1.220  0.00  0.00    -0.253 OA
ATOM     23  C   UNL d   1      -2.352  -5.736  -2.084  0.00  0.00     0.133 C 
ENDBRANCH  16  21
ENDBRANCH   1  14
BRANCH   2  24
ATOM     24  C   UNL d   1       3.359   1.370  -0.082  0.00  0.00     0.175 C 
BRANCH  24  25
ATOM     25  C   UNL d   1       3.828   1.720   1.313  0.00  0.00    -0.040 A 
ATOM     26  C   UNL d   1       4.666   0.846   2.018  0.00  0.00     0.011 A 
ATOM     27  C   UNL d   1       5.033   1.117   3.339  0.00  0.00     0.037 A 
ATOM     28  C   UNL d   1       4.559   2.263   3.975  0.00  0.00     0.068 A 
ATOM     29  C   UNL d   1       3.775   3.169   3.263  0.00  0.00     0.037 A 
ATOM     30  C   UNL d   1       3.405   2.899   1.943  0.00  0.00     0.011 A 
BRANCH  28  31
ATOM     31  O   UNL d   1       4.839   2.605   5.270  0.00  0.00    -0.356 OA
ATOM     32  C   UNL d   1       4.942   1.500   6.166  0.00  0.00     0.210 C 
ENDBRANCH  28  31
ENDBRANCH  24  25
ENDBRANCH   2  24
TORSDOF 5
