REMARK  1 active torsions:
REMARK  status: ('A' for Active; 'I' for Inactive)
REMARK    1  A    between atoms: C_9  and  N_1 
ROOT
ATOM      1  N   UNL d   1       2.355  -0.735   0.026  0.00  0.00    -0.205 N 
ATOM      2  N   UNL d   1       2.326   0.628   0.195  0.00  0.00    -0.232 N 
ATOM      3  HN  UNL d   1       3.208   1.128   0.303  1.00  0.00     0.209 HD
ATOM      4  C   UNL d   1       1.201  -1.510  -0.010  0.00  0.00     0.280 A 
ATOM      5  N   UNL d   1       1.258   1.276   0.220  0.00  0.00    -0.285 N 
ATOM      6  HN  UNL d   1       1.278   2.290   0.335  1.00  0.00     0.188 HD
ATOM      7  C   UNL d   1      -0.055  -0.768   0.018  0.00  0.00     0.062 A 
ATOM      8  C   UNL d   1       0.037   0.610   0.092  0.00  0.00     0.065 A 
ATOM      9  O   UNL d   1       1.134  -2.737  -0.053  0.00  0.00    -0.265 OA
ATOM     10  C   UNL d   1      -1.295  -1.417  -0.059  0.00  0.00     0.019 A 
ATOM     11  C   UNL d   1      -1.146   1.358   0.050  0.00  0.00     0.032 A 
ATOM     12  C   UNL d   1      -2.465  -0.665  -0.088  0.00  0.00     0.001 A 
ATOM     13  C   UNL d   1      -2.391   0.726  -0.045  0.00  0.00     0.002 A 
ENDROOT
BRANCH   1  14
ATOM     14  C   UNL d   1       3.675  -1.279  -0.115  0.00  0.00     0.061 A 
ATOM     15  C   UNL d   1       3.898  -2.513  -0.743  0.00  0.00     0.033 A 
ATOM     16  C   UNL d   1       5.190  -3.034  -0.892  0.00  0.00     0.021 A 
ATOM     17  C   UNL d   1       6.280  -2.324  -0.404  0.00  0.00     0.011 A 
ATOM     18  C   UNL d   1       6.091  -1.096   0.219  0.00  0.00     0.021 A 
ATOM     19 BR   UNL d   1       8.021  -3.034  -0.592  0.00  0.00    -0.051 Br
ATOM     20  C   UNL d   1       4.799  -0.571   0.351  0.00  0.00     0.033 A 
ENDBRANCH   1  14
TORSDOF 1
