REMARK  7 active torsions:
REMARK  status: ('A' for Active; 'I' for Inactive)
REMARK    1  A    between atoms: S_4  and  C_1 
REMARK    2  A    between atoms: C_20  and  N_2 
REMARK    3  A    between atoms: C_16  and  C_3 
REMARK    4  A    between atoms: C_6  and  S_4 
REMARK    5  A    between atoms: C_14  and  C_5 
REMARK    6  A    between atoms: O_25  and  C_16 
REMARK    7  A    between atoms: C_28  and  O_25 
ROOT
ATOM      1  C   UNL d   1       0.851  -6.062   0.121  0.00  0.00     0.072 A 
ATOM      2  C   UNL d   1       1.721  -5.543   1.077  0.00  0.00     0.134 A 
ATOM      3  C   UNL d   1       1.686  -3.424   0.019  0.00  0.00     0.099 A 
ATOM      4  N   UNL d   1       2.112  -4.225   1.030  0.00  0.00    -0.345 N 
ATOM      5  HN  UNL d   1       2.722  -3.848   1.755  1.00  0.00     0.166 HD
ATOM      6  C   UNL d   1       0.882  -3.909  -1.008  0.00  0.00     0.079 A 
ATOM      7  C   UNL d   1       0.450  -5.241  -0.943  0.00  0.00     0.045 A 
ATOM      8  C   UNL d   1       0.509  -3.108  -2.132  0.00  0.00     0.102 C 
ATOM      9  N   UNL d   1       0.214  -2.496  -3.072  0.00  0.00    -0.191 NA
ENDROOT
BRANCH   3  10
ATOM     10  S   UNL d   1       2.331  -1.767   0.083  0.00  0.00    -0.033 SA
BRANCH  10  11
ATOM     11  C   UNL d   1       1.125  -0.978   1.039  0.00  0.00     0.172 A 
ATOM     12  N   UNL d   1       1.443   0.037   1.888  0.00  0.00    -0.273 N 
ATOM     13  C   UNL d   1       0.240   0.430   2.421  0.00  0.00     0.343 A 
ATOM     14  O   UNL d   1       0.017   1.324   3.225  0.00  0.00    -0.245 OA
ATOM     15  N   UNL d   1      -0.718  -0.399   1.854  0.00  0.00    -0.249 N 
ATOM     16  N   UNL d   1      -0.143  -1.273   0.980  0.00  0.00    -0.275 N 
ATOM     17  H   UNL d   1      -1.715  -0.349   2.023  0.00  0.00     0.192 HD
ATOM     18  HN  UNL d   1      -0.598  -1.989   0.413  1.00  0.00     0.189 HD
BRANCH  12  19
ATOM     19  C   UNL d   1       2.737   0.647   2.215  0.00  0.00     0.088 C 
ATOM     20  C   UNL d   1       2.792   2.115   1.786  0.00  0.00     0.032 C 
ATOM     21  C   UNL d   1       3.068   0.508   3.702  0.00  0.00     0.032 C 
ENDBRANCH  12  19
ENDBRANCH  10  11
ENDBRANCH   3  10
BRANCH   1  22
ATOM     22  C   UNL d   1       0.319  -7.432   0.224  0.00  0.00     0.295 C 
ATOM     23  O   UNL d   1      -0.092  -7.905   1.267  0.00  0.00    -0.259 OA
BRANCH  22  24
ATOM     24  O   UNL d   1       0.425  -8.036  -0.981  0.00  0.00    -0.318 OA
BRANCH  24  25
ATOM     25  C   UNL d   1       0.216  -9.458  -0.995  0.00  0.00     0.174 C 
ATOM     26  C   UNL d   1       1.579 -10.122  -1.058  0.00  0.00     0.034 C 
ENDBRANCH  24  25
ENDBRANCH  22  24
ENDBRANCH   1  22
BRANCH   2  27
ATOM     27  C   UNL d   1       2.356  -6.398   2.169  0.00  0.00     0.433 C 
ATOM     28  F   UNL d   1       2.309  -7.742   1.965  0.00  0.00    -0.165 F 
ATOM     29  F   UNL d   1       3.694  -6.131   2.290  0.00  0.00    -0.165 F 
ATOM     30  F   UNL d   1       1.827  -6.168   3.401  0.00  0.00    -0.165 F 
ENDBRANCH   2  27
TORSDOF 7
