REMARK  6 active torsions:
REMARK  status: ('A' for Active; 'I' for Inactive)
REMARK    1  A    between atoms: N_2  and  C_1 
REMARK    2  A    between atoms: N_6  and  C_1 
REMARK    3  A    between atoms: C_3  and  N_2 
REMARK    4  A    between atoms: C_4  and  C_12 
REMARK    5  A    between atoms: C_12  and  N_6 
REMARK    6  A    between atoms: O_13  and  C_10 
ROOT
ATOM      1  C   UNL d   1       1.115   0.057  -0.599  0.00  0.00     0.172 C 
ATOM      2  S   UNL d   1       2.541   0.550   0.119  0.00  0.00    -0.041 SA
ENDROOT
BRANCH   1   3
ATOM      3  N   UNL d   1       0.431  -1.115  -0.390  0.00  0.00    -0.331 N 
ATOM      4  H   UNL d   1      -0.555  -0.954  -0.236  0.00  0.00     0.168 HD
BRANCH   3   5
ATOM      5  C   UNL d   1       0.945  -2.329   0.120  0.00  0.00     0.068 A 
ATOM      6  C   UNL d   1       0.208  -3.091   1.043  0.00  0.00     0.095 A 
ATOM      7  C   UNL d   1       0.740  -4.281   1.552  0.00  0.00     0.039 A 
ATOM      8  C   UNL d   1       1.978  -4.751   1.108  0.00  0.00     0.003 A 
ATOM      9  C   UNL d   1       2.692  -4.021   0.159  0.00  0.00     0.002 A 
ATOM     10  C   UNL d   1       2.178  -2.819  -0.331  0.00  0.00     0.032 A 
BRANCH   6  11
ATOM     11  O   UNL d   1      -0.947  -2.647   1.628  0.00  0.00    -0.354 OA
ATOM     12  C   UNL d   1      -2.072  -2.651   0.754  0.00  0.00     0.210 C 
ENDBRANCH   6  11
ENDBRANCH   3   5
ENDBRANCH   1   3
BRANCH   1  13
ATOM     13  N   UNL d   1       0.504   0.934  -1.453  0.00  0.00    -0.361 N 
ATOM     14  H   UNL d   1       1.003   1.809  -1.550  0.00  0.00     0.162 HD
BRANCH  13  15
ATOM     15  C   UNL d   1      -0.345   0.554  -2.567  0.00  0.00     0.187 C 
BRANCH  15  16
ATOM     16  C   UNL d   1      -1.770   0.773  -2.231  0.00  0.00     0.070 A 
ATOM     17  O   UNL d   1      -2.480  -0.318  -1.810  0.00  0.00    -0.325 OA
ATOM     18  C   UNL d   1      -3.761   0.091  -1.632  0.00  0.00     0.142 A 
ATOM     19  C   UNL d   1      -3.888   1.430  -1.916  0.00  0.00     0.027 A 
ATOM     20  C   UNL d   1      -2.600   1.875  -2.297  0.00  0.00     0.036 A 
ENDBRANCH  15  16
ENDBRANCH  13  15
ENDBRANCH   1  13
TORSDOF 6
