REMARK  2 active torsions:
REMARK  status: ('A' for Active; 'I' for Inactive)
REMARK    1  A    between atoms: C_13  and  C_6 
REMARK    2  A    between atoms: N_10  and  C_12 
ROOT
ATOM      1  C   UNL d   1       0.261  -0.584  -0.769  0.00  0.00     0.172 A 
ATOM      2  N   UNL d   1      -0.064   0.142   0.327  0.00  0.00    -0.242 N 
ATOM      3  N   UNL d   1       1.522  -0.544  -1.076  0.00  0.00    -0.333 N 
ATOM      4  HN  UNL d   1       1.999  -1.001  -1.853  1.00  0.00     0.168 HD
ATOM      5  S   UNL d   1      -1.118  -1.366  -1.399  0.00  0.00    -0.038 SA
ATOM      6  C   UNL d   1       2.064   0.272  -0.091  0.00  0.00     0.062 A 
ATOM      7  N   UNL d   1      -1.349   0.167   0.764  0.00  0.00    -0.290 N 
ATOM      8  HN  UNL d   1      -1.721   0.673   1.568  1.00  0.00     0.188 HD
ATOM      9  C   UNL d   1       1.083   0.719   0.787  0.00  0.00     0.149 A 
ATOM     10  C   UNL d   1      -2.009  -0.597  -0.067  0.00  0.00     0.066 A 
ATOM     11  C   UNL d   1      -3.475  -0.861   0.025  0.00  0.00     0.078 C 
ENDROOT
BRANCH   6  12
ATOM     12  C   UNL d   1       3.496   0.532  -0.045  0.00  0.00    -0.006 A 
ATOM     13  C   UNL d   1       4.292   0.008  -1.077  0.00  0.00     0.049 A 
ATOM     14  C   UNL d   1       5.682   0.154  -1.044  0.00  0.00     0.103 A 
ATOM     15  C   UNL d   1       6.298   0.839   0.008  0.00  0.00     0.036 A 
ATOM     16  C   UNL d   1       5.509   1.384   1.024  0.00  0.00     0.003 A 
ATOM     17  C   UNL d   1       4.116   1.233   0.998  0.00  0.00     0.014 A 
BRANCH  14  18
ATOM     18  N   UNL d   1       6.495  -0.435  -2.115  0.00  0.00    -0.116 N 
ATOM     19  O   UNL d   1       5.910  -1.029  -3.031  0.00  0.00    -0.532 OA
ATOM     20  O   UNL d   1       7.726  -0.303  -2.039  0.00  0.00    -0.532 OA
ENDBRANCH  14  18
ENDBRANCH   6  12
TORSDOF 2
