REMARK  4 active torsions:
REMARK  status: ('A' for Active; 'I' for Inactive)
REMARK    1  A    between atoms: C_8  and  C_1 
REMARK    2  A    between atoms: N_6  and  C_8 
REMARK    3  A    between atoms: C_7  and  C_10 
REMARK    4  A    between atoms: C_9  and  C_7 
ROOT
ATOM      1  N   UNL d   1       4.027   1.546  -0.111  0.00  0.00     0.093 N 
ATOM      2  C   UNL d   1       3.780   4.508  -0.116  0.00  0.00     0.064 C 
ATOM      3  C   UNL d   1       4.179   3.728  -1.372  0.00  0.00     0.043 C 
ATOM      4  C   UNL d   1       4.171   3.709   1.127  0.00  0.00     0.043 C 
ATOM      5  C   UNL d   1       3.757   2.254  -1.358  0.00  0.00     0.273 C 
ATOM      6  C   UNL d   1       3.661   2.268   1.103  0.00  0.00     0.273 C 
ENDROOT
BRANCH   1   7
ATOM      7  C   UNL d   1       3.545   0.144  -0.115  0.00  0.00     0.319 C 
BRANCH   7   8
ATOM      8  C   UNL d   1       2.060  -0.106  -0.345  0.00  0.00     0.018 A 
ATOM      9  S   UNL d   1       1.516  -0.434  -1.945  0.00  0.00    -0.092 SA
ATOM     10  C   UNL d   1      -0.103  -0.717  -1.455  0.00  0.00     0.016 A 
ATOM     11  C   UNL d   1      -1.191  -1.085  -2.273  0.00  0.00     0.019 A 
ATOM     12  C   UNL d   1      -0.247  -0.553  -0.077  0.00  0.00    -0.012 A 
ATOM     13  C   UNL d   1      -2.447  -1.284  -1.695  0.00  0.00     0.001 A 
ATOM     14  C   UNL d   1      -2.624  -1.106  -0.332  0.00  0.00     0.001 A 
ATOM     15  C   UNL d   1      -1.541  -0.744   0.476  0.00  0.00     0.013 A 
ATOM     16  C   UNL d   1       1.020  -0.246   0.569  0.00  0.00    -0.035 A 
ATOM     17  C   UNL d   1       1.140  -0.158   2.057  0.00  0.00     0.050 C 
ENDBRANCH   7   8
ENDBRANCH   1   7
BRANCH   2  18
ATOM     18  C   UNL d   1       2.308   4.964  -0.117  0.00  0.00     0.163 C 
ATOM     19  O   UNL d   1       1.474   4.490   0.663  0.00  0.00    -0.292 OA
BRANCH  18  20
ATOM     20  C   UNL d   1       1.875   6.037  -1.074  0.00  0.00     0.010 A 
ATOM     21  C   UNL d   1       2.791   6.753  -1.866  0.00  0.00     0.018 A 
ATOM     22  C   UNL d   1       2.342   7.675  -2.813  0.00  0.00     0.043 A 
ATOM     23  C   UNL d   1       0.983   7.905  -2.955  0.00  0.00     0.116 A 
ATOM     24  C   UNL d   1       0.061   7.258  -2.146  0.00  0.00     0.043 A 
ATOM     25  F   UNL d   1       0.554   8.762  -3.897  0.00  0.00    -0.206 F 
ATOM     26  C   UNL d   1       0.506   6.326  -1.201  0.00  0.00     0.018 A 
ENDBRANCH  18  20
ENDBRANCH   2  18
TORSDOF 4
