REMARK  2 active torsions:
REMARK  status: ('A' for Active; 'I' for Inactive)
REMARK    1  A    between atoms: N_14  and  C_4 
REMARK    2  A    between atoms: C_13  and  C_5 
ROOT
ATOM      1  C   UNL d   1      -0.234  -0.583   0.031  0.00  0.00     0.173 A 
ATOM      2  C   UNL d   1      -0.290   0.787   0.025  0.00  0.00     0.032 A 
ATOM      3  C   UNL d   1       2.192   0.642  -0.109  0.00  0.00     0.080 A 
ATOM      4  C   UNL d   1       2.083  -0.715  -0.086  0.00  0.00     0.140 A 
ATOM      5  C   UNL d   1       0.979   1.570   0.038  0.00  0.00     0.105 A 
ATOM      6  O   UNL d   1       0.840  -1.362   0.018  0.00  0.00    -0.279 OA
ATOM      7  N   UNL d   1      -1.513  -1.037   0.054  0.00  0.00    -0.279 N 
ATOM      8  N   UNL d   1      -2.417  -0.039   0.057  0.00  0.00    -0.303 N 
ATOM      9  HN  UNL d   1      -3.433  -0.117   0.063  1.00  0.00     0.186 HD
ATOM     10  C   UNL d   1      -1.677   1.084   0.049  0.00  0.00     0.033 A 
ATOM     11  C   UNL d   1       3.471   1.260  -0.258  0.00  0.00     0.100 C 
ATOM     12  N   UNL d   1       4.510   1.751  -0.410  0.00  0.00    -0.191 NA
ATOM     13  C   UNL d   1      -2.365   2.399   0.055  0.00  0.00     0.070 C 
ATOM     14  H   UNL d   1      -1.841  -1.996   0.066  0.00  0.00     0.189 HD
ENDROOT
BRANCH   4  15
ATOM     15  N   UNL d   1       3.132  -1.602  -0.163  0.00  0.00    -0.282 NA
ATOM     16  H   UNL d   1       3.978  -1.256  -0.610  0.00  0.00     0.126 HD
ATOM     17  H   UNL d   1       2.843  -2.517  -0.497  0.00  0.00     0.126 HD
ENDBRANCH   4  15
BRANCH   5  18
ATOM     18  C   UNL d   1       0.872   2.619  -1.057  0.00  0.00    -0.044 A 
ATOM     19  C   UNL d   1       0.954   3.981  -0.708  0.00  0.00     0.010 A 
ATOM     20  C   UNL d   1       0.902   4.975  -1.687  0.00  0.00     0.024 A 
ATOM     21  C   UNL d   1       0.775   4.618  -3.026  0.00  0.00     0.034 A 
ATOM     22  C   UNL d   1       0.695   3.276  -3.394  0.00  0.00     0.024 A 
ATOM     23 CL   UNL d   1       0.723   5.842  -4.233  0.00  0.00    -0.084 Cl
ATOM     24  C   UNL d   1       0.743   2.280  -2.416  0.00  0.00     0.010 A 
ENDBRANCH   5  18
TORSDOF 2
