REMARK  4 active torsions:
REMARK  status: ('A' for Active; 'I' for Inactive)
REMARK       I    between atoms: C_2  and  N_1 
REMARK    1  A    between atoms: C_3  and  C_2 
REMARK    2  A    between atoms: C_16  and  C_7 
REMARK    3  A    between atoms: O_21  and  C_13 
REMARK    4  A    between atoms: O_22  and  C_15 
ROOT
ATOM      1  N   UNL d   1      -2.437   0.733  -0.324  0.00  0.00    -0.339 N 
ATOM      2  C   UNL d   1      -3.402   1.205  -1.237  0.00  0.00     0.261 C 
ATOM      3  C   UNL d   1       0.007   0.640   0.093  0.00  0.00    -0.026 A 
ATOM      4  C   UNL d   1      -1.259   1.470   0.136  0.00  0.00     0.117 C 
ATOM      5  C   UNL d   1      -0.018  -0.753  -0.024  0.00  0.00    -0.045 A 
ATOM      6  C   UNL d   1       1.241   1.310   0.163  0.00  0.00     0.049 A 
ATOM      7  C   UNL d   1      -2.542  -0.634   0.194  0.00  0.00     0.131 C 
ATOM      8  C   UNL d   1       2.446   0.612   0.131  0.00  0.00     0.102 A 
ATOM      9  C   UNL d   1       1.196  -1.459  -0.072  0.00  0.00     0.047 A 
ATOM     10  C   UNL d   1       2.426  -0.788   0.006  0.00  0.00     0.102 A 
ATOM     11  O   UNL d   1      -4.286   0.436  -1.617  0.00  0.00    -0.267 OA
ATOM     12  C   UNL d   1      -1.331  -1.482  -0.200  0.00  0.00     0.059 C 
ATOM     13  C   UNL d   1      -1.483   2.022   1.552  0.00  0.00     0.037 C 
ENDROOT
BRANCH   2  14
ATOM     14  C   UNL d   1      -3.341   2.592  -1.724  0.00  0.00     0.073 C 
ATOM     15  S   UNL d   1      -4.004   2.935  -3.284  0.00  0.00    -0.083 SA
ATOM     16  C   UNL d   1      -3.632   4.604  -3.183  0.00  0.00     0.032 C 
ATOM     17  C   UNL d   1      -2.959   4.886  -2.014  0.00  0.00     0.023 C 
ATOM     18  C   UNL d   1      -2.888   3.763  -1.146  0.00  0.00     0.026 C 
BRANCH  16  19
ATOM     19  C   UNL d   1      -4.027   5.565  -4.216  0.00  0.00     0.049 A 
ATOM     20  N   UNL d   1      -3.149   6.586  -4.385  0.00  0.00    -0.365 N 
ATOM     21  C   UNL d   1      -3.518   7.590  -5.209  0.00  0.00     0.088 A 
ATOM     22  HN  UNL d   1      -2.247   6.595  -3.908  1.00  0.00     0.165 HD
ATOM     23  C   UNL d   1      -4.738   7.639  -5.861  0.00  0.00     0.017 A 
ATOM     24  C   UNL d   1      -5.624   6.585  -5.677  0.00  0.00     0.004 A 
ATOM     25  C   UNL d   1      -5.265   5.525  -4.847  0.00  0.00     0.031 A 
ENDBRANCH  16  19
ENDBRANCH   2  14
BRANCH   8  26
ATOM     26  O   UNL d   1       3.675   1.225   0.175  0.00  0.00    -0.353 OA
ATOM     27  C   UNL d   1       3.709   2.536   0.733  0.00  0.00     0.210 C 
ENDBRANCH   8  26
BRANCH  10  28
ATOM     28  O   UNL d   1       3.653  -1.403  -0.033  0.00  0.00    -0.353 OA
ATOM     29  C   UNL d   1       3.673  -2.819  -0.132  0.00  0.00     0.210 C 
ENDBRANCH  10  28
TORSDOF 4
