REMARK  5 active torsions:
REMARK  status: ('A' for Active; 'I' for Inactive)
REMARK    1  A    between atoms: C_8  and  S_1 
REMARK    2  A    between atoms: N_9  and  S_1 
REMARK    3  A    between atoms: C_2  and  C_10 
REMARK    4  A    between atoms: C_16  and  C_5 
REMARK    5  A    between atoms: C_10  and  N_9 
ROOT
ATOM      1  N   UNL d   1       0.383  -0.569   1.417  0.00  0.00    -0.311 N 
ATOM      2  H   UNL d   1       0.035  -0.480   0.466  0.00  0.00     0.172 HD
ENDROOT
BRANCH   1   3
ATOM      3  S   UNL d   1       0.685   0.876   2.195  0.00  0.00     0.259 S 
ATOM      4  O   UNL d   1       0.032   1.899   1.405  0.00  0.00    -0.201 OA
ATOM      5  O   UNL d   1       0.432   0.725   3.606  0.00  0.00    -0.201 OA
BRANCH   3   6
ATOM      6  C   UNL d   1       2.429   1.077   1.961  0.00  0.00     0.082 A 
ATOM      7  C   UNL d   1       3.298   0.975   3.049  0.00  0.00     0.065 A 
ATOM      8  C   UNL d   1       4.663   1.153   2.845  0.00  0.00     0.103 A 
ATOM      9  O   UNL d   1       5.470   1.030   3.944  0.00  0.00    -0.346 OA
ATOM     10  C   UNL d   1       5.154   1.431   1.562  0.00  0.00     0.102 A 
ATOM     11  C   UNL d   1       6.767   1.589   3.708  0.00  0.00     0.202 C 
ATOM     12  C   UNL d   1       7.311   1.148   2.358  0.00  0.00     0.202 C 
ATOM     13  O   UNL d   1       6.482   1.614   1.289  0.00  0.00    -0.346 OA
ATOM     14  C   UNL d   1       4.274   1.557   0.485  0.00  0.00     0.041 A 
ATOM     15  C   UNL d   1       2.908   1.378   0.680  0.00  0.00     0.028 A 
ENDBRANCH   3   6
ENDBRANCH   1   3
BRANCH   1  16
ATOM     16  C   UNL d   1       0.959  -1.827   1.857  0.00  0.00     0.176 C 
BRANCH  16  17
ATOM     17  C   UNL d   1       0.359  -2.284   3.131  0.00  0.00     0.021 A 
ATOM     18  C   UNL d   1      -1.017  -2.513   3.470  0.00  0.00     0.075 A 
ATOM     19  N   UNL d   1      -1.122  -2.887   4.756  0.00  0.00    -0.260 N 
ATOM     20  O   UNL d   1       0.155  -2.912   5.266  0.00  0.00    -0.242 OA
ATOM     21  HN  UNL d   1      -1.982  -3.109   5.258  1.00  0.00     0.195 HD
ATOM     22  C   UNL d   1       1.038  -2.564   4.300  0.00  0.00     0.083 A 
ATOM     23  C   UNL d   1       2.461  -2.546   4.689  0.00  0.00     0.079 C 
BRANCH  18  24
ATOM     24  C   UNL d   1      -2.216  -2.385   2.636  0.00  0.00    -0.007 A 
ATOM     25  C   UNL d   1      -3.401  -1.866   3.180  0.00  0.00     0.014 A 
ATOM     26  C   UNL d   1      -4.551  -1.739   2.396  0.00  0.00     0.001 A 
ATOM     27  C   UNL d   1      -4.528  -2.124   1.057  0.00  0.00     0.000 A 
ATOM     28  C   UNL d   1      -3.362  -2.650   0.506  0.00  0.00     0.001 A 
ATOM     29  C   UNL d   1      -2.217  -2.790   1.295  0.00  0.00     0.014 A 
ENDBRANCH  18  24
ENDBRANCH  16  17
ENDBRANCH   1  16
TORSDOF 5
