REMARK  5 active torsions:
REMARK  status: ('A' for Active; 'I' for Inactive)
REMARK    1  A    between atoms: C_7  and  S_1 
REMARK    2  A    between atoms: N_14  and  S_1 
REMARK    3  A    between atoms: C_4  and  C_2 
REMARK    4  A    between atoms: C_3  and  N_9 
REMARK       I    between atoms: C_8  and  N_13 
REMARK       I    between atoms: N_9  and  C_8 
REMARK    5  A    between atoms: N_13  and  C_10 
ROOT
ATOM      1  C   UNL d   1       1.136   5.370   1.489  0.00  0.00     0.325 C 
ATOM      2  N   UNL d   1       1.002   6.662   1.988  0.00  0.00    -0.306 N 
ATOM      3  N   UNL d   1       1.321   5.352   0.114  0.00  0.00    -0.308 N 
ATOM      4  O   UNL d   1       1.000   4.380   2.204  0.00  0.00    -0.247 OA
ATOM      5  H   UNL d   1       0.486   7.282   1.381  0.00  0.00     0.171 HD
ATOM      6  H   UNL d   1       1.367   6.245  -0.350  0.00  0.00     0.170 HD
ENDROOT
BRANCH   3   7
ATOM      7  C   UNL d   1       1.207   4.187  -0.692  0.00  0.00     0.043 C 
ATOM      8  C   UNL d   1       1.287   2.909  -0.130  0.00  0.00     0.055 C 
ATOM      9  C   UNL d   1       0.958   1.767  -0.865  0.00  0.00     0.081 C 
ATOM     10  C   UNL d   1       0.577   1.884  -2.197  0.00  0.00     0.026 C 
ATOM     11  C   UNL d   1       0.607   3.143  -2.803  0.00  0.00     0.010 C 
ATOM     12  C   UNL d   1       0.959   4.299  -2.078  0.00  0.00    -0.035 C 
ATOM     13  C   UNL d   1       1.125   5.590  -2.833  0.00  0.00     0.050 C 
BRANCH   9  14
ATOM     14  S   UNL d   1       1.194   0.168  -0.115  0.00  0.00     0.260 S 
ATOM     15  O   UNL d   1       2.334   0.272   0.767  0.00  0.00    -0.200 OA
ATOM     16  O   UNL d   1       1.177  -0.808  -1.187  0.00  0.00    -0.200 OA
BRANCH  14  17
ATOM     17  N   UNL d   1      -0.199  -0.072   0.828  0.00  0.00    -0.315 N 
ATOM     18  C   UNL d   1      -0.392   0.810   1.992  0.00  0.00     0.162 C 
ATOM     19  C   UNL d   1      -1.441  -0.418   0.126  0.00  0.00     0.162 C 
ENDBRANCH  14  17
ENDBRANCH   9  14
ENDBRANCH   3   7
BRANCH   2  20
ATOM     20  C   UNL d   1       0.711   6.796   3.348  0.00  0.00     0.077 A 
ATOM     21  C   UNL d   1       1.374   6.229   4.425  0.00  0.00     0.186 A 
ATOM     22  O   UNL d   1       0.670   6.486   5.574  0.00  0.00    -0.308 OA
ATOM     23  C   UNL d   1      -0.422   7.217   5.230  0.00  0.00     0.052 A 
ATOM     24  C   UNL d   1      -0.393   7.510   3.884  0.00  0.00     0.064 A 
ATOM     25  C   UNL d   1      -1.384   7.492   6.316  0.00  0.00     0.077 C 
BRANCH  21  26
ATOM     26  C   UNL d   1       2.631   5.456   4.593  0.00  0.00     0.441 C 
ATOM     27  F   UNL d   1       3.303   5.246   3.431  0.00  0.00    -0.164 F 
ATOM     28  F   UNL d   1       3.504   6.121   5.403  0.00  0.00    -0.164 F 
ATOM     29  F   UNL d   1       2.429   4.241   5.167  0.00  0.00    -0.164 F 
ENDBRANCH  21  26
ENDBRANCH   2  20
TORSDOF 5
