REMARK  5 active torsions:
REMARK  status: ('A' for Active; 'I' for Inactive)
REMARK    1  A    between atoms: C_5  and  N_1 
REMARK    2  A    between atoms: S_4  and  C_9 
REMARK    3  A    between atoms: C_14  and  S_4 
REMARK    4  A    between atoms: C_11  and  C_9 
REMARK    5  A    between atoms: C_13  and  O_22 
ROOT
ATOM      1  C   UNL d   1      -1.356  -2.468  -0.225  0.00  0.00     0.235 C 
ATOM      2  O   UNL d   1      -2.125  -2.553  -1.444  0.00  0.00    -0.357 OA
ATOM      3  C   UNL d   1      -3.399  -3.201  -1.163  0.00  0.00     0.167 C 
ATOM      4  C   UNL d   1      -2.311  -2.776   0.917  0.00  0.00     0.088 C 
ATOM      5  C   UNL d   1      -3.274  -3.739   0.265  0.00  0.00     0.152 C 
ENDROOT
BRANCH   3   6
ATOM      6  C   UNL d   1      -4.479  -2.151  -1.389  0.00  0.00     0.180 C 
BRANCH   6   7
ATOM      7  S   UNL d   1      -6.122  -2.814  -1.273  0.00  0.00     0.178 S 
ATOM      8  O   UNL d   1      -6.279  -3.823  -2.304  0.00  0.00    -0.223 OA
ATOM      9  O   UNL d   1      -6.400  -3.113   0.117  0.00  0.00    -0.223 OA
BRANCH   7  10
ATOM     10  C   UNL d   1      -7.141  -1.424  -1.712  0.00  0.00     0.059 A 
ATOM     11  C   UNL d   1      -7.571  -1.262  -3.030  0.00  0.00     0.024 A 
ATOM     12  C   UNL d   1      -8.337  -0.145  -3.365  0.00  0.00     0.008 A 
ATOM     13  C   UNL d   1      -8.683   0.803  -2.391  0.00  0.00    -0.062 A 
ATOM     14  C   UNL d   1      -8.278   0.603  -1.065  0.00  0.00     0.008 A 
ATOM     15  C   UNL d   1      -9.467   2.023  -2.779  0.00  0.00     0.048 C 
ATOM     16  C   UNL d   1      -7.512  -0.511  -0.721  0.00  0.00     0.024 A 
ENDBRANCH   7  10
ENDBRANCH   6   7
ENDBRANCH   3   6
BRANCH   5  17
ATOM     17  O   UNL d   1      -2.693  -5.046   0.271  0.00  0.00    -0.393 OA
ATOM     18  H   UNL d   1      -2.035  -5.122  -0.442  0.00  0.00     0.210 HD
ENDBRANCH   5  17
BRANCH   1  19
ATOM     19  N   UNL d   1      -0.712  -1.166  -0.098  0.00  0.00    -0.281 N 
ATOM     20  C   UNL d   1       0.445  -1.106   0.672  0.00  0.00     0.331 A 
ATOM     21  N   UNL d   1       1.010   0.135   0.797  0.00  0.00    -0.274 N 
ATOM     22  O   UNL d   1       0.950  -2.076   1.228  0.00  0.00    -0.246 OA
ATOM     23  C   UNL d   1       0.497   1.313   0.329  0.00  0.00     0.267 A 
ATOM     24  H   UNL d   1       1.846   0.195   1.357  0.00  0.00     0.173 HD
ATOM     25  C   UNL d   1      -0.755   1.197  -0.470  0.00  0.00     0.090 A 
ATOM     26  O   UNL d   1       1.042   2.383   0.577  0.00  0.00    -0.267 OA
ATOM     27  C   UNL d   1      -1.279  -0.025  -0.633  0.00  0.00     0.122 A 
ATOM     28  I   UNL d   1      -1.628   2.869  -1.258  0.00  0.00    -0.037 I 
ENDBRANCH   1  19
TORSDOF 5
