REMARK  9 active torsions:
REMARK  status: ('A' for Active; 'I' for Inactive)
REMARK    1  A    between atoms: S_8  and  C_2 
REMARK    2  A    between atoms: C_18  and  C_7 
REMARK    3  A    between atoms: C_15  and  S_8 
REMARK    4  A    between atoms: C_9  and  C_15 
REMARK       I    between atoms: N_11  and  C_9 
REMARK    5  A    between atoms: C_10  and  C_21 
REMARK       I    between atoms: N_12  and  C_10 
REMARK    6  A    between atoms: C_19  and  N_11 
REMARK    7  A    between atoms: C_20  and  N_12 
REMARK    8  A    between atoms: S_16  and  C_18 
REMARK    9  A    between atoms: C_21  and  S_16 
ROOT
ATOM      1  N   UNL d   1       0.618  -0.142  -0.537  0.00  0.00    -0.319 N 
ATOM      2  C   UNL d   1      -0.225   0.921  -0.704  0.00  0.00     0.162 C 
ATOM      3  N   UNL d   1      -1.434   0.587  -0.318  0.00  0.00    -0.278 N 
ATOM      4  HN  UNL d   1      -2.241   1.209  -0.268  1.00  0.00     0.189 HD
ATOM      5  N   UNL d   1      -1.419  -0.744   0.005  0.00  0.00    -0.286 N 
ATOM      6  HN  UNL d   1      -2.218  -1.292   0.324  1.00  0.00     0.188 HD
ATOM      7  C   UNL d   1      -0.190  -1.196  -0.168  0.00  0.00     0.109 C 
ATOM      8  C   UNL d   1       2.047  -0.156  -0.708  0.00  0.00     0.159 C 
ENDROOT
BRANCH   7   9
ATOM      9  C   UNL d   1       0.238  -2.617  -0.061  0.00  0.00     0.152 C 
BRANCH   9  10
ATOM     10  S   UNL d   1       1.000  -3.007   1.545  0.00  0.00    -0.152 SA
BRANCH  10  11
ATOM     11  C   UNL d   1      -0.500  -2.930   2.584  0.00  0.00     0.177 C 
BRANCH  11  12
ATOM     12  C   UNL d   1      -0.260  -3.239   4.060  0.00  0.00     0.231 C 
ATOM     13  N   UNL d   1       0.985  -3.740   4.373  0.00  0.00    -0.327 N 
ATOM     14  H   UNL d   1       1.623  -3.834   3.589  0.00  0.00     0.169 HD
ATOM     15  O   UNL d   1      -1.180  -3.056   4.857  0.00  0.00    -0.272 OA
BRANCH  13  16
ATOM     16  C   UNL d   1       1.481  -4.104   5.643  0.00  0.00     0.034 A 
ATOM     17  C   UNL d   1       0.745  -4.003   6.825  0.00  0.00     0.029 A 
ATOM     18  C   UNL d   1       1.308  -4.376   8.050  0.00  0.00     0.002 A 
ATOM     19  C   UNL d   1       2.613  -4.857   8.104  0.00  0.00     0.000 A 
ATOM     20  C   UNL d   1       3.357  -4.964   6.931  0.00  0.00     0.002 A 
ATOM     21  C   UNL d   1       2.793  -4.589   5.707  0.00  0.00     0.029 A 
ENDBRANCH  13  16
ENDBRANCH  11  12
ENDBRANCH  10  11
ENDBRANCH   9  10
ENDBRANCH   7   9
BRANCH   2  22
ATOM     22  S   UNL d   1       0.234   2.414  -1.438  0.00  0.00    -0.083 SA
BRANCH  22  23
ATOM     23  C   UNL d   1      -1.079   3.538  -0.890  0.00  0.00     0.185 C 
BRANCH  23  24
ATOM     24  C   UNL d   1      -2.312   3.516  -1.786  0.00  0.00     0.231 C 
ATOM     25  N   UNL d   1      -3.029   2.337  -1.719  0.00  0.00    -0.327 N 
ATOM     26  H   UNL d   1      -2.610   1.585  -1.172  0.00  0.00     0.169 HD
ATOM     27  O   UNL d   1      -2.632   4.519  -2.421  0.00  0.00    -0.272 OA
BRANCH  25  28
ATOM     28  C   UNL d   1      -4.301   2.050  -2.246  0.00  0.00     0.034 A 
ATOM     29  C   UNL d   1      -5.067   2.949  -2.986  0.00  0.00     0.029 A 
ATOM     30  C   UNL d   1      -6.359   2.601  -3.396  0.00  0.00     0.002 A 
ATOM     31  C   UNL d   1      -6.888   1.352  -3.075  0.00  0.00     0.000 A 
ATOM     32  C   UNL d   1      -6.119   0.439  -2.360  0.00  0.00     0.002 A 
ATOM     33  C   UNL d   1      -4.829   0.785  -1.953  0.00  0.00     0.029 A 
ENDBRANCH  25  28
ENDBRANCH  23  24
ENDBRANCH  22  23
ENDBRANCH   2  22
TORSDOF 9
