REMARK  8 active torsions:
REMARK  status: ('A' for Active; 'I' for Inactive)
REMARK    1  A    between atoms: C_1  and  O_8 
REMARK    2  A    between atoms: C_2  and  O_12 
REMARK    3  A    between atoms: C_3  and  O_15 
REMARK    4  A    between atoms: N_4  and  C_9 
REMARK    5  A    between atoms: C_6  and  O_17 
REMARK    6  A    between atoms: C_7  and  C_20 
REMARK    7  A    between atoms: C_16  and  O_8 
REMARK    8  A    between atoms: O_21  and  C_20 
ROOT
ATOM      1  C   UNL d   1      -0.080   1.701   0.002  0.00  0.00     0.298 C 
ATOM      2  C   UNL d   1       0.929   0.578   0.330  0.00  0.00     0.205 C 
ATOM      3  C   UNL d   1       0.602  -0.670  -0.505  0.00  0.00     0.183 C 
ATOM      4  O   UNL d   1      -1.424   1.214   0.147  0.00  0.00    -0.348 OA
ATOM      5  C   UNL d   1      -0.881  -1.050  -0.428  0.00  0.00     0.180 C 
ATOM      6  C   UNL d   1      -1.728   0.176  -0.791  0.00  0.00     0.179 C 
ENDROOT
BRANCH   1   7
ATOM      7  O   UNL d   1       0.124   2.807   0.891  0.00  0.00    -0.318 OA
BRANCH   7   8
ATOM      8  C   UNL d   1      -0.451   3.997   0.525  0.00  0.00     0.072 A 
ATOM      9  C   UNL d   1      -1.342   4.178  -0.539  0.00  0.00     0.039 A 
ATOM     10  C   UNL d   1      -1.841   5.446  -0.843  0.00  0.00     0.039 A 
ATOM     11  C   UNL d   1      -1.457   6.544  -0.066  0.00  0.00     0.103 A 
ATOM     12  C   UNL d   1      -0.588   6.375   1.018  0.00  0.00     0.039 A 
ATOM     13  C   UNL d   1      -0.091   5.100   1.308  0.00  0.00     0.039 A 
BRANCH  11  14
ATOM     14  N   UNL d   1      -1.971   7.876  -0.403  0.00  0.00    -0.116 N 
ATOM     15  O   UNL d   1      -1.645   8.820   0.331  0.00  0.00    -0.532 OA
ATOM     16  O   UNL d   1      -2.697   7.982  -1.400  0.00  0.00    -0.532 OA
ENDBRANCH  11  14
ENDBRANCH   7   8
ENDBRANCH   1   7
BRANCH   2  17
ATOM     17  O   UNL d   1       2.275   0.976   0.025  0.00  0.00    -0.388 OA
ATOM     18  H   UNL d   1       2.804   0.153   0.039  0.00  0.00     0.210 HD
ENDBRANCH   2  17
BRANCH   3  19
ATOM     19  O   UNL d   1       1.425  -1.755  -0.053  0.00  0.00    -0.390 OA
ATOM     20  H   UNL d   1       0.922  -2.197   0.662  0.00  0.00     0.210 HD
ENDBRANCH   3  19
BRANCH   6  21
ATOM     21  C   UNL d   1      -3.232  -0.097  -0.737  0.00  0.00     0.198 C 
BRANCH  21  22
ATOM     22  O   UNL d   1      -3.607  -1.069  -1.703  0.00  0.00    -0.398 OA
ATOM     23  H   UNL d   1      -3.540  -1.943  -1.279  0.00  0.00     0.209 HD
ENDBRANCH  21  22
ENDBRANCH   6  21
BRANCH   5  24
ATOM     24  O   UNL d   1      -1.163  -1.496   0.910  0.00  0.00    -0.390 OA
ATOM     25  H   UNL d   1      -1.377  -0.705   1.446  0.00  0.00     0.210 HD
ENDBRANCH   5  24
TORSDOF 8
