REMARK  0 active torsions:
REMARK  status: ('A' for Active; 'I' for Inactive)
ROOT
ATOM      1  C   UNL d   1       2.363  -0.669  -0.094  0.00  0.00     0.126 A 
ATOM      2  C   UNL d   1       2.347   0.812  -0.082  0.00  0.00     0.309 A 
ATOM      3  C   UNL d   1       1.228  -1.401  -0.051  0.00  0.00    -0.022 A 
ATOM      4  O   UNL d   1       1.108   1.432  -0.041  0.00  0.00    -0.274 OA
ATOM      5  C   UNL d   1      -0.071  -0.700  -0.024  0.00  0.00     0.005 A 
ATOM      6  C   UNL d   1      -0.086   0.693  -0.028  0.00  0.00     0.090 A 
ATOM      7  C   UNL d   1       3.652  -1.276  -0.156  0.00  0.00     0.106 C 
ATOM      8  N   UNL d   1       4.673  -1.824  -0.215  0.00  0.00    -0.191 NA
ATOM      9  O   UNL d   1       3.377   1.477  -0.104  0.00  0.00    -0.258 OA
ATOM     10  C   UNL d   1       1.203  -2.910  -0.044  0.00  0.00     0.051 C 
ATOM     11  C   UNL d   1      -1.311  -1.356  -0.012  0.00  0.00     0.015 A 
ATOM     12  C   UNL d   1      -1.272   1.429  -0.027  0.00  0.00     0.038 A 
ATOM     13  C   UNL d   1      -2.510  -0.634  -0.017  0.00  0.00     0.001 A 
ATOM     14  C   UNL d   1      -2.491   0.759  -0.026  0.00  0.00     0.003 A 
ENDROOT
TORSDOF 0
