REMARK  4 active torsions:
REMARK  status: ('A' for Active; 'I' for Inactive)
REMARK    1  A    between atoms: C_15  and  N_1 
REMARK    2  A    between atoms: C_6  and  C_2 
REMARK    3  A    between atoms: C_20  and  N_5 
REMARK    4  A    between atoms: C_23  and  C_15 
ROOT
ATOM      1  N   UNL d   1      -0.671   1.163  -0.045  0.00  0.00    -0.261 N 
ATOM      2  C   UNL d   1       1.469  -0.020   0.086  0.00  0.00     0.094 C 
ATOM      3  C   UNL d   1      -1.355  -0.032  -0.268  0.00  0.00     0.332 C 
ATOM      4  C   UNL d   1       0.708   1.263   0.082  0.00  0.00     0.267 C 
ATOM      5  N   UNL d   1      -0.611  -1.197  -0.049  0.00  0.00    -0.304 N 
ATOM      6  C   UNL d   1       0.765  -1.150   0.048  0.00  0.00     0.117 C 
ATOM      7  O   UNL d   1      -2.526  -0.068  -0.642  0.00  0.00    -0.246 OA
ATOM      8  O   UNL d   1       1.287   2.350   0.146  0.00  0.00    -0.267 OA
ENDROOT
BRANCH   2   9
ATOM      9  C   UNL d   1       2.901   0.002   0.123  0.00  0.00     0.145 A 
ATOM     10  N   UNL d   1       3.598  -1.025  -0.487  0.00  0.00    -0.318 N 
ATOM     11  C   UNL d   1       4.858  -0.700  -0.279  0.00  0.00     0.189 A 
ATOM     12  HN  UNL d   1       3.227  -1.837  -0.979  1.00  0.00     0.169 HD
ATOM     13  C   UNL d   1       5.980  -1.463  -0.749  0.00  0.00     0.058 A 
ATOM     14  O   UNL d   1       4.975   0.453   0.454  0.00  0.00    -0.217 OA
ATOM     15  S   UNL d   1       7.587  -0.998  -0.379  0.00  0.00    -0.098 SA
ATOM     16  C   UNL d   1       5.955  -2.613  -1.518  0.00  0.00     0.024 A 
ATOM     17  C   UNL d   1       8.243  -2.330  -1.225  0.00  0.00     0.050 A 
ATOM     18  C   UNL d   1       7.263  -3.115  -1.789  0.00  0.00     0.009 A 
ATOM     19  N   UNL d   1       3.691   0.901   0.727  0.00  0.00    -0.242 N 
ATOM     20  HN  UNL d   1       3.413   1.723   1.263  1.00  0.00     0.196 HD
ENDBRANCH   2   9
BRANCH   1  21
ATOM     21  C   UNL d   1      -1.444   2.405  -0.034  0.00  0.00     0.175 C 
BRANCH  21  22
ATOM     22  C   UNL d   1      -2.131   2.631   1.301  0.00  0.00    -0.040 A 
ATOM     23  C   UNL d   1      -1.490   3.324   2.338  0.00  0.00     0.009 A 
ATOM     24  C   UNL d   1      -2.100   3.446   3.591  0.00  0.00     0.001 A 
ATOM     25  C   UNL d   1      -3.352   2.877   3.819  0.00  0.00     0.000 A 
ATOM     26  C   UNL d   1      -4.011   2.213   2.788  0.00  0.00     0.001 A 
ATOM     27  C   UNL d   1      -3.407   2.096   1.536  0.00  0.00     0.009 A 
ENDBRANCH  21  22
ENDBRANCH   1  21
BRANCH   5  28
ATOM     28  C   UNL d   1      -1.313  -2.504  -0.074  0.00  0.00     0.086 C 
ATOM     29  C   UNL d   1      -1.222  -3.168  -1.448  0.00  0.00     0.032 C 
ATOM     30  C   UNL d   1      -0.861  -3.476   1.026  0.00  0.00     0.032 C 
ENDBRANCH   5  28
TORSDOF 4
