REMARK  7 active torsions:
REMARK  status: ('A' for Active; 'I' for Inactive)
REMARK    1  A    between atoms: C_4  and  C_3 
REMARK    2  A    between atoms: O_25  and  C_7 
REMARK    3  A    between atoms: C_9  and  C_10 
REMARK    4  A    between atoms: C_10  and  O_24 
REMARK    5  A    between atoms: C_11  and  C_20 
REMARK    6  A    between atoms: C_27  and  C_13 
REMARK    7  A    between atoms: O_24  and  C_27 
ROOT
ATOM      1  N   UNL d   1       1.105   1.346  -0.041  0.00  0.00    -0.352 N 
ATOM      2  HN  UNL d   1       1.049   2.365  -0.062  1.00  0.00     0.166 HD
ATOM      3  C   UNL d   1       2.314   0.722  -0.045  0.00  0.00     0.119 A 
ATOM      4  C   UNL d   1       0.007  -0.803   0.032  0.00  0.00     0.025 A 
ATOM      5  C   UNL d   1      -0.014   0.606  -0.008  0.00  0.00     0.045 A 
ATOM      6  C   UNL d   1       1.269  -1.437   0.021  0.00  0.00     0.082 A 
ATOM      7  C   UNL d   1       2.428  -0.666  -0.016  0.00  0.00     0.072 A 
ATOM      8  C   UNL d   1      -1.218  -1.512   0.073  0.00  0.00     0.037 A 
ATOM      9  C   UNL d   1      -1.242   1.253  -0.024  0.00  0.00     0.032 A 
ATOM     10  C   UNL d   1      -2.440  -0.841   0.059  0.00  0.00     0.018 A 
ATOM     11  C   UNL d   1      -2.451   0.548   0.002  0.00  0.00     0.023 A 
ENDROOT
BRANCH  10  12
ATOM     12  C   UNL d   1      -3.667  -1.576   0.108  0.00  0.00    -0.065 C 
ATOM     13  C   UNL d   1      -4.704  -2.185   0.158  0.00  0.00    -0.074 C 
BRANCH  13  14
ATOM     14  C   UNL d   1      -5.986  -2.897   0.230  0.00  0.00     0.273 C 
BRANCH  14  15
ATOM     15  O   UNL d   1      -5.804  -4.258  -0.179  0.00  0.00    -0.305 OA
BRANCH  15  16
ATOM     16  C   UNL d   1      -6.206  -5.225   0.692  0.00  0.00     0.301 C 
ATOM     17  O   UNL d   1      -6.694  -5.007   1.794  0.00  0.00    -0.259 OA
BRANCH  16  18
ATOM     18  C   UNL d   1      -5.986  -6.558   0.140  0.00  0.00     0.080 A 
ATOM     19  S   UNL d   1      -5.357  -6.810  -1.437  0.00  0.00    -0.096 SA
ATOM     20  C   UNL d   1      -5.399  -8.509  -1.266  0.00  0.00     0.050 A 
ATOM     21  C   UNL d   1      -5.892  -8.892  -0.040  0.00  0.00     0.009 A 
ATOM     22  C   UNL d   1      -6.243  -7.769   0.765  0.00  0.00     0.025 A 
ENDBRANCH  16  18
ENDBRANCH  15  16
ENDBRANCH  14  15
ENDBRANCH  13  14
ENDBRANCH  10  12
BRANCH   6  23
ATOM     23  O   UNL d   1       1.255  -2.810   0.038  0.00  0.00    -0.355 OA
ATOM     24  C   UNL d   1       2.502  -3.490   0.003  0.00  0.00     0.210 C 
ENDBRANCH   6  23
BRANCH   3  25
ATOM     25  C   UNL d   1       3.589   1.554  -0.104  0.00  0.00     0.432 C 
ATOM     26  F   UNL d   1       3.387   2.902  -0.119  0.00  0.00    -0.165 F 
ATOM     27  F   UNL d   1       4.416   1.314   0.956  0.00  0.00    -0.165 F 
ATOM     28  F   UNL d   1       4.336   1.277  -1.214  0.00  0.00    -0.165 F 
ENDBRANCH   3  25
TORSDOF 7
