REMARK  8 active torsions:
REMARK  status: ('A' for Active; 'I' for Inactive)
REMARK       I    between atoms: N_2  and  C_1 
REMARK       I    between atoms: N_11  and  C_1 
REMARK    1  A    between atoms: C_3  and  N_2 
REMARK    2  A    between atoms: C_4  and  C_14 
REMARK    3  A    between atoms: O_13  and  C_9 
REMARK    4  A    between atoms: C_16  and  N_11 
REMARK    5  A    between atoms: S_12  and  C_18 
REMARK    6  A    between atoms: C_14  and  S_12 
REMARK    7  A    between atoms: C_19  and  O_13 
REMARK    8  A    between atoms: C_18  and  C_16 
ROOT
ATOM      1  C   UNL d   1       1.115   0.556   0.410  0.00  0.00     0.320 C 
ATOM      2  N   UNL d   1       0.425   0.916  -0.711  0.00  0.00    -0.306 N 
ATOM      3  O   UNL d   1       0.488   0.451   1.468  0.00  0.00    -0.247 OA
ATOM      4  N   UNL d   1       2.462   0.331   0.304  0.00  0.00    -0.342 N 
ATOM      5  H   UNL d   1      -0.442   1.347  -0.411  0.00  0.00     0.171 HD
ATOM      6  H   UNL d   1       2.922   0.802  -0.464  0.00  0.00     0.164 HD
ENDROOT
BRANCH   2   7
ATOM      7  C   UNL d   1       1.006   1.456  -1.867  0.00  0.00     0.069 A 
ATOM      8  C   UNL d   1       1.319   0.667  -2.983  0.00  0.00     0.095 A 
ATOM      9  C   UNL d   1       1.996   1.263  -4.053  0.00  0.00     0.039 A 
ATOM     10  C   UNL d   1       2.317   2.624  -4.031  0.00  0.00     0.003 A 
ATOM     11  C   UNL d   1       1.951   3.409  -2.939  0.00  0.00     0.002 A 
ATOM     12  C   UNL d   1       1.288   2.828  -1.863  0.00  0.00     0.032 A 
BRANCH   8  13
ATOM     13  O   UNL d   1       1.075  -0.673  -3.146  0.00  0.00    -0.349 OA
BRANCH  13  14
ATOM     14  C   UNL d   1      -0.164  -1.166  -2.631  0.00  0.00     0.171 C 
ATOM     15  C   UNL d   1      -0.377  -2.574  -3.166  0.00  0.00     0.034 C 
ENDBRANCH  13  14
ENDBRANCH   8  13
ENDBRANCH   2   7
BRANCH   4  16
ATOM     16  C   UNL d   1       3.210   0.151   1.539  0.00  0.00     0.134 C 
BRANCH  16  17
ATOM     17  C   UNL d   1       4.603  -0.472   1.392  0.00  0.00     0.094 C 
BRANCH  17  18
ATOM     18  S   UNL d   1       5.218  -0.733   3.095  0.00  0.00    -0.161 SA
BRANCH  18  19
ATOM     19  C   UNL d   1       6.808  -1.573   2.792  0.00  0.00     0.139 C 
BRANCH  19  20
ATOM     20  C   UNL d   1       7.397  -1.952   4.108  0.00  0.00     0.061 A 
ATOM     21  O   UNL d   1       8.583  -1.367   4.449  0.00  0.00    -0.326 OA
ATOM     22  C   UNL d   1       8.886  -1.784   5.707  0.00  0.00     0.142 A 
ATOM     23  C   UNL d   1       7.920  -2.643   6.177  0.00  0.00     0.027 A 
ATOM     24  C   UNL d   1       6.970  -2.771   5.137  0.00  0.00     0.035 A 
ENDBRANCH  19  20
ENDBRANCH  18  19
ENDBRANCH  17  18
ENDBRANCH  16  17
ENDBRANCH   4  16
TORSDOF 8
