REMARK  2 active torsions:
REMARK  status: ('A' for Active; 'I' for Inactive)
REMARK       I    between atoms: N_3  and  C_1 
REMARK       I    between atoms: N_5  and  C_1 
REMARK    1  A    between atoms: C_2  and  N_4 
REMARK    2  A    between atoms: C_15  and  N_5 
ROOT
ATOM      1  C   UNL d   1       0.677  -0.233   0.224  0.00  0.00     0.322 C 
ATOM      2  N   UNL d   1       0.184  -1.015  -0.825  0.00  0.00    -0.332 N 
ATOM      3  N   UNL d   1      -2.067  -2.554  -2.046  0.00  0.00    -0.376 N 
ATOM      4  N   UNL d   1       1.627  -0.854   1.004  0.00  0.00    -0.309 N 
ATOM      5  O   UNL d   1       0.290   0.919   0.388  0.00  0.00    -0.247 OA
ATOM      6  C   UNL d   1      -0.785  -0.407  -1.742  0.00  0.00     0.147 C 
ATOM      7  C   UNL d   1      -2.157  -1.097  -1.782  0.00  0.00     0.143 C 
ATOM      8  C   UNL d   1      -0.237  -3.454  -0.582  0.00  0.00     0.040 C 
ATOM      9  C   UNL d   1       0.621  -2.358  -1.202  0.00  0.00     0.129 C 
ATOM     10  C   UNL d   1      -1.745  -3.370  -0.859  0.00  0.00     0.125 C 
ATOM     11  H   UNL d   1       1.701  -1.852   0.919  0.00  0.00     0.170 HD
ENDROOT
BRANCH   4  12
ATOM     12  C   UNL d   1       2.488  -0.260   1.953  0.00  0.00     0.036 A 
ATOM     13  C   UNL d   1       2.510   1.105   2.249  0.00  0.00     0.029 A 
ATOM     14  C   UNL d   1       3.442   1.620   3.154  0.00  0.00     0.002 A 
ATOM     15  C   UNL d   1       4.361   0.778   3.773  0.00  0.00     0.000 A 
ATOM     16  C   UNL d   1       4.342  -0.586   3.496  0.00  0.00     0.002 A 
ATOM     17  C   UNL d   1       3.407  -1.103   2.595  0.00  0.00     0.029 A 
ENDBRANCH   4  12
BRANCH   3  18
ATOM     18  C   UNL d   1      -2.978  -3.142  -2.955  0.00  0.00     0.077 A 
ATOM     19  C   UNL d   1      -2.547  -4.207  -3.789  0.00  0.00     0.077 A 
ATOM     20 CL   UNL d   1      -0.956  -4.885  -3.709  0.00  0.00    -0.080 Cl
ATOM     21  C   UNL d   1      -3.403  -4.733  -4.756  0.00  0.00     0.113 A 
ATOM     22  N   UNL d   1      -4.656  -4.291  -4.985  0.00  0.00    -0.372 N 
ATOM     23  C   UNL d   1      -5.080  -3.301  -4.172  0.00  0.00     0.113 A 
ATOM     24  HN  UNL d   1      -5.244  -4.679  -5.722  1.00  0.00     0.164 HD
ATOM     25  C   UNL d   1      -4.318  -2.727  -3.150  0.00  0.00     0.077 A 
ATOM     26 CL   UNL d   1      -5.159  -1.604  -2.134  0.00  0.00    -0.080 Cl
ENDBRANCH   3  18
TORSDOF 2
