REMARK  2 active torsions:
REMARK  status: ('A' for Active; 'I' for Inactive)
REMARK    1  A    between atoms: C_10  and  C_3 
REMARK    2  A    between atoms: C_9  and  C_7 
ROOT
ATOM      1  C   UNL d   1      -2.071   0.434   0.145  0.00  0.00     0.027 C 
ATOM      2  C   UNL d   1      -1.615   1.769   0.630  0.00  0.00     0.194 C 
ATOM      3  C   UNL d   1      -0.962  -0.582  -0.005  0.00  0.00     0.199 C 
ATOM      4  O   UNL d   1      -0.089  -0.593   1.145  0.00  0.00    -0.335 OA
ATOM      5  C   UNL d   1      -0.252   1.823   1.188  0.00  0.00     0.048 A 
ATOM      6  C   UNL d   1       0.435   0.637   1.436  0.00  0.00     0.084 A 
ATOM      7  C   UNL d   1      -3.340   0.159  -0.217  0.00  0.00     0.025 C 
ATOM      8  O   UNL d   1      -2.286   2.790   0.548  0.00  0.00    -0.287 OA
ATOM      9  C   UNL d   1       0.345   3.055   1.478  0.00  0.00     0.018 A 
ATOM     10  C   UNL d   1       1.705   0.672   2.010  0.00  0.00     0.038 A 
ATOM     11  C   UNL d   1       1.631   3.091   2.017  0.00  0.00     0.001 A 
ATOM     12  C   UNL d   1       2.307   1.901   2.289  0.00  0.00     0.003 A 
ENDROOT
BRANCH   3  13
ATOM     13  C   UNL d   1      -0.149  -0.484  -1.302  0.00  0.00    -0.024 A 
ATOM     14  C   UNL d   1      -0.433   0.455  -2.309  0.00  0.00     0.010 A 
ATOM     15  C   UNL d   1       0.349   0.528  -3.463  0.00  0.00     0.001 A 
ATOM     16  C   UNL d   1       1.421  -0.342  -3.637  0.00  0.00     0.000 A 
ATOM     17  C   UNL d   1       1.707  -1.293  -2.661  0.00  0.00     0.001 A 
ATOM     18  C   UNL d   1       0.927  -1.368  -1.505  0.00  0.00     0.010 A 
ENDBRANCH   3  13
BRANCH   7  19
ATOM     19  C   UNL d   1      -4.475   1.083  -0.234  0.00  0.00    -0.034 A 
ATOM     20  C   UNL d   1      -5.271   1.254   0.901  0.00  0.00     0.035 A 
ATOM     21  C   UNL d   1      -6.371   2.110   0.850  0.00  0.00     0.034 A 
ATOM     22 CL   UNL d   1      -7.366   2.304   2.241  0.00  0.00    -0.084 Cl
ATOM     23  C   UNL d   1      -6.682   2.801  -0.322  0.00  0.00     0.024 A 
ATOM     24  C   UNL d   1      -5.882   2.642  -1.452  0.00  0.00     0.003 A 
ATOM     25  C   UNL d   1      -4.781   1.783  -1.409  0.00  0.00     0.011 A 
ENDBRANCH   7  19
TORSDOF 2
