REMARK  2 active torsions:
REMARK  status: ('A' for Active; 'I' for Inactive)
REMARK       I    between atoms: N_4  and  C_1 
REMARK    1  A    between atoms: C_5  and  C_1 
REMARK    2  A    between atoms: C_11  and  N_4 
ROOT
ATOM      1  C   UNL d   1       1.102  -0.135  -0.028  0.00  0.00     0.256 C 
ATOM      2  N   UNL d   1       0.467   0.209  -1.209  0.00  0.00    -0.323 N 
ATOM      3  O   UNL d   1       2.311  -0.283   0.125  0.00  0.00    -0.267 OA
ATOM      4  H   UNL d   1      -0.505   0.485  -1.157  0.00  0.00     0.169 HD
ENDROOT
BRANCH   1   5
ATOM      5  C   UNL d   1       0.242  -0.285   1.179  0.00  0.00     0.033 A 
ATOM      6  C   UNL d   1      -1.064  -0.790   1.106  0.00  0.00     0.038 A 
ATOM      7  C   UNL d   1      -1.762  -0.984   2.314  0.00  0.00     0.033 A 
ATOM      8  S   UNL d   1      -3.351  -1.613   2.561  0.00  0.00    -0.083 SA
ATOM      9  C   UNL d   1      -1.202  -0.681   3.560  0.00  0.00     0.049 A 
ATOM     10  C   UNL d   1      -3.151  -1.438   4.252  0.00  0.00     0.139 A 
ATOM     11  N   UNL d   1      -2.007  -0.938   4.656  0.00  0.00    -0.359 N 
ATOM     12  HN  UNL d   1      -1.750  -0.766   5.628  1.00  0.00     0.166 HD
ATOM     13  C   UNL d   1       0.105  -0.165   3.607  0.00  0.00     0.032 A 
ATOM     14  C   UNL d   1       0.817   0.022   2.418  0.00  0.00     0.019 A 
ENDBRANCH   1   5
BRANCH   2  15
ATOM     15  C   UNL d   1       1.104   0.390  -2.461  0.00  0.00     0.037 A 
ATOM     16  C   UNL d   1       2.417  -0.010  -2.721  0.00  0.00     0.071 A 
ATOM     17  C   UNL d   1       2.991   0.239  -3.964  0.00  0.00     0.118 A 
ATOM     18  F   UNL d   1       4.254  -0.145  -4.195  0.00  0.00    -0.206 F 
ATOM     19  C   UNL d   1       2.279   0.877  -4.970  0.00  0.00     0.042 A 
ATOM     20  C   UNL d   1       0.961   1.256  -4.734  0.00  0.00     0.005 A 
ATOM     21  C   UNL d   1       0.373   1.006  -3.487  0.00  0.00     0.029 A 
ENDBRANCH   2  15
TORSDOF 2
