REMARK  3 active torsions:
REMARK  status: ('A' for Active; 'I' for Inactive)
REMARK    1  A    between atoms: C_10  and  C_4 
REMARK       I    between atoms: C_7  and  N_9 
REMARK    2  A    between atoms: C_12  and  C_7 
REMARK    3  A    between atoms: N_9  and  C_15 
ROOT
ATOM      1  C   UNL d   1       3.714  -0.776  -0.109  0.00  0.00    -0.008 A 
ATOM      2  C   UNL d   1       4.588  -0.380   0.914  0.00  0.00     0.016 A 
ATOM      3  C   UNL d   1       4.211  -1.619  -1.104  0.00  0.00     0.016 A 
ATOM      4  C   UNL d   1       6.421  -1.643  -0.081  0.00  0.00     0.035 A 
ATOM      5  C   UNL d   1       5.539  -2.047  -1.085  0.00  0.00     0.030 A 
ATOM      6  C   UNL d   1       5.930  -0.807   0.929  0.00  0.00     0.030 A 
ENDROOT
BRANCH   4   7
ATOM      7  N   UNL d   1       7.781  -2.050  -0.042  0.00  0.00    -0.323 N 
ATOM      8  C   UNL d   1       8.415  -2.817  -1.011  0.00  0.00     0.256 C 
ATOM      9  O   UNL d   1       7.905  -3.211  -2.060  0.00  0.00    -0.267 OA
ATOM     10  H   UNL d   1       8.333  -1.692   0.726  0.00  0.00     0.169 HD
BRANCH   8  11
ATOM     11  C   UNL d   1       9.839  -3.198  -0.798  0.00  0.00     0.032 A 
ATOM     12  C   UNL d   1      10.450  -3.275   0.458  0.00  0.00     0.017 A 
ATOM     13  C   UNL d   1      11.764  -3.750   0.560  0.00  0.00     0.001 A 
ATOM     14  C   UNL d   1      12.465  -4.151  -0.579  0.00  0.00     0.000 A 
ATOM     15  C   UNL d   1      11.866  -4.068  -1.832  0.00  0.00     0.001 A 
ATOM     16  C   UNL d   1      10.563  -3.592  -1.938  0.00  0.00     0.017 A 
ENDBRANCH   8  11
ENDBRANCH   4   7
BRANCH   1  17
ATOM     17  C   UNL d   1       2.330  -0.320  -0.138  0.00  0.00     0.060 A 
ATOM     18  N   UNL d   1       1.762   0.475   0.850  0.00  0.00    -0.335 N 
ATOM     19  C   UNL d   1       0.538   0.653   0.439  0.00  0.00     0.147 A 
ATOM     20  HN  UNL d   1       2.200   0.834   1.698  1.00  0.00     0.168 HD
ATOM     21  N   UNL d   1       0.286   0.032  -0.736  0.00  0.00    -0.335 N 
ATOM     22  S   UNL d   1      -0.832   1.477   1.064  0.00  0.00    -0.092 SA
ATOM     23  C   UNL d   1       1.408  -0.601  -1.140  0.00  0.00     0.123 A 
ATOM     24  C   UNL d   1      -1.024   0.195  -1.319  0.00  0.00     0.141 C 
ATOM     25  C   UNL d   1      -1.932   0.705  -0.197  0.00  0.00     0.102 C 
ENDBRANCH   1  17
TORSDOF 3
