REMARK  5 active torsions:
REMARK  status: ('A' for Active; 'I' for Inactive)
REMARK    1  A    between atoms: C_2  and  C_1 
REMARK    2  A    between atoms: C_17  and  N_3 
REMARK    3  A    between atoms: C_19  and  C_4 
REMARK    4  A    between atoms: C_14  and  N_5 
REMARK    5  A    between atoms: N_12  and  C_15 
ROOT
ATOM      1  C   UNL d   1      -0.285   1.207  -0.029  0.00  0.00     0.057 C 
ATOM      2  C   UNL d   1       1.050   0.821  -0.068  0.00  0.00     0.082 C 
ATOM      3  N   UNL d   1       1.005  -0.586  -0.046  0.00  0.00    -0.255 N 
ATOM      4  N   UNL d   1      -0.263  -1.056  -0.195  0.00  0.00    -0.303 N 
ATOM      5  HN  UNL d   1      -0.558  -2.021  -0.349  1.00  0.00     0.186 HD
ATOM      6  C   UNL d   1      -1.031   0.023  -0.093  0.00  0.00     0.125 C 
ENDROOT
BRANCH   1   7
ATOM      7  C   UNL d   1      -0.844   2.587  -0.001  0.00  0.00     0.152 C 
ATOM      8  N   UNL d   1      -2.018   3.006   0.602  0.00  0.00    -0.224 N 
ATOM      9  N   UNL d   1      -2.324   4.233   0.122  0.00  0.00     0.001 NA
ATOM     10  N   UNL d   1      -1.261   4.620  -0.568  0.00  0.00    -0.007 NA
ATOM     11  N   UNL d   1      -0.329   3.618  -0.640  0.00  0.00    -0.269 N 
ATOM     12  HN  UNL d   1       0.582   3.661  -1.097  1.00  0.00     0.185 HD
BRANCH   8  13
ATOM     13  C   UNL d   1      -2.748   2.430   1.667  0.00  0.00     0.056 A 
ATOM     14  C   UNL d   1      -2.102   1.637   2.627  0.00  0.00     0.031 A 
ATOM     15  C   UNL d   1      -2.830   1.100   3.690  0.00  0.00     0.002 A 
ATOM     16  C   UNL d   1      -4.200   1.337   3.784  0.00  0.00     0.000 A 
ATOM     17  C   UNL d   1      -4.842   2.135   2.838  0.00  0.00     0.002 A 
ATOM     18  C   UNL d   1      -4.116   2.703   1.789  0.00  0.00     0.031 A 
ENDBRANCH   8  13
ENDBRANCH   1   7
BRANCH   2  19
ATOM     19  C   UNL d   1       2.275   1.648  -0.072  0.00  0.00    -0.006 A 
ATOM     20  C   UNL d   1       2.349   2.817   0.700  0.00  0.00     0.014 A 
ATOM     21  C   UNL d   1       3.521   3.576   0.757  0.00  0.00     0.001 A 
ATOM     22  C   UNL d   1       4.657   3.150   0.081  0.00  0.00     0.000 A 
ATOM     23  C   UNL d   1       4.604   2.001  -0.702  0.00  0.00     0.001 A 
ATOM     24  C   UNL d   1       3.410   1.282  -0.814  0.00  0.00     0.014 A 
ENDBRANCH   2  19
BRANCH   3  25
ATOM     25  C   UNL d   1       2.048  -1.545   0.160  0.00  0.00     0.057 A 
ATOM     26  C   UNL d   1       3.175  -1.235   0.932  0.00  0.00     0.034 A 
ATOM     27  C   UNL d   1       4.216  -2.160   1.061  0.00  0.00     0.038 A 
ATOM     28  C   UNL d   1       4.114  -3.410   0.439  0.00  0.00     0.103 A 
ATOM     29  C   UNL d   1       2.967  -3.750  -0.291  0.00  0.00     0.038 A 
ATOM     30  C   UNL d   1       1.931  -2.817  -0.421  0.00  0.00     0.034 A 
BRANCH  28  31
ATOM     31  N   UNL d   1       5.217  -4.371   0.561  0.00  0.00    -0.116 N 
ATOM     32  O   UNL d   1       5.086  -5.473   0.011  0.00  0.00    -0.532 OA
ATOM     33  O   UNL d   1       6.218  -4.020   1.203  0.00  0.00    -0.532 OA
ENDBRANCH  28  31
ENDBRANCH   3  25
TORSDOF 5
