REMARK  1 active torsions:
REMARK  status: ('A' for Active; 'I' for Inactive)
REMARK    1  A    between atoms: N_11  and  C_10 
ROOT
ATOM      1  C   UNL d   1       2.177   0.696   0.300  0.00  0.00     0.103 A 
ATOM      2  C   UNL d   1       3.322   1.376  -0.129  0.00  0.00     0.062 A 
ATOM      3  C   UNL d   1       2.148  -0.700   0.286  0.00  0.00     0.102 A 
ATOM      4  O   UNL d   1       1.113   1.393   0.810  0.00  0.00    -0.346 OA
ATOM      5  O   UNL d   1       1.039  -1.353   0.770  0.00  0.00    -0.346 OA
ATOM      6  O   UNL d   1      -4.367   0.043  -0.057  0.00  0.00    -0.387 OA
ATOM      7  O   UNL d   1      -1.920   2.740  -0.320  0.00  0.00    -0.387 OA
ATOM      8  O   UNL d   1      -1.952  -2.619  -0.347  0.00  0.00    -0.387 OA
ATOM      9  C   UNL d   1       3.263  -1.409  -0.162  0.00  0.00     0.041 A 
ATOM     10  C   UNL d   1       4.455   0.675  -0.556  0.00  0.00     0.008 A 
ATOM     11  C   UNL d   1       4.395  -0.722  -0.614  0.00  0.00     0.026 A 
ATOM     12  C   UNL d   1       0.435   2.151  -0.205  0.00  0.00     0.201 C 
ATOM     13  C   UNL d   1       0.433  -2.200  -0.221  0.00  0.00     0.201 C 
ATOM     14  C   UNL d   1      -3.908  -1.222  -0.547  0.00  0.00     0.193 C 
ATOM     15  C   UNL d   1      -3.700   1.155  -0.664  0.00  0.00     0.193 C 
ATOM     16  C   UNL d   1      -2.896  -1.857   0.407  0.00  0.00     0.193 C 
ATOM     17  C   UNL d   1      -0.767  -2.921   0.399  0.00  0.00     0.194 C 
ATOM     18  C   UNL d   1      -0.721   2.927   0.439  0.00  0.00     0.194 C 
ATOM     19  C   UNL d   1      -2.890   1.942   0.363  0.00  0.00     0.193 C 
ENDROOT
BRANCH  10  20
ATOM     20  N   UNL d   1       5.547   1.349  -1.115  0.00  0.00    -0.303 NA
ATOM     21  H   UNL d   1       5.667   2.295  -0.765  0.00  0.00     0.124 HD
ATOM     22  H   UNL d   1       6.414   0.820  -1.093  0.00  0.00     0.124 HD
ENDBRANCH  10  20
TORSDOF 1
