REMARK  5 active torsions:
REMARK  status: ('A' for Active; 'I' for Inactive)
REMARK    1  A    between atoms: N_5  and  C_1 
REMARK    2  A    between atoms: N_6  and  C_1 
REMARK    3  A    between atoms: N_2  and  N_5 
REMARK    4  A    between atoms: C_8  and  C_7 
REMARK    5  A    between atoms: O_14  and  C_9 
ROOT
ATOM      1  N   UNL d   1      -1.192   1.384   0.828  0.00  0.00    -0.309 N 
ATOM      2  HN  UNL d   1      -1.687   0.683   1.379  1.00  0.00     0.186 HD
ATOM      3  C   UNL d   1      -1.822   2.342   0.228  0.00  0.00     0.118 C 
ENDROOT
BRANCH   1   4
ATOM      4  N   UNL d   1       0.163   1.357   0.686  0.00  0.00    -0.277 N 
ATOM      5  H   UNL d   1       0.649   2.048   0.124  0.00  0.00     0.189 HD
BRANCH   4   6
ATOM      6  C   UNL d   1       0.897   0.359   1.301  0.00  0.00     0.186 C 
ATOM      7  S   UNL d   1       2.549   0.302   1.121  0.00  0.00    -0.040 SA
BRANCH   6   8
ATOM      8  N   UNL d   1       0.110  -0.500   2.022  0.00  0.00    -0.370 N 
ATOM      9  C   UNL d   1       0.475  -1.656   2.803  0.00  0.00     0.148 C 
ATOM     10  H   UNL d   1      -0.871  -0.244   1.951  0.00  0.00     0.161 HD
ENDBRANCH   6   8
ENDBRANCH   4   6
ENDBRANCH   1   4
BRANCH   3  11
ATOM     11  C   UNL d   1      -3.293   2.426   0.323  0.00  0.00    -0.019 A 
ATOM     12  C   UNL d   1      -3.996   1.476   1.071  0.00  0.00     0.015 A 
ATOM     13  C   UNL d   1      -5.387   1.528   1.148  0.00  0.00     0.037 A 
ATOM     14  C   UNL d   1      -6.083   2.529   0.474  0.00  0.00     0.068 A 
ATOM     15  C   UNL d   1      -5.375   3.498  -0.248  0.00  0.00     0.037 A 
ATOM     16  C   UNL d   1      -3.980   3.447  -0.334  0.00  0.00     0.015 A 
BRANCH  14  17
ATOM     17  O   UNL d   1      -7.443   2.678   0.481  0.00  0.00    -0.356 OA
ATOM     18  C   UNL d   1      -8.187   1.478   0.676  0.00  0.00     0.210 C 
ENDBRANCH  14  17
ENDBRANCH   3  11
TORSDOF 5
