REMARK  3 active torsions:
REMARK  status: ('A' for Active; 'I' for Inactive)
REMARK    1  A    between atoms: C_3  and  C_1 
REMARK    2  A    between atoms: C_6  and  C_2 
REMARK       I    between atoms: N_14  and  C_3 
REMARK    3  A    between atoms: N_10  and  C_9 
ROOT
ATOM      1  C   UNL d   1      -0.839   1.147  -0.087  0.00  0.00     0.112 C 
ATOM      2  C   UNL d   1       0.331   1.036   0.572  0.00  0.00     0.041 C 
ATOM      3  C   UNL d   1      -1.475   2.395  -0.314  0.00  0.00     0.105 C 
ATOM      4  N   UNL d   1      -2.033   3.395  -0.513  0.00  0.00    -0.191 NA
ENDROOT
BRANCH   1   5
ATOM      5  C   UNL d   1      -1.469  -0.117  -0.577  0.00  0.00     0.260 C 
ATOM      6  O   UNL d   1      -0.987  -1.226  -0.370  0.00  0.00    -0.267 OA
ATOM      7  N   UNL d   1      -2.634  -0.005  -1.275  0.00  0.00    -0.365 N 
ATOM      8  H   UNL d   1      -3.100   0.866  -1.502  0.00  0.00     0.159 HD
ATOM      9  H   UNL d   1      -3.057  -0.861  -1.608  0.00  0.00     0.159 HD
ENDBRANCH   1   5
BRANCH   2  10
ATOM     10  C   UNL d   1       1.083   2.168   1.133  0.00  0.00    -0.013 A 
ATOM     11  C   UNL d   1       2.032   2.896   0.407  0.00  0.00     0.046 A 
ATOM     12  C   UNL d   1       2.750   3.939   1.013  0.00  0.00     0.054 A 
ATOM     13 CL   UNL d   1       2.368   2.536  -1.253  0.00  0.00    -0.083 Cl
ATOM     14  C   UNL d   1       2.558   4.294   2.358  0.00  0.00     0.031 A 
ATOM     15  C   UNL d   1       1.573   3.573   3.053  0.00  0.00     0.030 A 
ATOM     16  C   UNL d   1       0.848   2.530   2.460  0.00  0.00     0.015 A 
BRANCH  14  17
ATOM     17  N   UNL d   1       3.334   5.252   2.992  0.00  0.00    -0.390 N 
ATOM     18  C   UNL d   1       2.789   6.109   4.042  0.00  0.00     0.149 C 
ATOM     19  C   UNL d   1       4.614   5.688   2.442  0.00  0.00     0.149 C 
ENDBRANCH  14  17
ENDBRANCH   2  10
TORSDOF 3
