REMARK  3 active torsions:
REMARK  status: ('A' for Active; 'I' for Inactive)
REMARK    1  A    between atoms: C_11  and  C_2 
REMARK    2  A    between atoms: C_13  and  C_9 
REMARK    3  A    between atoms: C_16  and  C_12 
ROOT
ATOM      1  N   UNL d   1       0.299   0.643   0.067  0.00  0.00    -0.235 N 
ATOM      2  C   UNL d   1      -0.822   1.464   0.062  0.00  0.00     0.144 A 
ATOM      3  C   UNL d   1       0.154  -0.750  -0.007  0.00  0.00     0.130 A 
ATOM      4  N   UNL d   1       1.605   0.990   0.121  0.00  0.00    -0.289 N 
ATOM      5  HN  UNL d   1       1.991   1.927   0.231  1.00  0.00     0.188 HD
ATOM      6  N   UNL d   1      -1.068  -1.360  -0.004  0.00  0.00    -0.340 N 
ATOM      7  HN  UNL d   1      -1.155  -2.376  -0.037  1.00  0.00     0.167 HD
ATOM      8  C   UNL d   1       1.427  -1.266  -0.086  0.00  0.00     0.084 A 
ATOM      9  C   UNL d   1       2.280  -0.156  -0.000  0.00  0.00     0.086 A 
ATOM     10  C   UNL d   1      -2.049   0.907   0.029  0.00  0.00     0.067 A 
ATOM     11  C   UNL d   1      -2.117  -0.588   0.044  0.00  0.00     0.046 A 
ENDROOT
BRANCH  11  12
ATOM     12  C   UNL d   1      -3.476  -1.205   0.105  0.00  0.00    -0.007 A 
ATOM     13  C   UNL d   1      -4.553  -0.567   0.723  0.00  0.00     0.030 A 
ATOM     14  C   UNL d   1      -5.773  -1.221   0.746  0.00  0.00     0.088 A 
ATOM     15  N   UNL d   1      -5.979  -2.441   0.211  0.00  0.00    -0.375 N 
ATOM     16  C   UNL d   1      -4.917  -3.048  -0.360  0.00  0.00     0.088 A 
ATOM     17  HN  UNL d   1      -6.897  -2.887   0.238  1.00  0.00     0.164 HD
ATOM     18  C   UNL d   1      -3.659  -2.479  -0.436  0.00  0.00     0.030 A 
ENDBRANCH  11  12
BRANCH   2  19
ATOM     19  C   UNL d   1      -0.644   2.935   0.058  0.00  0.00     0.434 C 
ATOM     20  F   UNL d   1       0.623   3.402   0.013  0.00  0.00    -0.165 F 
ATOM     21  F   UNL d   1      -1.290   3.488  -1.008  0.00  0.00    -0.165 F 
ATOM     22  F   UNL d   1      -1.221   3.487   1.161  0.00  0.00    -0.165 F 
ENDBRANCH   2  19
BRANCH   9  23
ATOM     23  C   UNL d   1       3.770  -0.196  -0.041  0.00  0.00     0.103 A 
ATOM     24  O   UNL d   1       4.517  -1.324  -0.248  0.00  0.00    -0.320 OA
ATOM     25  C   UNL d   1       5.822  -0.948  -0.242  0.00  0.00     0.142 A 
ATOM     26  C   UNL d   1       5.936   0.403  -0.017  0.00  0.00     0.027 A 
ATOM     27  C   UNL d   1       4.613   0.889   0.112  0.00  0.00     0.041 A 
ENDBRANCH   9  23
TORSDOF 3
