REMARK  6 active torsions:
REMARK  status: ('A' for Active; 'I' for Inactive)
REMARK    1  A    between atoms: N_3  and  S_1 
REMARK    2  A    between atoms: C_10  and  S_1 
REMARK    3  A    between atoms: S_2  and  N_5 
REMARK    4  A    between atoms: C_11  and  S_2 
REMARK    5  A    between atoms: C_4  and  N_3 
REMARK    6  A    between atoms: N_5  and  C_25 
ROOT
ATOM      1  C   UNL d   1      -2.164  -5.000   3.626  0.00  0.00     0.080 A 
ATOM      2  N   UNL d   1      -3.135  -8.256  -0.549  0.00  0.00    -0.191 NA
ATOM      3  C   UNL d   1      -2.941  -7.574   0.371  0.00  0.00     0.099 C 
ATOM      4  C   UNL d   1      -1.353  -6.123   3.424  0.00  0.00     0.027 A 
ATOM      5  C   UNL d   1      -3.252  -4.744   2.787  0.00  0.00     0.027 A 
ATOM      6  C   UNL d   1      -2.689  -6.716   1.491  0.00  0.00     0.044 A 
ATOM      7  C   UNL d   1      -1.612  -6.975   2.348  0.00  0.00     0.024 A 
ATOM      8  C   UNL d   1      -3.513  -5.606   1.719  0.00  0.00     0.024 A 
ENDROOT
BRANCH   1   9
ATOM      9  S   UNL d   1      -1.789  -3.887   4.963  0.00  0.00     0.263 S 
ATOM     10  O   UNL d   1      -1.686  -4.695   6.159  0.00  0.00    -0.200 OA
ATOM     11  O   UNL d   1      -2.692  -2.760   4.889  0.00  0.00    -0.200 OA
BRANCH   9  12
ATOM     12  N   UNL d   1      -0.240  -3.368   4.603  0.00  0.00    -0.281 N 
ATOM     13  H   UNL d   1       0.491  -3.564   5.283  0.00  0.00     0.179 HD
BRANCH  12  14
ATOM     14  C   UNL d   1       0.014  -2.560   3.473  0.00  0.00     0.042 A 
ATOM     15  C   UNL d   1      -0.090  -1.172   3.556  0.00  0.00     0.031 A 
ATOM     16  C   UNL d   1       0.197  -0.384   2.435  0.00  0.00     0.027 A 
ATOM     17  C   UNL d   1       0.579  -0.999   1.235  0.00  0.00     0.075 A 
ATOM     18  C   UNL d   1       0.714  -2.388   1.167  0.00  0.00     0.027 A 
ATOM     19  C   UNL d   1       0.435  -3.166   2.289  0.00  0.00     0.031 A 
BRANCH  17  20
ATOM     20  S   UNL d   1       1.079  -0.018  -0.164  0.00  0.00     0.248 S 
ATOM     21  O   UNL d   1       1.368   1.310   0.344  0.00  0.00    -0.205 OA
ATOM     22  O   UNL d   1       2.094  -0.755  -0.886  0.00  0.00    -0.205 OA
BRANCH  20  23
ATOM     23  N   UNL d   1      -0.305   0.145  -1.080  0.00  0.00    -0.151 NA
ATOM     24  H   UNL d   1      -0.321   1.062  -1.514  0.00  0.00     0.149 HD
BRANCH  23  25
ATOM     25  C   UNL d   1      -0.512  -0.859  -2.022  0.00  0.00     0.171 A 
ATOM     26  N   UNL d   1      -1.071  -1.996  -1.600  0.00  0.00    -0.336 N 
ATOM     27  C   UNL d   1      -1.373  -2.885  -2.569  0.00  0.00     0.009 A 
ATOM     28  HN  UNL d   1      -1.257  -2.179  -0.614  1.00  0.00     0.168 HD
ATOM     29  C   UNL d   1      -2.090  -4.138  -2.163  0.00  0.00     0.068 C 
ATOM     30  C   UNL d   1      -1.077  -2.661  -3.903  0.00  0.00     0.049 A 
ATOM     31  C   UNL d   1      -0.473  -1.456  -4.214  0.00  0.00     0.009 A 
ATOM     32  N   UNL d   1      -0.208  -0.522  -3.278  0.00  0.00    -0.336 N 
ATOM     33  C   UNL d   1      -0.114  -1.142  -5.636  0.00  0.00     0.068 C 
ATOM     34  HN  UNL d   1       0.198   0.383  -3.514  1.00  0.00     0.168 HD
ENDBRANCH  23  25
ENDBRANCH  20  23
ENDBRANCH  17  20
ENDBRANCH  12  14
ENDBRANCH   9  12
ENDBRANCH   1   9
TORSDOF 6
