REMARK  3 active torsions:
REMARK  status: ('A' for Active; 'I' for Inactive)
REMARK    1  A    between atoms: C_4  and  C_7 
REMARK    2  A    between atoms: C_7  and  O_11 
REMARK    3  A    between atoms: O_11  and  N_8 
ROOT
ATOM      1  C   UNL d   1      -0.720  -0.532  -0.078  0.00  0.00     0.023 A 
ATOM      2  C   UNL d   1      -1.132   0.785   0.035  0.00  0.00     0.022 A 
ATOM      3  N   UNL d   1      -0.027   1.587   0.081  0.00  0.00    -0.358 N 
ATOM      4  C   UNL d   1       0.708  -0.521  -0.098  0.00  0.00     0.005 A 
ATOM      5  C   UNL d   1       1.112   0.816   0.000  0.00  0.00     0.043 A 
ATOM      6  N   UNL d   1      -1.316  -2.806  -0.425  0.00  0.00    -0.261 N 
ATOM      7  HN  UNL d   1      -0.341  -3.068  -0.570  1.00  0.00     0.194 HD
ATOM      8  C   UNL d   1      -1.715  -1.598  -0.166  0.00  0.00     0.045 C 
ATOM      9  C   UNL d   1      -2.533   1.279   0.094  0.00  0.00     0.058 C 
ATOM     10  C   UNL d   1       1.710  -1.510  -0.189  0.00  0.00     0.014 A 
ATOM     11  C   UNL d   1       2.457   1.209   0.004  0.00  0.00     0.030 A 
ATOM     12  C   UNL d   1      -3.170  -1.189   0.083  0.00  0.00     0.060 C 
ATOM     13  C   UNL d   1      -3.465   0.206  -0.487  0.00  0.00     0.012 C 
ATOM     14  C   UNL d   1       3.059  -1.135  -0.180  0.00  0.00     0.001 A 
ATOM     15  C   UNL d   1       3.425   0.207  -0.086  0.00  0.00     0.002 A 
ATOM     16  H   UNL d   1      -0.029   2.594   0.151  0.00  0.00     0.166 HD
ENDROOT
BRANCH   6  17
ATOM     17  O   UNL d   1      -2.396  -3.711  -0.480  0.00  0.00    -0.195 OA
BRANCH  17  18
ATOM     18  C   UNL d   1      -1.962  -4.948  -0.861  0.00  0.00     0.318 C 
ATOM     19  O   UNL d   1      -0.837  -5.294  -1.190  0.00  0.00    -0.257 OA
BRANCH  18  20
ATOM     20  C   UNL d   1      -3.113  -5.871  -0.863  0.00  0.00     0.084 A 
ATOM     21  C   UNL d   1      -3.838  -6.125   0.310  0.00  0.00     0.052 A 
ATOM     22 CL   UNL d   1      -3.492  -5.353   1.819  0.00  0.00    -0.083 Cl
ATOM     23  C   UNL d   1      -4.880  -7.062   0.308  0.00  0.00     0.025 A 
ATOM     24  C   UNL d   1      -5.198  -7.762  -0.854  0.00  0.00     0.003 A 
ATOM     25  C   UNL d   1      -4.483  -7.513  -2.022  0.00  0.00     0.025 A 
ATOM     26  C   UNL d   1      -3.447  -6.570  -2.033  0.00  0.00     0.052 A 
ATOM     27 CL   UNL d   1      -2.660  -6.296  -3.549  0.00  0.00    -0.083 Cl
ENDBRANCH  18  20
ENDBRANCH  17  18
ENDBRANCH   6  17
TORSDOF 3
