REMARK  3 active torsions:
REMARK  status: ('A' for Active; 'I' for Inactive)
REMARK    1  A    between atoms: S_8  and  C_1 
REMARK    2  A    between atoms: C_4  and  C_7 
REMARK    3  A    between atoms: C_11  and  S_8 
ROOT
ATOM      1  C   UNL d   1       0.041   1.882  -0.014  0.00  0.00     0.121 A 
ATOM      2  C   UNL d   1       1.217   0.907  -0.023  0.00  0.00    -0.028 A 
ATOM      3  C   UNL d   1      -1.147   0.909  -0.071  0.00  0.00    -0.028 A 
ATOM      4  C   UNL d   1      -0.689  -0.423   0.017  0.00  0.00    -0.018 A 
ATOM      5  C   UNL d   1       0.757  -0.425   0.046  0.00  0.00    -0.018 A 
ATOM      6  C   UNL d   1       2.576   1.175  -0.130  0.00  0.00     0.009 A 
ATOM      7  C   UNL d   1      -2.502   1.188  -0.199  0.00  0.00     0.009 A 
ATOM      8  C   UNL d   1      -1.583  -1.485   0.021  0.00  0.00     0.013 A 
ATOM      9  C   UNL d   1       1.649  -1.485   0.074  0.00  0.00     0.013 A 
ATOM     10  C   UNL d   1      -2.947  -1.206  -0.089  0.00  0.00     0.001 A 
ATOM     11  C   UNL d   1       3.477   0.113  -0.082  0.00  0.00     0.001 A 
ATOM     12  C   UNL d   1      -3.401   0.117  -0.209  0.00  0.00     0.001 A 
ATOM     13  C   UNL d   1       3.017  -1.208   0.025  0.00  0.00     0.001 A 
ENDROOT
BRANCH   1  14
ATOM     14  S   UNL d   1      -0.058   2.879   1.527  0.00  0.00    -0.098 SA
BRANCH  14  15
ATOM     15  C   UNL d   1       1.487   3.750   1.458  0.00  0.00     0.070 A 
ATOM     16  N   UNL d   1       1.706   4.573   0.408  0.00  0.00    -0.360 N 
ATOM     17  C   UNL d   1       2.900   5.215   0.356  0.00  0.00     0.105 A 
ATOM     18  HN  UNL d   1       1.000   4.706  -0.317  1.00  0.00     0.166 HD
ATOM     19  C   UNL d   1       3.908   5.065   1.297  0.00  0.00     0.063 A 
ATOM     20  C   UNL d   1       3.658   4.209   2.372  0.00  0.00     0.020 A 
ATOM     21  C   UNL d   1       2.430   3.553   2.461  0.00  0.00     0.038 A 
BRANCH  19  22
ATOM     22  C   UNL d   1       5.212   5.793   1.161  0.00  0.00     0.418 C 
ATOM     23  F   UNL d   1       5.292   6.563   0.041  0.00  0.00    -0.166 F 
ATOM     24  F   UNL d   1       5.455   6.628   2.207  0.00  0.00    -0.166 F 
ATOM     25  F   UNL d   1       6.276   4.945   1.105  0.00  0.00    -0.166 F 
ENDBRANCH  19  22
ENDBRANCH  14  15
ENDBRANCH   1  14
TORSDOF 3
