REMARK  5 active torsions:
REMARK  status: ('A' for Active; 'I' for Inactive)
REMARK    1  A    between atoms: C_2  and  S_1 
REMARK    2  A    between atoms: O_5  and  S_1 
REMARK    3  A    between atoms: C_13  and  C_4 
REMARK    4  A    between atoms: C_6  and  O_5 
REMARK    5  A    between atoms: N_8  and  C_10 
ROOT
ATOM      1  S   UNL d   1      -1.643   1.159  -0.274  0.00  0.00     0.309 S 
ATOM      2  O   UNL d   1      -1.863   1.401   1.136  0.00  0.00    -0.192 OA
ATOM      3  O   UNL d   1      -2.429   1.801  -1.312  0.00  0.00    -0.192 OA
ENDROOT
BRANCH   1   4
ATOM      4  C   UNL d   1      -1.954  -0.586  -0.471  0.00  0.00     0.128 A 
ATOM      5  S   UNL d   1      -3.578  -0.972  -0.865  0.00  0.00    -0.074 SA
ATOM      6  C   UNL d   1      -3.303  -2.663  -0.811  0.00  0.00     0.033 A 
ATOM      7  C   UNL d   1      -1.972  -2.918  -0.520  0.00  0.00     0.023 A 
ATOM      8  C   UNL d   1      -1.200  -1.731  -0.311  0.00  0.00     0.035 A 
BRANCH   6   9
ATOM      9  C   UNL d   1      -4.395  -3.622  -1.065  0.00  0.00     0.049 A 
ATOM     10  N   UNL d   1      -3.974  -4.860  -1.427  0.00  0.00    -0.365 N 
ATOM     11  C   UNL d   1      -4.923  -5.793  -1.672  0.00  0.00     0.088 A 
ATOM     12  HN  UNL d   1      -2.981  -5.078  -1.511  1.00  0.00     0.165 HD
ATOM     13  C   UNL d   1      -6.283  -5.562  -1.562  0.00  0.00     0.017 A 
ATOM     14  C   UNL d   1      -6.701  -4.294  -1.180  0.00  0.00     0.004 A 
ATOM     15  C   UNL d   1      -5.748  -3.309  -0.929  0.00  0.00     0.031 A 
ENDBRANCH   6   9
ENDBRANCH   1   4
BRANCH   1  16
ATOM     16  O   UNL d   1      -0.049   1.304  -0.619  0.00  0.00    -0.226 OA
BRANCH  16  17
ATOM     17  C   UNL d   1       0.575   2.538  -0.491  0.00  0.00     0.116 A 
ATOM     18  C   UNL d   1       1.959   2.598  -0.211  0.00  0.00     0.065 A 
ATOM     19  C   UNL d   1       2.530   3.889  -0.079  0.00  0.00     0.032 A 
ATOM     20  C   UNL d   1       1.801   5.064  -0.255  0.00  0.00     0.002 A 
ATOM     21  C   UNL d   1       0.461   4.986  -0.576  0.00  0.00     0.003 A 
ATOM     22  C   UNL d   1      -0.144   3.736  -0.698  0.00  0.00     0.040 A 
BRANCH  18  23
ATOM     23  N   UNL d   1       2.818   1.519  -0.002  0.00  0.00    -0.374 N 
ATOM     24  C   UNL d   1       2.340   0.189   0.395  0.00  0.00     0.149 C 
ATOM     25  C   UNL d   1       3.501  -0.583   1.055  0.00  0.00     0.187 C 
ATOM     26  O   UNL d   1       4.647  -0.672   0.190  0.00  0.00    -0.388 OA
ATOM     27  C   UNL d   1       5.111   0.644  -0.154  0.00  0.00     0.187 C 
ATOM     28  C   UNL d   1       4.017   1.450  -0.871  0.00  0.00     0.149 C 
ENDBRANCH  18  23
ENDBRANCH  16  17
ENDBRANCH   1  16
TORSDOF 5
