REMARK  7 active torsions:
REMARK  status: ('A' for Active; 'I' for Inactive)
REMARK    1  A    between atoms: N_4  and  C_1 
REMARK    2  A    between atoms: S_7  and  C_2 
REMARK    3  A    between atoms: C_8  and  C_5 
REMARK    4  A    between atoms: C_14  and  S_7 
REMARK    5  A    between atoms: C_11  and  C_14 
REMARK    6  A    between atoms: O_15  and  C_11 
REMARK    7  A    between atoms: C_17  and  O_15 
ROOT
ATOM      1  C   UNL d   1       1.570   0.724  -0.003  0.00  0.00     0.128 A 
ATOM      2  C   UNL d   1       0.315   1.317  -0.013  0.00  0.00     0.075 A 
ATOM      3  C   UNL d   1       1.466  -0.714  -0.042  0.00  0.00     0.060 A 
ATOM      4  C   UNL d   1       0.166  -1.177  -0.085  0.00  0.00     0.054 A 
ATOM      5  S   UNL d   1      -0.930   0.119  -0.034  0.00  0.00    -0.077 SA
ENDROOT
BRANCH   2   6
ATOM      6  S   UNL d   1      -0.221   2.996   0.100  0.00  0.00    -0.110 SA
BRANCH   6   7
ATOM      7  C   UNL d   1       0.377   3.801  -1.406  0.00  0.00     0.191 C 
BRANCH   7   8
ATOM      8  C   UNL d   1       0.061   3.089  -2.700  0.00  0.00     0.268 C 
ATOM      9  O   UNL d   1      -0.479   2.001  -2.836  0.00  0.00    -0.264 OA
BRANCH   8  10
ATOM     10  O   UNL d   1       0.583   3.829  -3.726  0.00  0.00    -0.321 OA
BRANCH  10  11
ATOM     11  C   UNL d   1       0.743   3.139  -4.974  0.00  0.00     0.174 C 
ATOM     12  C   UNL d   1       2.069   2.401  -4.942  0.00  0.00     0.034 C 
ENDBRANCH  10  11
ENDBRANCH   8  10
ENDBRANCH   7   8
ENDBRANCH   6   7
ENDBRANCH   2   6
BRANCH   1  13
ATOM     13  N   UNL d   1       2.851   1.396   0.062  0.00  0.00    -0.114 N 
ATOM     14  O   UNL d   1       2.869   2.629   0.148  0.00  0.00    -0.532 OA
ATOM     15  O   UNL d   1       3.857   0.677   0.011  0.00  0.00    -0.532 OA
ENDBRANCH   1  13
BRANCH   4  16
ATOM     16  C   UNL d   1      -0.249  -2.575  -0.114  0.00  0.00     0.162 C 
ATOM     17  O   UNL d   1       0.546  -3.481   0.149  0.00  0.00    -0.292 OA
ATOM     18  C   UNL d   1      -1.666  -2.950  -0.483  0.00  0.00     0.097 C 
ENDBRANCH   4  16
TORSDOF 7
