REMARK  5 active torsions:
REMARK  status: ('A' for Active; 'I' for Inactive)
REMARK    1  A    between atoms: C_7  and  C_1 
REMARK    2  A    between atoms: N_2  and  C_8 
REMARK    3  A    between atoms: N_4  and  C_3 
REMARK    4  A    between atoms: N_6  and  C_10 
REMARK    5  A    between atoms: O_23  and  C_7 
ROOT
ATOM      1  C   UNL d   1      -0.480  -0.761  -0.756  0.00  0.00     0.063 A 
ATOM      2  C   UNL d   1       0.633  -1.315  -0.065  0.00  0.00     0.027 A 
ATOM      3  C   UNL d   1      -0.512   0.617  -1.072  0.00  0.00     0.055 A 
ATOM      4  C   UNL d   1       0.545   1.455  -0.714  0.00  0.00     0.104 A 
ATOM      5  C   UNL d   1       1.669  -0.418   0.298  0.00  0.00     0.027 A 
ATOM      6  C   UNL d   1       1.636   0.942  -0.021  0.00  0.00     0.038 A 
ENDROOT
BRANCH   2   7
ATOM      7  N   UNL d   1       0.760  -2.699   0.216  0.00  0.00    -0.282 NA
ATOM      8  C   UNL d   1       1.596  -3.057   1.380  0.00  0.00     0.098 C 
ATOM      9  C   UNL d   1       1.444  -4.533   1.720  0.00  0.00     0.040 C 
ATOM     10  C   UNL d   1       1.704  -5.439   0.512  0.00  0.00     0.091 C 
ATOM     11  C   UNL d   1       0.911  -4.982  -0.716  0.00  0.00     0.040 C 
ATOM     12  C   UNL d   1       1.027  -3.487  -1.003  0.00  0.00     0.098 C 
BRANCH  10  13
ATOM     13  N   UNL d   1       3.128  -5.678   0.256  0.00  0.00    -0.362 N 
ATOM     14  C   UNL d   1       4.063  -4.787  -0.203  0.00  0.00     0.091 A 
ATOM     15  C   UNL d   1       5.279  -5.432  -0.292  0.00  0.00     0.019 A 
ATOM     16  C   UNL d   1       5.074  -6.765   0.125  0.00  0.00     0.019 A 
ATOM     17  C   UNL d   1       3.745  -6.891   0.457  0.00  0.00     0.091 A 
ENDBRANCH  10  13
ENDBRANCH   2   7
BRANCH   1  18
ATOM     18  C   UNL d   1      -1.666  -1.519  -1.251  0.00  0.00     0.294 C 
ATOM     19  O   UNL d   1      -2.305  -1.133  -2.223  0.00  0.00    -0.259 OA
BRANCH  18  20
ATOM     20  O   UNL d   1      -1.969  -2.602  -0.501  0.00  0.00    -0.322 OA
ATOM     21  C   UNL d   1      -3.089  -3.364  -0.960  0.00  0.00     0.213 C 
ENDBRANCH  18  20
ENDBRANCH   1  18
BRANCH   4  22
ATOM     22  N   UNL d   1       0.521   2.872  -1.092  0.00  0.00    -0.116 N 
ATOM     23  O   UNL d   1      -0.469   3.291  -1.705  0.00  0.00    -0.532 OA
ATOM     24  O   UNL d   1       1.499   3.567  -0.777  0.00  0.00    -0.532 OA
ENDBRANCH   4  22
TORSDOF 5
