REMARK  7 active torsions:
REMARK  status: ('A' for Active; 'I' for Inactive)
REMARK    1  A    between atoms: C_2  and  S_1 
REMARK    2  A    between atoms: C_4  and  S_1 
REMARK    3  A    between atoms: C_9  and  C_2 
REMARK    4  A    between atoms: N_3  and  C_9 
REMARK    5  A    between atoms: C_7  and  C_8 
REMARK    6  A    between atoms: C_10  and  C_7 
REMARK    7  A    between atoms: C_11  and  C_7 
ROOT
ATOM      1  N   UNL d   1       0.483   3.684  -1.175  0.00  0.00     0.089 N 
ATOM      2  C   UNL d   1       1.008   6.156  -2.765  0.00  0.00     0.002 C 
ATOM      3  C   UNL d   1       0.301   6.151  -1.401  0.00  0.00     0.036 C 
ATOM      4  C   UNL d   1       0.696   4.787  -3.414  0.00  0.00     0.036 C 
ATOM      5  C   UNL d   1       0.740   4.979  -0.529  0.00  0.00     0.273 C 
ATOM      6  C   UNL d   1       1.092   3.607  -2.517  0.00  0.00     0.273 C 
ENDROOT
BRANCH   2   7
ATOM      7  C   UNL d   1       2.551   6.438  -2.688  0.00  0.00     0.056 C 
BRANCH   7   8
ATOM      8  C   UNL d   1       3.180   6.506  -4.082  0.00  0.00    -0.049 A 
ATOM      9  C   UNL d   1       2.757   7.453  -5.031  0.00  0.00     0.008 A 
ATOM     10  C   UNL d   1       3.351   7.517  -6.289  0.00  0.00     0.001 A 
ATOM     11  C   UNL d   1       4.379   6.637  -6.620  0.00  0.00     0.000 A 
ATOM     12  C   UNL d   1       4.810   5.691  -5.692  0.00  0.00     0.001 A 
ATOM     13  C   UNL d   1       4.217   5.625  -4.432  0.00  0.00     0.008 A 
ENDBRANCH   7   8
BRANCH   7  14
ATOM     14  C   UNL d   1       2.996   7.644  -1.857  0.00  0.00    -0.049 A 
ATOM     15  C   UNL d   1       4.224   7.582  -1.171  0.00  0.00     0.008 A 
ATOM     16  C   UNL d   1       4.690   8.665  -0.425  0.00  0.00     0.001 A 
ATOM     17  C   UNL d   1       3.937   9.834  -0.352  0.00  0.00     0.000 A 
ATOM     18  C   UNL d   1       2.726   9.920  -1.037  0.00  0.00     0.001 A 
ATOM     19  C   UNL d   1       2.265   8.839  -1.792  0.00  0.00     0.008 A 
ENDBRANCH   7  14
ENDBRANCH   2   7
BRANCH   1  20
ATOM     20  C   UNL d   1       0.961   2.556  -0.339  0.00  0.00     0.287 C 
BRANCH  20  21
ATOM     21  C   UNL d   1       0.230   2.455   0.996  0.00  0.00     0.176 C 
BRANCH  21  22
ATOM     22  S   UNL d   1       0.872   1.117   1.971  0.00  0.00     0.177 S 
ATOM     23  O   UNL d   1       2.238   1.427   2.343  0.00  0.00    -0.223 OA
ATOM     24  O   UNL d   1       0.546  -0.135   1.316  0.00  0.00    -0.223 OA
BRANCH  22  25
ATOM     25  C   UNL d   1      -0.113   1.205   3.454  0.00  0.00     0.059 A 
ATOM     26  C   UNL d   1      -1.310   0.483   3.530  0.00  0.00     0.026 A 
ATOM     27  C   UNL d   1      -2.069   0.541   4.699  0.00  0.00     0.044 A 
ATOM     28  C   UNL d   1      -1.623   1.307   5.773  0.00  0.00     0.116 A 
ATOM     29  C   UNL d   1      -0.428   2.018   5.703  0.00  0.00     0.044 A 
ATOM     30  F   UNL d   1      -2.353   1.356   6.894  0.00  0.00    -0.206 F 
ATOM     31  C   UNL d   1       0.339   1.967   4.538  0.00  0.00     0.026 A 
ENDBRANCH  22  25
ENDBRANCH  21  22
ENDBRANCH  20  21
ENDBRANCH   1  20
TORSDOF 7
