REMARK  1 active torsions:
REMARK  status: ('A' for Active; 'I' for Inactive)
REMARK    1  A    between atoms: C_8  and  N_5 
ROOT
ATOM      1  C   UNL d   1       1.595   0.268   0.023  0.00  0.00     0.141 C 
ATOM      2  N   UNL d   1       0.492   0.932  -0.056  0.00  0.00    -0.369 N 
ATOM      3  HN  UNL d   1       0.430   1.949  -0.022  1.00  0.00     0.161 HD
ATOM      4  S   UNL d   1       1.470  -1.471  -0.182  0.00  0.00    -0.083 SA
ATOM      5  N   UNL d   1       2.860   0.739   0.205  0.00  0.00    -0.337 N 
ATOM      6  C   UNL d   1      -0.227  -1.294  -0.817  0.00  0.00     0.024 C 
ATOM      7  C   UNL d   1      -0.663   0.037  -0.201  0.00  0.00     0.142 C 
ATOM      8  C   UNL d   1      -0.188  -1.229  -2.345  0.00  0.00     0.029 C 
ATOM      9  C   UNL d   1      -1.119  -2.439  -0.343  0.00  0.00     0.029 C 
ATOM     10  H   UNL d   1       3.603   0.062   0.135  0.00  0.00     0.168 HD
ENDROOT
BRANCH   5  11
ATOM     11  C   UNL d   1       3.235   2.021   0.641  0.00  0.00     0.034 A 
ATOM     12  C   UNL d   1       2.338   2.911   1.243  0.00  0.00     0.030 A 
ATOM     13  C   UNL d   1       2.724   4.203   1.607  0.00  0.00     0.009 A 
ATOM     14  C   UNL d   1       4.023   4.648   1.361  0.00  0.00    -0.062 A 
ATOM     15  C   UNL d   1       4.927   3.778   0.747  0.00  0.00     0.009 A 
ATOM     16  C   UNL d   1       4.415   6.040   1.756  0.00  0.00     0.048 C 
ATOM     17  C   UNL d   1       4.536   2.480   0.391  0.00  0.00     0.030 A 
ENDBRANCH   5  11
TORSDOF 1
