REMARK  5 active torsions:
REMARK  status: ('A' for Active; 'I' for Inactive)
REMARK    1  A    between atoms: C_2  and  C_1 
REMARK       I    between atoms: N_3  and  C_1 
REMARK       I    between atoms: N_4  and  C_2 
REMARK    2  A    between atoms: C_5  and  N_3 
REMARK    3  A    between atoms: C_9  and  N_4 
REMARK    4  A    between atoms: C_12  and  C_9 
REMARK    5  A    between atoms: S_11  and  C_10 
ROOT
ATOM      1  C   UNL d   1       0.942  -0.199   0.209  0.00  0.00     0.313 C 
ATOM      2  N   UNL d   1       0.326  -0.893  -0.815  0.00  0.00    -0.319 N 
ATOM      3  O   UNL d   1       2.008  -0.430   0.766  0.00  0.00    -0.262 OA
ATOM      4  H   UNL d   1      -0.515  -0.453  -1.182  0.00  0.00     0.169 HD
ENDROOT
BRANCH   1   5
ATOM      5  C   UNL d   1       0.176   1.082   0.600  0.00  0.00     0.309 C 
ATOM      6  N   UNL d   1       0.852   1.866   1.502  0.00  0.00    -0.349 N 
ATOM      7  H   UNL d   1       1.786   1.556   1.759  0.00  0.00     0.163 HD
ATOM      8  O   UNL d   1      -0.903   1.332   0.081  0.00  0.00    -0.262 OA
BRANCH   6   9
ATOM      9  C   UNL d   1       0.417   3.190   1.861  0.00  0.00     0.161 C 
BRANCH   9  10
ATOM     10  C   UNL d   1       0.967   3.594   3.204  0.00  0.00    -0.041 A 
ATOM     11  C   UNL d   1       2.314   3.951   3.349  0.00  0.00     0.009 A 
ATOM     12  C   UNL d   1       2.826   4.300   4.603  0.00  0.00     0.001 A 
ATOM     13  C   UNL d   1       1.994   4.296   5.720  0.00  0.00     0.000 A 
ATOM     14  C   UNL d   1       0.651   3.939   5.588  0.00  0.00     0.001 A 
ATOM     15  C   UNL d   1       0.142   3.584   4.338  0.00  0.00     0.009 A 
ENDBRANCH   9  10
ENDBRANCH   6   9
ENDBRANCH   1   5
BRANCH   2  16
ATOM     16  C   UNL d   1       0.844  -2.011  -1.496  0.00  0.00     0.036 A 
ATOM     17  C   UNL d   1       1.935  -2.748  -1.026  0.00  0.00     0.048 A 
ATOM     18  C   UNL d   1       2.492  -3.781  -1.789  0.00  0.00     0.002 A 
ATOM     19  C   UNL d   1       1.906  -4.108  -3.015  0.00  0.00     0.018 A 
ATOM     20  C   UNL d   1       0.786  -3.410  -3.472  0.00  0.00     0.004 A 
ATOM     21  C   UNL d   1       0.254  -2.368  -2.711  0.00  0.00     0.029 A 
BRANCH  18  22
ATOM     22  S   UNL d   1       3.926  -4.713  -1.266  0.00  0.00    -0.134 SA
ATOM     23  C   UNL d   1       4.821  -3.482  -0.271  0.00  0.00     0.095 C 
ENDBRANCH  18  22
ENDBRANCH   2  16
TORSDOF 5
