REMARK  4 active torsions:
REMARK  status: ('A' for Active; 'I' for Inactive)
REMARK    1  A    between atoms: C_2  and  C_1 
REMARK       I    between atoms: N_3  and  C_1 
REMARK    2  A    between atoms: C_4  and  N_3 
REMARK    3  A    between atoms: C_8  and  C_4 
REMARK    4  A    between atoms: C_9  and  C_8 
ROOT
ATOM      1  C   UNL d   1       1.263   0.116  -1.684  0.00  0.00     0.258 C 
ATOM      2  N   UNL d   1       0.249   0.647  -0.905  0.00  0.00    -0.348 N 
ATOM      3  O   UNL d   1       1.065  -0.372  -2.788  0.00  0.00    -0.267 OA
ATOM      4  H   UNL d   1       0.505   1.014  -0.001  0.00  0.00     0.163 HD
ENDROOT
BRANCH   1   5
ATOM      5  C   UNL d   1       2.635   0.133  -1.089  0.00  0.00     0.108 A 
ATOM      6  C   UNL d   1       2.897   0.667   0.179  0.00  0.00     0.135 A 
ATOM      7  F   UNL d   1       1.925   1.252   0.899  0.00  0.00    -0.205 F 
ATOM      8  C   UNL d   1       4.165   0.611   0.755  0.00  0.00     0.043 A 
ATOM      9  C   UNL d   1       5.216   0.015   0.067  0.00  0.00     0.006 A 
ATOM     10  C   UNL d   1       4.987  -0.500  -1.207  0.00  0.00     0.043 A 
ATOM     11  C   UNL d   1       3.711  -0.438  -1.777  0.00  0.00     0.135 A 
ATOM     12  F   UNL d   1       3.566  -0.953  -3.005  0.00  0.00    -0.205 F 
ENDBRANCH   1   5
BRANCH   2  13
ATOM     13  C   UNL d   1      -1.190   0.651  -1.215  0.00  0.00     0.026 C 
ATOM     14  C   UNL d   1      -1.888   1.466  -0.107  0.00  0.00     0.038 C 
ATOM     15  C   UNL d   1      -1.439   1.426  -2.532  0.00  0.00     0.038 C 
BRANCH  13  16
ATOM     16  C   UNL d   1      -1.804  -0.781  -1.368  0.00  0.00     0.038 C 
BRANCH  16  17
ATOM     17  C   UNL d   1      -1.760  -1.857  -0.232  0.00  0.00    -0.049 C 
ATOM     18  C   UNL d   1      -2.579  -1.476   1.012  0.00  0.00     0.014 C 
ATOM     19  C   UNL d   1      -2.401  -3.152  -0.793  0.00  0.00     0.014 C 
ATOM     20  C   UNL d   1      -0.326  -2.203   0.193  0.00  0.00     0.014 C 
ENDBRANCH  16  17
ENDBRANCH  13  16
ENDBRANCH   2  13
TORSDOF 4
