REMARK  5 active torsions:
REMARK  status: ('A' for Active; 'I' for Inactive)
REMARK    1  A    between atoms: C_2  and  S_1 
REMARK    2  A    between atoms: N_16  and  S_1 
REMARK    3  A    between atoms: C_4  and  C_17 
REMARK    4  A    between atoms: C_23  and  C_7 
REMARK    5  A    between atoms: C_17  and  N_16 
ROOT
ATOM      1  N   UNL d   1       0.520   2.651  -1.455  0.00  0.00    -0.311 N 
ATOM      2  H   UNL d   1       0.487   3.556  -1.917  0.00  0.00     0.172 HD
ENDROOT
BRANCH   1   3
ATOM      3  S   UNL d   1       1.062   2.816   0.123  0.00  0.00     0.261 S 
ATOM      4  O   UNL d   1       0.459   4.006   0.671  0.00  0.00    -0.200 OA
ATOM      5  O   UNL d   1       0.920   1.524   0.761  0.00  0.00    -0.200 OA
BRANCH   3   6
ATOM      6  C   UNL d   1       2.775   3.131  -0.041  0.00  0.00     0.110 A 
ATOM      7  C   UNL d   1       3.279   4.226  -0.762  0.00  0.00     0.108 A 
ATOM      8  C   UNL d   1       4.713   4.495  -0.830  0.00  0.00     0.086 A 
ATOM      9  N   UNL d   1       2.651   5.163  -1.489  0.00  0.00    -0.238 N 
ATOM     10  N   UNL d   1       4.902   5.593  -1.568  0.00  0.00    -0.239 N 
ATOM     11  C   UNL d   1       5.668   3.677  -0.194  0.00  0.00     0.034 A 
ATOM     12  O   UNL d   1       3.642   6.011  -1.956  0.00  0.00    -0.156 OA
ATOM     13  HN  UNL d   1       5.793   6.033  -1.798  1.00  0.00     0.197 HD
ATOM     14  C   UNL d   1       5.134   2.578   0.505  0.00  0.00     0.004 A 
ATOM     15  C   UNL d   1       3.742   2.314   0.582  0.00  0.00     0.028 A 
ATOM     16  HN  UNL d   1       1.649   5.235  -1.662  1.00  0.00     0.197 HD
ENDBRANCH   3   6
ENDBRANCH   1   3
BRANCH   1  17
ATOM     17  C   UNL d   1       0.958   1.483  -2.217  0.00  0.00     0.176 C 
BRANCH  17  18
ATOM     18  C   UNL d   1       0.414   1.492  -3.609  0.00  0.00     0.021 A 
ATOM     19  C   UNL d   1       0.039   0.357  -4.423  0.00  0.00     0.075 A 
ATOM     20  N   UNL d   1      -0.382   0.776  -5.628  0.00  0.00    -0.260 N 
ATOM     21  O   UNL d   1      -0.287   2.140  -5.635  0.00  0.00    -0.242 OA
ATOM     22  HN  UNL d   1      -0.710   0.188  -6.394  1.00  0.00     0.195 HD
ATOM     23  C   UNL d   1       0.192   2.573  -4.446  0.00  0.00     0.083 A 
ATOM     24  C   UNL d   1       0.348   4.038  -4.340  0.00  0.00     0.079 C 
BRANCH  19  25
ATOM     25  C   UNL d   1       0.054  -1.087  -4.141  0.00  0.00    -0.007 A 
ATOM     26  C   UNL d   1       0.988  -1.675  -3.278  0.00  0.00     0.014 A 
ATOM     27  C   UNL d   1       0.974  -3.056  -3.041  0.00  0.00     0.001 A 
ATOM     28  C   UNL d   1       0.044  -3.871  -3.682  0.00  0.00     0.000 A 
ATOM     29  C   UNL d   1      -0.875  -3.309  -4.562  0.00  0.00     0.001 A 
ATOM     30  C   UNL d   1      -0.871  -1.929  -4.786  0.00  0.00     0.014 A 
ENDBRANCH  19  25
ENDBRANCH  17  18
ENDBRANCH   1  17
TORSDOF 5
