REMARK  6 active torsions:
REMARK  status: ('A' for Active; 'I' for Inactive)
REMARK    1  A    between atoms: N_7  and  C_1 
REMARK    2  A    between atoms: C_14  and  N_2 
REMARK    3  A    between atoms: C_9  and  C_6 
REMARK       I    between atoms: C_8  and  N_7 
REMARK       I    between atoms: N_13  and  C_8 
REMARK    4  A    between atoms: C_10  and  O_15 
REMARK    5  A    between atoms: C_20  and  N_13 
REMARK    6  A    between atoms: O_15  and  C_21 
ROOT
ATOM      1  N   UNL d   1      -0.768  -2.507  -0.018  0.00  0.00    -0.293 N 
ATOM      2  C   UNL d   1      -1.889  -2.923   0.626  0.00  0.00     0.326 C 
ATOM      3  N   UNL d   1      -2.637  -3.918   0.063  0.00  0.00    -0.309 N 
ATOM      4  O   UNL d   1      -2.273  -2.467   1.703  0.00  0.00    -0.247 OA
ATOM      5  H   UNL d   1      -0.208  -3.236  -0.430  0.00  0.00     0.172 HD
ATOM      6  H   UNL d   1      -3.418  -4.116   0.679  0.00  0.00     0.170 HD
ENDROOT
BRANCH   1   7
ATOM      7  C   UNL d   1      -0.131  -1.308   0.285  0.00  0.00     0.133 C 
ATOM      8  N   UNL d   1       1.243  -1.130   0.158  0.00  0.00    -0.240 N 
ATOM      9  N   UNL d   1       1.572   0.175   0.072  0.00  0.00    -0.296 N 
ATOM     10  C   UNL d   1       0.473   0.812   0.472  0.00  0.00     0.034 C 
ATOM     11  HN  UNL d   1       2.457   0.581  -0.231  1.00  0.00     0.187 HD
ATOM     12  C   UNL d   1      -0.616  -0.068   0.670  0.00  0.00     0.077 C 
BRANCH   8  13
ATOM     13  C   UNL d   1       2.273  -2.100   0.248  0.00  0.00     0.058 A 
ATOM     14  C   UNL d   1       3.526  -1.810  -0.308  0.00  0.00     0.031 A 
ATOM     15  C   UNL d   1       4.588  -2.687  -0.117  0.00  0.00     0.002 A 
ATOM     16  C   UNL d   1       4.407  -3.845   0.649  0.00  0.00     0.000 A 
ATOM     17  C   UNL d   1       3.159  -4.131   1.199  0.00  0.00     0.002 A 
ATOM     18  C   UNL d   1       2.087  -3.274   0.995  0.00  0.00     0.031 A 
ENDBRANCH   8  13
BRANCH  10  19
ATOM     19  C   UNL d   1       0.509   2.323   0.572  0.00  0.00     0.037 A 
ATOM     20  C   UNL d   1      -0.455   3.114   1.424  0.00  0.00     0.011 A 
ATOM     21  C   UNL d   1      -0.624   3.103  -0.057  0.00  0.00     0.011 A 
ENDBRANCH  10  19
ENDBRANCH   1   7
BRANCH   3  22
ATOM     22  C   UNL d   1      -2.737  -4.474  -1.231  0.00  0.00     0.036 A 
ATOM     23  C   UNL d   1      -1.776  -4.429  -2.240  0.00  0.00     0.032 A 
ATOM     24  C   UNL d   1      -2.034  -4.982  -3.512  0.00  0.00     0.039 A 
ATOM     25  C   UNL d   1      -3.263  -5.572  -3.800  0.00  0.00     0.078 A 
ATOM     26  C   UNL d   1      -4.216  -5.645  -2.787  0.00  0.00     0.039 A 
ATOM     27  C   UNL d   1      -3.952  -5.114  -1.519  0.00  0.00     0.032 A 
BRANCH  25  28
ATOM     28  O   UNL d   1      -3.590  -6.213  -4.958  0.00  0.00    -0.255 OA
BRANCH  28  29
ATOM     29  C   UNL d   1      -3.179  -5.631  -6.186  0.00  0.00     0.530 C 
ATOM     30  F   UNL d   1      -1.852  -5.417  -6.241  0.00  0.00    -0.144 F 
ATOM     31  F   UNL d   1      -3.499  -6.484  -7.186  0.00  0.00    -0.144 F 
ATOM     32  F   UNL d   1      -3.833  -4.467  -6.406  0.00  0.00    -0.144 F 
ENDBRANCH  28  29
ENDBRANCH  25  28
ENDBRANCH   3  22
TORSDOF 6
