REMARK  4 active torsions:
REMARK  status: ('A' for Active; 'I' for Inactive)
REMARK       I    between atoms: N_4  and  C_1 
REMARK    1  A    between atoms: O_9  and  C_1 
REMARK    2  A    between atoms: N_2  and  N_4 
REMARK    3  A    between atoms: C_6  and  C_8 
REMARK    4  A    between atoms: C_11  and  O_9 
ROOT
ATOM      1  C   UNL d   1       0.885  -0.052  -0.143  0.00  0.00     0.379 C 
ATOM      2  N   UNL d   1       0.287  -1.081  -0.840  0.00  0.00    -0.246 N 
ATOM      3  O   UNL d   1       0.220   0.778   0.469  0.00  0.00    -0.237 OA
ATOM      4  H   UNL d   1      -0.725  -1.110  -0.816  0.00  0.00     0.192 HD
ENDROOT
BRANCH   2   5
ATOM      5  N   UNL d   1       1.002  -2.038  -1.494  0.00  0.00    -0.308 N 
ATOM      6  C   UNL d   1       0.309  -2.951  -2.092  0.00  0.00     0.107 C 
ATOM      7  HN  UNL d   1       2.022  -2.034  -1.511  1.00  0.00     0.186 HD
BRANCH   6   8
ATOM      8  C   UNL d   1       0.994  -4.036  -2.823  0.00  0.00     0.014 C 
ATOM      9  C   UNL d   1       0.319  -5.000  -3.466  0.00  0.00    -0.029 C 
ATOM     10  C   UNL d   1       1.010  -6.100  -4.209  0.00  0.00     0.036 C 
ENDBRANCH   6   8
ENDBRANCH   2   5
BRANCH   1  11
ATOM     11  O   UNL d   1       2.244  -0.066  -0.209  0.00  0.00    -0.303 OA
BRANCH  11  12
ATOM     12  C   UNL d   1       2.922   0.954   0.537  0.00  0.00     0.176 C 
ATOM     13  C   UNL d   1       3.024   2.234  -0.272  0.00  0.00     0.034 C 
ENDBRANCH  11  12
ENDBRANCH   1  11
TORSDOF 4
