REMARK  4 active torsions:
REMARK  status: ('A' for Active; 'I' for Inactive)
REMARK    1  A    between atoms: C_2  and  C_1 
REMARK    2  A    between atoms: C_12  and  C_5 
REMARK    3  A    between atoms: C_6  and  N_14 
REMARK    4  A    between atoms: N_14  and  N_9 
ROOT
ATOM      1  C   UNL d   1       0.516  -0.793  -1.252  0.00  0.00     0.065 A 
ATOM      2  N   UNL d   1       0.298  -2.753  -2.654  0.00  0.00    -0.363 N 
ATOM      3  HN  UNL d   1       0.403  -3.759  -2.784  1.00  0.00     0.165 HD
ATOM      4  C   UNL d   1      -0.186  -1.956  -3.650  0.00  0.00     0.071 A 
ATOM      5  C   UNL d   1       0.006  -0.002  -2.286  0.00  0.00     0.043 A 
ATOM      6  C   UNL d   1      -0.355  -0.577  -3.506  0.00  0.00     0.062 A 
ATOM      7  C   UNL d   1       0.634  -2.155  -1.485  0.00  0.00     0.104 A 
ATOM      8 CL   UNL d   1      -0.973   0.500  -4.704  0.00  0.00    -0.082 Cl
ENDROOT
BRANCH   4   9
ATOM      9  C   UNL d   1      -0.486  -2.713  -4.891  0.00  0.00     0.138 C 
ATOM     10  N   UNL d   1      -0.926  -2.127  -5.954  0.00  0.00    -0.307 N 
ATOM     11  HN  UNL d   1      -1.095  -1.121  -5.972  1.00  0.00     0.186 HD
BRANCH  10  12
ATOM     12  N   UNL d   1      -1.156  -2.900  -7.048  0.00  0.00    -0.277 N 
ATOM     13  H   UNL d   1      -0.971  -3.899  -7.041  0.00  0.00     0.189 HD
BRANCH  12  14
ATOM     14  C   UNL d   1      -1.621  -2.312  -8.197  0.00  0.00     0.184 C 
ATOM     15  S   UNL d   1      -1.908  -3.160  -9.592  0.00  0.00    -0.040 SA
ATOM     16  N   UNL d   1      -1.831  -0.974  -8.105  0.00  0.00    -0.375 N 
ATOM     17  H   UNL d   1      -1.619  -0.537  -7.215  0.00  0.00     0.158 HD
ATOM     18  H   UNL d   1      -2.166  -0.427  -8.884  0.00  0.00     0.158 HD
ENDBRANCH  12  14
ENDBRANCH  10  12
ENDBRANCH   4   9
BRANCH   1  19
ATOM     19  C   UNL d   1       0.930  -0.211   0.065  0.00  0.00     0.418 C 
ATOM     20  F   UNL d   1       0.795   1.142   0.122  0.00  0.00    -0.166 F 
ATOM     21  F   UNL d   1       2.232  -0.470   0.359  0.00  0.00    -0.166 F 
ATOM     22  F   UNL d   1       0.202  -0.705   1.103  0.00  0.00    -0.166 F 
ENDBRANCH   1  19
TORSDOF 4
