REMARK  4 active torsions:
REMARK  status: ('A' for Active; 'I' for Inactive)
REMARK    1  A    between atoms: S_15  and  C_2 
REMARK    2  A    between atoms: C_3  and  S_13 
REMARK    3  A    between atoms: C_14  and  C_4 
REMARK    4  A    between atoms: S_13  and  C_14 
ROOT
ATOM      1  S   UNL d   1      -4.505  -1.997  -2.879  0.00  0.00    -0.119 SA
ENDROOT
BRANCH   1   2
ATOM      2  C   UNL d   1      -4.676  -1.699  -1.163  0.00  0.00     0.035 A 
ATOM      3  C   UNL d   1      -4.547  -2.513  -0.052  0.00  0.00     0.023 A 
ATOM      4  N   UNL d   1      -4.719  -1.711   1.056  0.00  0.00    -0.358 N 
ATOM      5  C   UNL d   1      -4.286  -3.961   0.152  0.00  0.00     0.069 C 
ATOM      6  C   UNL d   1      -5.027  -0.422   0.696  0.00  0.00     0.044 A 
ATOM      7  H   UNL d   1      -4.653  -2.026   2.013  0.00  0.00     0.166 HD
ATOM      8  C   UNL d   1      -5.033  -0.387  -0.696  0.00  0.00     0.009 A 
ATOM      9  C   UNL d   1      -5.305   0.696   1.490  0.00  0.00     0.030 A 
ATOM     10  C   UNL d   1      -5.363   0.838  -1.326  0.00  0.00     0.015 A 
ATOM     11  C   UNL d   1      -5.666   1.961  -0.549  0.00  0.00     0.001 A 
ATOM     12  C   UNL d   1      -5.627   1.890   0.840  0.00  0.00     0.002 A 
ENDBRANCH   1   2
BRANCH   1  13
ATOM     13  C   UNL d   1      -4.238  -3.748  -3.158  0.00  0.00     0.157 C 
BRANCH  13  14
ATOM     14  C   UNL d   1      -2.815  -4.203  -3.188  0.00  0.00     0.109 A 
ATOM     15  N   UNL d   1      -1.785  -3.694  -3.959  0.00  0.00    -0.319 N 
ATOM     16  C   UNL d   1      -0.724  -4.538  -3.756  0.00  0.00     0.159 A 
ATOM     17  C   UNL d   1      -1.829  -2.534  -4.810  0.00  0.00     0.159 C 
ATOM     18  N   UNL d   1      -1.065  -5.487  -2.922  0.00  0.00    -0.279 N 
ATOM     19  N   UNL d   1      -2.371  -5.281  -2.565  0.00  0.00    -0.286 N 
ATOM     20  HN  UNL d   1      -0.465  -6.245  -2.596  1.00  0.00     0.189 HD
ATOM     21  HN  UNL d   1      -2.912  -5.862  -1.925  1.00  0.00     0.188 HD
BRANCH  16  22
ATOM     22  S   UNL d   1       0.826  -4.414  -4.514  0.00  0.00    -0.105 SA
ATOM     23  H   UNL d   1       0.864  -3.099  -4.752  0.00  0.00     0.110 HD
ENDBRANCH  16  22
ENDBRANCH  13  14
ENDBRANCH   1  13
TORSDOF 4
