REMARK  5 active torsions:
REMARK  status: ('A' for Active; 'I' for Inactive)
REMARK    1  A    between atoms: C_8  and  C_1 
REMARK    2  A    between atoms: C_11  and  C_2 
REMARK    3  A    between atoms: C_9  and  N_5 
REMARK    4  A    between atoms: N_7  and  C_8 
REMARK    5  A    between atoms: O_23  and  C_14 
ROOT
ATOM      1  C   UNL d   1       1.899   1.450   0.481  0.00  0.00     0.315 C 
ENDROOT
BRANCH   1   2
ATOM      2  N   UNL d   1       3.142   1.034  -0.173  0.00  0.00     0.096 N 
ATOM      3  C   UNL d   1       4.012   0.245   0.721  0.00  0.00     0.292 C 
ATOM      4  C   UNL d   1       3.693  -1.267   0.864  0.00  0.00     0.153 C 
ATOM      5  N   UNL d   1       3.507  -1.912  -0.453  0.00  0.00    -0.375 N 
ATOM      6  C   UNL d   1       2.532  -1.198  -1.294  0.00  0.00     0.153 C 
ATOM      7  C   UNL d   1       2.955   0.284  -1.439  0.00  0.00     0.292 C 
BRANCH   5   8
ATOM      8  C   UNL d   1       3.790  -3.272  -0.636  0.00  0.00     0.064 A 
ATOM      9  C   UNL d   1       3.937  -3.906  -1.903  0.00  0.00     0.094 A 
ATOM     10  C   UNL d   1       4.382  -5.243  -1.997  0.00  0.00     0.039 A 
ATOM     11  C   UNL d   1       4.645  -5.999  -0.861  0.00  0.00     0.003 A 
ATOM     12  C   UNL d   1       4.457  -5.429   0.384  0.00  0.00     0.002 A 
ATOM     13  C   UNL d   1       4.035  -4.098   0.487  0.00  0.00     0.032 A 
BRANCH   9  14
ATOM     14  O   UNL d   1       3.733  -3.171  -3.051  0.00  0.00    -0.354 OA
ATOM     15  C   UNL d   1       3.323  -3.908  -4.202  0.00  0.00     0.210 C 
ENDBRANCH   9  14
ENDBRANCH   5   8
ENDBRANCH   1   2
BRANCH   1  16
ATOM     16  C   UNL d   1       1.105   2.344  -0.424  0.00  0.00     0.016 A 
ATOM     17  C   UNL d   1       1.486   3.575  -1.067  0.00  0.00     0.067 A 
ATOM     18  N   UNL d   1       0.538   3.972  -1.929  0.00  0.00    -0.300 N 
ATOM     19  N   UNL d   1      -0.448   3.077  -1.790  0.00  0.00    -0.311 N 
ATOM     20  HN  UNL d   1       0.563   4.778  -2.554  1.00  0.00     0.187 HD
ATOM     21  C   UNL d   1      -0.185   2.119  -0.862  0.00  0.00     0.118 A 
ATOM     22  H   UNL d   1      -1.274   3.182  -2.365  0.00  0.00     0.186 HD
BRANCH  17  23
ATOM     23  C   UNL d   1       2.705   4.369  -0.885  0.00  0.00    -0.007 A 
ATOM     24  C   UNL d   1       3.346   4.966  -1.982  0.00  0.00     0.017 A 
ATOM     25  C   UNL d   1       4.491   5.747  -1.800  0.00  0.00     0.043 A 
ATOM     26  C   UNL d   1       4.995   5.931  -0.513  0.00  0.00     0.116 A 
ATOM     27  C   UNL d   1       4.367   5.361   0.584  0.00  0.00     0.043 A 
ATOM     28  F   UNL d   1       6.091   6.679  -0.334  0.00  0.00    -0.206 F 
ATOM     29  C   UNL d   1       3.221   4.590   0.402  0.00  0.00     0.017 A 
ENDBRANCH  17  23
ENDBRANCH   1  16
TORSDOF 5
