REMARK  3 active torsions:
REMARK  status: ('A' for Active; 'I' for Inactive)
REMARK       I    between atoms: N_2  and  C_1 
REMARK       I    between atoms: N_3  and  C_1 
REMARK    1  A    between atoms: C_6  and  N_2 
REMARK    2  A    between atoms: C_5  and  N_3 
REMARK    3  A    between atoms: C_7  and  C_5 
ROOT
ATOM      1  C   UNL d   1       1.010   0.027  -0.009  0.00  0.00     0.320 C 
ATOM      2  N   UNL d   1       2.379  -0.133  -0.011  0.00  0.00    -0.309 N 
ATOM      3  N   UNL d   1       0.359  -1.182   0.087  0.00  0.00    -0.339 N 
ATOM      4  O   UNL d   1       0.402   1.083  -0.123  0.00  0.00    -0.247 OA
ATOM      5  H   UNL d   1       2.710  -1.079  -0.093  0.00  0.00     0.170 HD
ATOM      6  H   UNL d   1       0.855  -1.986   0.437  0.00  0.00     0.164 HD
ENDROOT
BRANCH   2   7
ATOM      7  C   UNL d   1       3.351   0.886  -0.125  0.00  0.00     0.036 A 
ATOM      8  C   UNL d   1       3.059   2.249  -0.028  0.00  0.00     0.029 A 
ATOM      9  C   UNL d   1       4.068   3.206  -0.179  0.00  0.00     0.002 A 
ATOM     10  C   UNL d   1       5.379   2.810  -0.425  0.00  0.00     0.000 A 
ATOM     11  C   UNL d   1       5.685   1.453  -0.508  0.00  0.00     0.002 A 
ATOM     12  C   UNL d   1       4.677   0.496  -0.352  0.00  0.00     0.029 A 
ENDBRANCH   2   7
BRANCH   3  13
ATOM     13  C   UNL d   1      -1.082  -1.270  -0.007  0.00  0.00     0.162 C 
BRANCH  13  14
ATOM     14  C   UNL d   1      -1.708  -1.804   1.255  0.00  0.00    -0.040 A 
ATOM     15  C   UNL d   1      -1.652  -1.066   2.446  0.00  0.00     0.009 A 
ATOM     16  C   UNL d   1      -2.285  -1.533   3.601  0.00  0.00     0.001 A 
ATOM     17  C   UNL d   1      -2.980  -2.741   3.576  0.00  0.00     0.000 A 
ATOM     18  C   UNL d   1      -3.038  -3.486   2.400  0.00  0.00     0.001 A 
ATOM     19  C   UNL d   1      -2.405  -3.021   1.246  0.00  0.00     0.009 A 
ENDBRANCH  13  14
ENDBRANCH   3  13
TORSDOF 3
