REMARK  9 active torsions:
REMARK  status: ('A' for Active; 'I' for Inactive)
REMARK    1  A    between atoms: N_3  and  C_1 
REMARK    2  A    between atoms: N_6  and  C_1 
REMARK    3  A    between atoms: C_2  and  C_5 
REMARK    4  A    between atoms: C_9  and  N_3 
REMARK    5  A    between atoms: C_13  and  N_6 
REMARK    6  A    between atoms: C_20  and  N_6 
REMARK    7  A    between atoms: C_14  and  C_13 
REMARK    8  A    between atoms: C_18  and  C_14 
REMARK    9  A    between atoms: C_19  and  C_20 
ROOT
ATOM      1  N   UNL d   1      -1.161  -2.400  -2.045  0.00  0.00    -0.197 NA
ATOM      2  C   UNL d   1      -1.522  -1.629  -1.259  0.00  0.00     0.060 C 
ATOM      3  C   UNL d   1      -1.958  -0.636  -0.267  0.00  0.00     0.143 C 
ENDROOT
BRANCH   3   4
ATOM      4  C   UNL d   1      -1.175  -0.763   1.046  0.00  0.00     0.139 C 
BRANCH   4   5
ATOM      5  N   UNL d   1       0.295  -0.708   0.925  0.00  0.00    -0.357 N 
BRANCH   5   6
ATOM      6  C   UNL d   1       0.956   0.273   0.176  0.00  0.00     0.174 C 
ATOM      7  S   UNL d   1       0.511   1.891   0.203  0.00  0.00    -0.041 SA
BRANCH   6   8
ATOM      8  N   UNL d   1       1.946  -0.289  -0.621  0.00  0.00    -0.333 N 
ATOM      9  H   UNL d   1       1.674  -1.175  -1.032  0.00  0.00     0.168 HD
BRANCH   8  10
ATOM     10  C   UNL d   1       3.109   0.318  -1.135  0.00  0.00     0.035 A 
ATOM     11  C   UNL d   1       3.658  -0.175  -2.325  0.00  0.00     0.045 A 
ATOM     12  C   UNL d   1       4.859   0.356  -2.832  0.00  0.00     0.050 A 
ATOM     13  C   UNL d   1       5.519   1.362  -2.110  0.00  0.00     0.016 A 
ATOM     14  C   UNL d   1       4.988   1.837  -0.914  0.00  0.00     0.003 A 
ATOM     15  C   UNL d   1       3.787   1.318  -0.433  0.00  0.00     0.029 A 
BRANCH  12  16
ATOM     16  C   UNL d   1       5.461  -0.138  -4.124  0.00  0.00     0.417 C 
ATOM     17  F   UNL d   1       4.703  -1.071  -4.763  0.00  0.00    -0.166 F 
ATOM     18  F   UNL d   1       5.657   0.865  -5.025  0.00  0.00    -0.166 F 
ATOM     19  F   UNL d   1       6.682  -0.713  -3.938  0.00  0.00    -0.166 F 
ENDBRANCH  12  16
ENDBRANCH   8  10
ENDBRANCH   6   8
ENDBRANCH   5   6
BRANCH   5  20
ATOM     20  C   UNL d   1       1.065  -1.568   1.857  0.00  0.00     0.131 C 
BRANCH  20  21
ATOM     21  C   UNL d   1       2.282  -0.912   2.538  0.00  0.00     0.077 C 
BRANCH  21  22
ATOM     22  C   UNL d   1       2.955  -1.802   3.562  0.00  0.00     0.010 A 
ATOM     23  N   UNL d   1       2.349  -2.967   3.898  0.00  0.00    -0.369 N 
ATOM     24  C   UNL d   1       2.964  -3.755   4.810  0.00  0.00     0.088 A 
ATOM     25  HN  UNL d   1       1.461  -3.240   3.478  1.00  0.00     0.165 HD
ATOM     26  C   UNL d   1       4.166  -3.436   5.417  0.00  0.00     0.017 A 
ATOM     27  C   UNL d   1       4.773  -2.236   5.074  0.00  0.00     0.003 A 
ATOM     28  C   UNL d   1       4.162  -1.403   4.138  0.00  0.00     0.025 A 
ENDBRANCH  21  22
ENDBRANCH  20  21
ENDBRANCH   5  20
ENDBRANCH   4   5
ENDBRANCH   3   4
TORSDOF 9
