REMARK  9 active torsions:
REMARK  status: ('A' for Active; 'I' for Inactive)
REMARK    1  A    between atoms: C_5  and  S_1 
REMARK    2  A    between atoms: N_6  and  S_1 
REMARK    3  A    between atoms: N_3  and  C_2 
REMARK    4  A    between atoms: C_9  and  N_6 
REMARK    5  A    between atoms: S_14  and  C_8 
REMARK    6  A    between atoms: C_20  and  S_14 
REMARK    7  A    between atoms: C_16  and  C_20 
REMARK    8  A    between atoms: O_21  and  C_16 
REMARK    9  A    between atoms: C_24  and  O_21 
ROOT
ATOM      1  C   UNL d   1      -3.280  -0.346  -0.481  0.00  0.00    -0.085 C 
ATOM      2  C   UNL d   1      -2.745   0.364   0.699  0.00  0.00     0.103 C 
ATOM      3  C   UNL d   1      -3.791  -0.983  -1.363  0.00  0.00     0.015 C 
ATOM      4  C   UNL d   1      -3.053   1.872   0.625  0.00  0.00     0.045 C 
ATOM      5  C   UNL d   1      -3.488  -0.250   1.921  0.00  0.00     0.045 C 
ATOM      6  C   UNL d   1      -2.798   2.607   1.942  0.00  0.00     0.004 C 
ATOM      7  C   UNL d   1      -3.302   0.507   3.233  0.00  0.00     0.004 C 
ATOM      8  C   UNL d   1      -3.601   1.992   3.081  0.00  0.00     0.000 C 
ENDROOT
BRANCH   2   9
ATOM      9  N   UNL d   1      -1.303   0.103   0.875  0.00  0.00    -0.294 N 
ATOM     10  H   UNL d   1      -0.939   0.022   1.818  0.00  0.00     0.174 HD
BRANCH   9  11
ATOM     11  S   UNL d   1      -0.106   0.414  -0.252  0.00  0.00     0.260 S 
ATOM     12  O   UNL d   1      -0.405   1.633  -0.967  0.00  0.00    -0.200 OA
ATOM     13  O   UNL d   1       1.143   0.250   0.463  0.00  0.00    -0.200 OA
BRANCH  11  14
ATOM     14  C   UNL d   1      -0.229  -0.944  -1.390  0.00  0.00     0.082 A 
ATOM     15  C   UNL d   1      -0.845  -0.766  -2.628  0.00  0.00     0.062 A 
ATOM     16  C   UNL d   1      -1.052  -1.886  -3.454  0.00  0.00     0.121 A 
ATOM     17  C   UNL d   1      -0.559  -3.160  -3.125  0.00  0.00     0.034 A 
ATOM     18  C   UNL d   1       0.115  -3.279  -1.892  0.00  0.00     0.023 A 
ATOM     19  C   UNL d   1       0.273  -2.190  -1.026  0.00  0.00     0.027 A 
BRANCH  16  20
ATOM     20  N   UNL d   1      -1.940  -1.682  -4.579  0.00  0.00    -0.114 N 
ATOM     21  O   UNL d   1      -1.631  -0.806  -5.396  0.00  0.00    -0.532 OA
ATOM     22  O   UNL d   1      -2.970  -2.368  -4.623  0.00  0.00    -0.532 OA
ENDBRANCH  16  20
BRANCH  17  23
ATOM     23  S   UNL d   1      -0.707  -4.719  -4.003  0.00  0.00    -0.118 SA
BRANCH  23  24
ATOM     24  C   UNL d   1      -0.539  -4.338  -5.777  0.00  0.00     0.190 C 
BRANCH  24  25
ATOM     25  C   UNL d   1       0.655  -3.494  -6.153  0.00  0.00     0.268 C 
ATOM     26  O   UNL d   1       1.397  -2.892  -5.390  0.00  0.00    -0.264 OA
BRANCH  25  27
ATOM     27  O   UNL d   1       0.705  -3.419  -7.517  0.00  0.00    -0.321 OA
BRANCH  27  28
ATOM     28  C   UNL d   1       1.528  -2.377  -8.061  0.00  0.00     0.174 C 
ATOM     29  C   UNL d   1       0.723  -1.092  -8.098  0.00  0.00     0.034 C 
ENDBRANCH  27  28
ENDBRANCH  25  27
ENDBRANCH  24  25
ENDBRANCH  23  24
ENDBRANCH  17  23
ENDBRANCH  11  14
ENDBRANCH   9  11
ENDBRANCH   2   9
TORSDOF 9
