REMARK  1 active torsions:
REMARK  status: ('A' for Active; 'I' for Inactive)
REMARK    1  A    between atoms: C_9  and  C_4 
ROOT
ATOM      1  C   UNL d   1      -2.073   0.312   0.060  0.00  0.00    -0.006 C 
ATOM      2  C   UNL d   1      -1.087  -0.814   0.033  0.00  0.00     0.189 C 
ATOM      3  C   UNL d   1       0.355  -0.422   0.026  0.00  0.00     0.021 A 
ATOM      4  C   UNL d   1      -3.280   0.113  -0.499  0.00  0.00     0.022 C 
ATOM      5  C   UNL d   1       0.733   0.933  -0.030  0.00  0.00    -0.044 A 
ATOM      6  C   UNL d   1      -1.565   1.585   0.673  0.00  0.00     0.047 C 
ATOM      7  O   UNL d   1      -1.433  -1.990   0.002  0.00  0.00    -0.287 OA
ATOM      8  C   UNL d   1      -0.304   2.026  -0.059  0.00  0.00     0.044 C 
ATOM      9  C   UNL d   1       1.336  -1.421   0.044  0.00  0.00     0.016 A 
ATOM     10  C   UNL d   1       2.093   1.266  -0.106  0.00  0.00     0.008 A 
ATOM     11  C   UNL d   1       2.688  -1.075  -0.011  0.00  0.00     0.001 A 
ATOM     12  C   UNL d   1       3.064   0.265  -0.091  0.00  0.00     0.001 A 
ENDROOT
BRANCH   4  13
ATOM     13  C   UNL d   1      -4.279   1.173  -0.643  0.00  0.00    -0.036 A 
ATOM     14  C   UNL d   1      -4.274   1.984  -1.786  0.00  0.00     0.011 A 
ATOM     15  C   UNL d   1      -5.187   3.033  -1.908  0.00  0.00     0.001 A 
ATOM     16  C   UNL d   1      -6.117   3.269  -0.897  0.00  0.00     0.000 A 
ATOM     17  C   UNL d   1      -6.131   2.460   0.240  0.00  0.00     0.001 A 
ATOM     18  C   UNL d   1      -5.211   1.417   0.370  0.00  0.00     0.011 A 
ENDBRANCH   4  13
TORSDOF 1
