REMARK  3 active torsions:
REMARK  status: ('A' for Active; 'I' for Inactive)
REMARK       I    between atoms: N_2  and  C_1 
REMARK    1  A    between atoms: O_5  and  C_1 
REMARK    2  A    between atoms: C_3  and  N_2 
REMARK    3  A    between atoms: C_9  and  O_5 
ROOT
ATOM      1  C   UNL d   1       1.098  -0.044   0.092  0.00  0.00     0.365 C 
ATOM      2  N   UNL d   1       0.483   0.986   0.747  0.00  0.00    -0.302 N 
ATOM      3  O   UNL d   1       2.294  -0.142  -0.120  0.00  0.00    -0.238 OA
ATOM      4  H   UNL d   1      -0.415   0.748   1.133  0.00  0.00     0.171 HD
ENDROOT
BRANCH   2   5
ATOM      5  C   UNL d   1       1.171   2.126   1.202  0.00  0.00     0.042 A 
ATOM      6  C   UNL d   1       0.909   2.660   2.476  0.00  0.00    -0.034 A 
ATOM      7  C   UNL d   1       1.587   3.829   2.873  0.00  0.00     0.028 A 
ATOM      8  C   UNL d   1       0.013   2.002   3.487  0.00  0.00     0.050 C 
ATOM      9  C   UNL d   1       2.506   4.446   2.025  0.00  0.00     0.011 A 
ATOM     10  C   UNL d   1       2.769   3.913   0.770  0.00  0.00     0.021 A 
ATOM     11 BR   UNL d   1       3.415   6.003   2.593  0.00  0.00    -0.051 Br
ATOM     12  C   UNL d   1       2.105   2.754   0.364  0.00  0.00     0.031 A 
ENDBRANCH   2   5
BRANCH   1  13
ATOM     13  O   UNL d   1       0.179  -1.001  -0.224  0.00  0.00    -0.294 OA
BRANCH  13  14
ATOM     14  C   UNL d   1       0.610  -2.273  -0.783  0.00  0.00     0.061 C 
ATOM     15  C   UNL d   1       1.272  -3.117   0.312  0.00  0.00     0.046 C 
ATOM     16  C   UNL d   1      -0.679  -2.976  -1.237  0.00  0.00     0.046 C 
ATOM     17  C   UNL d   1       1.518  -2.125  -2.013  0.00  0.00     0.046 C 
ENDBRANCH  13  14
ENDBRANCH   1  13
TORSDOF 3
