REMARK  6 active torsions:
REMARK  status: ('A' for Active; 'I' for Inactive)
REMARK    1  A    between atoms: C_2  and  S_1 
REMARK    2  A    between atoms: N_3  and  S_1 
REMARK    3  A    between atoms: C_4  and  N_5 
REMARK       I    between atoms: C_17  and  N_18 
REMARK    4  A    between atoms: N_18  and  C_21 
REMARK    5  A    between atoms: C_29  and  C_23 
REMARK    6  A    between atoms: C_30  and  C_29 
ROOT
ATOM      1  N   UNL d   1       0.440   1.279   0.045  0.00  0.00    -0.204 NA
ATOM      2  N   UNL d   1      -0.734   2.454   2.460  0.00  0.00    -0.252 NA
ATOM      3  C   UNL d   1       1.006   2.546   0.655  0.00  0.00     0.122 C 
ATOM      4  C   UNL d   1      -1.013   1.162   0.412  0.00  0.00     0.122 C 
ATOM      5  C   UNL d   1      -1.200   1.166   1.933  0.00  0.00     0.114 C 
ATOM      6  C   UNL d   1       0.677   2.755   2.168  0.00  0.00     0.114 C 
ENDROOT
BRANCH   1   7
ATOM      7  S   UNL d   1       1.307  -0.180   0.312  0.00  0.00     0.245 S 
ATOM      8  O   UNL d   1       1.719  -0.132   1.699  0.00  0.00    -0.206 OA
ATOM      9  O   UNL d   1       0.519  -1.269  -0.213  0.00  0.00    -0.206 OA
BRANCH   7  10
ATOM     10  C   UNL d   1       2.739  -0.054  -0.718  0.00  0.00     0.096 A 
ATOM     11  C   UNL d   1       3.976  -0.535  -0.296  0.00  0.00     0.059 A 
ATOM     12  C   UNL d   1       5.118  -0.250  -1.052  0.00  0.00     0.055 A 
ATOM     13 CL   UNL d   1       4.214  -1.554   1.078  0.00  0.00    -0.083 Cl
ATOM     14  C   UNL d   1       5.032   0.461  -2.253  0.00  0.00     0.036 A 
ATOM     15  C   UNL d   1       3.771   0.808  -2.740  0.00  0.00     0.031 A 
ATOM     16  C   UNL d   1       2.626   0.565  -1.970  0.00  0.00     0.029 A 
BRANCH  14  17
ATOM     17  N   UNL d   1       6.252   0.805  -2.870  0.00  0.00    -0.327 N 
ATOM     18  C   UNL d   1       6.436   1.533  -4.029  0.00  0.00     0.218 C 
ATOM     19  O   UNL d   1       5.561   1.919  -4.796  0.00  0.00    -0.274 OA
ATOM     20  C   UNL d   1       7.890   1.833  -4.305  0.00  0.00     0.117 C 
ATOM     21  H   UNL d   1       7.090   0.537  -2.368  0.00  0.00     0.169 HD
ENDBRANCH  14  17
ENDBRANCH   7  10
ENDBRANCH   1   7
BRANCH   2  22
ATOM     22  C   UNL d   1      -1.114   2.652   3.789  0.00  0.00     0.159 A 
ATOM     23  N   UNL d   1      -1.626   1.612   4.472  0.00  0.00    -0.342 N 
ATOM     24  C   UNL d   1      -2.276   1.861   5.621  0.00  0.00     0.099 A 
ATOM     25  HN  UNL d   1      -1.523   0.658   4.126  1.00  0.00     0.167 HD
ATOM     26  C   UNL d   1      -2.472   3.121   6.129  0.00  0.00    -0.027 A 
ATOM     27  C   UNL d   1      -1.835   4.113   5.414  0.00  0.00     0.099 A 
ATOM     28  N   UNL d   1      -1.145   3.906   4.265  0.00  0.00    -0.342 N 
ATOM     29  HN  UNL d   1      -0.670   4.670   3.784  1.00  0.00     0.167 HD
BRANCH  26  30
ATOM     30  C   UNL d   1      -3.306   3.353   7.353  0.00  0.00     0.041 C 
BRANCH  30  31
ATOM     31  C   UNL d   1      -4.511   4.281   7.149  0.00  0.00     0.000 C 
ATOM     32  C   UNL d   1      -5.571   3.713   6.213  0.00  0.00     0.005 C 
ENDBRANCH  30  31
ENDBRANCH  26  30
ENDBRANCH   2  22
TORSDOF 6
