REMARK  6 active torsions:
REMARK  status: ('A' for Active; 'I' for Inactive)
REMARK    1  A    between atoms: C_7  and  C_2 
REMARK    2  A    between atoms: C_12  and  N_3 
REMARK       I    between atoms: N_9  and  C_7 
REMARK    3  A    between atoms: C_8  and  N_10 
REMARK    4  A    between atoms: N_11  and  C_8 
REMARK    5  A    between atoms: N_10  and  N_9 
REMARK    6  A    between atoms: C_16  and  N_11 
ROOT
ATOM      1  C   UNL d   1      -0.665  -2.519   0.054  0.00  0.00     0.275 C 
ATOM      2  N   UNL d   1       0.160  -3.632   0.123  0.00  0.00    -0.263 N 
ATOM      3  O   UNL d   1      -1.883  -2.691  -0.025  0.00  0.00    -0.266 OA
ATOM      4  H   UNL d   1      -0.352  -4.512   0.142  0.00  0.00     0.190 HD
ENDROOT
BRANCH   1   5
ATOM      5  C   UNL d   1      -0.095  -1.185   0.093  0.00  0.00     0.095 C 
ATOM      6  C   UNL d   1       1.149  -0.716  -0.297  0.00  0.00     0.138 C 
ATOM      7  N   UNL d   1       1.148   0.668  -0.049  0.00  0.00    -0.240 N 
ATOM      8  N   UNL d   1       2.210  -1.401  -0.792  0.00  0.00    -0.383 N 
ATOM      9  N   UNL d   1       0.002   1.054   0.574  0.00  0.00    -0.302 N 
ATOM     10  C   UNL d   1      -0.767  -0.033   0.557  0.00  0.00     0.128 C 
ATOM     11  HN  UNL d   1      -0.219   1.969   0.965  1.00  0.00     0.186 HD
ATOM     12  H   UNL d   1       2.135  -2.384  -1.053  0.00  0.00     0.157 HD
ATOM     13  H   UNL d   1       3.156  -1.028  -0.839  0.00  0.00     0.157 HD
BRANCH   7  14
ATOM     14  C   UNL d   1       2.154   1.636  -0.335  0.00  0.00     0.058 A 
ATOM     15  C   UNL d   1       3.055   1.464  -1.394  0.00  0.00     0.031 A 
ATOM     16  C   UNL d   1       4.074   2.395  -1.606  0.00  0.00     0.002 A 
ATOM     17  C   UNL d   1       4.191   3.507  -0.775  0.00  0.00     0.000 A 
ATOM     18  C   UNL d   1       3.267   3.710   0.249  0.00  0.00     0.002 A 
ATOM     19  C   UNL d   1       2.240   2.788   0.460  0.00  0.00     0.031 A 
ENDBRANCH   7  14
ENDBRANCH   1   5
BRANCH   2  20
ATOM     20  N   UNL d   1       1.370  -3.645   0.858  0.00  0.00    -0.273 N 
ATOM     21  H   UNL d   1       1.646  -2.760   1.280  0.00  0.00     0.189 HD
BRANCH  20  22
ATOM     22  C   UNL d   1       2.392  -4.501   0.511  0.00  0.00     0.191 C 
ATOM     23  S   UNL d   1       2.343  -5.609  -0.741  0.00  0.00    -0.039 SA
BRANCH  22  24
ATOM     24  N   UNL d   1       3.564  -4.363   1.210  0.00  0.00    -0.332 N 
ATOM     25  H   UNL d   1       4.369  -4.776   0.750  0.00  0.00     0.168 HD
BRANCH  24  26
ATOM     26  C   UNL d   1       3.783  -3.838   2.498  0.00  0.00     0.034 A 
ATOM     27  C   UNL d   1       2.778  -3.753   3.467  0.00  0.00     0.031 A 
ATOM     28  C   UNL d   1       3.061  -3.248   4.739  0.00  0.00     0.026 A 
ATOM     29  C   UNL d   1       4.351  -2.827   5.046  0.00  0.00     0.034 A 
ATOM     30  C   UNL d   1       5.367  -2.931   4.098  0.00  0.00     0.026 A 
ATOM     31 CL   UNL d   1       4.695  -2.190   6.606  0.00  0.00    -0.084 Cl
ATOM     32  C   UNL d   1       5.087  -3.453   2.831  0.00  0.00     0.031 A 
ENDBRANCH  24  26
ENDBRANCH  22  24
ENDBRANCH  20  22
ENDBRANCH   2  20
TORSDOF 6
