REMARK  5 active torsions:
REMARK  status: ('A' for Active; 'I' for Inactive)
REMARK    1  A    between atoms: C_2  and  C_1 
REMARK       I    between atoms: N_8  and  C_1 
REMARK    2  A    between atoms: C_3  and  C_9 
REMARK    3  A    between atoms: N_4  and  C_11 
REMARK    4  A    between atoms: O_17  and  C_7 
REMARK    5  A    between atoms: C_15  and  N_8 
ROOT
ATOM      1  C   UNL d   1       0.317   0.621  -1.061  0.00  0.00     0.059 A 
ATOM      2  C   UNL d   1       0.790   0.156  -2.309  0.00  0.00     0.047 A 
ATOM      3  C   UNL d   1      -0.843   1.427  -1.013  0.00  0.00     0.019 A 
ATOM      4  C   UNL d   1       0.033   0.457  -3.454  0.00  0.00     0.030 A 
ATOM      5  C   UNL d   1      -1.543   1.749  -2.177  0.00  0.00     0.001 A 
ATOM      6  C   UNL d   1      -1.118   1.244  -3.397  0.00  0.00     0.002 A 
ENDROOT
BRANCH   2   7
ATOM      7  N   UNL d   1       1.947  -0.612  -2.569  0.00  0.00    -0.364 N 
ATOM      8  C   UNL d   1       3.056  -0.354  -1.955  0.00  0.00     0.102 C 
ATOM      9  HN  UNL d   1       1.907  -1.375  -3.245  1.00  0.00     0.165 HD
BRANCH   8  10
ATOM     10  C   UNL d   1       4.295  -1.103  -2.272  0.00  0.00     0.016 A 
ATOM     11  C   UNL d   1       5.469  -0.885  -1.546  0.00  0.00     0.099 A 
ATOM     12  C   UNL d   1       6.641  -1.553  -1.907  0.00  0.00     0.069 A 
ATOM     13 CL   UNL d   1       8.101  -1.286  -1.029  0.00  0.00    -0.081 Cl
ATOM     14  C   UNL d   1       6.658  -2.429  -2.993  0.00  0.00     0.050 A 
ATOM     15  C   UNL d   1       5.479  -2.646  -3.707  0.00  0.00     0.036 A 
ATOM     16  C   UNL d   1       4.303  -1.998  -3.356  0.00  0.00     0.039 A 
ATOM     17 CL   UNL d   1       5.495  -3.716  -5.056  0.00  0.00    -0.084 Cl
BRANCH  11  18
ATOM     18  O   UNL d   1       5.463  -0.013  -0.486  0.00  0.00    -0.358 OA
ATOM     19  H   UNL d   1       6.347  -0.038  -0.079  0.00  0.00     0.217 HD
ENDBRANCH  11  18
ENDBRANCH   8  10
ENDBRANCH   2   7
BRANCH   1  20
ATOM     20  C   UNL d   1       0.963   0.207   0.223  0.00  0.00     0.258 C 
ATOM     21  N   UNL d   1       0.960   1.150   1.240  0.00  0.00    -0.323 N 
ATOM     22  H   UNL d   1       0.414   1.991   1.115  0.00  0.00     0.169 HD
ATOM     23  O   UNL d   1       1.410  -0.931   0.329  0.00  0.00    -0.267 OA
BRANCH  21  24
ATOM     24  C   UNL d   1       1.528   0.975   2.520  0.00  0.00     0.035 A 
ATOM     25  C   UNL d   1       2.539   0.045   2.787  0.00  0.00     0.032 A 
ATOM     26  C   UNL d   1       3.024  -0.117   4.087  0.00  0.00     0.044 A 
ATOM     27  C   UNL d   1       2.493   0.648   5.116  0.00  0.00     0.116 A 
ATOM     28  C   UNL d   1       1.515   1.601   4.864  0.00  0.00     0.044 A 
ATOM     29  F   UNL d   1       2.930   0.464   6.369  0.00  0.00    -0.206 F 
ATOM     30  C   UNL d   1       1.045   1.780   3.561  0.00  0.00     0.032 A 
ENDBRANCH  21  24
ENDBRANCH   1  20
TORSDOF 5
