REMARK  5 active torsions:
REMARK  status: ('A' for Active; 'I' for Inactive)
REMARK    1  A    between atoms: C_2  and  C_10 
REMARK       I    between atoms: C_3  and  N_6 
REMARK    2  A    between atoms: C_11  and  C_3 
REMARK    3  A    between atoms: N_6  and  C_23 
REMARK    4  A    between atoms: C_22  and  N_7 
REMARK    5  A    between atoms: C_24  and  C_22 
ROOT
ATOM      1  C   UNL d   1      -4.222  -3.643   3.207  0.00  0.00     0.035 A 
ATOM      2  C   UNL d   1      -3.087  -1.200   2.306  0.00  0.00    -0.030 A 
ATOM      3  C   UNL d   1      -3.168  -3.628   2.290  0.00  0.00     0.030 A 
ATOM      4  C   UNL d   1      -4.722  -2.412   3.651  0.00  0.00     0.030 A 
ATOM      5  C   UNL d   1      -4.161  -1.202   3.205  0.00  0.00     0.011 A 
ATOM      6  C   UNL d   1      -2.609  -2.429   1.844  0.00  0.00     0.011 A 
ENDROOT
BRANCH   1   7
ATOM      7  N   UNL d   1      -4.780  -4.840   3.730  0.00  0.00    -0.323 N 
ATOM      8  C   UNL d   1      -4.426  -6.125   3.345  0.00  0.00     0.256 C 
ATOM      9  O   UNL d   1      -3.678  -6.418   2.417  0.00  0.00    -0.267 OA
ATOM     10  H   UNL d   1      -5.517  -4.732   4.414  0.00  0.00     0.169 HD
BRANCH   8  11
ATOM     11  C   UNL d   1      -4.999  -7.268   4.113  0.00  0.00     0.032 A 
ATOM     12  C   UNL d   1      -5.089  -8.500   3.443  0.00  0.00     0.018 A 
ATOM     13  C   UNL d   1      -5.460  -9.659   4.121  0.00  0.00     0.017 A 
ATOM     14  C   UNL d   1      -5.749  -9.615   5.489  0.00  0.00     0.048 A 
ATOM     15  C   UNL d   1      -5.692  -8.375   6.153  0.00  0.00     0.017 A 
ATOM     16  C   UNL d   1      -5.318  -7.206   5.472  0.00  0.00     0.018 A 
BRANCH  14  17
ATOM     17  C   UNL d   1      -6.067 -10.883   6.248  0.00  0.00     0.417 C 
ATOM     18  F   UNL d   1      -6.074 -11.999   5.466  0.00  0.00    -0.166 F 
ATOM     19  F   UNL d   1      -5.169 -11.131   7.241  0.00  0.00    -0.166 F 
ATOM     20  F   UNL d   1      -7.288 -10.840   6.848  0.00  0.00    -0.166 F 
ENDBRANCH  14  17
ENDBRANCH   8  11
ENDBRANCH   1   7
BRANCH   2  21
ATOM     21  C   UNL d   1      -2.449   0.078   1.807  0.00  0.00     0.311 C 
BRANCH  21  22
ATOM     22  N   UNL d   1      -1.820   0.909   2.849  0.00  0.00     0.094 N 
ATOM     23  C   UNL d   1      -0.789   0.232   3.655  0.00  0.00     0.287 C 
ATOM     24  C   UNL d   1       0.465  -0.179   2.905  0.00  0.00     0.170 C 
ATOM     25  S   UNL d   1       1.230   1.231   2.144  0.00  0.00     0.147 S 
ATOM     26  C   UNL d   1      -0.129   2.055   1.355  0.00  0.00     0.170 C 
ATOM     27  O   UNL d   1       2.111   0.741   1.097  0.00  0.00    -0.228 OA
ATOM     28  O   UNL d   1       1.740   2.095   3.188  0.00  0.00    -0.228 OA
ATOM     29  C   UNL d   1      -1.308   2.181   2.306  0.00  0.00     0.287 C 
ENDBRANCH  21  22
ENDBRANCH   2  21
TORSDOF 5
