REMARK  7 active torsions:
REMARK  status: ('A' for Active; 'I' for Inactive)
REMARK    1  A    between atoms: C_14  and  N_3 
REMARK    2  A    between atoms: C_15  and  C_10 
REMARK    3  A    between atoms: S_16  and  C_11 
REMARK    4  A    between atoms: C_20  and  C_14 
REMARK    5  A    between atoms: C_19  and  S_16 
REMARK    6  A    between atoms: C_17  and  C_19 
REMARK    7  A    between atoms: C_18  and  C_17 
ROOT
ATOM      1  C   UNL d   1      -0.494  -1.230   0.148  0.00  0.00     0.105 A 
ATOM      2  C   UNL d   1      -0.884  -2.600   0.062  0.00  0.00     0.193 A 
ATOM      3  N   UNL d   1       0.800  -0.766   0.164  0.00  0.00    -0.284 N 
ATOM      4  N   UNL d   1       0.864   0.593   0.152  0.00  0.00    -0.301 N 
ATOM      5  HN  UNL d   1       1.701   1.175   0.169  1.00  0.00     0.187 HD
ATOM      6  C   UNL d   1      -1.291  -0.109   0.140  0.00  0.00     0.063 A 
ATOM      7  O   UNL d   1      -2.080  -3.009  -0.484  0.00  0.00    -0.266 OA
ATOM      8  N   UNL d   1      -0.135  -3.629   0.401  0.00  0.00    -0.275 N 
ATOM      9  HN  UNL d   1       0.777  -3.589   0.856  1.00  0.00     0.189 HD
ATOM     10  C   UNL d   1      -0.412   1.002   0.112  0.00  0.00     0.036 A 
ATOM     11  C   UNL d   1      -1.944  -4.371  -0.518  0.00  0.00     0.204 A 
ATOM     12  N   UNL d   1      -0.812  -4.771   0.025  0.00  0.00    -0.272 N 
ATOM     13  HN  UNL d   1      -0.499  -5.735   0.145  1.00  0.00     0.189 HD
ENDROOT
BRANCH   3  14
ATOM     14  C   UNL d   1       2.042  -1.524  -0.021  0.00  0.00     0.187 C 
BRANCH  14  15
ATOM     15  C   UNL d   1       2.647  -2.002   1.277  0.00  0.00    -0.038 A 
ATOM     16  C   UNL d   1       2.828  -3.373   1.525  0.00  0.00     0.015 A 
ATOM     17  C   UNL d   1       3.278  -3.829   2.774  0.00  0.00    -0.061 A 
ATOM     18  C   UNL d   1       3.340  -5.299   3.075  0.00  0.00     0.048 C 
ATOM     19  C   UNL d   1       3.640  -2.894   3.749  0.00  0.00     0.007 A 
ATOM     20  C   UNL d   1       3.541  -1.529   3.484  0.00  0.00     0.001 A 
ATOM     21  C   UNL d   1       3.039  -1.085   2.262  0.00  0.00     0.009 A 
ENDBRANCH  14  15
ENDBRANCH   3  14
BRANCH  10  22
ATOM     22  C   UNL d   1      -0.770   2.483   0.046  0.00  0.00    -0.007 C 
ATOM     23  C   UNL d   1      -0.911   3.050   1.470  0.00  0.00     0.021 C 
ATOM     24  C   UNL d   1       0.310   3.292  -0.706  0.00  0.00     0.021 C 
ATOM     25  C   UNL d   1      -2.107   2.699  -0.698  0.00  0.00     0.021 C 
ENDBRANCH  10  22
BRANCH  11  26
ATOM     26  S   UNL d   1      -3.107  -5.412  -1.284  0.00  0.00    -0.077 SA
BRANCH  26  27
ATOM     27  C   UNL d   1      -2.362  -7.049  -1.010  0.00  0.00     0.166 C 
BRANCH  27  28
ATOM     28  C   UNL d   1      -3.179  -8.177  -1.654  0.00  0.00     0.169 C 
ATOM     29  O   UNL d   1      -4.219  -8.000  -2.281  0.00  0.00    -0.291 OA
BRANCH  28  30
ATOM     30  C   UNL d   1      -2.692  -9.588  -1.471  0.00  0.00     0.011 A 
ATOM     31  C   UNL d   1      -1.502  -9.868  -0.789  0.00  0.00     0.017 A 
ATOM     32  C   UNL d   1      -1.133 -11.194  -0.527  0.00  0.00     0.025 A 
ATOM     33  C   UNL d   1      -1.943 -12.242  -0.947  0.00  0.00     0.034 A 
ATOM     34  C   UNL d   1      -3.102 -11.985  -1.672  0.00  0.00     0.025 A 
ATOM     35 CL   UNL d   1      -1.515 -13.862  -0.546  0.00  0.00    -0.084 Cl
ATOM     36  C   UNL d   1      -3.471 -10.656  -1.943  0.00  0.00     0.017 A 
ENDBRANCH  28  30
ENDBRANCH  27  28
ENDBRANCH  26  27
ENDBRANCH  11  26
TORSDOF 7
