REMARK  6 active torsions:
REMARK  status: ('A' for Active; 'I' for Inactive)
REMARK    1  A    between atoms: C_13  and  N_1 
REMARK    2  A    between atoms: N_5  and  C_18 
REMARK    3  A    between atoms: C_19  and  N_7 
REMARK    4  A    between atoms: C_9  and  C_13 
REMARK    5  A    between atoms: C_10  and  C_9 
REMARK    6  A    between atoms: O_22  and  C_10 
ROOT
ATOM      1  N   UNL d   1     -10.500  -4.154  -0.123  0.00  0.00    -0.191 NA
ATOM      2  C   UNL d   1      -9.469  -3.620  -0.165  0.00  0.00     0.099 C 
ATOM      3  C   UNL d   1      -5.679  -1.671  -0.346  0.00  0.00     0.048 A 
ATOM      4  C   UNL d   1      -8.192  -2.966  -0.222  0.00  0.00     0.044 A 
ATOM      5  C   UNL d   1      -6.872  -0.937  -0.378  0.00  0.00     0.032 A 
ATOM      6  C   UNL d   1      -5.766  -3.069  -0.259  0.00  0.00     0.032 A 
ATOM      7  C   UNL d   1      -8.119  -1.573  -0.315  0.00  0.00     0.025 A 
ATOM      8  C   UNL d   1      -7.010  -3.712  -0.193  0.00  0.00     0.025 A 
ENDROOT
BRANCH   3   9
ATOM      9  N   UNL d   1      -4.462  -0.967  -0.467  0.00  0.00    -0.300 N 
ATOM     10  N   UNL d   1      -3.526  -1.490   0.176  0.00  0.00    -0.300 N 
ATOM     11  HN  UNL d   1      -3.617  -2.350   0.717  1.00  0.00     0.187 HD
ATOM     12  HN  UNL d   1      -4.357  -0.118  -1.023  1.00  0.00     0.187 HD
BRANCH  10  13
ATOM     13  C   UNL d   1      -2.325  -0.748   0.066  0.00  0.00     0.048 A 
ATOM     14  C   UNL d   1      -2.293   0.661   0.016  0.00  0.00     0.033 A 
ATOM     15  C   UNL d   1      -1.085   1.371  -0.074  0.00  0.00     0.032 A 
ATOM     16  C   UNL d   1       0.108   0.675  -0.078  0.00  0.00     0.036 A 
ATOM     17  N   UNL d   1       1.397   1.161  -0.170  0.00  0.00    -0.380 N 
ATOM     18  C   UNL d   1       0.080  -0.722  -0.008  0.00  0.00    -0.028 A 
ATOM     19  C   UNL d   1       2.301   0.043   0.104  0.00  0.00     0.128 C 
ATOM     20  C   UNL d   1       1.478  -1.251  -0.080  0.00  0.00     0.060 C 
ATOM     21  C   UNL d   1      -1.108  -1.442   0.055  0.00  0.00     0.040 A 
BRANCH  17  22
ATOM     22  C   UNL d   1       1.837   2.547  -0.126  0.00  0.00     0.133 C 
BRANCH  22  23
ATOM     23  C   UNL d   1       1.570   3.208   1.220  0.00  0.00     0.131 C 
BRANCH  23  24
ATOM     24  C   UNL d   1       2.105   4.617   1.252  0.00  0.00     0.259 C 
ATOM     25  O   UNL d   1       2.744   5.159   0.362  0.00  0.00    -0.265 OA
BRANCH  24  26
ATOM     26  O   UNL d   1       1.768   5.194   2.444  0.00  0.00    -0.326 OA
ATOM     27  C   UNL d   1       2.218   6.540   2.606  0.00  0.00     0.213 C 
ENDBRANCH  24  26
ENDBRANCH  23  24
ENDBRANCH  22  23
ENDBRANCH  17  22
ENDBRANCH  10  13
ENDBRANCH   3   9
TORSDOF 6
