REMARK  4 active torsions:
REMARK  status: ('A' for Active; 'I' for Inactive)
REMARK    1  A    between atoms: C_2  and  C_1 
REMARK    2  A    between atoms: C_3  and  C_1 
REMARK       I    between atoms: N_6  and  C_2 
REMARK    3  A    between atoms: C_11  and  N_4 
REMARK    4  A    between atoms: C_12  and  N_6 
ROOT
ATOM      1  C   UNL d   1       0.938  -0.240   0.224  0.00  0.00     0.181 C 
ATOM      2  N   UNL d   1       2.222  -0.133   0.031  0.00  0.00    -0.378 N 
ATOM      3  HN  UNL d   1       2.603  -0.107  -0.915  1.00  0.00     0.160 HD
ENDROOT
BRANCH   1   4
ATOM      4  C   UNL d   1       0.042  -0.187  -1.005  0.00  0.00     0.273 C 
ATOM      5  N   UNL d   1       0.644  -0.613  -2.169  0.00  0.00    -0.352 N 
ATOM      6  H   UNL d   1       1.644  -0.793  -2.116  0.00  0.00     0.163 HD
ATOM      7  O   UNL d   1      -1.099   0.230  -0.914  0.00  0.00    -0.266 OA
BRANCH   5   8
ATOM      8  C   UNL d   1      -0.037  -0.741  -3.452  0.00  0.00     0.076 C 
ATOM      9  C   UNL d   1      -1.151  -1.788  -3.398  0.00  0.00     0.032 C 
ATOM     10  C   UNL d   1      -0.568   0.587  -3.991  0.00  0.00     0.032 C 
ENDBRANCH   5   8
ENDBRANCH   1   4
BRANCH   1  11
ATOM     11  C   UNL d   1       0.187  -0.399   1.529  0.00  0.00     0.437 C 
ATOM     12  F   UNL d   1      -1.138  -0.684   1.421  0.00  0.00    -0.164 F 
ATOM     13  F   UNL d   1       0.698  -1.419   2.280  0.00  0.00    -0.164 F 
ATOM     14  F   UNL d   1       0.278   0.713   2.312  0.00  0.00    -0.164 F 
ENDBRANCH   1  11
BRANCH   2  15
ATOM     15  C   UNL d   1       3.115  -0.048   1.198  0.00  0.00     0.073 C 
ATOM     16  C   UNL d   1       3.627  -1.431   1.588  0.00  0.00     0.031 C 
ATOM     17  C   UNL d   1       4.296   0.842   0.809  0.00  0.00     0.031 C 
ENDBRANCH   2  15
TORSDOF 4
