REMARK  9 active torsions:
REMARK  status: ('A' for Active; 'I' for Inactive)
REMARK    1  A    between atoms: O_9  and  C_1 
REMARK       I    between atoms: C_2  and  N_4 
REMARK       I    between atoms: N_5  and  C_2 
REMARK    2  A    between atoms: C_3  and  C_21 
REMARK       I    between atoms: N_7  and  C_3 
REMARK    3  A    between atoms: N_4  and  N_7 
REMARK    4  A    between atoms: C_17  and  N_5 
REMARK       I    between atoms: C_6  and  N_8 
REMARK    5  A    between atoms: C_31  and  C_6 
REMARK    6  A    between atoms: N_8  and  C_18 
REMARK    7  A    between atoms: C_19  and  O_9 
REMARK    8  A    between atoms: S_16  and  C_31 
REMARK    9  A    between atoms: C_21  and  S_16 
ROOT
ATOM      1  C   UNL d   1       6.104  -6.720  -7.374  0.00  0.00     0.178 C 
ENDROOT
BRANCH   1   2
ATOM      2  C   UNL d   1       7.619  -6.673  -7.466  0.00  0.00     0.245 C 
ATOM      3  N   UNL d   1       8.118  -5.615  -8.204  0.00  0.00    -0.265 N 
ATOM      4  H   UNL d   1       7.556  -4.788  -8.408  0.00  0.00     0.190 HD
ATOM      5  O   UNL d   1       8.346  -7.548  -6.994  0.00  0.00    -0.271 OA
BRANCH   3   6
ATOM      6  N   UNL d   1       9.511  -5.431  -8.244  0.00  0.00    -0.249 N 
ATOM      7  C   UNL d   1       9.994  -4.331  -8.929  0.00  0.00     0.339 C 
ATOM      8  N   UNL d   1      11.373  -4.268  -8.916  0.00  0.00    -0.308 N 
ATOM      9  O   UNL d   1       9.223  -3.517  -9.431  0.00  0.00    -0.245 OA
ATOM     10  H   UNL d   1      11.851  -5.069  -8.538  0.00  0.00     0.170 HD
ATOM     11  H   UNL d   1      10.076  -6.238  -7.999  0.00  0.00     0.192 HD
BRANCH   8  12
ATOM     12  C   UNL d   1      12.180  -3.202  -9.370  0.00  0.00     0.036 A 
ATOM     13  C   UNL d   1      11.670  -1.983  -9.829  0.00  0.00     0.031 A 
ATOM     14  C   UNL d   1      12.529  -0.944 -10.208  0.00  0.00     0.026 A 
ATOM     15  C   UNL d   1      13.905  -1.123 -10.136  0.00  0.00     0.034 A 
ATOM     16  C   UNL d   1      14.433  -2.335  -9.696  0.00  0.00     0.026 A 
ATOM     17 CL   UNL d   1      14.960   0.162 -10.578  0.00  0.00    -0.084 Cl
ATOM     18  C   UNL d   1      13.571  -3.370  -9.312  0.00  0.00     0.031 A 
ENDBRANCH   8  12
ENDBRANCH   3   6
ENDBRANCH   1   2
BRANCH   1  19
ATOM     19  S   UNL d   1       5.466  -5.314  -6.406  0.00  0.00    -0.150 SA
BRANCH  19  20
ATOM     20  C   UNL d   1       3.696  -5.762  -6.402  0.00  0.00     0.177 C 
BRANCH  20  21
ATOM     21  C   UNL d   1       2.838  -4.629  -5.852  0.00  0.00     0.231 C 
ATOM     22  N   UNL d   1       3.206  -4.220  -4.580  0.00  0.00    -0.327 N 
ATOM     23  H   UNL d   1       4.025  -4.675  -4.192  0.00  0.00     0.169 HD
ATOM     24  O   UNL d   1       1.882  -4.207  -6.501  0.00  0.00    -0.272 OA
BRANCH  22  25
ATOM     25  C   UNL d   1       2.672  -3.152  -3.830  0.00  0.00     0.034 A 
ATOM     26  C   UNL d   1       1.633  -2.328  -4.266  0.00  0.00     0.032 A 
ATOM     27  C   UNL d   1       1.210  -1.233  -3.497  0.00  0.00     0.039 A 
ATOM     28  C   UNL d   1       1.840  -0.936  -2.292  0.00  0.00     0.078 A 
ATOM     29  C   UNL d   1       2.830  -1.799  -1.820  0.00  0.00     0.039 A 
ATOM     30  C   UNL d   1       3.249  -2.894  -2.582  0.00  0.00     0.032 A 
BRANCH  28  31
ATOM     31  O   UNL d   1       1.575   0.124  -1.481  0.00  0.00    -0.255 OA
BRANCH  31  32
ATOM     32  C   UNL d   1       1.053   1.318  -2.047  0.00  0.00     0.530 C 
ATOM     33  F   UNL d   1       1.237   1.420  -3.380  0.00  0.00    -0.144 F 
ATOM     34  F   UNL d   1       1.675   2.370  -1.467  0.00  0.00    -0.144 F 
ATOM     35  F   UNL d   1      -0.266   1.409  -1.775  0.00  0.00    -0.144 F 
ENDBRANCH  31  32
ENDBRANCH  28  31
ENDBRANCH  22  25
ENDBRANCH  20  21
ENDBRANCH  19  20
ENDBRANCH   1  19
TORSDOF 9
