REMARK  5 active torsions:
REMARK  status: ('A' for Active; 'I' for Inactive)
REMARK    1  A    between atoms: C_13  and  N_1 
REMARK    2  A    between atoms: C_6  and  C_3 
REMARK    3  A    between atoms: C_17  and  N_5 
REMARK    4  A    between atoms: C_15  and  C_10 
REMARK    5  A    between atoms: C_18  and  C_13 
ROOT
ATOM      1  N   UNL d   1      -0.705   1.184  -0.019  0.00  0.00    -0.261 N 
ATOM      2  C   UNL d   1      -1.377  -0.017  -0.242  0.00  0.00     0.332 C 
ATOM      3  C   UNL d   1       1.446   0.024   0.107  0.00  0.00     0.082 C 
ATOM      4  C   UNL d   1       0.672   1.296   0.102  0.00  0.00     0.266 C 
ATOM      5  N   UNL d   1      -0.621  -1.179  -0.018  0.00  0.00    -0.304 N 
ATOM      6  C   UNL d   1       0.762  -1.123   0.064  0.00  0.00     0.116 C 
ATOM      7  O   UNL d   1      -2.546  -0.062  -0.615  0.00  0.00    -0.246 OA
ATOM      8  O   UNL d   1       1.239   2.381   0.166  0.00  0.00    -0.267 OA
ENDROOT
BRANCH   3   9
ATOM      9  C   UNL d   1       2.875  -0.014   0.077  0.00  0.00     0.091 A 
ATOM     10  N   UNL d   1       3.597  -0.929  -0.557  0.00  0.00    -0.352 N 
ATOM     11  C   UNL d   1       4.959  -0.665  -0.473  0.00  0.00     0.024 A 
ATOM     12  HN  UNL d   1       3.199  -1.730  -1.047  1.00  0.00     0.166 HD
ATOM     13  C   UNL d   1       5.264   0.442   0.294  0.00  0.00     0.077 A 
ATOM     14  S   UNL d   1       3.847   1.133   0.938  0.00  0.00    -0.081 SA
BRANCH  11  15
ATOM     15  C   UNL d   1       5.951  -1.560  -1.202  0.00  0.00    -0.008 C 
ATOM     16  C   UNL d   1       5.236  -2.714  -1.936  0.00  0.00     0.021 C 
ATOM     17  C   UNL d   1       6.736  -0.739  -2.245  0.00  0.00     0.021 C 
ATOM     18  C   UNL d   1       6.948  -2.176  -0.201  0.00  0.00     0.021 C 
ENDBRANCH  11  15
ENDBRANCH   3   9
BRANCH   1  19
ATOM     19  C   UNL d   1      -1.479   2.427  -0.019  0.00  0.00     0.175 C 
BRANCH  19  20
ATOM     20  C   UNL d   1      -2.152   2.667   1.320  0.00  0.00    -0.040 A 
ATOM     21  C   UNL d   1      -1.504   3.373   2.346  0.00  0.00     0.009 A 
ATOM     22  C   UNL d   1      -2.095   3.490   3.608  0.00  0.00     0.001 A 
ATOM     23  C   UNL d   1      -3.338   2.909   3.855  0.00  0.00     0.000 A 
ATOM     24  C   UNL d   1      -4.008   2.242   2.833  0.00  0.00     0.001 A 
ATOM     25  C   UNL d   1      -3.422   2.128   1.573  0.00  0.00     0.009 A 
ENDBRANCH  19  20
ENDBRANCH   1  19
BRANCH   5  26
ATOM     26  C   UNL d   1      -1.311  -2.492  -0.057  0.00  0.00     0.086 C 
ATOM     27  C   UNL d   1      -1.216  -3.142  -1.438  0.00  0.00     0.032 C 
ATOM     28  C   UNL d   1      -0.842  -3.477   1.027  0.00  0.00     0.032 C 
ENDBRANCH   5  26
TORSDOF 5
