REMARK  4 active torsions:
REMARK  status: ('A' for Active; 'I' for Inactive)
REMARK    1  A    between atoms: C_2  and  C_1 
REMARK    2  A    between atoms: C_4  and  C_1 
REMARK    3  A    between atoms: S_3  and  C_4 
REMARK    4  A    between atoms: C_8  and  S_3 
ROOT
ATOM      1  C   UNL d   1       1.006  -0.036  -0.034  0.00  0.00     0.169 C 
ATOM      2  O   UNL d   1       1.554  -1.133  -0.159  0.00  0.00    -0.291 OA
ENDROOT
BRANCH   1   3
ATOM      3  C   UNL d   1       1.125   0.961  -1.149  0.00  0.00     0.011 A 
ATOM      4  C   UNL d   1       0.543   2.235  -1.104  0.00  0.00     0.017 A 
ATOM      5  C   UNL d   1       0.651   3.099  -2.203  0.00  0.00     0.025 A 
ATOM      6  C   UNL d   1       1.340   2.696  -3.345  0.00  0.00     0.034 A 
ATOM      7  C   UNL d   1       1.948   1.446  -3.393  0.00  0.00     0.025 A 
ATOM      8 CL   UNL d   1       1.421   3.742  -4.708  0.00  0.00    -0.084 Cl
ATOM      9  C   UNL d   1       1.843   0.584  -2.297  0.00  0.00     0.017 A 
ENDBRANCH   1   3
BRANCH   1  10
ATOM     10  C   UNL d   1       0.227   0.302   1.220  0.00  0.00     0.163 C 
BRANCH  10  11
ATOM     11  S   UNL d   1      -1.533  -0.111   0.998  0.00  0.00    -0.122 SA
BRANCH  11  12
ATOM     12  C   UNL d   1      -2.184   0.469   2.556  0.00  0.00     0.001 A 
ATOM     13  C   UNL d   1      -3.221   1.408   2.549  0.00  0.00     0.020 A 
ATOM     14  C   UNL d   1      -3.732   1.912   3.750  0.00  0.00     0.025 A 
ATOM     15  C   UNL d   1      -3.214   1.463   4.962  0.00  0.00     0.034 A 
ATOM     16  C   UNL d   1      -2.206   0.502   4.983  0.00  0.00     0.025 A 
ATOM     17 CL   UNL d   1      -3.822   2.100   6.440  0.00  0.00    -0.084 Cl
ATOM     18  C   UNL d   1      -1.696   0.000   3.781  0.00  0.00     0.020 A 
ENDBRANCH  11  12
ENDBRANCH  10  11
ENDBRANCH   1  10
TORSDOF 4
