REMARK  7 active torsions:
REMARK  status: ('A' for Active; 'I' for Inactive)
REMARK    1  A    between atoms: C_7  and  N_1 
REMARK    2  A    between atoms: C_2  and  C_12 
REMARK    3  A    between atoms: C_4  and  N_17 
REMARK    4  A    between atoms: N_15  and  C_4 
REMARK    5  A    between atoms: C_14  and  C_6 
REMARK    6  A    between atoms: N_17  and  N_8 
REMARK    7  A    between atoms: C_22  and  N_15 
ROOT
ATOM      1  C   UNL d   1      -2.245   2.580   4.091  0.00  0.00     0.086 A 
ATOM      2  O   UNL d   1      -2.674   1.928   5.223  0.00  0.00    -0.309 OA
ATOM      3  C   UNL d   1      -2.675   3.893   4.127  0.00  0.00     0.041 A 
ATOM      4  C   UNL d   1      -3.327   2.850   5.995  0.00  0.00     0.093 A 
ATOM      5  C   UNL d   1      -3.352   4.069   5.348  0.00  0.00     0.041 A 
ENDROOT
BRANCH   4   6
ATOM      6  C   UNL d   1      -3.863   2.496   7.283  0.00  0.00     0.144 C 
ATOM      7  N   UNL d   1      -4.113   3.460   8.108  0.00  0.00    -0.307 N 
ATOM      8  HN  UNL d   1      -3.856   4.420   7.879  1.00  0.00     0.186 HD
BRANCH   7   9
ATOM      9  N   UNL d   1      -4.726   3.169   9.287  0.00  0.00    -0.277 N 
ATOM     10  H   UNL d   1      -5.229   2.297   9.389  0.00  0.00     0.189 HD
BRANCH   9  11
ATOM     11  C   UNL d   1      -4.690   4.067  10.329  0.00  0.00     0.186 C 
ATOM     12  S   UNL d   1      -3.527   5.247  10.564  0.00  0.00    -0.040 SA
BRANCH  11  13
ATOM     13  N   UNL d   1      -5.710   3.995  11.239  0.00  0.00    -0.362 N 
ATOM     14  H   UNL d   1      -5.600   4.680  11.980  0.00  0.00     0.162 HD
BRANCH  13  15
ATOM     15  C   UNL d   1      -7.077   3.562  10.956  0.00  0.00     0.076 C 
ATOM     16  C   UNL d   1      -7.288   2.112  11.373  0.00  0.00     0.032 C 
ATOM     17  C   UNL d   1      -8.073   4.470  11.680  0.00  0.00     0.032 C 
ENDBRANCH  13  15
ENDBRANCH  11  13
ENDBRANCH   9  11
ENDBRANCH   7   9
ENDBRANCH   4   6
BRANCH   1  18
ATOM     18  C   UNL d   1      -1.461   1.826   3.111  0.00  0.00    -0.002 A 
ATOM     19  C   UNL d   1      -1.040   0.507   3.338  0.00  0.00     0.017 A 
ATOM     20  C   UNL d   1      -0.292  -0.187   2.375  0.00  0.00     0.037 A 
ATOM     21  C   UNL d   1       0.044   0.444   1.167  0.00  0.00     0.102 A 
ATOM     22  C   UNL d   1      -0.352   1.762   0.929  0.00  0.00     0.037 A 
ATOM     23  C   UNL d   1      -1.096   2.440   1.898  0.00  0.00     0.017 A 
BRANCH  21  24
ATOM     24  N   UNL d   1       0.809  -0.280   0.145  0.00  0.00    -0.116 N 
ATOM     25  O   UNL d   1       1.061   0.314  -0.915  0.00  0.00    -0.532 OA
ATOM     26  O   UNL d   1       1.149  -1.444   0.394  0.00  0.00    -0.532 OA
ENDBRANCH  21  24
ENDBRANCH   1  18
TORSDOF 7
