REMARK  4 active torsions:
REMARK  status: ('A' for Active; 'I' for Inactive)
REMARK    1  A    between atoms: C_2  and  C_1 
REMARK       I    between atoms: N_6  and  C_2 
REMARK    2  A    between atoms: N_3  and  N_6 
REMARK    3  A    between atoms: N_12  and  C_5 
REMARK    4  A    between atoms: C_11  and  C_10 
ROOT
ATOM      1  C   UNL d   1       0.882   2.573  -0.064  0.00  0.00     0.271 C 
ATOM      2  N   UNL d   1       0.096   3.719  -0.009  0.00  0.00    -0.266 N 
ATOM      3  O   UNL d   1       2.110   2.580  -0.160  0.00  0.00    -0.266 OA
ATOM      4  H   UNL d   1      -0.897   3.677   0.185  0.00  0.00     0.190 HD
ENDROOT
BRANCH   2   5
ATOM      5  N   UNL d   1       0.735   4.926  -0.016  0.00  0.00    -0.308 N 
ATOM      6  C   UNL d   1       0.013   5.993   0.070  0.00  0.00     0.120 C 
ATOM      7  HN  UNL d   1       1.751   4.982  -0.086  1.00  0.00     0.186 HD
BRANCH   6   8
ATOM      8  C   UNL d   1       0.655   7.321   0.112  0.00  0.00    -0.004 A 
ATOM      9  C   UNL d   1      -0.119   8.470   0.172  0.00  0.00     0.100 A 
ATOM     10  N   UNL d   1       0.397   9.722   0.244  0.00  0.00    -0.374 N 
ATOM     11  C   UNL d   1       1.746   9.824   0.258  0.00  0.00     0.087 A 
ATOM     12  HN  UNL d   1      -0.202  10.546   0.286  1.00  0.00     0.164 HD
ATOM     13  C   UNL d   1       2.602   8.735   0.195  0.00  0.00     0.018 A 
ATOM     14  C   UNL d   1       2.044   7.461   0.119  0.00  0.00     0.015 A 
ENDBRANCH   6   8
ENDBRANCH   2   5
BRANCH   1  15
ATOM     15  C   UNL d   1       0.183   1.254   0.012  0.00  0.00     0.054 A 
ATOM     16  C   UNL d   1       0.861   0.143   0.566  0.00  0.00     0.021 A 
ATOM     17  C   UNL d   1       0.207  -1.096   0.610  0.00  0.00     0.024 A 
ATOM     18  C   UNL d   1      -1.055  -1.260   0.040  0.00  0.00     0.002 A 
ATOM     19  C   UNL d   1      -1.701  -0.174  -0.546  0.00  0.00     0.001 A 
ATOM     20  C   UNL d   1      -1.088   1.082  -0.559  0.00  0.00     0.019 A 
BRANCH  16  21
ATOM     21  N   UNL d   1       2.071   0.279   1.282  0.00  0.00    -0.302 NA
ATOM     22  H   UNL d   1       2.593   1.104   0.955  0.00  0.00     0.124 HD
ATOM     23  H   UNL d   1       2.652  -0.552   1.262  0.00  0.00     0.124 HD
ENDBRANCH  16  21
ENDBRANCH   1  15
TORSDOF 4
