REMARK  7 active torsions:
REMARK  status: ('A' for Active; 'I' for Inactive)
REMARK    1  A    between atoms: C_2  and  C_1 
REMARK    2  A    between atoms: C_3  and  N_4 
REMARK    3  A    between atoms: N_7  and  C_6 
REMARK    4  A    between atoms: C_9  and  C_10 
REMARK    5  A    between atoms: O_20  and  C_9 
REMARK    6  A    between atoms: O_21  and  C_13 
REMARK    7  A    between atoms: C_28  and  O_20 
ROOT
ATOM      1  C   UNL d   1       2.880  -4.352  -0.001  0.00  0.00     0.059 A 
ATOM      2  C   UNL d   1       2.115  -5.133  -0.926  0.00  0.00     0.057 A 
ATOM      3  C   UNL d   1       4.261  -6.310   0.525  0.00  0.00     0.041 A 
ATOM      4  C   UNL d   1       3.922  -4.970   0.718  0.00  0.00     0.049 A 
ATOM      5  C   UNL d   1       2.452  -6.501  -1.049  0.00  0.00     0.033 A 
ATOM      6  C   UNL d   1       3.506  -7.085  -0.347  0.00  0.00     0.020 A 
ENDROOT
BRANCH   1   7
ATOM      7  N   UNL d   1       2.604  -2.980   0.272  0.00  0.00    -0.363 N 
ATOM      8  C   UNL d   1       3.596  -2.140   0.372  0.00  0.00     0.103 C 
ATOM      9  HN  UNL d   1       1.643  -2.659   0.387  1.00  0.00     0.165 HD
BRANCH   8  10
ATOM     10  C   UNL d   1       3.396  -0.726   0.800  0.00  0.00     0.023 A 
ATOM     11  C   UNL d   1       4.417   0.253   0.600  0.00  0.00    -0.012 A 
ATOM     12  C   UNL d   1       4.207   1.556   1.129  0.00  0.00    -0.025 A 
ATOM     13  C   UNL d   1       5.642   0.029  -0.083  0.00  0.00     0.013 A 
ATOM     14  C   UNL d   1       5.201   2.542   1.010  0.00  0.00     0.012 A 
ATOM     15  C   UNL d   1       3.010   1.867   1.790  0.00  0.00     0.015 A 
ATOM     16  C   UNL d   1       6.413   2.268   0.370  0.00  0.00     0.001 A 
ATOM     17  C   UNL d   1       6.625   1.017  -0.180  0.00  0.00     0.001 A 
ATOM     18  C   UNL d   1       2.025   0.901   1.976  0.00  0.00     0.038 A 
ATOM     19  C   UNL d   1       2.225  -0.388   1.501  0.00  0.00     0.078 A 
BRANCH  19  20
ATOM     20  O   UNL d   1       1.244  -1.294   1.807  0.00  0.00    -0.360 OA
ATOM     21  H   UNL d   1       1.512  -2.156   1.419  0.00  0.00     0.217 HD
ENDBRANCH  19  20
ENDBRANCH   8  10
ENDBRANCH   1   7
BRANCH   2  22
ATOM     22  N   UNL d   1       1.097  -4.634  -1.720  0.00  0.00    -0.375 N 
ATOM     23  C   UNL d   1       0.731  -5.205  -3.031  0.00  0.00     0.149 C 
ATOM     24  C   UNL d   1       0.503  -4.064  -4.042  0.00  0.00     0.187 C 
ATOM     25  O   UNL d   1      -0.415  -3.068  -3.559  0.00  0.00    -0.388 OA
ATOM     26  C   UNL d   1       0.036  -2.534  -2.297  0.00  0.00     0.187 C 
ATOM     27  C   UNL d   1       0.126  -3.644  -1.245  0.00  0.00     0.149 C 
ENDBRANCH   2  22
BRANCH   3  28
ATOM     28  C   UNL d   1       5.490  -6.814   1.185  0.00  0.00     0.293 C 
ATOM     29  O   UNL d   1       6.225  -6.112   1.860  0.00  0.00    -0.259 OA
BRANCH  28  30
ATOM     30  O   UNL d   1       5.737  -8.084   0.785  0.00  0.00    -0.318 OA
BRANCH  30  31
ATOM     31  C   UNL d   1       7.110  -8.485   0.858  0.00  0.00     0.174 C 
ATOM     32  C   UNL d   1       7.771  -8.098  -0.454  0.00  0.00     0.034 C 
ENDBRANCH  30  31
ENDBRANCH  28  30
ENDBRANCH   3  28
TORSDOF 7
