REMARK  4 active torsions:
REMARK  status: ('A' for Active; 'I' for Inactive)
REMARK    1  A    between atoms: C_4  and  C_3 
REMARK    2  A    between atoms: C_7  and  O_11 
REMARK    3  A    between atoms: O_20  and  C_8 
REMARK    4  A    between atoms: O_11  and  C_12 
ROOT
ATOM      1  N   UNL d   1      -0.404  -1.897  -0.007  0.00  0.00    -0.352 N 
ATOM      2  HN  UNL d   1      -0.032  -2.847   0.006  1.00  0.00     0.166 HD
ATOM      3  C   UNL d   1      -1.750  -1.687  -0.017  0.00  0.00     0.119 A 
ATOM      4  C   UNL d   1      -0.017   0.495  -0.040  0.00  0.00     0.026 A 
ATOM      5  C   UNL d   1       0.430  -0.845  -0.013  0.00  0.00     0.045 A 
ATOM      6  C   UNL d   1      -1.414   0.675  -0.048  0.00  0.00     0.080 A 
ATOM      7  C   UNL d   1      -2.284  -0.407  -0.035  0.00  0.00     0.071 A 
ATOM      8  C   UNL d   1       0.944   1.542  -0.050  0.00  0.00     0.053 A 
ATOM      9  C   UNL d   1       2.308   1.271   0.033  0.00  0.00     0.079 A 
ATOM     10  C   UNL d   1       1.791  -1.091   0.002  0.00  0.00     0.033 A 
ATOM     11  C   UNL d   1       2.728  -0.056   0.027  0.00  0.00     0.039 A 
ENDROOT
BRANCH   9  12
ATOM     12  O   UNL d   1       3.313   2.186   0.081  0.00  0.00    -0.255 OA
BRANCH  12  13
ATOM     13  C   UNL d   1       3.076   3.460   0.665  0.00  0.00     0.530 C 
ATOM     14  F   UNL d   1       1.933   3.529   1.380  0.00  0.00    -0.144 F 
ATOM     15  F   UNL d   1       4.101   3.749   1.498  0.00  0.00    -0.144 F 
ATOM     16  F   UNL d   1       3.039   4.398  -0.305  0.00  0.00    -0.144 F 
ENDBRANCH  12  13
ENDBRANCH   9  12
BRANCH   6  17
ATOM     17  O   UNL d   1      -2.028   1.900  -0.055  0.00  0.00    -0.360 OA
ATOM     18  H   UNL d   1      -1.377   2.607   0.069  0.00  0.00     0.217 HD
ENDBRANCH   6  17
BRANCH   3  19
ATOM     19  C   UNL d   1      -2.701  -2.875  -0.006  0.00  0.00     0.432 C 
ATOM     20  F   UNL d   1      -2.085  -4.090   0.015  0.00  0.00    -0.165 F 
ATOM     21  F   UNL d   1      -3.536  -2.865   1.075  0.00  0.00    -0.165 F 
ATOM     22  F   UNL d   1      -3.522  -2.894  -1.097  0.00  0.00    -0.165 F 
ENDBRANCH   3  19
TORSDOF 4
