REMARK  3 active torsions:
REMARK  status: ('A' for Active; 'I' for Inactive)
REMARK    1  A    between atoms: C_2  and  C_1 
REMARK       I    between atoms: N_3  and  C_2 
REMARK    2  A    between atoms: N_4  and  N_3 
REMARK    3  A    between atoms: C_5  and  N_4 
ROOT
ATOM      1  C   UNL d   1       0.194   2.352   0.471  0.00  0.00     0.271 C 
ATOM      2  N   UNL d   1       1.328   2.994  -0.010  0.00  0.00    -0.282 N 
ATOM      3  O   UNL d   1       0.220   1.147   0.714  0.00  0.00    -0.266 OA
ATOM      4  H   UNL d   1       1.345   3.957  -0.339  0.00  0.00     0.184 HD
ENDROOT
BRANCH   2   5
ATOM      5  N   UNL d   1       2.396   2.177  -0.391  0.00  0.00    -0.203 NA
ATOM      6  H   UNL d   1       2.297   1.250   0.048  0.00  0.00     0.153 HD
BRANCH   5   7
ATOM      7  C   UNL d   1       3.704   2.675  -0.161  0.00  0.00     0.033 A 
ATOM      8  C   UNL d   1       4.116   3.533   0.876  0.00  0.00    -0.039 A 
ATOM      9  C   UNL d   1       5.475   3.917   0.949  0.00  0.00     0.015 A 
ATOM     10  C   UNL d   1       3.200   4.106   1.923  0.00  0.00     0.050 C 
ATOM     11  C   UNL d   1       6.438   3.409   0.068  0.00  0.00    -0.061 A 
ATOM     12  C   UNL d   1       6.038   2.495  -0.902  0.00  0.00     0.008 A 
ATOM     13  C   UNL d   1       7.868   3.846   0.177  0.00  0.00     0.048 C 
ATOM     14  C   UNL d   1       4.694   2.133  -1.005  0.00  0.00     0.026 A 
ENDBRANCH   5   7
ENDBRANCH   2   5
BRANCH   1  15
ATOM     15  C   UNL d   1      -1.028   3.181   0.704  0.00  0.00     0.093 A 
ATOM     16  C   UNL d   1      -2.286   2.615   0.984  0.00  0.00     0.052 A 
ATOM     17 CL   UNL d   1      -2.618   0.917   0.993  0.00  0.00    -0.083 Cl
ATOM     18  C   UNL d   1      -3.393   3.438   1.257  0.00  0.00     0.025 A 
ATOM     19  C   UNL d   1      -3.272   4.827   1.245  0.00  0.00     0.005 A 
ATOM     20  C   UNL d   1      -2.042   5.397   0.950  0.00  0.00     0.043 A 
ATOM     21  C   UNL d   1      -0.941   4.583   0.681  0.00  0.00     0.133 A 
ATOM     22  F   UNL d   1       0.216   5.201   0.404  0.00  0.00    -0.205 F 
ENDBRANCH   1  15
TORSDOF 3
