REMARK  8 active torsions:
REMARK  status: ('A' for Active; 'I' for Inactive)
REMARK    1  A    between atoms: C_6  and  C_5 
REMARK    2  A    between atoms: C_12  and  C_6 
REMARK    3  A    between atoms: O_22  and  C_7 
REMARK    4  A    between atoms: N_13  and  N_8 
REMARK    5  A    between atoms: O_24  and  C_10 
REMARK    6  A    between atoms: O_23  and  C_11 
REMARK    7  A    between atoms: O_25  and  C_12 
REMARK    8  A    between atoms: C_18  and  C_20 
ROOT
ATOM      1  N   UNL d   1       2.260  -4.262   1.463  0.00  0.00    -0.309 N 
ATOM      2  HN  UNL d   1       2.681  -4.955   2.082  1.00  0.00     0.186 HD
ATOM      3  C   UNL d   1       1.381  -4.530   0.552  0.00  0.00     0.118 C 
ENDROOT
BRANCH   1   4
ATOM      4  N   UNL d   1       2.554  -2.911   1.485  0.00  0.00    -0.280 N 
ATOM      5  C   UNL d   1       3.434  -2.523   2.348  0.00  0.00     0.164 C 
ATOM      6  N   UNL d   1       4.153  -3.207   3.295  0.00  0.00    -0.300 N 
ATOM      7  S   UNL d   1       3.829  -0.818   2.381  0.00  0.00    -0.077 SA
ATOM      8  C   UNL d   1       5.115  -2.482   3.967  0.00  0.00     0.240 C 
ATOM      9  C   UNL d   1       4.039  -4.626   3.566  0.00  0.00     0.161 C 
ATOM     10  C   UNL d   1       4.890  -0.994   3.843  0.00  0.00     0.157 C 
ATOM     11  O   UNL d   1       5.996  -2.958   4.677  0.00  0.00    -0.272 OA
ATOM     12  HN  UNL d   1       2.100  -2.253   0.851  1.00  0.00     0.189 HD
BRANCH  10  13
ATOM     13  C   UNL d   1       4.182  -0.562   5.124  0.00  0.00     0.135 C 
BRANCH  13  14
ATOM     14  C   UNL d   1       3.971   0.922   5.202  0.00  0.00     0.141 C 
ATOM     15  O   UNL d   1       4.695   1.754   4.681  0.00  0.00    -0.650 OA
BRANCH  14  16
ATOM     16  O   UNL d   1       2.914   1.266   5.981  0.00  0.00    -0.776 OA
ATOM     17  H   UNL d   1       2.424   0.510   6.367  0.00  0.00     0.167 HD
ENDBRANCH  14  16
ENDBRANCH  13  14
ENDBRANCH  10  13
ENDBRANCH   1   4
BRANCH   3  18
ATOM     18  C   UNL d   1       0.864  -5.895   0.354  0.00  0.00    -0.014 A 
ATOM     19  C   UNL d   1       1.312  -6.947   1.152  0.00  0.00     0.052 A 
ATOM     20  C   UNL d   1       0.803  -8.241   0.988  0.00  0.00     0.105 A 
ATOM     21  C   UNL d   1      -0.166  -8.472  -0.004  0.00  0.00     0.135 A 
ATOM     22  C   UNL d   1      -0.660  -7.390  -0.775  0.00  0.00     0.105 A 
ATOM     23  C   UNL d   1      -0.114  -6.112  -0.615  0.00  0.00     0.052 A 
BRANCH  20  24
ATOM     24  O   UNL d   1       1.366  -9.121   1.873  0.00  0.00    -0.353 OA
ATOM     25  C   UNL d   1       0.927 -10.470   1.882  0.00  0.00     0.210 C 
ENDBRANCH  20  24
BRANCH  21  26
ATOM     26  O   UNL d   1      -0.708  -9.726  -0.135  0.00  0.00    -0.351 OA
ATOM     27  C   UNL d   1      -0.584 -10.282  -1.444  0.00  0.00     0.210 C 
ENDBRANCH  21  26
BRANCH  22  28
ATOM     28  O   UNL d   1      -1.681  -7.668  -1.652  0.00  0.00    -0.353 OA
ATOM     29  C   UNL d   1      -2.414  -6.564  -2.170  0.00  0.00     0.210 C 
ENDBRANCH  22  28
ENDBRANCH   3  18
TORSDOF 8
