REMARK  8 active torsions:
REMARK  status: ('A' for Active; 'I' for Inactive)
REMARK    1  A    between atoms: C_4  and  C_1 
REMARK    2  A    between atoms: O_6  and  C_2 
REMARK    3  A    between atoms: C_3  and  O_6 
REMARK    4  A    between atoms: C_9  and  C_3 
REMARK    5  A    between atoms: O_10  and  C_4 
REMARK    6  A    between atoms: C_16  and  O_10 
REMARK    7  A    between atoms: C_11  and  C_16 
REMARK    8  A    between atoms: C_13  and  C_11 
ROOT
ATOM      1  C   UNL d   1       2.204  -0.855   0.690  0.00  0.00     0.074 A 
ATOM      2  C   UNL d   1       2.333   0.514   0.448  0.00  0.00     0.096 A 
ATOM      3  C   UNL d   1       0.947  -1.459   0.518  0.00  0.00     0.032 A 
ATOM      4  C   UNL d   1       1.206   1.287   0.134  0.00  0.00     0.050 A 
ATOM      5  C   UNL d   1      -0.194  -0.695   0.213  0.00  0.00    -0.025 A 
ATOM      6  C   UNL d   1      -0.065   0.701   0.043  0.00  0.00    -0.023 A 
ATOM      7  C   UNL d   1      -1.466  -1.282   0.115  0.00  0.00     0.012 A 
ATOM      8  C   UNL d   1      -1.214   1.476  -0.187  0.00  0.00     0.012 A 
ATOM      9  C   UNL d   1      -2.600  -0.497  -0.107  0.00  0.00     0.001 A 
ATOM     10  C   UNL d   1      -2.475   0.881  -0.248  0.00  0.00     0.001 A 
ENDROOT
BRANCH   1  11
ATOM     11  C   UNL d   1       3.283  -1.726   1.208  0.00  0.00     0.296 C 
ATOM     12  O   UNL d   1       3.411  -2.902   0.905  0.00  0.00    -0.259 OA
BRANCH  11  13
ATOM     13  O   UNL d   1       3.997  -1.059   2.149  0.00  0.00    -0.310 OA
BRANCH  13  14
ATOM     14  C   UNL d   1       4.979  -1.854   2.816  0.00  0.00     0.263 C 
BRANCH  14  15
ATOM     15  C   UNL d   1       4.441  -2.602   4.038  0.00  0.00     0.183 C 
ATOM     16  O   UNL d   1       3.276  -2.504   4.421  0.00  0.00    -0.290 OA
BRANCH  15  17
ATOM     17  C   UNL d   1       5.405  -3.418   4.840  0.00  0.00     0.012 A 
ATOM     18  C   UNL d   1       5.099  -3.691   6.184  0.00  0.00     0.017 A 
ATOM     19  C   UNL d   1       5.987  -4.428   6.978  0.00  0.00     0.025 A 
ATOM     20  C   UNL d   1       7.174  -4.905   6.429  0.00  0.00     0.034 A 
ATOM     21  C   UNL d   1       7.482  -4.653   5.094  0.00  0.00     0.025 A 
ATOM     22 CL   UNL d   1       8.267  -5.809   7.401  0.00  0.00    -0.084 Cl
ATOM     23  C   UNL d   1       6.601  -3.911   4.298  0.00  0.00     0.017 A 
ENDBRANCH  15  17
ENDBRANCH  14  15
ENDBRANCH  13  14
ENDBRANCH  11  13
ENDBRANCH   1  11
BRANCH   2  24
ATOM     24  O   UNL d   1       3.516   1.265   0.589  0.00  0.00    -0.274 OA
BRANCH  24  25
ATOM     25  C   UNL d   1       4.645   0.931  -0.142  0.00  0.00     0.298 C 
ATOM     26  O   UNL d   1       4.833  -0.084  -0.787  0.00  0.00    -0.259 OA
BRANCH  25  27
ATOM     27  C   UNL d   1       5.637   2.039  -0.011  0.00  0.00     0.040 A 
ATOM     28  C   UNL d   1       6.982   1.788  -0.318  0.00  0.00     0.019 A 
ATOM     29  C   UNL d   1       7.932   2.811  -0.214  0.00  0.00     0.025 A 
ATOM     30  C   UNL d   1       7.538   4.088   0.186  0.00  0.00     0.034 A 
ATOM     31  C   UNL d   1       6.202   4.354   0.474  0.00  0.00     0.025 A 
ATOM     32 CL   UNL d   1       8.705   5.344   0.322  0.00  0.00    -0.084 Cl
ATOM     33  C   UNL d   1       5.252   3.333   0.375  0.00  0.00     0.019 A 
ENDBRANCH  25  27
ENDBRANCH  24  25
ENDBRANCH   2  24
TORSDOF 8
