REMARK  13 active torsions:
REMARK  status: ('A' for Active; 'I' for Inactive)
REMARK    1  A    between atoms: O_19  and  C_1 
REMARK    2  A    between atoms: O_20  and  C_2 
REMARK    3  A    between atoms: O_21  and  C_3 
REMARK    4  A    between atoms: O_22  and  C_4 
REMARK    5  A    between atoms: O_23  and  C_5 
REMARK    6  A    between atoms: O_24  and  C_6 
REMARK    7  A    between atoms: C_11  and  C_18 
REMARK    8  A    between atoms: C_17  and  C_12 
REMARK    9  A    between atoms: C_26  and  N_13 
REMARK   10  A    between atoms: N_15  and  C_25 
REMARK   11  A    between atoms: C_25  and  C_33 
REMARK   12  A    between atoms: C_34  and  C_26 
REMARK   13  A    between atoms: C_33  and  C_34 
ROOT
ATOM      1  C   UNL d   1      -7.364  -1.398  -0.793  0.00  0.00     0.021 C 
ENDROOT
BRANCH   1   2
ATOM      2  C   UNL d   1      -8.168  -2.694  -0.871  0.00  0.00     0.119 C 
BRANCH   2   3
ATOM      3  N   UNL d   1      -9.578  -2.327  -0.996  0.00  0.00    -0.398 N 
ATOM      4  C   UNL d   1     -10.400  -3.297  -0.788  0.00  0.00     0.094 C 
ATOM      5  HN  UNL d   1      -9.885  -1.382  -1.229  1.00  0.00     0.158 HD
BRANCH   4   6
ATOM      6  C   UNL d   1     -11.854  -3.087  -0.901  0.00  0.00    -0.016 A 
ATOM      7  C   UNL d   1     -12.701  -4.186  -0.974  0.00  0.00     0.052 A 
ATOM      8  C   UNL d   1     -14.085  -4.008  -1.117  0.00  0.00     0.105 A 
ATOM      9  C   UNL d   1     -14.617  -2.704  -1.150  0.00  0.00     0.135 A 
ATOM     10  C   UNL d   1     -13.753  -1.595  -0.984  0.00  0.00     0.105 A 
ATOM     11  C   UNL d   1     -12.372  -1.794  -0.922  0.00  0.00     0.052 A 
BRANCH   8  12
ATOM     12  O   UNL d   1     -14.732  -5.216  -1.204  0.00  0.00    -0.353 OA
ATOM     13  C   UNL d   1     -16.144  -5.237  -1.334  0.00  0.00     0.210 C 
ENDBRANCH   8  12
BRANCH   9  14
ATOM     14  O   UNL d   1     -15.979  -2.535  -1.206  0.00  0.00    -0.351 OA
ATOM     15  C   UNL d   1     -16.442  -1.679  -2.253  0.00  0.00     0.210 C 
ENDBRANCH   9  14
BRANCH  10  16
ATOM     16  O   UNL d   1     -14.328  -0.351  -0.865  0.00  0.00    -0.353 OA
ATOM     17  C   UNL d   1     -13.515   0.676  -0.305  0.00  0.00     0.210 C 
ENDBRANCH  10  16
ENDBRANCH   4   6
ENDBRANCH   2   3
ENDBRANCH   1   2
BRANCH   1  18
ATOM     18  C   UNL d   1      -5.873  -1.627  -0.563  0.00  0.00     0.021 C 
BRANCH  18  19
ATOM     19  C   UNL d   1      -5.188  -2.354  -1.717  0.00  0.00     0.119 C 
BRANCH  19  20
ATOM     20  N   UNL d   1      -3.767  -2.477  -1.386  0.00  0.00    -0.398 N 
ATOM     21  C   UNL d   1      -3.081  -3.077  -2.296  0.00  0.00     0.094 C 
ATOM     22  HN  UNL d   1      -3.361  -2.122  -0.521  1.00  0.00     0.158 HD
BRANCH  21  23
ATOM     23  C   UNL d   1      -1.635  -3.319  -2.147  0.00  0.00    -0.016 A 
ATOM     24  C   UNL d   1      -0.958  -2.950  -0.986  0.00  0.00     0.052 A 
ATOM     25  C   UNL d   1       0.419  -3.169  -0.868  0.00  0.00     0.105 A 
ATOM     26  C   UNL d   1       1.120  -3.796  -1.912  0.00  0.00     0.135 A 
ATOM     27  C   UNL d   1       0.404  -4.257  -3.045  0.00  0.00     0.105 A 
ATOM     28  C   UNL d   1      -0.958  -3.968  -3.178  0.00  0.00     0.052 A 
BRANCH  25  29
ATOM     29  O   UNL d   1       0.904  -2.808   0.368  0.00  0.00    -0.353 OA
ATOM     30  C   UNL d   1       2.221  -2.287   0.408  0.00  0.00     0.210 C 
ENDBRANCH  25  29
BRANCH  26  31
ATOM     31  O   UNL d   1       2.448  -4.085  -1.739  0.00  0.00    -0.351 OA
ATOM     32  C   UNL d   1       3.304  -3.625  -2.786  0.00  0.00     0.210 C 
ENDBRANCH  26  31
BRANCH  27  33
ATOM     33  O   UNL d   1       1.093  -5.009  -3.968  0.00  0.00    -0.353 OA
ATOM     34  C   UNL d   1       0.318  -5.839  -4.824  0.00  0.00     0.210 C 
ENDBRANCH  27  33
ENDBRANCH  21  23
ENDBRANCH  19  20
ENDBRANCH  18  19
ENDBRANCH   1  18
TORSDOF 13
