REMARK  4 active torsions:
REMARK  status: ('A' for Active; 'I' for Inactive)
REMARK    1  A    between atoms: C_3  and  S_1 
REMARK    2  A    between atoms: N_4  and  S_1 
REMARK    3  A    between atoms: N_2  and  C_7 
REMARK    4  A    between atoms: C_11  and  N_4 
ROOT
ATOM      1  N   UNL d   1       0.376  -0.970  -1.349  0.00  0.00    -0.281 N 
ATOM      2  H   UNL d   1      -0.279  -1.693  -1.058  0.00  0.00     0.179 HD
ENDROOT
BRANCH   1   3
ATOM      3  S   UNL d   1       1.050  -0.047  -0.125  0.00  0.00     0.264 S 
ATOM      4  O   UNL d   1       0.314  -0.332   1.086  0.00  0.00    -0.200 OA
ATOM      5  O   UNL d   1       2.486  -0.243  -0.172  0.00  0.00    -0.200 OA
BRANCH   3   6
ATOM      6  C   UNL d   1       0.695   1.630  -0.600  0.00  0.00     0.096 A 
ATOM      7  C   UNL d   1      -0.602   2.125  -0.789  0.00  0.00     0.029 A 
ATOM      8  I   UNL d   1      -2.386   1.040  -0.541  0.00  0.00    -0.043 I 
ATOM      9  C   UNL d   1      -0.771   3.459  -1.196  0.00  0.00     0.020 A 
ATOM     10  C   UNL d   1       0.332   4.293  -1.395  0.00  0.00     0.001 A 
ATOM     11  C   UNL d   1       1.617   3.804  -1.191  0.00  0.00     0.002 A 
ATOM     12  C   UNL d   1       1.800   2.479  -0.797  0.00  0.00     0.027 A 
ENDBRANCH   3   6
ENDBRANCH   1   3
BRANCH   1  13
ATOM     13  C   UNL d   1       0.907  -0.952  -2.656  0.00  0.00     0.042 A 
ATOM     14  C   UNL d   1       1.943  -1.816  -3.010  0.00  0.00     0.032 A 
ATOM     15  C   UNL d   1       2.419  -1.831  -4.326  0.00  0.00     0.038 A 
ATOM     16  C   UNL d   1       1.847  -0.975  -5.279  0.00  0.00     0.103 A 
ATOM     17  C   UNL d   1       0.807  -0.108  -4.922  0.00  0.00     0.038 A 
ATOM     18  C   UNL d   1       0.335  -0.107  -3.609  0.00  0.00     0.032 A 
BRANCH  16  19
ATOM     19  N   UNL d   1       2.328  -0.994  -6.666  0.00  0.00    -0.116 N 
ATOM     20  O   UNL d   1       3.244  -1.780  -6.947  0.00  0.00    -0.532 OA
ATOM     21  O   UNL d   1       1.787  -0.226  -7.473  0.00  0.00    -0.532 OA
ENDBRANCH  16  19
ENDBRANCH   1  13
TORSDOF 4
