REMARK  4 active torsions:
REMARK  status: ('A' for Active; 'I' for Inactive)
REMARK    1  A    between atoms: C_5  and  S_1 
REMARK    2  A    between atoms: N_7  and  S_1 
REMARK    3  A    between atoms: C_2  and  C_13 
REMARK    4  A    between atoms: C_13  and  N_7 
ROOT
ATOM      1  N   UNL d   1       0.440   1.609  -0.589  0.00  0.00    -0.211 NA
ATOM      2  H   UNL d   1      -0.576   1.663  -0.614  0.00  0.00     0.140 HD
ENDROOT
BRANCH   1   3
ATOM      3  S   UNL d   1       0.975   0.113  -0.005  0.00  0.00     0.241 S 
ATOM      4  O   UNL d   1       0.221  -0.911  -0.684  0.00  0.00    -0.206 OA
ATOM      5  O   UNL d   1       2.422   0.140   0.016  0.00  0.00    -0.206 OA
BRANCH   3   6
ATOM      6  C   UNL d   1       0.383   0.183   1.670  0.00  0.00     0.075 A 
ATOM      7  C   UNL d   1      -0.997   0.334   1.863  0.00  0.00     0.034 A 
ATOM      8  C   UNL d   1      -1.423   0.668   3.130  0.00  0.00    -0.021 A 
ATOM      9  C   UNL d   1      -2.785   0.972   3.619  0.00  0.00     0.068 C 
ATOM     10  C   UNL d   1      -0.524   0.771   4.182  0.00  0.00     0.075 A 
ATOM     11  C   UNL d   1      -2.394   1.686   4.913  0.00  0.00     0.180 C 
ATOM     12  O   UNL d   1      -1.114   1.170   5.354  0.00  0.00    -0.350 OA
ATOM     13  C   UNL d   1       0.826   0.524   4.028  0.00  0.00     0.039 A 
ATOM     14  C   UNL d   1       1.293   0.240   2.742  0.00  0.00     0.027 A 
ENDBRANCH   3   6
ENDBRANCH   1   3
BRANCH   1  15
ATOM     15  C   UNL d   1       1.115   2.795  -0.051  0.00  0.00     0.144 C 
BRANCH  15  16
ATOM     16  C   UNL d   1       0.377   4.012  -0.534  0.00  0.00    -0.026 A 
ATOM     17  C   UNL d   1      -0.403   4.916   0.295  0.00  0.00    -0.009 A 
ATOM     18  C   UNL d   1      -0.918   5.983  -0.453  0.00  0.00     0.015 A 
ATOM     19  C   UNL d   1      -0.696   4.892   1.685  0.00  0.00     0.037 A 
ATOM     20  C   UNL d   1      -1.685   7.009   0.137  0.00  0.00     0.021 A 
ATOM     21  S   UNL d   1      -0.493   5.855  -2.114  0.00  0.00    -0.101 SA
ATOM     22  C   UNL d   1      -1.948   6.959   1.506  0.00  0.00     0.025 A 
ATOM     23  C   UNL d   1      -1.462   5.908   2.267  0.00  0.00     0.035 A 
ATOM     24 CL   UNL d   1      -1.803   5.852   3.954  0.00  0.00    -0.084 Cl
ATOM     25  C   UNL d   1       0.382   4.422  -1.855  0.00  0.00     0.059 A 
ENDBRANCH  15  16
ENDBRANCH   1  15
TORSDOF 4
