REMARK  3 active torsions:
REMARK  status: ('A' for Active; 'I' for Inactive)
REMARK    1  A    between atoms: O_4  and  C_5 
REMARK    2  A    between atoms: C_8  and  O_4 
REMARK    3  A    between atoms: C_7  and  C_8 
ROOT
ATOM      1  N   UNL d   1      -2.699   0.388   2.374  0.00  0.00    -0.191 NA
ATOM      2  C   UNL d   1      -1.608   0.313   1.984  0.00  0.00     0.099 C 
ATOM      3  C   UNL d   1      -0.258   0.235   1.510  0.00  0.00     0.044 A 
ATOM      4  C   UNL d   1       2.412   0.116   0.657  0.00  0.00     0.069 A 
ATOM      5  C   UNL d   1       0.450  -0.966   1.589  0.00  0.00     0.025 A 
ATOM      6  C   UNL d   1       0.362   1.368   0.972  0.00  0.00     0.025 A 
ATOM      7  C   UNL d   1       1.690   1.306   0.539  0.00  0.00     0.038 A 
ATOM      8  C   UNL d   1       1.779  -1.024   1.157  0.00  0.00     0.038 A 
ENDROOT
BRANCH   4   9
ATOM      9  O   UNL d   1       3.729  -0.049   0.319  0.00  0.00    -0.347 OA
BRANCH   9  10
ATOM     10  C   UNL d   1       4.502   1.151   0.245  0.00  0.00     0.214 C 
BRANCH  10  11
ATOM     11  C   UNL d   1       5.970   0.812   0.328  0.00  0.00    -0.034 A 
ATOM     12  C   UNL d   1       6.599   0.095  -0.700  0.00  0.00     0.011 A 
ATOM     13  C   UNL d   1       7.967  -0.184  -0.634  0.00  0.00     0.024 A 
ATOM     14  C   UNL d   1       8.711   0.251   0.461  0.00  0.00     0.034 A 
ATOM     15  C   UNL d   1       8.099   0.955   1.495  0.00  0.00     0.024 A 
ATOM     16 CL   UNL d   1      10.398  -0.080   0.536  0.00  0.00    -0.084 Cl
ATOM     17  C   UNL d   1       6.732   1.232   1.430  0.00  0.00     0.011 A 
ENDBRANCH  10  11
ENDBRANCH   9  10
ENDBRANCH   4   9
TORSDOF 3
