REMARK  6 active torsions:
REMARK  status: ('A' for Active; 'I' for Inactive)
REMARK    1  A    between atoms: S_9  and  C_1 
REMARK    2  A    between atoms: C_10  and  C_4 
REMARK    3  A    between atoms: C_14  and  S_9 
REMARK    4  A    between atoms: C_11  and  C_14 
REMARK    5  A    between atoms: C_20  and  C_11 
REMARK    6  A    between atoms: C_12  and  C_13 
ROOT
ATOM      1  C   UNL d   1      -0.829   1.183  -0.017  0.00  0.00     0.174 C 
ATOM      2  N   UNL d   1       1.300   0.047   0.146  0.00  0.00    -0.282 N 
ATOM      3  HN  UNL d   1       2.312   0.055   0.274  1.00  0.00     0.188 HD
ATOM      4  C   UNL d   1       0.576  -1.047   0.144  0.00  0.00     0.145 C 
ATOM      5  N   UNL d   1      -1.569   0.109  -0.048  0.00  0.00    -0.277 N 
ATOM      6  HN  UNL d   1      -2.588   0.118  -0.057  1.00  0.00     0.189 HD
ATOM      7  N   UNL d   1      -0.806  -1.041  -0.069  0.00  0.00    -0.282 N 
ATOM      8  N   UNL d   1       0.547   1.181  -0.044  0.00  0.00    -0.277 N 
ATOM      9  H   UNL d   1      -1.314  -1.905   0.093  0.00  0.00     0.188 HD
ATOM     10  H   UNL d   1       1.002   2.077   0.095  0.00  0.00     0.189 HD
ENDROOT
BRANCH   1  11
ATOM     11  S   UNL d   1      -1.579   2.760   0.097  0.00  0.00    -0.084 SA
BRANCH  11  12
ATOM     12  C   UNL d   1      -3.018   2.320   1.123  0.00  0.00     0.166 C 
BRANCH  12  13
ATOM     13  C   UNL d   1      -2.620   1.731   2.467  0.00  0.00     0.169 C 
ATOM     14  O   UNL d   1      -1.595   2.067   3.062  0.00  0.00    -0.291 OA
BRANCH  13  15
ATOM     15  C   UNL d   1      -3.541   0.749   3.133  0.00  0.00     0.010 A 
ATOM     16  C   UNL d   1      -4.806   0.423   2.622  0.00  0.00     0.015 A 
ATOM     17  C   UNL d   1      -5.614  -0.511   3.278  0.00  0.00     0.001 A 
ATOM     18  C   UNL d   1      -5.176  -1.118   4.454  0.00  0.00     0.000 A 
ATOM     19  C   UNL d   1      -3.931  -0.788   4.980  0.00  0.00     0.001 A 
ATOM     20  C   UNL d   1      -3.117   0.140   4.324  0.00  0.00     0.015 A 
ENDBRANCH  13  15
ENDBRANCH  12  13
ENDBRANCH  11  12
ENDBRANCH   1  11
BRANCH   4  21
ATOM     21  C   UNL d   1       1.251  -2.344   0.452  0.00  0.00     0.011 A 
ATOM     22  C   UNL d   1       2.352  -2.351   1.309  0.00  0.00     0.016 A 
ATOM     23  C   UNL d   1       2.933  -3.562   1.699  0.00  0.00     0.009 A 
ATOM     24  C   UNL d   1       2.441  -4.798   1.234  0.00  0.00    -0.051 A 
ATOM     25  C   UNL d   1       1.349  -4.762   0.348  0.00  0.00     0.009 A 
ATOM     26  C   UNL d   1       0.760  -3.552  -0.042  0.00  0.00     0.016 A 
BRANCH  24  27
ATOM     27  C   UNL d   1       3.101  -6.114   1.685  0.00  0.00    -0.024 C 
ATOM     28  C   UNL d   1       2.446  -7.373   1.074  0.00  0.00     0.019 C 
ATOM     29  C   UNL d   1       4.586  -6.119   1.263  0.00  0.00     0.019 C 
ATOM     30  C   UNL d   1       3.014  -6.257   3.220  0.00  0.00     0.019 C 
ENDBRANCH  24  27
ENDBRANCH   4  21
TORSDOF 6
