REMARK  4 active torsions:
REMARK  status: ('A' for Active; 'I' for Inactive)
REMARK    1  A    between atoms: S_7  and  C_1 
REMARK       I    between atoms: C_6  and  N_11 
REMARK       I    between atoms: N_14  and  C_6 
REMARK    2  A    between atoms: C_15  and  S_7 
REMARK    3  A    between atoms: N_11  and  C_16 
REMARK    4  A    between atoms: C_13  and  N_14 
ROOT
ATOM      1  C   UNL d   1       2.709   1.048  -2.627  0.00  0.00     0.096 C 
ATOM      2  C   UNL d   1       1.616   0.661  -3.416  0.00  0.00     0.085 C 
ATOM      3  N   UNL d   1       2.959   2.360  -2.390  0.00  0.00    -0.349 N 
ATOM      4  HN  UNL d   1       3.803   2.646  -1.894  1.00  0.00     0.166 HD
ATOM      5  C   UNL d   1       0.710   1.618  -3.923  0.00  0.00    -0.026 C 
ATOM      6  C   UNL d   1       0.882   2.961  -3.542  0.00  0.00    -0.002 A 
ATOM      7  C   UNL d   1       1.365  -0.723  -3.651  0.00  0.00     0.103 C 
ATOM      8  C   UNL d   1       2.060   3.292  -2.829  0.00  0.00     0.043 A 
ATOM      9  N   UNL d   1       1.129  -1.846  -3.855  0.00  0.00    -0.191 NA
ATOM     10  C   UNL d   1      -0.460   1.204  -4.795  0.00  0.00     0.050 C 
ATOM     11  C   UNL d   1      -0.087   3.958  -3.826  0.00  0.00     0.014 A 
ATOM     12  C   UNL d   1       2.256   4.645  -2.549  0.00  0.00     0.030 A 
ATOM     13  C   UNL d   1       0.101   5.279  -3.443  0.00  0.00     0.001 A 
ATOM     14  C   UNL d   1       1.293   5.626  -2.838  0.00  0.00     0.002 A 
ENDROOT
BRANCH   1  15
ATOM     15  S   UNL d   1       3.647  -0.252  -1.727  0.00  0.00    -0.069 SA
BRANCH  15  16
ATOM     16  C   UNL d   1       5.304   0.330  -1.460  0.00  0.00     0.034 C 
ATOM     17  C   UNL d   1       6.430  -0.194  -2.122  0.00  0.00     0.053 C 
ATOM     18  C   UNL d   1       7.619   0.542  -2.132  0.00  0.00     0.031 C 
ATOM     19  C   UNL d   1       7.826   1.521  -1.165  0.00  0.00     0.002 C 
ATOM     20  C   UNL d   1       6.838   1.747  -0.215  0.00  0.00     0.002 C 
ATOM     21  C   UNL d   1       5.567   1.190  -0.390  0.00  0.00     0.021 C 
BRANCH  17  22
ATOM     22  N   UNL d   1       6.429  -1.546  -2.567  0.00  0.00    -0.307 N 
ATOM     23  C   UNL d   1       7.308  -2.560  -2.177  0.00  0.00     0.325 C 
ATOM     24  N   UNL d   1       8.396  -2.191  -1.420  0.00  0.00    -0.309 N 
ATOM     25  O   UNL d   1       7.023  -3.721  -2.462  0.00  0.00    -0.247 OA
ATOM     26  H   UNL d   1       8.450  -1.218  -1.179  0.00  0.00     0.170 HD
ATOM     27  H   UNL d   1       5.516  -1.955  -2.744  0.00  0.00     0.170 HD
BRANCH  24  28
ATOM     28  C   UNL d   1       9.384  -2.981  -0.787  0.00  0.00     0.039 A 
ATOM     29  C   UNL d   1       9.454  -4.372  -0.830  0.00  0.00     0.053 A 
ATOM     30  C   UNL d   1      10.458  -5.047  -0.116  0.00  0.00     0.037 A 
ATOM     31 CL   UNL d   1      10.520  -6.771  -0.140  0.00  0.00    -0.084 Cl
ATOM     32  C   UNL d   1      11.390  -4.354   0.655  0.00  0.00     0.048 A 
ATOM     33  C   UNL d   1      11.335  -2.968   0.683  0.00  0.00     0.037 A 
ATOM     34  C   UNL d   1      10.343  -2.287  -0.028  0.00  0.00     0.053 A 
ATOM     35 CL   UNL d   1      12.483  -2.081   1.607  0.00  0.00    -0.084 Cl
ENDBRANCH  24  28
ENDBRANCH  17  22
ENDBRANCH  15  16
ENDBRANCH   1  15
TORSDOF 4
