REMARK  6 active torsions:
REMARK  status: ('A' for Active; 'I' for Inactive)
REMARK       I    between atoms: N_3  and  C_1 
REMARK    1  A    between atoms: C_5  and  C_1 
REMARK    2  A    between atoms: S_2  and  C_5 
REMARK    3  A    between atoms: C_11  and  S_2 
REMARK    4  A    between atoms: C_4  and  N_3 
REMARK    5  A    between atoms: C_14  and  C_5 
REMARK    6  A    between atoms: N_18  and  C_13 
ROOT
ATOM      1  C   UNL d   1       0.216   0.618  -1.189  0.00  0.00     0.177 C 
ENDROOT
BRANCH   1   2
ATOM      2  S   UNL d   1       0.790  -0.076  -2.823  0.00  0.00    -0.109 SA
BRANCH   2   3
ATOM      3  C   UNL d   1       0.247  -1.808  -2.813  0.00  0.00     0.022 A 
ATOM      4  C   UNL d   1       0.386  -2.548  -4.012  0.00  0.00     0.022 A 
ATOM      5  C   UNL d   1       0.010  -3.899  -4.033  0.00  0.00     0.024 A 
ATOM      6  C   UNL d   1      -0.584  -4.501  -2.928  0.00  0.00     0.002 A 
ATOM      7  C   UNL d   1      -0.773  -3.767  -1.766  0.00  0.00     0.001 A 
ATOM      8  C   UNL d   1      -0.355  -2.435  -1.713  0.00  0.00     0.020 A 
BRANCH   4   9
ATOM      9  N   UNL d   1       1.076  -2.028  -5.128  0.00  0.00    -0.302 NA
ATOM     10  H   UNL d   1       1.071  -1.010  -5.126  0.00  0.00     0.124 HD
ATOM     11  H   UNL d   1       0.771  -2.422  -6.011  0.00  0.00     0.124 HD
ENDBRANCH   4   9
ENDBRANCH   2   3
ENDBRANCH   1   2
BRANCH   1  12
ATOM     12  C   UNL d   1       1.015  -0.113  -0.064  0.00  0.00     0.240 C 
ATOM     13  N   UNL d   1       2.380  -0.239  -0.276  0.00  0.00    -0.324 N 
ATOM     14  H   UNL d   1       2.837   0.436  -0.881  0.00  0.00     0.169 HD
ATOM     15  O   UNL d   1       0.488  -0.529   0.971  0.00  0.00    -0.272 OA
BRANCH  13  16
ATOM     16  C   UNL d   1       3.211  -1.104   0.477  0.00  0.00     0.058 A 
ATOM     17  C   UNL d   1       2.720  -2.319   0.978  0.00  0.00     0.057 A 
ATOM     18  C   UNL d   1       3.538  -3.166   1.731  0.00  0.00     0.058 A 
ATOM     19 CL   UNL d   1       2.866  -4.660   2.277  0.00  0.00    -0.082 Cl
ATOM     20  C   UNL d   1       4.855  -2.789   2.007  0.00  0.00     0.057 A 
ATOM     21  C   UNL d   1       5.364  -1.593   1.489  0.00  0.00     0.051 A 
ATOM     22 CL   UNL d   1       5.907  -3.753   2.982  0.00  0.00    -0.082 Cl
ATOM     23  C   UNL d   1       4.552  -0.771   0.705  0.00  0.00     0.062 A 
ATOM     24 CL   UNL d   1       5.219   0.701   0.089  0.00  0.00    -0.082 Cl
ENDBRANCH  13  16
ENDBRANCH   1  12
BRANCH   1  25
ATOM     25  C   UNL d   1      -1.314   0.629  -0.995  0.00  0.00    -0.035 C 
ATOM     26  C   UNL d   1      -2.230   0.302  -2.012  0.00  0.00     0.009 C 
ATOM     27  C   UNL d   1      -3.592   0.137  -1.743  0.00  0.00     0.001 C 
ATOM     28  C   UNL d   1      -4.081   0.357  -0.461  0.00  0.00     0.000 C 
ATOM     29  C   UNL d   1      -3.216   0.789   0.537  0.00  0.00     0.001 C 
ATOM     30  C   UNL d   1      -1.853   0.944   0.267  0.00  0.00     0.009 C 
ENDBRANCH   1  25
TORSDOF 6
