REMARK  2 active torsions:
REMARK  status: ('A' for Active; 'I' for Inactive)
REMARK    1  A    between atoms: N_12  and  C_3 
REMARK    2  A    between atoms: C_14  and  N_12 
ROOT
ATOM      1  N   UNL d   1       0.123   0.277   0.068  0.00  0.00    -0.284 N 
ATOM      2  C   UNL d   1      -0.068  -1.116   0.055  0.00  0.00     0.136 A 
ATOM      3  C   UNL d   1      -0.955   1.211   0.013  0.00  0.00     0.100 A 
ATOM      4  C   UNL d   1      -1.399  -1.623  -0.005  0.00  0.00     0.096 A 
ATOM      5  N   UNL d   1       1.075  -1.768   0.081  0.00  0.00    -0.339 N 
ATOM      6  HN  UNL d   1       1.207  -2.780   0.096  1.00  0.00     0.167 HD
ATOM      7  C   UNL d   1      -2.200   0.699  -0.110  0.00  0.00    -0.011 A 
ATOM      8  C   UNL d   1      -2.417  -0.743  -0.099  0.00  0.00    -0.024 A 
ATOM      9  C   UNL d   1       1.502   0.474   0.088  0.00  0.00     0.069 A 
ATOM     10  C   UNL d   1       2.046  -0.810   0.085  0.00  0.00     0.061 A 
ATOM     11  C   UNL d   1      -1.639  -3.027   0.007  0.00  0.00     0.104 C 
ATOM     12  N   UNL d   1      -1.901  -4.160   0.013  0.00  0.00    -0.191 NA
ATOM     13  C   UNL d   1      -3.531   1.381  -0.208  0.00  0.00     0.043 C 
ATOM     14  C   UNL d   1      -3.888  -1.022  -0.171  0.00  0.00     0.041 C 
ATOM     15  C   UNL d   1       2.323   1.614   0.085  0.00  0.00     0.032 A 
ATOM     16  C   UNL d   1       3.438  -0.985   0.073  0.00  0.00     0.032 A 
ATOM     17  C   UNL d   1      -4.513   0.304   0.248  0.00  0.00     0.009 C 
ATOM     18  C   UNL d   1       3.710   1.421   0.074  0.00  0.00     0.002 A 
ATOM     19  C   UNL d   1       4.263   0.141   0.066  0.00  0.00     0.002 A 
ENDROOT
BRANCH   3  20
ATOM     20  N   UNL d   1      -0.669   2.575   0.015  0.00  0.00    -0.244 NA
ATOM     21  H   UNL d   1      -1.230   3.053  -0.694  0.00  0.00     0.135 HD
BRANCH  20  22
ATOM     22  C   UNL d   1      -0.755   3.380   1.190  0.00  0.00     0.014 A 
ATOM     23  C   UNL d   1      -0.949   2.853   2.473  0.00  0.00     0.025 A 
ATOM     24  C   UNL d   1      -1.098   3.701   3.576  0.00  0.00     0.025 A 
ATOM     25  C   UNL d   1      -1.005   5.081   3.410  0.00  0.00     0.034 A 
ATOM     26  C   UNL d   1      -0.715   5.617   2.160  0.00  0.00     0.025 A 
ATOM     27 CL   UNL d   1      -1.262   6.125   4.752  0.00  0.00    -0.084 Cl
ATOM     28  C   UNL d   1      -0.581   4.768   1.058  0.00  0.00     0.025 A 
ENDBRANCH  20  22
ENDBRANCH   3  20
TORSDOF 2
