REMARK  5 active torsions:
REMARK  status: ('A' for Active; 'I' for Inactive)
REMARK       I    between atoms: C_2  and  N_1 
REMARK    1  A    between atoms: C_8  and  C_2 
REMARK    2  A    between atoms: C_5  and  C_3 
REMARK    3  A    between atoms: C_6  and  C_5 
REMARK       I    between atoms: N_9  and  C_6 
REMARK    4  A    between atoms: C_20  and  N_9 
REMARK    5  A    between atoms: N_13  and  C_11 
ROOT
ATOM      1  N   UNL d   1      -1.415  -1.161   0.309  0.00  0.00    -0.333 N 
ATOM      2  C   UNL d   1      -2.204  -2.089   1.002  0.00  0.00     0.254 C 
ATOM      3  C   UNL d   1       0.080  -1.184   0.378  0.00  0.00     0.188 C 
ATOM      4  C   UNL d   1       0.626   0.080   1.092  0.00  0.00     0.241 C 
ATOM      5  N   UNL d   1      -0.040   1.264   0.854  0.00  0.00    -0.358 N 
ATOM      6  O   UNL d   1      -1.730  -2.991   1.691  0.00  0.00    -0.267 OA
ATOM      7  O   UNL d   1       1.700   0.128   1.688  0.00  0.00    -0.271 OA
ATOM      8  C   UNL d   1      -1.913   0.096  -0.276  0.00  0.00     0.147 C 
ATOM      9  C   UNL d   1      -1.448   1.299   0.542  0.00  0.00     0.142 C 
ATOM     10  H   UNL d   1       0.370   2.052   1.340  0.00  0.00     0.162 HD
ENDROOT
BRANCH   3  11
ATOM     11  C   UNL d   1       0.805  -2.419   0.930  0.00  0.00     0.138 C 
BRANCH  11  12
ATOM     12  C   UNL d   1       0.735  -3.585  -0.032  0.00  0.00     0.224 C 
ATOM     13  N   UNL d   1       0.266  -4.752   0.543  0.00  0.00    -0.327 N 
ATOM     14  H   UNL d   1      -0.279  -4.626   1.394  0.00  0.00     0.169 HD
ATOM     15  O   UNL d   1       1.109  -3.447  -1.198  0.00  0.00    -0.273 OA
BRANCH  13  16
ATOM     16  C   UNL d   1       0.201  -6.017  -0.080  0.00  0.00     0.034 A 
ATOM     17  C   UNL d   1       0.896  -6.327  -1.254  0.00  0.00     0.032 A 
ATOM     18  C   UNL d   1       0.721  -7.565  -1.880  0.00  0.00     0.044 A 
ATOM     19  C   UNL d   1      -0.132  -8.501  -1.317  0.00  0.00     0.116 A 
ATOM     20  C   UNL d   1      -0.783  -8.239  -0.118  0.00  0.00     0.044 A 
ATOM     21  F   UNL d   1      -0.331  -9.672  -1.937  0.00  0.00    -0.206 F 
ATOM     22  C   UNL d   1      -0.609  -7.000   0.508  0.00  0.00     0.032 A 
ENDBRANCH  13  16
ENDBRANCH  11  12
ENDBRANCH   3  11
BRANCH   2  23
ATOM     23  C   UNL d   1      -3.695  -2.033   0.952  0.00  0.00     0.032 A 
ATOM     24  C   UNL d   1      -4.416  -1.724  -0.197  0.00  0.00     0.019 A 
ATOM     25  C   UNL d   1      -5.814  -1.599  -0.148  0.00  0.00     0.030 A 
ATOM     26  C   UNL d   1      -6.558  -1.888   1.008  0.00  0.00     0.029 A 
ATOM     27  C   UNL d   1      -5.812  -2.321   2.116  0.00  0.00     0.030 A 
ATOM     28  C   UNL d   1      -4.409  -2.380   2.100  0.00  0.00     0.019 A 
BRANCH  26  29
ATOM     29  N   UNL d   1      -7.938  -1.791   1.045  0.00  0.00    -0.390 N 
ATOM     30  C   UNL d   1      -8.672  -1.582   2.291  0.00  0.00     0.149 C 
ATOM     31  C   UNL d   1      -8.757  -1.718  -0.163  0.00  0.00     0.149 C 
ENDBRANCH  26  29
ENDBRANCH   2  23
TORSDOF 5
