REMARK  2 active torsions:
REMARK  status: ('A' for Active; 'I' for Inactive)
REMARK    1  A    between atoms: C_8  and  N_1 
REMARK    2  A    between atoms: N_2  and  C_7 
ROOT
ATOM      1  C   UNL d   1      -5.526   0.785  -1.742  0.00  0.00     0.118 A 
ATOM      2  C   UNL d   1      -3.664  -0.011  -0.523  0.00  0.00     0.118 A 
ATOM      3  N   UNL d   1      -4.182   0.692  -1.565  0.00  0.00    -0.328 N 
ATOM      4  HN  UNL d   1      -3.554   1.156  -2.221  1.00  0.00     0.169 HD
ATOM      5  C   UNL d   1      -4.512  -0.682   0.357  0.00  0.00     0.049 A 
ATOM      6  C   UNL d   1      -6.394   0.187  -0.832  0.00  0.00     0.049 A 
ATOM      7  C   UNL d   1      -5.885  -0.568   0.212  0.00  0.00     0.007 A 
ENDROOT
BRANCH   1   8
ATOM      8  N   UNL d   1      -6.061   1.397  -2.910  0.00  0.00    -0.236 N 
ATOM      9  C   UNL d   1      -5.355   1.543  -4.083  0.00  0.00     0.237 C 
ATOM     10  C   UNL d   1      -6.344   1.837  -5.193  0.00  0.00     0.095 C 
ATOM     11  O   UNL d   1      -4.172   1.335  -4.310  0.00  0.00    -0.272 OA
ATOM     12  C   UNL d   1      -5.815   2.815  -6.238  0.00  0.00     0.042 C 
ATOM     13  C   UNL d   1      -7.649   2.158  -4.481  0.00  0.00     0.095 C 
ATOM     14  C   UNL d   1      -6.425   4.176  -6.218  0.00  0.00    -0.030 C 
ATOM     15  C   UNL d   1      -7.509   4.502  -5.510  0.00  0.00    -0.030 C 
ATOM     16  C   UNL d   1      -8.258   3.552  -4.638  0.00  0.00     0.042 C 
ATOM     17  C   UNL d   1      -7.355   1.844  -3.031  0.00  0.00     0.237 C 
ATOM     18  O   UNL d   1      -8.193   1.995  -2.153  0.00  0.00    -0.272 OA
ENDBRANCH   1   8
BRANCH   2  19
ATOM     19  N   UNL d   1      -2.271   0.038  -0.238  0.00  0.00    -0.236 N 
ATOM     20  C   UNL d   1      -1.611  -0.846   0.580  0.00  0.00     0.237 C 
ATOM     21  C   UNL d   1      -0.257  -0.287   0.945  0.00  0.00     0.095 C 
ATOM     22  O   UNL d   1      -2.002  -1.931   0.995  0.00  0.00    -0.272 OA
ATOM     23  C   UNL d   1       0.850  -1.331   0.787  0.00  0.00     0.042 C 
ATOM     24  C   UNL d   1      -0.177   1.008   0.151  0.00  0.00     0.095 C 
ATOM     25  C   UNL d   1       1.951  -0.980  -0.154  0.00  0.00    -0.030 C 
ATOM     26  C   UNL d   1       2.061   0.194  -0.780  0.00  0.00    -0.030 C 
ATOM     27  C   UNL d   1       1.097   1.323  -0.625  0.00  0.00     0.042 C 
ATOM     28  C   UNL d   1      -1.430   1.021  -0.703  0.00  0.00     0.237 C 
ATOM     29  O   UNL d   1      -1.628   1.882  -1.548  0.00  0.00    -0.272 OA
ENDBRANCH   2  19
TORSDOF 2
