REMARK  1 active torsions:
REMARK  status: ('A' for Active; 'I' for Inactive)
REMARK    1  A    between atoms: C_2  and  N_1 
REMARK       I    between atoms: C_3  and  N_1 
ROOT
ATOM      1  C   UNL d   1       0.360   0.904  -0.798  0.00  0.00     0.073 A 
ATOM      2  C   UNL d   1       0.686   1.220  -2.124  0.00  0.00     0.143 A 
ATOM      3  F   UNL d   1       1.679   0.599  -2.773  0.00  0.00    -0.204 F 
ATOM      4  C   UNL d   1      -0.796   1.474  -0.245  0.00  0.00     0.033 A 
ATOM      5  C   UNL d   1      -0.080   2.129  -2.855  0.00  0.00     0.044 A 
ATOM      6  C   UNL d   1      -1.565   2.385  -0.978  0.00  0.00     0.002 A 
ATOM      7  C   UNL d   1      -1.199   2.723  -2.279  0.00  0.00     0.003 A 
ENDROOT
BRANCH   1   8
ATOM      8  N   UNL d   1       1.098   0.023   0.027  0.00  0.00    -0.325 N 
ATOM      9  C   UNL d   1       2.436  -0.295  -0.117  0.00  0.00     0.218 C 
ATOM     10  O   UNL d   1       3.236   0.225  -0.885  0.00  0.00    -0.274 OA
ATOM     11  C   UNL d   1       2.902  -1.346   0.861  0.00  0.00     0.117 C 
ATOM     12  H   UNL d   1       0.662  -0.244   0.899  0.00  0.00     0.169 HD
ENDBRANCH   1   8
TORSDOF 1
