REMARK  3 active torsions:
REMARK  status: ('A' for Active; 'I' for Inactive)
REMARK       I    between atoms: N_3  and  C_1 
REMARK       I    between atoms: N_4  and  C_1 
REMARK    1  A    between atoms: C_2  and  C_6 
REMARK    2  A    between atoms: C_9  and  N_3 
REMARK    3  A    between atoms: C_6  and  N_4 
ROOT
ATOM      1  C   UNL d   1       1.048   0.054  -0.088  0.00  0.00     0.316 C 
ATOM      2  N   UNL d   1       0.394   0.756  -1.069  0.00  0.00    -0.339 N 
ATOM      3  N   UNL d   1       0.168  -0.638   0.697  0.00  0.00    -0.339 N 
ATOM      4  O   UNL d   1       2.262   0.045   0.069  0.00  0.00    -0.247 OA
ATOM      5  H   UNL d   1      -0.572   0.973  -0.874  0.00  0.00     0.164 HD
ATOM      6  H   UNL d   1      -0.710  -0.877   0.260  0.00  0.00     0.164 HD
ENDROOT
BRANCH   2   7
ATOM      7  C   UNL d   1       1.115   1.657  -1.963  0.00  0.00     0.086 C 
ATOM      8  C   UNL d   1       1.239   3.062  -1.353  0.00  0.00     0.025 C 
ATOM      9  C   UNL d   1      -0.076   3.840  -1.383  0.00  0.00     0.002 C 
ATOM     10  C   UNL d   1      -0.664   3.895  -2.790  0.00  0.00     0.000 C 
ATOM     11  C   UNL d   1      -0.847   2.498  -3.373  0.00  0.00     0.002 C 
ATOM     12  C   UNL d   1       0.456   1.700  -3.347  0.00  0.00     0.025 C 
ENDBRANCH   2   7
BRANCH   3  13
ATOM     13  C   UNL d   1       0.646  -1.560   1.704  0.00  0.00     0.166 C 
BRANCH  13  14
ATOM     14  C   UNL d   1      -0.396  -1.750   2.767  0.00  0.00    -0.002 A 
ATOM     15  C   UNL d   1      -1.354  -2.761   2.662  0.00  0.00     0.124 A 
ATOM     16  F   UNL d   1      -1.319  -3.609   1.624  0.00  0.00    -0.205 F 
ATOM     17  C   UNL d   1      -2.369  -2.897   3.605  0.00  0.00     0.043 A 
ATOM     18  C   UNL d   1      -2.438  -2.011   4.678  0.00  0.00     0.003 A 
ATOM     19  C   UNL d   1      -1.486  -0.999   4.805  0.00  0.00     0.001 A 
ATOM     20  C   UNL d   1      -0.471  -0.866   3.854  0.00  0.00     0.012 A 
ENDBRANCH  13  14
ENDBRANCH   3  13
TORSDOF 3
