REMARK  9 active torsions:
REMARK  status: ('A' for Active; 'I' for Inactive)
REMARK    1  A    between atoms: C_3  and  C_1 
REMARK    2  A    between atoms: C_4  and  C_1 
REMARK    3  A    between atoms: N_5  and  C_2 
REMARK    4  A    between atoms: S_9  and  C_2 
REMARK    5  A    between atoms: O_12  and  C_3 
REMARK    6  A    between atoms: N_6  and  C_4 
REMARK    7  A    between atoms: C_11  and  N_5 
REMARK    8  A    between atoms: C_20  and  O_12 
REMARK    9  A    between atoms: O_18  and  C_13 
ROOT
ATOM      1  C   UNL d   1       0.986  -0.086  -0.048  0.00  0.00     0.135 C 
ATOM      2  C   UNL d   1       0.269   0.746   0.754  0.00  0.00     0.095 C 
ENDROOT
BRANCH   2   3
ATOM      3  N   UNL d   1      -1.108   0.697   0.925  0.00  0.00    -0.349 N 
ATOM      4  H   UNL d   1      -1.522   1.583   1.188  0.00  0.00     0.166 HD
BRANCH   3   5
ATOM      5  C   UNL d   1      -1.877  -0.418   1.318  0.00  0.00     0.033 A 
ATOM      6  C   UNL d   1      -1.318  -1.628   1.749  0.00  0.00     0.032 A 
ATOM      7  C   UNL d   1      -2.111  -2.764   1.943  0.00  0.00     0.039 A 
ATOM      8  C   UNL d   1      -3.478  -2.709   1.691  0.00  0.00     0.068 A 
ATOM      9  C   UNL d   1      -4.059  -1.492   1.340  0.00  0.00     0.039 A 
ATOM     10  C   UNL d   1      -3.266  -0.357   1.149  0.00  0.00     0.032 A 
BRANCH   8  11
ATOM     11  O   UNL d   1      -4.338  -3.770   1.747  0.00  0.00    -0.356 OA
ATOM     12  C   UNL d   1      -3.755  -5.062   1.609  0.00  0.00     0.210 C 
ENDBRANCH   8  11
ENDBRANCH   3   5
ENDBRANCH   2   3
BRANCH   2  13
ATOM     13  S   UNL d   1       1.146   2.089   1.534  0.00  0.00    -0.115 SA
ATOM     14  C   UNL d   1       0.345   2.169   3.151  0.00  0.00     0.097 C 
ENDBRANCH   2  13
BRANCH   1  15
ATOM     15  C   UNL d   1       0.414  -1.108  -0.960  0.00  0.00     0.305 C 
ATOM     16  O   UNL d   1       0.992  -2.150  -1.232  0.00  0.00    -0.258 OA
BRANCH  15  17
ATOM     17  O   UNL d   1      -0.742  -0.685  -1.537  0.00  0.00    -0.317 OA
BRANCH  17  18
ATOM     18  C   UNL d   1      -1.278  -1.506  -2.586  0.00  0.00     0.174 C 
ATOM     19  C   UNL d   1      -1.930  -2.776  -2.066  0.00  0.00     0.034 C 
ENDBRANCH  17  18
ENDBRANCH  15  17
ENDBRANCH   1  15
BRANCH   1  20
ATOM     20  C   UNL d   1       2.506  -0.086  -0.048  0.00  0.00    -0.028 C 
BRANCH  20  21
ATOM     21  N   UNL d   1       3.767  -0.086  -0.048  0.00  0.00    -0.365 N 
ATOM     22  HN2 UNL d   1       2.747  -0.086  -0.048  1.00  0.00     0.165 HD
ATOM     23  HN1 UNL d   1       4.787  -0.086  -0.048  1.00  0.00     0.165 HD
ENDBRANCH  20  21
ENDBRANCH   1  20
TORSDOF 9
