REMARK  2 active torsions:
REMARK  status: ('A' for Active; 'I' for Inactive)
REMARK    1  A    between atoms: N_4  and  C_1 
REMARK    2  A    between atoms: N_2  and  N_4 
ROOT
ATOM      1  N   UNL d   1       1.145   1.026   2.204  0.00  0.00    -0.307 N 
ATOM      2  HN  UNL d   1       0.910   0.520   3.058  1.00  0.00     0.186 HD
ATOM      3  C   UNL d   1       2.098   1.906   2.208  0.00  0.00     0.004 C 
ATOM      4  C   UNL d   1       2.629   2.705   1.031  0.00  0.00     0.054 C 
ATOM      5  C   UNL d   1       2.782   2.190   3.533  0.00  0.00     0.054 C 
ATOM      6  C   UNL d   1       4.138   2.488   0.917  0.00  0.00     0.006 C 
ATOM      7  C   UNL d   1       4.274   1.926   3.382  0.00  0.00     0.006 C 
ATOM      8  C   UNL d   1       4.870   2.742   2.236  0.00  0.00     0.001 C 
ENDROOT
BRANCH   1   9
ATOM      9  N   UNL d   1       0.463   0.781   1.058  0.00  0.00    -0.277 N 
ATOM     10  H   UNL d   1       0.593   1.384   0.256  0.00  0.00     0.189 HD
BRANCH   9  11
ATOM     11  C   UNL d   1      -0.508  -0.152   0.907  0.00  0.00     0.186 C 
ATOM     12  S   UNL d   1      -1.308  -0.241  -0.561  0.00  0.00    -0.040 SA
ATOM     13  N   UNL d   1      -0.856  -1.022   1.879  0.00  0.00    -0.370 N 
ATOM     14  C   UNL d   1      -0.293  -1.199   3.198  0.00  0.00     0.148 C 
ATOM     15  H   UNL d   1      -1.559  -1.691   1.595  0.00  0.00     0.161 HD
ENDBRANCH   9  11
ENDBRANCH   1   9
TORSDOF 2
