REMARK  6 active torsions:
REMARK  status: ('A' for Active; 'I' for Inactive)
REMARK    1  A    between atoms: C_7  and  C_1 
REMARK    2  A    between atoms: C_8  and  N_2 
REMARK    3  A    between atoms: C_10  and  C_6 
REMARK       I    between atoms: N_9  and  C_7 
REMARK    4  A    between atoms: C_18  and  C_8 
REMARK    5  A    between atoms: C_17  and  N_9 
REMARK    6  A    between atoms: C_11  and  C_17 
ROOT
ATOM      1  C   UNL d   1      -0.312  -1.273   0.385  0.00  0.00     0.120 A 
ATOM      2  N   UNL d   1       0.896  -0.624   0.285  0.00  0.00    -0.282 N 
ATOM      3  N   UNL d   1       0.776   0.702   0.047  0.00  0.00    -0.301 N 
ATOM      4  HN  UNL d   1       1.525   1.369  -0.134  1.00  0.00     0.187 HD
ATOM      5  C   UNL d   1      -1.252  -0.256   0.266  0.00  0.00     0.064 A 
ATOM      6  C   UNL d   1      -0.536   0.950   0.101  0.00  0.00     0.036 A 
ENDROOT
BRANCH   1   7
ATOM      7  C   UNL d   1      -0.610  -2.683   0.522  0.00  0.00     0.270 C 
ATOM      8  N   UNL d   1       0.327  -3.492   1.135  0.00  0.00    -0.349 N 
ATOM      9  H   UNL d   1       0.971  -3.068   1.785  0.00  0.00     0.163 HD
ATOM     10  O   UNL d   1      -1.684  -3.150   0.145  0.00  0.00    -0.266 OA
BRANCH   8  11
ATOM     11  C   UNL d   1      -0.011  -4.883   1.351  0.00  0.00     0.187 C 
BRANCH  11  12
ATOM     12  C   UNL d   1       1.166  -5.668   1.801  0.00  0.00     0.070 A 
ATOM     13  O   UNL d   1       2.043  -6.074   0.835  0.00  0.00    -0.325 OA
ATOM     14  C   UNL d   1       2.947  -6.891   1.435  0.00  0.00     0.142 A 
ATOM     15  C   UNL d   1       2.683  -6.996   2.780  0.00  0.00     0.027 A 
ATOM     16  C   UNL d   1       1.542  -6.192   3.022  0.00  0.00     0.036 A 
ENDBRANCH  11  12
ENDBRANCH   8  11
ENDBRANCH   1   7
BRANCH   2  17
ATOM     17  C   UNL d   1       2.250  -1.139   0.453  0.00  0.00     0.188 C 
BRANCH  17  18
ATOM     18  C   UNL d   1       2.674  -1.136   1.911  0.00  0.00    -0.038 A 
ATOM     19  C   UNL d   1       3.454  -2.190   2.414  0.00  0.00     0.012 A 
ATOM     20  C   UNL d   1       3.837  -2.206   3.757  0.00  0.00     0.043 A 
ATOM     21  C   UNL d   1       3.455  -1.164   4.597  0.00  0.00     0.116 A 
ATOM     22  C   UNL d   1       2.713  -0.098   4.119  0.00  0.00     0.043 A 
ATOM     23  F   UNL d   1       3.815  -1.192   5.888  0.00  0.00    -0.206 F 
ATOM     24  C   UNL d   1       2.336  -0.075   2.777  0.00  0.00     0.012 A 
ENDBRANCH  17  18
ENDBRANCH   2  17
BRANCH   6  25
ATOM     25  C   UNL d   1      -1.028   2.385   0.011  0.00  0.00    -0.007 C 
ATOM     26  C   UNL d   1      -2.565   2.480   0.068  0.00  0.00     0.021 C 
ATOM     27  C   UNL d   1      -0.459   3.200   1.194  0.00  0.00     0.021 C 
ATOM     28  C   UNL d   1      -0.559   3.035  -1.307  0.00  0.00     0.021 C 
ENDBRANCH   6  25
TORSDOF 6
