REMARK  3 active torsions:
REMARK  status: ('A' for Active; 'I' for Inactive)
REMARK    1  A    between atoms: C_6  and  C_1 
REMARK    2  A    between atoms: N_9  and  C_3 
REMARK    3  A    between atoms: O_11  and  C_6 
ROOT
ATOM      1  C   UNL d   1      -2.132  -0.178  -0.033  0.00  0.00     0.102 A 
ATOM      2  S   UNL d   1      -1.111  -1.550  -0.143  0.00  0.00    -0.063 SA
ATOM      3  C   UNL d   1      -1.396   0.992   0.019  0.00  0.00     0.043 A 
ATOM      4  C   UNL d   1       0.022   0.764   0.024  0.00  0.00     0.020 A 
ATOM      5  C   UNL d   1       0.295  -0.599  -0.055  0.00  0.00     0.087 A 
ATOM      6  N   UNL d   1       1.513  -1.178  -0.074  0.00  0.00    -0.360 N 
ATOM      7  HN  UNL d   1       1.646  -2.188  -0.125  1.00  0.00     0.166 HD
ATOM      8  C   UNL d   1       1.141   1.627   0.071  0.00  0.00     0.017 A 
ATOM      9  C   UNL d   1       2.539  -0.308  -0.020  0.00  0.00     0.089 A 
ATOM     10  C   UNL d   1       2.418   1.069   0.046  0.00  0.00     0.018 A 
ENDROOT
BRANCH   1  11
ATOM     11  C   UNL d   1      -3.566  -0.383   0.010  0.00  0.00     0.185 C 
ATOM     12  O   UNL d   1      -4.184  -1.342  -0.429  0.00  0.00    -0.646 OA
BRANCH  11  13
ATOM     13  O   UNL d   1      -4.204   0.651   0.628  0.00  0.00    -0.772 OA
ATOM     14  H   UNL d   1      -3.563   1.293   1.001  0.00  0.00     0.167 HD
ENDBRANCH  11  13
ENDBRANCH   1  11
BRANCH   3  15
ATOM     15  N   UNL d   1      -1.960   2.234   0.066  0.00  0.00    -0.301 NA
ATOM     16  H   UNL d   1      -2.761   2.420  -0.545  0.00  0.00     0.124 HD
ATOM     17  H   UNL d   1      -1.331   3.038   0.011  0.00  0.00     0.124 HD
ENDBRANCH   3  15
TORSDOF 3
