REMARK  6 active torsions:
REMARK  status: ('A' for Active; 'I' for Inactive)
REMARK    1  A    between atoms: N_3  and  C_1 
REMARK    2  A    between atoms: N_7  and  C_1 
REMARK    3  A    between atoms: C_2  and  N_3 
REMARK       I    between atoms: C_4  and  N_5 
REMARK    4  A    between atoms: C_9  and  C_4 
REMARK    5  A    between atoms: N_5  and  N_7 
REMARK    6  A    between atoms: N_12  and  C_11 
ROOT
ATOM      1  N   UNL d   1      -1.984  -0.166  -0.071  0.00  0.00    -0.273 N 
ATOM      2  H   UNL d   1      -1.490  -0.060   0.808  0.00  0.00     0.189 HD
ENDROOT
BRANCH   1   3
ATOM      3  N   UNL d   1      -1.376  -0.972  -1.042  0.00  0.00    -0.264 N 
ATOM      4  C   UNL d   1      -1.996  -2.108  -1.535  0.00  0.00     0.270 C 
ATOM      5  O   UNL d   1      -3.105  -2.499  -1.175  0.00  0.00    -0.266 OA
ATOM      6  H   UNL d   1      -0.412  -0.760  -1.269  0.00  0.00     0.190 HD
BRANCH   4   7
ATOM      7  C   UNL d   1      -1.253  -2.874  -2.570  0.00  0.00     0.033 A 
ATOM      8  C   UNL d   1       0.139  -2.942  -2.638  0.00  0.00     0.019 A 
ATOM      9  C   UNL d   1       0.762  -3.762  -3.600  0.00  0.00     0.030 A 
ATOM     10  C   UNL d   1       0.030  -4.540  -4.516  0.00  0.00     0.029 A 
ATOM     11  C   UNL d   1      -1.367  -4.427  -4.435  0.00  0.00     0.030 A 
ATOM     12  C   UNL d   1      -2.000  -3.611  -3.489  0.00  0.00     0.019 A 
BRANCH  10  13
ATOM     13  N   UNL d   1       0.633  -5.416  -5.406  0.00  0.00    -0.390 N 
ATOM     14  C   UNL d   1       0.029  -5.722  -6.702  0.00  0.00     0.149 C 
ATOM     15  C   UNL d   1       2.019  -5.845  -5.260  0.00  0.00     0.149 C 
ENDBRANCH  10  13
ENDBRANCH   4   7
ENDBRANCH   1   3
BRANCH   1  16
ATOM     16  C   UNL d   1      -2.986   0.751  -0.355  0.00  0.00     0.191 C 
ATOM     17  S   UNL d   1      -4.140   0.686  -1.557  0.00  0.00    -0.039 SA
BRANCH  16  18
ATOM     18  N   UNL d   1      -3.002   1.817   0.522  0.00  0.00    -0.331 N 
ATOM     19  H   UNL d   1      -3.915   2.242   0.671  0.00  0.00     0.168 HD
BRANCH  18  20
ATOM     20  C   UNL d   1      -1.917   2.726   0.694  0.00  0.00     0.057 A 
ATOM     21  C   UNL d   1      -0.775   2.660  -0.118  0.00  0.00     0.055 A 
ATOM     22  C   UNL d   1       0.239   3.607   0.014  0.00  0.00     0.036 A 
ATOM     23 CL   UNL d   1       1.612   3.528  -1.019  0.00  0.00    -0.084 Cl
ATOM     24  C   UNL d   1       0.136   4.627   0.957  0.00  0.00     0.026 A 
ATOM     25  C   UNL d   1      -1.000   4.710   1.763  0.00  0.00     0.028 A 
ATOM     26  C   UNL d   1      -2.030   3.772   1.626  0.00  0.00     0.060 A 
ATOM     27 CL   UNL d   1      -3.421   3.930   2.634  0.00  0.00    -0.082 Cl
ENDBRANCH  18  20
ENDBRANCH  16  18
ENDBRANCH   1  16
TORSDOF 6
