REMARK  3 active torsions:
REMARK  status: ('A' for Active; 'I' for Inactive)
REMARK    1  A    between atoms: C_10  and  C_5 
REMARK    2  A    between atoms: N_13  and  C_8 
REMARK    3  A    between atoms: N_14  and  C_9 
ROOT
ATOM      1  N   UNL d   1       1.182   1.018  -0.116  0.00  0.00    -0.318 N 
ATOM      2  HN  UNL d   1       2.066   1.521  -0.189  1.00  0.00     0.170 HD
ATOM      3  N   UNL d   1      -1.167   1.025   0.116  0.00  0.00    -0.318 N 
ATOM      4  HN  UNL d   1      -2.048   1.534   0.194  1.00  0.00     0.170 HD
ATOM      5  C   UNL d   1       0.010   1.641   0.004  0.00  0.00     0.120 A 
ATOM      6  N   UNL d   1      -0.000  -1.007  -0.011  0.00  0.00    -0.309 N 
ATOM      7  HN  UNL d   1      -0.004  -2.027  -0.016  1.00  0.00     0.171 HD
ATOM      8  C   UNL d   1      -1.107  -0.295   0.118  0.00  0.00     0.158 A 
ATOM      9  C   UNL d   1       1.111  -0.302  -0.134  0.00  0.00     0.158 A 
ENDROOT
BRANCH   5  10
ATOM     10  C   UNL d   1       0.016   3.117   0.015  0.00  0.00     0.011 A 
ATOM     11  C   UNL d   1      -1.169   3.856   0.159  0.00  0.00     0.032 A 
ATOM     12  C   UNL d   1      -1.115   5.241   0.164  0.00  0.00     0.088 A 
ATOM     13  N   UNL d   1       0.027   5.946   0.038  0.00  0.00    -0.375 N 
ATOM     14  C   UNL d   1       1.163   5.234  -0.099  0.00  0.00     0.088 A 
ATOM     15  HN  UNL d   1       0.031   6.966   0.047  1.00  0.00     0.164 HD
ATOM     16  C   UNL d   1       1.206   3.848  -0.116  0.00  0.00     0.032 A 
ENDBRANCH   5  10
BRANCH   8  17
ATOM     17  N   UNL d   1      -2.298  -0.984   0.229  0.00  0.00    -0.274 NA
ATOM     18  H   UNL d   1      -2.206  -1.906  -0.174  0.00  0.00     0.127 HD
ATOM     19  H   UNL d   1      -3.066  -0.414  -0.098  0.00  0.00     0.127 HD
ENDBRANCH   8  17
BRANCH   9  20
ATOM     20  N   UNL d   1       2.297  -0.998  -0.260  0.00  0.00    -0.274 NA
ATOM     21  H   UNL d   1       2.203  -1.924   0.135  0.00  0.00     0.127 HD
ATOM     22  H   UNL d   1       3.073  -0.436   0.062  0.00  0.00     0.127 HD
ENDBRANCH   9  20
TORSDOF 3
