REMARK  5 active torsions:
REMARK  status: ('A' for Active; 'I' for Inactive)
REMARK    1  A    between atoms: C_2  and  S_1 
REMARK    2  A    between atoms: N_5  and  S_1 
REMARK    3  A    between atoms: C_9  and  N_5 
REMARK    4  A    between atoms: O_13  and  C_12 
REMARK    5  A    between atoms: C_14  and  O_13 
ROOT
ATOM      1  C   UNL d   1       0.655   1.006  -2.339  0.00  0.00     0.056 A 
ATOM      2  C   UNL d   1       2.054   1.141  -2.450  0.00  0.00     0.098 A 
ATOM      3  C   UNL d   1      -0.171   1.746  -3.197  0.00  0.00     0.027 A 
ATOM      4  C   UNL d   1       2.578   2.011  -3.422  0.00  0.00     0.039 A 
ATOM      5  C   UNL d   1       0.365   2.613  -4.151  0.00  0.00     0.002 A 
ATOM      6  C   UNL d   1       1.743   2.750  -4.261  0.00  0.00     0.003 A 
ENDROOT
BRANCH   1   7
ATOM      7  N   UNL d   1       0.010   0.163  -1.377  0.00  0.00    -0.177 NA
ATOM      8  H   UNL d   1      -0.881   0.530  -1.045  0.00  0.00     0.146 HD
BRANCH   7   9
ATOM      9  S   UNL d   1      -0.243  -1.467  -1.777  0.00  0.00     0.263 S 
ATOM     10  O   UNL d   1       0.825  -1.976  -2.609  0.00  0.00    -0.204 OA
ATOM     11  O   UNL d   1      -0.698  -2.149  -0.586  0.00  0.00    -0.204 OA
BRANCH   9  12
ATOM     12  C   UNL d   1      -1.652  -1.511  -2.808  0.00  0.00     0.161 A 
ATOM     13  N   UNL d   1      -2.551  -0.453  -2.904  0.00  0.00    -0.341 N 
ATOM     14  C   UNL d   1      -3.407  -0.823  -3.830  0.00  0.00     0.183 A 
ATOM     15  HN  UNL d   1      -2.546   0.417  -2.373  1.00  0.00     0.167 HD
ATOM     16  N   UNL d   1      -3.115  -2.066  -4.317  0.00  0.00    -0.354 N 
ATOM     17  C   UNL d   1      -2.033  -2.546  -3.638  0.00  0.00     0.134 A 
ATOM     18  C   UNL d   1      -3.790  -2.710  -5.415  0.00  0.00     0.156 C 
ENDBRANCH   9  12
ENDBRANCH   7   9
ENDBRANCH   1   7
BRANCH   2  19
ATOM     19  O   UNL d   1       3.047   0.495  -1.746  0.00  0.00    -0.309 OA
BRANCH  19  20
ATOM     20  C   UNL d   1       2.848  -0.001  -0.485  0.00  0.00     0.076 A 
ATOM     21  C   UNL d   1       3.483  -1.212  -0.205  0.00  0.00     0.037 A 
ATOM     22  C   UNL d   1       3.299  -1.831   1.030  0.00  0.00     0.003 A 
ATOM     23  C   UNL d   1       2.477  -1.236   1.986  0.00  0.00     0.000 A 
ATOM     24  C   UNL d   1       1.897   0.007   1.733  0.00  0.00     0.003 A 
ATOM     25  C   UNL d   1       2.120   0.647   0.513  0.00  0.00     0.037 A 
ENDBRANCH  19  20
ENDBRANCH   2  19
TORSDOF 5
