REMARK  3 active torsions:
REMARK  status: ('A' for Active; 'I' for Inactive)
REMARK    1  A    between atoms: C_12  and  C_2 
REMARK    2  A    between atoms: C_13  and  C_10 
REMARK    3  A    between atoms: C_14  and  C_11 
ROOT
ATOM      1  N   UNL d   1       0.279   0.635   0.015  0.00  0.00    -0.235 N 
ATOM      2  C   UNL d   1      -0.843   1.451   0.030  0.00  0.00     0.144 A 
ATOM      3  C   UNL d   1       0.141  -0.762   0.014  0.00  0.00     0.130 A 
ATOM      4  N   UNL d   1       1.585   0.987   0.013  0.00  0.00    -0.296 N 
ATOM      5  HN  UNL d   1       1.972   1.930   0.022  1.00  0.00     0.187 HD
ATOM      6  N   UNL d   1      -1.079  -1.377   0.044  0.00  0.00    -0.340 N 
ATOM      7  HN  UNL d   1      -1.163  -2.393   0.058  1.00  0.00     0.167 HD
ATOM      8  C   UNL d   1      -2.070   0.890   0.051  0.00  0.00     0.067 A 
ATOM      9  C   UNL d   1       1.415  -1.280  -0.021  0.00  0.00     0.077 A 
ATOM     10  C   UNL d   1       2.256  -0.162  -0.004  0.00  0.00     0.034 A 
ATOM     11  C   UNL d   1      -2.130  -0.606   0.054  0.00  0.00     0.046 A 
ENDROOT
BRANCH  11  12
ATOM     12  C   UNL d   1      -3.487  -1.226   0.103  0.00  0.00    -0.009 A 
ATOM     13  C   UNL d   1      -3.645  -2.440   0.786  0.00  0.00     0.026 A 
ATOM     14  C   UNL d   1      -4.898  -3.073   0.856  0.00  0.00    -0.025 A 
ATOM     15  C   UNL d   1      -5.069  -4.288   1.540  0.00  0.00     0.012 A 
ATOM     16  C   UNL d   1      -6.011  -2.477   0.220  0.00  0.00    -0.026 A 
ATOM     17  C   UNL d   1      -6.318  -4.910   1.589  0.00  0.00     0.001 A 
ATOM     18  C   UNL d   1      -7.412  -4.325   0.958  0.00  0.00     0.001 A 
ATOM     19  C   UNL d   1      -7.261  -3.115   0.279  0.00  0.00     0.012 A 
ATOM     20  C   UNL d   1      -5.842  -1.265  -0.467  0.00  0.00     0.013 A 
ATOM     21  C   UNL d   1      -4.590  -0.646  -0.531  0.00  0.00     0.014 A 
ENDBRANCH  11  12
BRANCH   2  22
ATOM     22  C   UNL d   1      -0.667   2.923   0.029  0.00  0.00     0.434 C 
ATOM     23  F   UNL d   1       0.598   3.396  -0.007  0.00  0.00    -0.165 F 
ATOM     24  F   UNL d   1      -1.310   3.476  -1.039  0.00  0.00    -0.165 F 
ATOM     25  F   UNL d   1      -1.252   3.475   1.130  0.00  0.00    -0.165 F 
ENDBRANCH   2  22
BRANCH  10  26
ATOM     26  C   UNL d   1       3.775  -0.239   0.005  0.00  0.00     0.037 A 
ATOM     27  C   UNL d   1       4.542   0.814   0.785  0.00  0.00     0.011 A 
ATOM     28  C   UNL d   1       4.559   0.848  -0.704  0.00  0.00     0.011 A 
ENDBRANCH  10  26
TORSDOF 3
