REMARK  2 active torsions:
REMARK  status: ('A' for Active; 'I' for Inactive)
REMARK    1  A    between atoms: C_12  and  C_3 
REMARK    2  A    between atoms: N_13  and  C_6 
ROOT
ATOM      1  C   UNL d   1       0.245  -0.722   0.030  0.00  0.00     0.142 A 
ATOM      2  N   UNL d   1       0.260   0.680   0.039  0.00  0.00    -0.242 N 
ATOM      3  C   UNL d   1       1.574  -1.125   0.044  0.00  0.00     0.065 A 
ATOM      4  N   UNL d   1       1.523   1.165   0.061  0.00  0.00    -0.277 N 
ATOM      5  HN  UNL d   1       1.813   2.143   0.067  1.00  0.00     0.189 HD
ATOM      6  C   UNL d   1       2.303   0.093   0.073  0.00  0.00     0.129 A 
ATOM      7  N   UNL d   1      -0.930  -1.430   0.020  0.00  0.00    -0.344 N 
ATOM      8  HN  UNL d   1      -0.937  -2.450   0.021  1.00  0.00     0.167 HD
ATOM      9  C   UNL d   1      -0.941   1.409   0.018  0.00  0.00     0.034 A 
ATOM     10  C   UNL d   1      -2.112   0.748   0.001  0.00  0.00     0.051 A 
ATOM     11  C   UNL d   1      -2.034  -0.743   0.009  0.00  0.00     0.009 A 
ATOM     12  C   UNL d   1      -0.896   2.907   0.015  0.00  0.00     0.070 C 
ATOM     13  C   UNL d   1      -3.335  -1.505   0.002  0.00  0.00     0.068 C 
ENDROOT
BRANCH   3  14
ATOM     14  C   UNL d   1       2.013  -2.520   0.057  0.00  0.00    -0.018 A 
ATOM     15  C   UNL d   1       1.296  -3.515  -0.626  0.00  0.00     0.012 A 
ATOM     16  C   UNL d   1       1.711  -4.849  -0.598  0.00  0.00     0.001 A 
ATOM     17  C   UNL d   1       2.863  -5.206   0.097  0.00  0.00     0.000 A 
ATOM     18  C   UNL d   1       3.594  -4.232   0.771  0.00  0.00     0.001 A 
ATOM     19  C   UNL d   1       3.166  -2.900   0.760  0.00  0.00     0.012 A 
ENDBRANCH   3  14
BRANCH   6  20
ATOM     20  N   UNL d   1       3.642   0.201   0.083  0.00  0.00    -0.384 N 
ATOM     21  H   UNL d   1       4.208  -0.550  -0.295  0.00  0.00     0.157 HD
ATOM     22  H   UNL d   1       4.015   1.124  -0.111  0.00  0.00     0.157 HD
ENDBRANCH   6  20
TORSDOF 2
