REMARK  6 active torsions:
REMARK  status: ('A' for Active; 'I' for Inactive)
REMARK    1  A    between atoms: N_4  and  C_1 
REMARK    2  A    between atoms: C_6  and  N_4 
REMARK    3  A    between atoms: N_5  and  C_19 
REMARK    4  A    between atoms: C_21  and  N_14 
REMARK    5  A    between atoms: C_19  and  C_20 
REMARK    6  A    between atoms: C_20  and  C_21 
ROOT
ATOM      1  C   UNL d   1       1.503   0.267  -0.889  0.00  0.00     0.172 C 
ATOM      2  S   UNL d   1       1.155   1.896  -0.871  0.00  0.00    -0.041 SA
ATOM      3  N   UNL d   1       2.396  -0.231   0.007  0.00  0.00    -0.367 N 
ATOM      4  H   UNL d   1       2.712   0.458   0.683  0.00  0.00     0.161 HD
ENDROOT
BRANCH   1   5
ATOM      5  N   UNL d   1       0.970  -0.539  -1.840  0.00  0.00    -0.331 N 
ATOM      6  H   UNL d   1       0.685  -0.067  -2.696  0.00  0.00     0.168 HD
BRANCH   5   7
ATOM      7  C   UNL d   1       0.380  -1.814  -1.665  0.00  0.00     0.073 A 
ATOM      8  C   UNL d   1       0.026  -2.536  -2.813  0.00  0.00     0.145 A 
ATOM      9  C   UNL d   1      -0.593  -3.777  -2.729  0.00  0.00     0.086 A 
ATOM     10  F   UNL d   1       0.307  -2.034  -4.025  0.00  0.00    -0.204 F 
ATOM     11  C   UNL d   1      -0.895  -4.287  -1.474  0.00  0.00     0.119 A 
ATOM     12  C   UNL d   1      -0.575  -3.584  -0.317  0.00  0.00     0.044 A 
ATOM     13  F   UNL d   1      -1.511  -5.472  -1.375  0.00  0.00    -0.206 F 
ATOM     14  C   UNL d   1       0.072  -2.347  -0.409  0.00  0.00     0.036 A 
ENDBRANCH   5   7
ENDBRANCH   1   5
BRANCH   3  15
ATOM     15  C   UNL d   1       3.275  -1.373  -0.209  0.00  0.00     0.123 C 
BRANCH  15  16
ATOM     16  C   UNL d   1       4.737  -0.946  -0.351  0.00  0.00     0.040 C 
BRANCH  16  17
ATOM     17  C   UNL d   1       5.601  -2.156  -0.701  0.00  0.00     0.130 C 
BRANCH  17  18
ATOM     18  N   UNL d   1       7.016  -1.852  -0.777  0.00  0.00    -0.352 N 
ATOM     19  C   UNL d   1       7.695  -1.476  -1.898  0.00  0.00     0.182 A 
ATOM     20  N   UNL d   1       8.985  -1.375  -1.666  0.00  0.00    -0.361 N 
ATOM     21  C   UNL d   1       9.141  -1.704  -0.344  0.00  0.00     0.106 A 
ATOM     22  HN  UNL d   1       9.714  -1.109  -2.328  1.00  0.00     0.166 HD
ATOM     23  C   UNL d   1       7.926  -1.999   0.231  0.00  0.00     0.108 A 
ENDBRANCH  17  18
ENDBRANCH  16  17
ENDBRANCH  15  16
ENDBRANCH   3  15
TORSDOF 6
