REMARK  4 active torsions:
REMARK  status: ('A' for Active; 'I' for Inactive)
REMARK    1  A    between atoms: C_9  and  N_1 
REMARK    2  A    between atoms: C_12  and  N_2 
REMARK    3  A    between atoms: C_16  and  C_12 
REMARK    4  A    between atoms: O_23  and  C_17 
ROOT
ATOM      1  N   UNL d   1       0.911  -1.392   0.076  0.00  0.00    -0.246 N 
ATOM      2  N   UNL d   1       2.092   0.695  -0.020  0.00  0.00    -0.260 N 
ATOM      3  C   UNL d   1       2.141  -0.714   0.088  0.00  0.00     0.338 A 
ATOM      4  C   UNL d   1      -0.268  -0.686  -0.028  0.00  0.00     0.150 A 
ATOM      5  C   UNL d   1      -0.254   0.674  -0.091  0.00  0.00     0.147 A 
ATOM      6  C   UNL d   1       0.927   1.459  -0.108  0.00  0.00     0.282 A 
ATOM      7  N   UNL d   1      -1.554  -1.161  -0.034  0.00  0.00    -0.336 N 
ATOM      8  HN  UNL d   1      -1.857  -2.134  -0.010  1.00  0.00     0.168 HD
ATOM      9  N   UNL d   1      -1.561   1.061  -0.117  0.00  0.00    -0.345 N 
ATOM     10  C   UNL d   1      -2.310  -0.085  -0.080  0.00  0.00     0.182 A 
ATOM     11  O   UNL d   1       3.225  -1.303   0.150  0.00  0.00    -0.246 OA
ATOM     12  O   UNL d   1       0.890   2.681  -0.210  0.00  0.00    -0.265 OA
ATOM     13  H   UNL d   1      -1.903   2.013  -0.141  0.00  0.00     0.167 HD
ENDROOT
BRANCH   2  14
ATOM     14  C   UNL d   1       3.361   1.410  -0.054  0.00  0.00     0.175 C 
BRANCH  14  15
ATOM     15  C   UNL d   1       3.817   1.819   1.329  0.00  0.00    -0.040 A 
ATOM     16  C   UNL d   1       4.657   0.986   2.080  0.00  0.00     0.011 A 
ATOM     17  C   UNL d   1       5.013   1.323   3.391  0.00  0.00     0.037 A 
ATOM     18  C   UNL d   1       4.528   2.496   3.970  0.00  0.00     0.068 A 
ATOM     19  C   UNL d   1       3.718   3.344   3.214  0.00  0.00     0.037 A 
ATOM     20  C   UNL d   1       3.364   3.013   1.905  0.00  0.00     0.011 A 
BRANCH  18  21
ATOM     21  O   UNL d   1       4.767   2.920   5.248  0.00  0.00    -0.356 OA
ATOM     22  C   UNL d   1       5.468   2.020   6.097  0.00  0.00     0.210 C 
ENDBRANCH  18  21
ENDBRANCH  14  15
ENDBRANCH   2  14
BRANCH   1  23
ATOM     23  C   UNL d   1       0.844  -2.809   0.125  0.00  0.00     0.051 A 
ATOM     24  C   UNL d   1       1.339  -3.538   1.225  0.00  0.00    -0.035 A 
ATOM     25  C   UNL d   1       1.790  -2.895   2.508  0.00  0.00     0.050 C 
ATOM     26  C   UNL d   1       1.385  -4.942   1.148  0.00  0.00     0.009 A 
ATOM     27  C   UNL d   1       0.943  -5.614   0.009  0.00  0.00     0.001 A 
ATOM     28  C   UNL d   1       0.423  -4.894  -1.062  0.00  0.00     0.002 A 
ATOM     29  C   UNL d   1       0.363  -3.501  -1.000  0.00  0.00     0.031 A 
ENDBRANCH   1  23
TORSDOF 4
