REMARK  5 active torsions:
REMARK  status: ('A' for Active; 'I' for Inactive)
REMARK    1  A    between atoms: C_5  and  S_1 
REMARK    2  A    between atoms: N_11  and  S_1 
REMARK    3  A    between atoms: C_2  and  C_3 
REMARK       I    between atoms: C_3  and  N_6 
REMARK    4  A    between atoms: N_6  and  N_12 
REMARK    5  A    between atoms: N_12  and  C_18 
ROOT
ATOM      1  N   UNL d   1      -1.184   5.702   0.053  0.00  0.00    -0.203 NA
ATOM      2  H   UNL d   1      -0.506   6.380  -0.318  0.00  0.00     0.153 HD
ENDROOT
BRANCH   1   3
ATOM      3  N   UNL d   1      -2.454   5.950  -0.500  0.00  0.00    -0.283 N 
ATOM      4  C   UNL d   1      -2.648   7.178  -1.107  0.00  0.00     0.269 C 
ATOM      5  O   UNL d   1      -1.736   7.989  -1.264  0.00  0.00    -0.266 OA
ATOM      6  H   UNL d   1      -3.231   5.389  -0.166  0.00  0.00     0.184 HD
BRANCH   4   7
ATOM      7  C   UNL d   1      -4.021   7.494  -1.589  0.00  0.00     0.072 A 
ATOM      8  C   UNL d   1      -5.051   6.548  -1.614  0.00  0.00     0.135 A 
ATOM      9  C   UNL d   1      -6.301   6.857  -2.148  0.00  0.00     0.085 A 
ATOM     10  F   UNL d   1      -4.866   5.310  -1.129  0.00  0.00    -0.205 F 
ATOM     11  C   UNL d   1      -6.525   8.131  -2.652  0.00  0.00     0.119 A 
ATOM     12  C   UNL d   1      -5.528   9.100  -2.619  0.00  0.00     0.043 A 
ATOM     13  F   UNL d   1      -7.717   8.430  -3.181  0.00  0.00    -0.206 F 
ATOM     14  C   UNL d   1      -4.274   8.783  -2.088  0.00  0.00     0.023 A 
ENDBRANCH   4   7
ENDBRANCH   1   3
BRANCH   1  15
ATOM     15  C   UNL d   1      -0.726   4.367  -0.097  0.00  0.00     0.027 A 
ATOM     16  C   UNL d   1       0.653   4.127  -0.219  0.00  0.00     0.026 A 
ATOM     17  C   UNL d   1       1.167   2.823  -0.236  0.00  0.00     0.026 A 
ATOM     18  C   UNL d   1       0.295   1.742  -0.114  0.00  0.00     0.074 A 
ATOM     19  C   UNL d   1      -1.075   1.955   0.043  0.00  0.00     0.026 A 
ATOM     20  C   UNL d   1      -1.576   3.260   0.059  0.00  0.00     0.026 A 
BRANCH  18  21
ATOM     21  S   UNL d   1       0.929   0.092  -0.033  0.00  0.00     0.239 S 
ATOM     22  O   UNL d   1      -0.016  -0.745   0.666  0.00  0.00    -0.206 OA
ATOM     23  O   UNL d   1       2.332   0.136   0.314  0.00  0.00    -0.206 OA
BRANCH  21  24
ATOM     24  N   UNL d   1       0.866  -0.391  -1.639  0.00  0.00    -0.225 NA
ATOM     25  H   UNL d   1       0.188  -1.145  -1.746  0.00  0.00     0.136 HD
ATOM     26  H   UNL d   1       1.804  -0.635  -1.958  0.00  0.00     0.136 HD
ENDBRANCH  21  24
ENDBRANCH  18  21
ENDBRANCH   1  15
TORSDOF 5
