REMARK  5 active torsions:
REMARK  status: ('A' for Active; 'I' for Inactive)
REMARK    1  A    between atoms: N_6  and  C_1 
REMARK    2  A    between atoms: C_10  and  C_1 
REMARK    3  A    between atoms: C_9  and  C_3 
REMARK    4  A    between atoms: C_13  and  N_6 
REMARK    5  A    between atoms: O_22  and  C_14 
ROOT
ATOM      1  C   UNL d   1       3.379  -3.614  -0.792  0.00  0.00     0.124 C 
ATOM      2  N   UNL d   1       5.963  -3.549  -0.821  0.00  0.00    -0.191 NA
ATOM      3  N   UNL d   1       2.198  -5.834  -1.383  0.00  0.00    -0.191 NA
ATOM      4  C   UNL d   1       2.734  -4.843  -1.106  0.00  0.00     0.110 C 
ATOM      5  C   UNL d   1       4.805  -3.589  -0.807  0.00  0.00     0.110 C 
ATOM      6  C   UNL d   1       2.630  -2.523  -0.515  0.00  0.00     0.036 C 
ENDROOT
BRANCH   6   7
ATOM      7  C   UNL d   1       3.154  -1.194  -0.252  0.00  0.00     0.027 C 
ATOM      8  C   UNL d   1       2.445  -0.076   0.021  0.00  0.00     0.023 C 
BRANCH   8   9
ATOM      9  N   UNL d   1       1.061   0.021   0.133  0.00  0.00    -0.259 NA
ATOM     10  H   UNL d   1       0.572  -0.571  -0.534  0.00  0.00     0.134 HD
BRANCH   9  11
ATOM     11  C   UNL d   1       0.386  -0.069   1.383  0.00  0.00     0.013 A 
ATOM     12  C   UNL d   1      -0.878   0.523   1.503  0.00  0.00     0.026 A 
ATOM     13  C   UNL d   1      -1.539   0.573   2.739  0.00  0.00     0.038 A 
ATOM     14  C   UNL d   1      -0.958  -0.003   3.867  0.00  0.00     0.068 A 
ATOM     15  C   UNL d   1       0.258  -0.675   3.734  0.00  0.00     0.038 A 
ATOM     16  C   UNL d   1       0.928  -0.705   2.506  0.00  0.00     0.026 A 
BRANCH  14  17
ATOM     17  O   UNL d   1      -1.464   0.022   5.137  0.00  0.00    -0.356 OA
ATOM     18  C   UNL d   1      -2.561   0.896   5.374  0.00  0.00     0.210 C 
ENDBRANCH  14  17
ENDBRANCH   9  11
ENDBRANCH   8   9
BRANCH   8  19
ATOM     19  C   UNL d   1       3.199   1.222   0.128  0.00  0.00    -0.015 A 
ATOM     20  C   UNL d   1       4.325   1.477  -0.680  0.00  0.00     0.014 A 
ATOM     21  C   UNL d   1       5.022   2.687  -0.606  0.00  0.00     0.007 A 
ATOM     22  C   UNL d   1       4.595   3.697   0.256  0.00  0.00    -0.062 A 
ATOM     23  C   UNL d   1       3.461   3.477   1.040  0.00  0.00     0.007 A 
ATOM     24  C   UNL d   1       5.348   4.992   0.321  0.00  0.00     0.048 C 
ATOM     25  C   UNL d   1       2.776   2.256   0.976  0.00  0.00     0.014 A 
ENDBRANCH   8  19
ENDBRANCH   6   7
TORSDOF 5
