REMARK  5 active torsions:
REMARK  status: ('A' for Active; 'I' for Inactive)
REMARK    1  A    between atoms: C_2  and  C_1 
REMARK    2  A    between atoms: C_3  and  C_1 
REMARK    3  A    between atoms: C_5  and  C_4 
REMARK    4  A    between atoms: O_10  and  C_5 
REMARK    5  A    between atoms: S_9  and  C_6 
ROOT
ATOM      1  C   UNL d   1       0.323  -0.738   1.075  0.00  0.00     0.032 A 
ATOM      2  C   UNL d   1      -0.634  -1.752   0.894  0.00  0.00     0.051 A 
ATOM      3  C   UNL d   1       0.844  -0.546   2.372  0.00  0.00     0.016 A 
ATOM      4  C   UNL d   1      -1.027  -2.556   1.986  0.00  0.00     0.019 A 
ATOM      5  C   UNL d   1       0.432  -1.329   3.450  0.00  0.00     0.001 A 
ATOM      6  C   UNL d   1      -0.502  -2.337   3.258  0.00  0.00     0.001 A 
ENDROOT
BRANCH   1   7
ATOM      7  C   UNL d   1       0.888   0.180   0.033  0.00  0.00     0.194 C 
ATOM      8  O   UNL d   1       2.016   0.628   0.235  0.00  0.00    -0.287 OA
BRANCH   7   9
ATOM      9  C   UNL d   1       0.123   0.702  -1.126  0.00  0.00     0.032 A 
ATOM     10  C   UNL d   1       0.708   0.973  -2.382  0.00  0.00     0.014 A 
ATOM     11  C   UNL d   1      -0.097   1.577  -3.371  0.00  0.00     0.019 A 
ATOM     12  C   UNL d   1      -1.432   1.908  -3.131  0.00  0.00     0.001 A 
ATOM     13  C   UNL d   1      -1.992   1.660  -1.886  0.00  0.00     0.001 A 
ATOM     14  C   UNL d   1      -1.217   1.073  -0.886  0.00  0.00     0.017 A 
BRANCH  10  15
ATOM     15  S   UNL d   1       2.422   0.773  -2.900  0.00  0.00    -0.133 SA
ATOM     16  C   UNL d   1       2.862  -0.884  -2.317  0.00  0.00     0.095 C 
ENDBRANCH  10  15
ENDBRANCH   7   9
ENDBRANCH   1   7
BRANCH   2  17
ATOM     17  C   UNL d   1      -1.204  -2.099  -0.422  0.00  0.00     0.177 C 
ATOM     18  O   UNL d   1      -0.525  -2.206  -1.428  0.00  0.00    -0.646 OA
BRANCH  17  19
ATOM     19  O   UNL d   1      -2.540  -2.276  -0.393  0.00  0.00    -0.773 OA
ATOM     20  H   UNL d   1      -2.982  -2.115   0.461  0.00  0.00     0.167 HD
ENDBRANCH  17  19
ENDBRANCH   2  17
TORSDOF 5
