REMARK  3 active torsions:
REMARK  status: ('A' for Active; 'I' for Inactive)
REMARK    1  A    between atoms: C_9  and  N_2 
REMARK    2  A    between atoms: N_7  and  C_5 
REMARK    3  A    between atoms: N_8  and  C_10 
ROOT
ATOM      1  C   UNL d   1       1.139  -0.193   0.086  0.00  0.00     0.278 A 
ATOM      2  N   UNL d   1       0.589   1.104   0.112  0.00  0.00    -0.222 N 
ATOM      3  N   UNL d   1      -0.798   1.121   0.105  0.00  0.00    -0.297 N 
ATOM      4  HN  UNL d   1      -1.401   1.943   0.099  1.00  0.00     0.187 HD
ATOM      5  C   UNL d   1      -0.048  -1.091   0.131  0.00  0.00     0.296 A 
ATOM      6  C   UNL d   1      -1.174  -0.122   0.106  0.00  0.00     0.038 A 
ATOM      7  O   UNL d   1       2.300  -0.562   0.028  0.00  0.00    -0.268 OA
ATOM      8  C   UNL d   1      -2.602  -0.543   0.024  0.00  0.00     0.068 C 
ENDROOT
BRANCH   2   9
ATOM      9  C   UNL d   1       1.280   2.339   0.130  0.00  0.00     0.060 A 
ATOM     10  C   UNL d   1       2.672   2.411  -0.026  0.00  0.00     0.034 A 
ATOM     11  C   UNL d   1       3.339   3.644  -0.006  0.00  0.00     0.038 A 
ATOM     12  C   UNL d   1       2.613   4.821   0.182  0.00  0.00     0.103 A 
ATOM     13  C   UNL d   1       1.227   4.776   0.350  0.00  0.00     0.038 A 
ATOM     14  C   UNL d   1       0.570   3.539   0.317  0.00  0.00     0.034 A 
BRANCH  12  15
ATOM     15  N   UNL d   1       3.309   6.114   0.200  0.00  0.00    -0.116 N 
ATOM     16  O   UNL d   1       2.630   7.132   0.397  0.00  0.00    -0.532 OA
ATOM     17  O   UNL d   1       4.534   6.111   0.015  0.00  0.00    -0.532 OA
ENDBRANCH  12  15
ENDBRANCH   2   9
BRANCH   5  18
ATOM     18  N   UNL d   1      -0.039  -1.783   1.436  0.00  0.00    -0.135 N 
ATOM     19  O   UNL d   1      -0.051  -1.104   2.472  0.00  0.00    -0.536 OA
ATOM     20  O   UNL d   1      -0.078  -3.019   1.402  0.00  0.00    -0.536 OA
ENDBRANCH   5  18
TORSDOF 3
