REMARK  7 active torsions:
REMARK  status: ('A' for Active; 'I' for Inactive)
REMARK    1  A    between atoms: C_2  and  C_1 
REMARK    2  A    between atoms: O_7  and  C_3 
REMARK    3  A    between atoms: O_8  and  C_4 
REMARK    4  A    between atoms: C_5  and  O_7 
REMARK    5  A    between atoms: C_11  and  C_5 
REMARK    6  A    between atoms: C_6  and  O_8 
REMARK    7  A    between atoms: C_12  and  C_6 
ROOT
ATOM      1  C   UNL d   1       1.131  -1.409   0.018  0.00  0.00     0.023 A 
ATOM      2  C   UNL d   1       1.566  -0.622  -1.086  0.00  0.00     0.091 A 
ATOM      3  C   UNL d   1       0.599  -0.712   1.168  0.00  0.00    -0.012 A 
ATOM      4  C   UNL d   1       1.428   0.767  -1.098  0.00  0.00     0.039 A 
ATOM      5  C   UNL d   1       0.523   0.709   1.147  0.00  0.00    -0.025 A 
ATOM      6  C   UNL d   1       0.893   1.419   0.005  0.00  0.00     0.015 A 
ATOM      7  C   UNL d   1       0.136  -1.334   2.358  0.00  0.00     0.013 A 
ATOM      8  C   UNL d   1       0.084   1.427   2.273  0.00  0.00     0.012 A 
ATOM      9  C   UNL d   1      -0.257  -0.609   3.488  0.00  0.00     0.001 A 
ATOM     10  C   UNL d   1      -0.274   0.774   3.448  0.00  0.00     0.001 A 
ENDROOT
BRANCH   1  11
ATOM     11  C   UNL d   1       1.186  -2.916  -0.026  0.00  0.00     0.023 A 
ATOM     12  C   UNL d   1       1.874  -3.659   0.976  0.00  0.00     0.091 A 
ATOM     13  C   UNL d   1       1.843  -5.053   1.009  0.00  0.00     0.039 A 
ATOM     14  C   UNL d   1       1.165  -5.754   0.022  0.00  0.00     0.015 A 
ATOM     15  C   UNL d   1       0.542  -5.084  -1.032  0.00  0.00    -0.025 A 
ATOM     16  C   UNL d   1       0.507  -3.662  -1.061  0.00  0.00    -0.012 A 
ATOM     17  C   UNL d   1      -0.040  -5.844  -2.061  0.00  0.00     0.012 A 
ATOM     18  C   UNL d   1      -0.211  -3.088  -2.144  0.00  0.00     0.013 A 
ATOM     19  C   UNL d   1      -0.747  -3.852  -3.187  0.00  0.00     0.001 A 
ATOM     20  C   UNL d   1      -0.653  -5.232  -3.149  0.00  0.00     0.001 A 
BRANCH  12  21
ATOM     21  O   UNL d   1       2.667  -2.948   1.932  0.00  0.00    -0.274 OA
BRANCH  21  22
ATOM     22  C   UNL d   1       2.869  -3.388   3.241  0.00  0.00     0.298 C 
ATOM     23  O   UNL d   1       2.385  -4.379   3.768  0.00  0.00    -0.259 OA
BRANCH  22  24
ATOM     24  C   UNL d   1       3.810  -2.483   3.953  0.00  0.00     0.040 A 
ATOM     25  C   UNL d   1       4.433  -2.953   5.123  0.00  0.00     0.019 A 
ATOM     26  C   UNL d   1       5.316  -2.131   5.830  0.00  0.00     0.025 A 
ATOM     27  C   UNL d   1       5.573  -0.840   5.373  0.00  0.00     0.034 A 
ATOM     28  C   UNL d   1       4.948  -0.360   4.222  0.00  0.00     0.025 A 
ATOM     29 CL   UNL d   1       6.666   0.172   6.235  0.00  0.00    -0.084 Cl
ATOM     30  C   UNL d   1       4.064  -1.178   3.512  0.00  0.00     0.019 A 
ENDBRANCH  22  24
ENDBRANCH  21  22
ENDBRANCH  12  21
ENDBRANCH   1  11
BRANCH   2  31
ATOM     31  O   UNL d   1       2.219  -1.272  -2.177  0.00  0.00    -0.274 OA
BRANCH  31  32
ATOM     32  C   UNL d   1       2.112  -0.830  -3.497  0.00  0.00     0.298 C 
ATOM     33  O   UNL d   1       1.446   0.106  -3.911  0.00  0.00    -0.259 OA
BRANCH  32  34
ATOM     34  C   UNL d   1       2.973  -1.651  -4.390  0.00  0.00     0.040 A 
ATOM     35  C   UNL d   1       3.336  -1.128  -5.640  0.00  0.00     0.019 A 
ATOM     36  C   UNL d   1       4.138  -1.869  -6.513  0.00  0.00     0.025 A 
ATOM     37  C   UNL d   1       4.573  -3.141  -6.142  0.00  0.00     0.034 A 
ATOM     38  C   UNL d   1       4.211  -3.671  -4.908  0.00  0.00     0.025 A 
ATOM     39 CL   UNL d   1       5.559  -4.055  -7.213  0.00  0.00    -0.084 Cl
ATOM     40  C   UNL d   1       3.412  -2.930  -4.027  0.00  0.00     0.019 A 
ENDBRANCH  32  34
ENDBRANCH  31  32
ENDBRANCH   2  31
TORSDOF 7
