REMARK  5 active torsions:
REMARK  status: ('A' for Active; 'I' for Inactive)
REMARK    1  A    between atoms: C_2  and  C_1 
REMARK       I    between atoms: N_14  and  C_2 
REMARK    2  A    between atoms: C_24  and  C_5 
REMARK    3  A    between atoms: C_6  and  O_11 
REMARK    4  A    between atoms: O_11  and  C_17 
REMARK    5  A    between atoms: C_25  and  N_14 
ROOT
ATOM      1  N   UNL d   1      -4.002  -2.342  -0.519  0.00  0.00    -0.344 N 
ATOM      2  HN  UNL d   1      -4.351  -1.631  -1.162  1.00  0.00     0.167 HD
ATOM      3  C   UNL d   1      -4.820  -3.242   0.066  0.00  0.00     0.149 A 
ATOM      4  C   UNL d   1      -2.125  -3.413   0.636  0.00  0.00     0.050 A 
ATOM      5  C   UNL d   1      -2.689  -2.440  -0.201  0.00  0.00     0.119 A 
ATOM      6  C   UNL d   1      -4.368  -4.264   0.889  0.00  0.00     0.059 A 
ATOM      7  C   UNL d   1      -3.000  -4.347   1.180  0.00  0.00     0.035 A 
ENDROOT
BRANCH   4   8
ATOM      8  N   UNL d   1      -0.729  -3.381   0.847  0.00  0.00    -0.322 N 
ATOM      9  C   UNL d   1       0.072  -4.266   1.561  0.00  0.00     0.261 C 
ATOM     10  O   UNL d   1      -0.340  -5.215   2.211  0.00  0.00    -0.267 OA
ATOM     11  H   UNL d   1      -0.261  -2.582   0.446  0.00  0.00     0.169 HD
BRANCH   9  12
ATOM     12  C   UNL d   1       1.498  -3.946   1.478  0.00  0.00     0.093 C 
ATOM     13  C   UNL d   1       2.568  -4.192   2.409  0.00  0.00     0.083 C 
ATOM     14  N   UNL d   1       3.706  -3.629   1.965  0.00  0.00    -0.259 N 
ATOM     15  O   UNL d   1       3.447  -3.141   0.716  0.00  0.00    -0.241 OA
ATOM     16  HN  UNL d   1       4.593  -3.576   2.465  1.00  0.00     0.195 HD
ATOM     17  C   UNL d   1       2.153  -3.370   0.398  0.00  0.00     0.090 C 
ATOM     18  C   UNL d   1       1.792  -3.003  -0.987  0.00  0.00     0.080 C 
BRANCH  13  19
ATOM     19  C   UNL d   1       2.637  -4.943   3.663  0.00  0.00    -0.006 A 
ATOM     20  C   UNL d   1       3.330  -4.403   4.760  0.00  0.00     0.014 A 
ATOM     21  C   UNL d   1       3.615  -5.185   5.883  0.00  0.00     0.001 A 
ATOM     22  C   UNL d   1       3.211  -6.517   5.921  0.00  0.00     0.000 A 
ATOM     23  C   UNL d   1       2.500  -7.058   4.850  0.00  0.00     0.001 A 
ATOM     24  C   UNL d   1       2.211  -6.275   3.727  0.00  0.00     0.014 A 
ENDBRANCH  13  19
ENDBRANCH   9  12
ENDBRANCH   4   8
BRANCH   3  25
ATOM     25  O   UNL d   1      -6.154  -3.244  -0.297  0.00  0.00    -0.276 OA
BRANCH  25  26
ATOM     26  C   UNL d   1      -6.833  -2.052  -0.072  0.00  0.00     0.163 A 
ATOM     27  C   UNL d   1      -7.810  -1.672  -1.001  0.00  0.00     0.042 A 
ATOM     28  C   UNL d   1      -8.540  -0.530  -0.646  0.00  0.00     0.049 A 
ATOM     29  C   UNL d   1      -8.096  -2.343  -2.215  0.00  0.00     0.020 A 
ATOM     30  C   UNL d   1      -9.542  -0.085  -1.500  0.00  0.00     0.054 A 
ATOM     31  N   UNL d   1      -8.318   0.141   0.490  0.00  0.00    -0.351 N 
ATOM     32  C   UNL d   1      -9.827  -0.749  -2.693  0.00  0.00     0.036 A 
ATOM     33  C   UNL d   1      -9.105  -1.879  -3.058  0.00  0.00     0.025 A 
ATOM     34 CL   UNL d   1     -11.082  -0.169  -3.716  0.00  0.00    -0.084 Cl
ATOM     35  C   UNL d   1      -7.364  -0.333   1.305  0.00  0.00     0.182 A 
ATOM     36  HN  UNL d   1      -8.851   0.978   0.726  1.00  0.00     0.166 HD
ATOM     37  N   UNL d   1      -6.614  -1.418   1.098  0.00  0.00    -0.332 N 
ATOM     38  HN  UNL d   1      -5.925  -1.744   1.776  1.00  0.00     0.168 HD
ENDBRANCH  25  26
ENDBRANCH   3  25
TORSDOF 5
