REMARK  6 active torsions:
REMARK  status: ('A' for Active; 'I' for Inactive)
REMARK    1  A    between atoms: C_11  and  C_1 
REMARK    2  A    between atoms: C_6  and  C_3 
REMARK    3  A    between atoms: C_4  and  O_19 
REMARK       I    between atoms: N_9  and  C_4 
REMARK    4  A    between atoms: C_7  and  N_9 
REMARK    5  A    between atoms: C_22  and  C_8 
REMARK    6  A    between atoms: O_19  and  C_22 
ROOT
ATOM      1  C   UNL d   1       6.600   2.846  -1.109  0.00  0.00     0.366 C 
ATOM      2  N   UNL d   1       7.834   2.255  -1.100  0.00  0.00    -0.303 N 
ATOM      3  O   UNL d   1       6.444   3.895  -1.729  0.00  0.00    -0.238 OA
ATOM      4  H   UNL d   1       8.498   2.824  -1.611  0.00  0.00     0.171 HD
ENDROOT
BRANCH   1   5
ATOM      5  O   UNL d   1       5.642   2.245  -0.368  0.00  0.00    -0.292 OA
BRANCH   5   6
ATOM      6  C   UNL d   1       4.426   2.993  -0.230  0.00  0.00     0.274 C 
BRANCH   6   7
ATOM      7  C   UNL d   1       3.278   2.083  -0.218  0.00  0.00    -0.074 C 
ATOM      8  C   UNL d   1       2.311   1.368  -0.203  0.00  0.00    -0.057 C 
BRANCH   8   9
ATOM      9  C   UNL d   1       1.168   0.518  -0.162  0.00  0.00     0.059 A 
ATOM     10  S   UNL d   1       1.281  -1.181  -0.137  0.00  0.00    -0.078 SA
ATOM     11  C   UNL d   1      -0.425  -1.379  -0.043  0.00  0.00     0.051 A 
ATOM     12  C   UNL d   1      -1.059  -0.149  -0.053  0.00  0.00     0.025 A 
ATOM     13  C   UNL d   1      -0.140   0.944  -0.126  0.00  0.00     0.029 A 
BRANCH  11  14
ATOM     14  C   UNL d   1      -0.961  -2.735   0.035  0.00  0.00     0.162 C 
ATOM     15  O   UNL d   1      -0.254  -3.747   0.070  0.00  0.00    -0.292 OA
ATOM     16  C   UNL d   1      -2.459  -2.923   0.067  0.00  0.00     0.097 C 
ENDBRANCH  11  14
ENDBRANCH   8   9
ENDBRANCH   6   7
ENDBRANCH   5   6
ENDBRANCH   1   5
BRANCH   2  17
ATOM     17  C   UNL d   1       8.330   1.082  -0.503  0.00  0.00     0.040 A 
ATOM     18  C   UNL d   1       7.552   0.115   0.133  0.00  0.00     0.053 A 
ATOM     19  C   UNL d   1       8.155  -1.030   0.667  0.00  0.00     0.037 A 
ATOM     20 CL   UNL d   1       7.182  -2.227   1.433  0.00  0.00    -0.084 Cl
ATOM     21  C   UNL d   1       9.531  -1.225   0.582  0.00  0.00     0.048 A 
ATOM     22  C   UNL d   1      10.307  -0.259  -0.044  0.00  0.00     0.037 A 
ATOM     23  C   UNL d   1       9.717   0.884  -0.586  0.00  0.00     0.053 A 
ATOM     24 CL   UNL d   1      12.011  -0.471  -0.156  0.00  0.00    -0.084 Cl
ENDBRANCH   2  17
TORSDOF 6
