REMARK  7 active torsions:
REMARK  status: ('A' for Active; 'I' for Inactive)
REMARK    1  A    between atoms: C_9  and  C_1 
REMARK    2  A    between atoms: C_16  and  C_4 
REMARK       I    between atoms: C_7  and  N_11 
REMARK       I    between atoms: N_12  and  C_7 
REMARK    3  A    between atoms: O_13  and  C_8 
REMARK    4  A    between atoms: N_11  and  C_9 
REMARK    5  A    between atoms: C_14  and  N_12 
REMARK    6  A    between atoms: C_20  and  O_13 
REMARK    7  A    between atoms: O_21  and  C_15 
ROOT
ATOM      1  C   UNL d   1       2.286  -4.081   0.359  0.00  0.00     0.320 C 
ATOM      2  N   UNL d   1       3.628  -4.106   0.598  0.00  0.00    -0.338 N 
ATOM      3  N   UNL d   1       1.701  -5.303   0.191  0.00  0.00    -0.309 N 
ATOM      4  O   UNL d   1       1.726  -2.993   0.268  0.00  0.00    -0.247 OA
ATOM      5  H   UNL d   1       4.044  -3.184   0.577  0.00  0.00     0.164 HD
ATOM      6  H   UNL d   1       2.305  -5.995  -0.227  0.00  0.00     0.170 HD
ENDROOT
BRANCH   2   7
ATOM      7  C   UNL d   1       4.430  -5.187   1.131  0.00  0.00     0.168 C 
BRANCH   7   8
ATOM      8  C   UNL d   1       4.996  -4.861   2.471  0.00  0.00     0.020 A 
ATOM      9  C   UNL d   1       5.919  -5.665   3.237  0.00  0.00     0.075 A 
ATOM     10  N   UNL d   1       6.207  -5.063   4.402  0.00  0.00    -0.260 N 
ATOM     11  O   UNL d   1       5.462  -3.916   4.448  0.00  0.00    -0.242 OA
ATOM     12  HN  UNL d   1       6.856  -5.396   5.114  1.00  0.00     0.195 HD
ATOM     13  C   UNL d   1       4.718  -3.802   3.322  0.00  0.00     0.082 A 
ATOM     14  C   UNL d   1       3.798  -2.644   3.301  0.00  0.00     0.079 C 
BRANCH   9  15
ATOM     15  C   UNL d   1       6.478  -6.993   2.951  0.00  0.00    -0.007 A 
ATOM     16  C   UNL d   1       6.631  -7.914   4.001  0.00  0.00     0.014 A 
ATOM     17  C   UNL d   1       7.122  -9.201   3.766  0.00  0.00     0.001 A 
ATOM     18  C   UNL d   1       7.465  -9.587   2.473  0.00  0.00     0.000 A 
ATOM     19  C   UNL d   1       7.338  -8.680   1.424  0.00  0.00     0.001 A 
ATOM     20  C   UNL d   1       6.860  -7.386   1.663  0.00  0.00     0.014 A 
ENDBRANCH   9  15
ENDBRANCH   7   8
ENDBRANCH   2   7
BRANCH   3  21
ATOM     21  C   UNL d   1       0.322  -5.540   0.058  0.00  0.00     0.039 A 
ATOM     22  C   UNL d   1      -0.651  -4.782   0.723  0.00  0.00     0.069 A 
ATOM     23  C   UNL d   1      -2.013  -5.128   0.639  0.00  0.00     0.104 A 
ATOM     24  C   UNL d   1      -2.404  -6.184  -0.203  0.00  0.00     0.101 A 
ATOM     25  C   UNL d   1      -1.420  -6.912  -0.886  0.00  0.00     0.042 A 
ATOM     26  C   UNL d   1      -0.065  -6.620  -0.727  0.00  0.00     0.032 A 
BRANCH  23  27
ATOM     27  O   UNL d   1      -2.973  -4.450   1.347  0.00  0.00    -0.343 OA
BRANCH  27  28
ATOM     28  C   UNL d   1      -2.638  -4.015   2.666  0.00  0.00     0.129 C 
ATOM     29  C   UNL d   1      -2.196  -5.141   3.606  0.00  0.00     0.032 C 
ATOM     30  C   UNL d   1      -2.645  -4.731   5.005  0.00  0.00     0.002 C 
ATOM     31  C   UNL d   1      -3.591  -3.548   4.827  0.00  0.00     0.002 C 
ATOM     32  C   UNL d   1      -3.911  -3.504   3.343  0.00  0.00     0.032 C 
ENDBRANCH  27  28
ENDBRANCH  23  27
BRANCH  24  33
ATOM     33  O   UNL d   1      -3.657  -6.662  -0.474  0.00  0.00    -0.353 OA
ATOM     34  C   UNL d   1      -4.766  -6.140   0.236  0.00  0.00     0.210 C 
ENDBRANCH  24  33
ENDBRANCH   3  21
TORSDOF 7
