REMARK  9 active torsions:
REMARK  status: ('A' for Active; 'I' for Inactive)
REMARK    1  A    between atoms: C_2  and  S_6 
REMARK    2  A    between atoms: C_4  and  C_3 
REMARK    3  A    between atoms: O_11  and  C_5 
REMARK    4  A    between atoms: S_6  and  C_7 
REMARK    5  A    between atoms: C_8  and  C_18 
REMARK    6  A    between atoms: C_9  and  C_19 
REMARK    7  A    between atoms: C_18  and  O_11 
REMARK    8  A    between atoms: O_16  and  C_13 
REMARK    9  A    between atoms: C_19  and  O_16 
ROOT
ATOM      1  C   UNL d   1      -0.585  -0.129  -0.307  0.00  0.00     0.112 A 
ATOM      2  C   UNL d   1      -0.006   1.161  -0.317  0.00  0.00     0.109 A 
ATOM      3  C   UNL d   1       1.393   1.277  -0.167  0.00  0.00     0.042 A 
ATOM      4  C   UNL d   1      -2.004  -0.328  -0.294  0.00  0.00     0.105 C 
ATOM      5  N   UNL d   1      -3.162  -0.454  -0.300  0.00  0.00    -0.191 NA
ATOM      6  C   UNL d   1       0.238  -1.278  -0.249  0.00  0.00     0.092 A 
ATOM      7  C   UNL d   1       2.186   0.129  -0.034  0.00  0.00     0.025 A 
ATOM      8  C   UNL d   1       1.616  -1.139  -0.084  0.00  0.00     0.040 A 
ENDROOT
BRANCH   2   9
ATOM      9  O   UNL d   1      -0.696   2.353  -0.376  0.00  0.00    -0.339 OA
BRANCH   9  10
ATOM     10  C   UNL d   1      -1.850   2.431  -1.228  0.00  0.00     0.293 C 
BRANCH  10  11
ATOM     11  C   UNL d   1      -2.025   3.810  -1.862  0.00  0.00     0.408 C 
ATOM     12  F   UNL d   1      -0.911   4.570  -1.782  0.00  0.00    -0.169 F 
ATOM     13  F   UNL d   1      -2.331   3.687  -3.178  0.00  0.00    -0.169 F 
ATOM     14  F   UNL d   1      -3.036   4.495  -1.281  0.00  0.00    -0.169 F 
ENDBRANCH  10  11
ENDBRANCH   9  10
ENDBRANCH   2   9
BRANCH   6  15
ATOM     15  O   UNL d   1      -0.391  -2.496  -0.341  0.00  0.00    -0.341 OA
BRANCH  15  16
ATOM     16  C   UNL d   1       0.427  -3.631  -0.663  0.00  0.00     0.293 C 
BRANCH  16  17
ATOM     17  C   UNL d   1      -0.401  -4.815  -1.155  0.00  0.00     0.408 C 
ATOM     18  F   UNL d   1      -1.727  -4.644  -0.981  0.00  0.00    -0.169 F 
ATOM     19  F   UNL d   1      -0.185  -5.032  -2.475  0.00  0.00    -0.169 F 
ATOM     20  F   UNL d   1      -0.045  -5.946  -0.502  0.00  0.00    -0.169 F 
ENDBRANCH  16  17
ENDBRANCH  15  16
ENDBRANCH   6  15
BRANCH   3  21
ATOM     21  S   UNL d   1       2.221   2.858  -0.030  0.00  0.00    -0.069 SA
BRANCH  21  22
ATOM     22  C   UNL d   1       2.755   3.207  -1.700  0.00  0.00     0.089 A 
ATOM     23  C   UNL d   1       3.109   4.487  -2.123  0.00  0.00     0.081 A 
ATOM     24  C   UNL d   1       3.524   4.640  -3.463  0.00  0.00     0.020 A 
ATOM     25  C   UNL d   1       3.595   3.548  -4.315  0.00  0.00     0.018 A 
ATOM     26  C   UNL d   1       3.247   2.317  -3.802  0.00  0.00     0.089 A 
ATOM     27  N   UNL d   1       2.833   2.129  -2.530  0.00  0.00    -0.360 N 
ATOM     28  HN  UNL d   1       2.584   1.198  -2.197  1.00  0.00     0.166 HD
BRANCH  23  29
ATOM     29  C   UNL d   1       3.086   5.721  -1.268  0.00  0.00     0.420 C 
ATOM     30  F   UNL d   1       2.772   5.568   0.044  0.00  0.00    -0.166 F 
ATOM     31  F   UNL d   1       4.302   6.345  -1.268  0.00  0.00    -0.166 F 
ATOM     32  F   UNL d   1       2.211   6.652  -1.748  0.00  0.00    -0.166 F 
ENDBRANCH  23  29
ENDBRANCH  21  22
ENDBRANCH   3  21
TORSDOF 9
