REMARK  4 active torsions:
REMARK  status: ('A' for Active; 'I' for Inactive)
REMARK    1  A    between atoms: C_6  and  C_1 
REMARK    2  A    between atoms: C_5  and  C_2 
REMARK    3  A    between atoms: O_9  and  C_5 
REMARK    4  A    between atoms: C_13  and  O_9 
ROOT
ATOM      1  C   UNL d   1      -1.552  -0.570   0.441  0.00  0.00     0.087 A 
ATOM      2  C   UNL d   1      -0.237  -1.106   0.260  0.00  0.00     0.100 A 
ATOM      3  N   UNL d   1      -1.485   0.723   0.800  0.00  0.00    -0.259 N 
ATOM      4  HN  UNL d   1      -2.267   1.327   1.055  1.00  0.00     0.195 HD
ATOM      5  O   UNL d   1      -0.161   1.071   0.755  0.00  0.00    -0.241 OA
ATOM      6  C   UNL d   1       0.590  -0.006   0.416  0.00  0.00     0.091 A 
ATOM      7  C   UNL d   1       2.023   0.297   0.244  0.00  0.00     0.080 C 
ENDROOT
BRANCH   2   8
ATOM      8  C   UNL d   1       0.144  -2.457  -0.083  0.00  0.00     0.303 C 
ATOM      9  O   UNL d   1      -0.543  -3.200  -0.776  0.00  0.00    -0.259 OA
BRANCH   8  10
ATOM     10  O   UNL d   1       1.319  -2.862   0.546  0.00  0.00    -0.275 OA
BRANCH  10  11
ATOM     11  C   UNL d   1       2.452  -3.151  -0.241  0.00  0.00     0.079 A 
ATOM     12  C   UNL d   1       2.433  -3.252  -1.630  0.00  0.00     0.039 A 
ATOM     13  C   UNL d   1       3.642  -3.291  -2.329  0.00  0.00     0.021 A 
ATOM     14  C   UNL d   1       4.852  -3.237  -1.635  0.00  0.00     0.006 A 
ATOM     15  C   UNL d   1       4.869  -3.195  -0.241  0.00  0.00     0.021 A 
ATOM     16  I   UNL d   1       6.641  -3.163  -2.691  0.00  0.00    -0.045 I 
ATOM     17  C   UNL d   1       3.663  -3.163   0.461  0.00  0.00     0.039 A 
ENDBRANCH  10  11
ENDBRANCH   8  10
ENDBRANCH   2   8
BRANCH   1  18
ATOM     18  C   UNL d   1      -2.859  -1.212   0.316  0.00  0.00     0.037 A 
ATOM     19  C   UNL d   1      -3.234  -2.289   1.139  0.00  0.00     0.048 A 
ATOM     20 CL   UNL d   1      -2.188  -2.947   2.354  0.00  0.00    -0.083 Cl
ATOM     21  C   UNL d   1      -4.511  -2.857   1.035  0.00  0.00     0.025 A 
ATOM     22  C   UNL d   1      -5.440  -2.353   0.131  0.00  0.00     0.003 A 
ATOM     23  C   UNL d   1      -5.090  -1.284  -0.687  0.00  0.00     0.025 A 
ATOM     24  C   UNL d   1      -3.809  -0.724  -0.607  0.00  0.00     0.048 A 
ATOM     25 CL   UNL d   1      -3.468   0.565  -1.717  0.00  0.00    -0.083 Cl
ENDBRANCH   1  18
TORSDOF 4
