REMARK  6 active torsions:
REMARK  status: ('A' for Active; 'I' for Inactive)
REMARK    1  A    between atoms: C_6  and  C_1 
REMARK    2  A    between atoms: C_9  and  C_3 
REMARK       I    between atoms: N_8  and  C_6 
REMARK    3  A    between atoms: C_12  and  N_8 
REMARK    4  A    between atoms: C_15  and  N_8 
REMARK    5  A    between atoms: C_10  and  C_12 
REMARK    6  A    between atoms: C_23  and  C_15 
ROOT
ATOM      1  C   UNL d   1      -0.178  -2.378  -0.464  0.00  0.00     0.263 C 
ATOM      2  N   UNL d   1       0.665  -3.411  -0.009  0.00  0.00    -0.339 N 
ATOM      3  O   UNL d   1      -1.250  -2.663  -0.999  0.00  0.00    -0.267 OA
ENDROOT
BRANCH   1   4
ATOM      4  C   UNL d   1       0.199  -0.983  -0.263  0.00  0.00     0.097 A 
ATOM      5  S   UNL d   1      -0.120   0.137  -1.537  0.00  0.00    -0.063 SA
ATOM      6  C   UNL d   1       0.320   1.452  -0.522  0.00  0.00     0.103 A 
ATOM      7  N   UNL d   1       0.752   1.090   0.672  0.00  0.00    -0.351 N 
ATOM      8  C   UNL d   1       0.644  -0.286   0.850  0.00  0.00     0.029 A 
ATOM      9  HN  UNL d   1       1.116   1.735   1.374  1.00  0.00     0.166 HD
ATOM     10  C   UNL d   1       0.917  -0.802   2.221  0.00  0.00     0.070 C 
BRANCH   6  11
ATOM     11  C   UNL d   1       0.178   2.852  -0.963  0.00  0.00     0.081 A 
ATOM     12  N   UNL d   1      -0.307   3.101  -2.211  0.00  0.00    -0.361 N 
ATOM     13  C   UNL d   1      -0.448   4.404  -2.546  0.00  0.00     0.105 A 
ATOM     14  HN  UNL d   1      -0.549   2.349  -2.856  1.00  0.00     0.165 HD
ATOM     15  C   UNL d   1      -0.121   5.438  -1.683  0.00  0.00     0.104 A 
ATOM     16  N   UNL d   1       0.362   5.214  -0.443  0.00  0.00    -0.372 N 
ATOM     17  C   UNL d   1       0.500   3.903  -0.104  0.00  0.00     0.120 A 
ATOM     18  HN  UNL d   1       0.605   5.972   0.194  1.00  0.00     0.164 HD
ENDBRANCH   6  11
ENDBRANCH   1   4
BRANCH   2  19
ATOM     19  C   UNL d   1       0.108  -4.770  -0.073  0.00  0.00     0.172 C 
BRANCH  19  20
ATOM     20  C   UNL d   1       0.460  -5.628   1.113  0.00  0.00     0.000 A 
ATOM     21  S   UNL d   1       1.434  -7.027   0.889  0.00  0.00    -0.105 SA
ATOM     22  C   UNL d   1       1.242  -7.508   2.516  0.00  0.00     0.050 A 
ATOM     23  C   UNL d   1       0.464  -6.624   3.227  0.00  0.00     0.008 A 
ATOM     24  C   UNL d   1       0.015  -5.536   2.418  0.00  0.00     0.017 A 
ENDBRANCH  19  20
ENDBRANCH   2  19
BRANCH   2  25
ATOM     25  C   UNL d   1       2.123  -3.258   0.023  0.00  0.00     0.165 C 
BRANCH  25  26
ATOM     26  C   UNL d   1       2.847  -3.121  -1.301  0.00  0.00    -0.040 A 
ATOM     27  C   UNL d   1       4.047  -2.383  -1.321  0.00  0.00     0.009 A 
ATOM     28  C   UNL d   1       4.829  -2.300  -2.475  0.00  0.00     0.001 A 
ATOM     29  C   UNL d   1       4.428  -2.960  -3.631  0.00  0.00     0.000 A 
ATOM     30  C   UNL d   1       3.239  -3.683  -3.636  0.00  0.00     0.001 A 
ATOM     31  C   UNL d   1       2.451  -3.760  -2.482  0.00  0.00     0.009 A 
ENDBRANCH  25  26
ENDBRANCH   2  25
TORSDOF 6
