REMARK  3 active torsions:
REMARK  status: ('A' for Active; 'I' for Inactive)
REMARK    1  A    between atoms: C_2  and  C_1 
REMARK    2  A    between atoms: O_3  and  C_1 
REMARK       I    between atoms: N_5  and  C_2 
REMARK    3  A    between atoms: C_6  and  O_3 
ROOT
ATOM      1  C   UNL d   1       1.092   0.075   0.068  0.00  0.00     0.140 C 
ATOM      2  C   UNL d   1       0.478  -0.633   1.294  0.00  0.00     0.057 C 
ATOM      3  C   UNL d   1       2.617   0.052   0.253  0.00  0.00     0.057 C 
ENDROOT
BRANCH   1   4
ATOM      4  C   UNL d   1       0.531   1.528   0.066  0.00  0.00     0.250 C 
ATOM      5  O   UNL d   1       1.223   2.533   0.199  0.00  0.00    -0.270 OA
ATOM      6  N   UNL d   1      -0.826   1.639  -0.098  0.00  0.00    -0.368 N 
ATOM      7  H   UNL d   1      -1.349   0.874  -0.502  0.00  0.00     0.159 HD
ATOM      8  H   UNL d   1      -1.186   2.575  -0.231  0.00  0.00     0.159 HD
ENDBRANCH   1   4
BRANCH   1   9
ATOM      9  O   UNL d   1       0.721  -0.745  -1.051  0.00  0.00    -0.331 OA
BRANCH   9  10
ATOM     10  C   UNL d   1       0.615  -0.204  -2.300  0.00  0.00     0.070 A 
ATOM     11  C   UNL d   1       1.350   0.873  -2.791  0.00  0.00     0.038 A 
ATOM     12  C   UNL d   1       1.108   1.363  -4.080  0.00  0.00     0.026 A 
ATOM     13  C   UNL d   1       0.139   0.765  -4.880  0.00  0.00     0.034 A 
ATOM     14  C   UNL d   1      -0.575  -0.334  -4.413  0.00  0.00     0.026 A 
ATOM     15 CL   UNL d   1      -0.182   1.393  -6.450  0.00  0.00    -0.084 Cl
ATOM     16  C   UNL d   1      -0.328  -0.823  -3.127  0.00  0.00     0.038 A 
ENDBRANCH   9  10
ENDBRANCH   1   9
TORSDOF 3
