REMARK  3 active torsions:
REMARK  status: ('A' for Active; 'I' for Inactive)
REMARK    1  A    between atoms: C_6  and  C_3 
REMARK    2  A    between atoms: C_10  and  C_6 
REMARK    3  A    between atoms: O_7  and  C_10 
ROOT
ATOM      1  N   UNL d   1      -1.561   1.028  -0.013  0.00  0.00    -0.365 N 
ATOM      2  C   UNL d   1      -2.348  -0.090  -0.012  0.00  0.00     0.096 A 
ATOM      3  C   UNL d   1      -1.527  -1.202  -0.009  0.00  0.00    -0.028 A 
ATOM      4  C   UNL d   1      -0.177  -0.719   0.002  0.00  0.00    -0.002 A 
ATOM      5  C   UNL d   1      -0.233   0.676  -0.007  0.00  0.00     0.042 A 
ATOM      6  C   UNL d   1       1.093  -1.334   0.008  0.00  0.00     0.014 A 
ATOM      7  C   UNL d   1       0.910   1.485  -0.015  0.00  0.00     0.030 A 
ATOM      8  C   UNL d   1       2.248  -0.540   0.002  0.00  0.00     0.001 A 
ATOM      9  C   UNL d   1       2.155   0.850  -0.011  0.00  0.00     0.002 A 
ATOM     10  H   UNL d   1      -1.900   1.980  -0.027  0.00  0.00     0.165 HD
ENDROOT
BRANCH   3  11
ATOM     11  C   UNL d   1      -1.988  -2.625  -0.037  0.00  0.00     0.067 C 
BRANCH  11  12
ATOM     12  C   UNL d   1      -2.229  -3.203   1.353  0.00  0.00     0.168 C 
BRANCH  12  13
ATOM     13  O   UNL d   1      -2.714  -4.539   1.236  0.00  0.00    -0.401 OA
ATOM     14  H   UNL d   1      -2.863  -4.866   2.140  0.00  0.00     0.209 HD
ENDBRANCH  12  13
ENDBRANCH  11  12
ENDBRANCH   3  11
TORSDOF 3
