REMARK  5 active torsions:
REMARK  status: ('A' for Active; 'I' for Inactive)
REMARK    1  A    between atoms: N_3  and  C_1 
REMARK    2  A    between atoms: N_4  and  C_1 
REMARK    3  A    between atoms: C_2  and  N_3 
REMARK    4  A    between atoms: C_11  and  N_4 
REMARK    5  A    between atoms: C_12  and  C_6 
ROOT
ATOM      1  C   UNL d   1       1.004   0.045  -0.031  0.00  0.00     0.176 C 
ATOM      2  S   UNL d   1       0.517  -0.075  -1.635  0.00  0.00    -0.041 SA
ENDROOT
BRANCH   1   3
ATOM      3  N   UNL d   1       2.335   0.018   0.410  0.00  0.00    -0.332 N 
ATOM      4  H   UNL d   1       2.447  -0.664   1.147  0.00  0.00     0.168 HD
BRANCH   3   5
ATOM      5  C   UNL d   1       3.483   0.286  -0.378  0.00  0.00     0.046 A 
ATOM      6  C   UNL d   1       3.590   1.497  -1.102  0.00  0.00    -0.035 A 
ATOM      7  C   UNL d   1       4.708   1.717  -1.924  0.00  0.00     0.009 A 
ATOM      8  C   UNL d   1       2.597   2.628  -1.010  0.00  0.00     0.050 C 
ATOM      9  C   UNL d   1       5.745   0.796  -1.976  0.00  0.00     0.001 A 
ATOM     10  C   UNL d   1       5.686  -0.350  -1.191  0.00  0.00     0.009 A 
ATOM     11  C   UNL d   1       4.570  -0.619  -0.375  0.00  0.00    -0.035 A 
ATOM     12  C   UNL d   1       4.625  -1.907   0.404  0.00  0.00     0.050 C 
ENDBRANCH   3   5
ENDBRANCH   1   3
BRANCH   1  13
ATOM     13  N   UNL d   1       0.175   0.178   1.085  0.00  0.00    -0.333 N 
ATOM     14  H   UNL d   1       0.575   0.759   1.813  0.00  0.00     0.168 HD
BRANCH  13  15
ATOM     15  C   UNL d   1      -1.199  -0.117   1.220  0.00  0.00     0.034 A 
ATOM     16  C   UNL d   1      -1.818  -1.120   0.475  0.00  0.00     0.030 A 
ATOM     17  C   UNL d   1      -3.165  -1.418   0.665  0.00  0.00     0.010 A 
ATOM     18  C   UNL d   1      -3.928  -0.735   1.623  0.00  0.00    -0.055 A 
ATOM     19  C   UNL d   1      -3.299   0.258   2.386  0.00  0.00     0.010 A 
ATOM     20  C   UNL d   1      -1.942   0.555   2.193  0.00  0.00     0.030 A 
BRANCH  18  21
ATOM     21  C   UNL d   1      -5.382  -1.102   1.852  0.00  0.00     0.010 C 
ATOM     22  C   UNL d   1      -6.223  -0.894   0.586  0.00  0.00     0.015 C 
ATOM     23  C   UNL d   1      -5.497  -2.546   2.346  0.00  0.00     0.015 C 
ENDBRANCH  18  21
ENDBRANCH  13  15
ENDBRANCH   1  13
TORSDOF 5
