REMARK  3 active torsions:
REMARK  status: ('A' for Active; 'I' for Inactive)
REMARK    1  A    between atoms: C_3  and  C_2 
REMARK    2  A    between atoms: C_16  and  N_4 
REMARK    3  A    between atoms: C_15  and  C_8 
ROOT
ATOM      1  C   UNL d   1      -1.279   0.144  -0.294  0.00  0.00     0.106 C 
ATOM      2  C   UNL d   1      -2.624   0.080  -0.516  0.00  0.00     0.122 C 
ATOM      3  N   UNL d   1      -0.336   1.208  -0.114  0.00  0.00    -0.303 N 
ATOM      4  S   UNL d   1      -0.401  -1.480  -0.202  0.00  0.00    -0.080 SA
ATOM      5  C   UNL d   1       0.996   0.702  -0.156  0.00  0.00     0.057 C 
ATOM      6  C   UNL d   1       1.108  -0.638  -0.208  0.00  0.00     0.082 C 
ATOM      7  C   UNL d   1      -3.510   1.194  -0.614  0.00  0.00     0.106 C 
ATOM      8  N   UNL d   1      -4.304   2.032  -0.708  0.00  0.00    -0.191 NA
ENDROOT
BRANCH   2   9
ATOM      9  C   UNL d   1      -3.262  -1.163  -0.828  0.00  0.00     0.130 A 
ATOM     10  N   UNL d   1      -3.389  -1.784  -1.985  0.00  0.00    -0.339 N 
ATOM     11  C   UNL d   1      -4.155  -2.896  -1.735  0.00  0.00     0.060 A 
ATOM     12  HN  UNL d   1      -2.999  -1.496  -2.883  1.00  0.00     0.167 HD
ATOM     13  C   UNL d   1      -4.595  -3.900  -2.609  0.00  0.00     0.032 A 
ATOM     14  C   UNL d   1      -4.506  -2.961  -0.393  0.00  0.00     0.060 A 
ATOM     15  C   UNL d   1      -5.380  -4.940  -2.095  0.00  0.00     0.002 A 
ATOM     16  C   UNL d   1      -5.715  -4.979  -0.739  0.00  0.00     0.002 A 
ATOM     17  C   UNL d   1      -5.284  -3.986   0.148  0.00  0.00     0.032 A 
ATOM     18  N   UNL d   1      -3.930  -1.845   0.163  0.00  0.00    -0.339 N 
ATOM     19  H   UNL d   1      -3.991  -1.576   1.135  0.00  0.00     0.167 HD
ENDBRANCH   2   9
BRANCH   3  20
ATOM     20  C   UNL d   1      -0.623   2.530   0.362  0.00  0.00     0.040 A 
ATOM     21  C   UNL d   1       0.070   3.079   1.463  0.00  0.00     0.030 A 
ATOM     22  C   UNL d   1      -0.153   4.393   1.895  0.00  0.00     0.002 A 
ATOM     23  C   UNL d   1      -1.118   5.175   1.272  0.00  0.00     0.000 A 
ATOM     24  C   UNL d   1      -1.803   4.665   0.177  0.00  0.00     0.002 A 
ATOM     25  C   UNL d   1      -1.512   3.381  -0.301  0.00  0.00     0.030 A 
ENDBRANCH   3  20
BRANCH   5  26
ATOM     26  C   UNL d   1       2.210   1.546  -0.305  0.00  0.00    -0.008 A 
ATOM     27  C   UNL d   1       2.178   2.719  -1.078  0.00  0.00     0.015 A 
ATOM     28  C   UNL d   1       3.305   3.535  -1.201  0.00  0.00     0.020 A 
ATOM     29  C   UNL d   1       4.497   3.165  -0.589  0.00  0.00     0.011 A 
ATOM     30  C   UNL d   1       4.570   1.987   0.149  0.00  0.00     0.020 A 
ATOM     31 BR   UNL d   1       6.022   4.267  -0.758  0.00  0.00    -0.051 Br
ATOM     32  C   UNL d   1       3.430   1.190   0.299  0.00  0.00     0.015 A 
ENDBRANCH   5  26
TORSDOF 3
