REMARK  3 active torsions:
REMARK  status: ('A' for Active; 'I' for Inactive)
REMARK    1  A    between atoms: N_2  and  S_1 
REMARK    2  A    between atoms: C_3  and  S_1 
REMARK    3  A    between atoms: C_6  and  N_2 
ROOT
ATOM      1  N   UNL d   1       0.568   1.399   0.876  0.00  0.00    -0.281 N 
ATOM      2  H   UNL d   1      -0.380   1.639   0.587  0.00  0.00     0.179 HD
ENDROOT
BRANCH   1   3
ATOM      3  S   UNL d   1       1.161   0.069   0.011  0.00  0.00     0.263 S 
ATOM      4  O   UNL d   1       2.589  -0.038   0.216  0.00  0.00    -0.200 OA
ATOM      5  O   UNL d   1       0.598   0.172  -1.319  0.00  0.00    -0.200 OA
BRANCH   3   6
ATOM      6  C   UNL d   1       0.377  -1.316   0.809  0.00  0.00     0.079 A 
ATOM      7  C   UNL d   1      -0.885  -1.736   0.376  0.00  0.00     0.026 A 
ATOM      8  C   UNL d   1      -1.495  -2.832   0.992  0.00  0.00     0.008 A 
ATOM      9  C   UNL d   1      -0.848  -3.514   2.031  0.00  0.00    -0.062 A 
ATOM     10  C   UNL d   1       0.421  -3.089   2.447  0.00  0.00     0.008 A 
ATOM     11  C   UNL d   1      -1.511  -4.699   2.671  0.00  0.00     0.048 C 
ATOM     12  C   UNL d   1       1.040  -1.998   1.832  0.00  0.00     0.026 A 
ENDBRANCH   3   6
ENDBRANCH   1   3
BRANCH   1  13
ATOM     13  C   UNL d   1       0.868   1.492   2.260  0.00  0.00     0.043 A 
ATOM     14  C   UNL d   1       2.095   2.011   2.670  0.00  0.00     0.043 A 
ATOM     15  C   UNL d   1       2.415   2.073   4.038  0.00  0.00    -0.007 A 
ATOM     16  C   UNL d   1       3.620   2.623   4.494  0.00  0.00     0.015 A 
ATOM     17  C   UNL d   1       1.510   1.575   5.002  0.00  0.00     0.042 A 
ATOM     18  C   UNL d   1       3.893   2.655   5.857  0.00  0.00     0.018 A 
ATOM     19  C   UNL d   1       2.951   2.131   6.719  0.00  0.00     0.088 A 
ATOM     20  N   UNL d   1       1.775   1.597   6.319  0.00  0.00    -0.365 N 
ATOM     21  HN  UNL d   1       1.110   1.222   6.995  1.00  0.00     0.165 HD
ATOM     22  C   UNL d   1       0.304   1.048   4.561  0.00  0.00     0.033 A 
ATOM     23  C   UNL d   1      -0.032   1.011   3.205  0.00  0.00     0.032 A 
ENDBRANCH   1  13
TORSDOF 3
