REMARK  7 active torsions:
REMARK  status: ('A' for Active; 'I' for Inactive)
REMARK    1  A    between atoms: N_2  and  S_1 
REMARK    2  A    between atoms: C_6  and  S_1 
REMARK    3  A    between atoms: C_3  and  N_2 
REMARK       I    between atoms: C_8  and  N_14 
REMARK    4  A    between atoms: C_11  and  C_8 
REMARK    5  A    between atoms: C_12  and  C_13 
REMARK    6  A    between atoms: O_22  and  C_12 
REMARK    7  A    between atoms: N_14  and  C_21 
ROOT
ATOM      1  C   UNL d   1       0.553   1.440  -0.899  0.00  0.00     0.075 A 
ATOM      2  C   UNL d   1      -0.633   1.263  -1.612  0.00  0.00     0.027 A 
ATOM      3  C   UNL d   1       1.273   2.629  -1.006  0.00  0.00     0.027 A 
ATOM      4  C   UNL d   1      -0.303   3.425  -2.675  0.00  0.00     0.035 A 
ATOM      5  C   UNL d   1      -1.055   2.255  -2.501  0.00  0.00     0.031 A 
ATOM      6  C   UNL d   1       0.842   3.618  -1.895  0.00  0.00     0.031 A 
ENDROOT
BRANCH   1   7
ATOM      7  S   UNL d   1       1.141   0.144   0.164  0.00  0.00     0.247 S 
ATOM      8  O   UNL d   1       1.967   0.759   1.181  0.00  0.00    -0.205 OA
ATOM      9  O   UNL d   1       0.009  -0.682   0.526  0.00  0.00    -0.205 OA
BRANCH   7  10
ATOM     10  N   UNL d   1       2.199  -0.667  -0.865  0.00  0.00    -0.160 NA
ATOM     11  H   UNL d   1       3.122  -0.695  -0.434  0.00  0.00     0.148 HD
BRANCH  10  12
ATOM     12  C   UNL d   1       1.794  -1.970  -1.217  0.00  0.00     0.136 A 
ATOM     13  N   UNL d   1       2.575  -2.967  -0.883  0.00  0.00    -0.350 N 
ATOM     14  C   UNL d   1       2.012  -4.148  -1.329  0.00  0.00     0.097 A 
ATOM     15  HN  UNL d   1       3.456  -2.886  -0.376  1.00  0.00     0.166 HD
ATOM     16  C   UNL d   1       0.862  -4.015  -2.079  0.00  0.00     0.069 A 
ATOM     17  S   UNL d   1       0.455  -2.354  -2.208  0.00  0.00    -0.070 SA
ENDBRANCH  10  12
ENDBRANCH   7  10
ENDBRANCH   1   7
BRANCH   4  18
ATOM     18  N   UNL d   1      -0.728   4.317  -3.683  0.00  0.00    -0.324 N 
ATOM     19  C   UNL d   1      -0.074   5.454  -4.105  0.00  0.00     0.245 C 
ATOM     20  O   UNL d   1       0.907   5.983  -3.597  0.00  0.00    -0.268 OA
ATOM     21  H   UNL d   1      -1.547   4.028  -4.202  0.00  0.00     0.169 HD
BRANCH  19  22
ATOM     22  C   UNL d   1      -0.665   6.012  -5.347  0.00  0.00     0.081 C 
ATOM     23  C   UNL d   1      -0.050   7.045  -5.940  0.00  0.00     0.086 C 
BRANCH  23  24
ATOM     24  C   UNL d   1      -0.588   7.564  -7.204  0.00  0.00     0.165 C 
ATOM     25  O   UNL d   1      -1.548   7.089  -7.787  0.00  0.00    -0.647 OA
BRANCH  24  26
ATOM     26  O   UNL d   1       0.108   8.623  -7.659  0.00  0.00    -0.773 OA
ATOM     27  H   UNL d   1       0.850   8.913  -7.096  0.00  0.00     0.167 HD
ENDBRANCH  24  26
ENDBRANCH  23  24
ENDBRANCH  19  22
ENDBRANCH   4  18
TORSDOF 7
