REMARK  5 active torsions:
REMARK  status: ('A' for Active; 'I' for Inactive)
REMARK    1  A    between atoms: C_7  and  C_1 
REMARK    2  A    between atoms: C_9  and  C_6 
REMARK    3  A    between atoms: C_10  and  C_9 
REMARK       I    between atoms: N_15  and  C_10 
REMARK    4  A    between atoms: N_11  and  N_15 
REMARK    5  A    between atoms: C_21  and  C_19 
ROOT
ATOM      1  C   UNL d   1      -0.277   1.181   0.849  0.00  0.00     0.156 A 
ATOM      2  N   UNL d   1       0.865   0.389   0.711  0.00  0.00    -0.321 N 
ATOM      3  HN  UNL d   1       1.827   0.605   0.969  1.00  0.00     0.169 HD
ATOM      4  N   UNL d   1      -1.388   0.597   0.368  0.00  0.00    -0.241 N 
ATOM      5  HN  UNL d   1      -2.333   0.978   0.339  1.00  0.00     0.196 HD
ATOM      6  C   UNL d   1       0.383  -0.707   0.164  0.00  0.00     0.157 A 
ATOM      7  O   UNL d   1      -0.959  -0.636  -0.077  0.00  0.00    -0.222 OA
ENDROOT
BRANCH   6   8
ATOM      8  C   UNL d   1       0.964  -2.014  -0.186  0.00  0.00     0.191 C 
BRANCH   8   9
ATOM      9  C   UNL d   1       2.454  -2.187  -0.139  0.00  0.00     0.243 C 
ATOM     10  N   UNL d   1       3.269  -1.089   0.050  0.00  0.00    -0.270 N 
ATOM     11  H   UNL d   1       2.897  -0.170   0.291  0.00  0.00     0.190 HD
ATOM     12  O   UNL d   1       2.897  -3.331  -0.312  0.00  0.00    -0.271 OA
BRANCH  10  13
ATOM     13  N   UNL d   1       4.608  -1.331   0.119  0.00  0.00    -0.308 N 
ATOM     14  C   UNL d   1       5.410  -0.347   0.356  0.00  0.00     0.118 C 
ATOM     15  HN  UNL d   1       4.972  -2.275  -0.014  1.00  0.00     0.186 HD
BRANCH  14  16
ATOM     16  C   UNL d   1       6.863  -0.603   0.503  0.00  0.00    -0.019 A 
ATOM     17  C   UNL d   1       7.369  -1.903   0.363  0.00  0.00     0.013 A 
ATOM     18  C   UNL d   1       8.729  -2.151   0.556  0.00  0.00     0.001 A 
ATOM     19  C   UNL d   1       9.585  -1.102   0.885  0.00  0.00     0.000 A 
ATOM     20  C   UNL d   1       9.085   0.195   1.014  0.00  0.00     0.001 A 
ATOM     21  C   UNL d   1       7.723   0.449   0.822  0.00  0.00     0.013 A 
ENDBRANCH  14  16
ENDBRANCH  10  13
ENDBRANCH   8   9
ENDBRANCH   6   8
BRANCH   1  22
ATOM     22  C   UNL d   1      -0.308   2.503   1.474  0.00  0.00     0.094 A 
ATOM     23  N   UNL d   1       0.866   3.092   1.823  0.00  0.00    -0.360 N 
ATOM     24  C   UNL d   1       0.758   4.313   2.408  0.00  0.00     0.105 A 
ATOM     25  HN  UNL d   1       1.769   2.647   1.657  1.00  0.00     0.165 HD
ATOM     26  C   UNL d   1      -0.461   4.931   2.643  0.00  0.00     0.104 A 
ATOM     27  N   UNL d   1      -1.633   4.359   2.302  0.00  0.00    -0.372 N 
ATOM     28  C   UNL d   1      -1.530   3.138   1.716  0.00  0.00     0.121 A 
ATOM     29  HN  UNL d   1      -2.532   4.811   2.472  1.00  0.00     0.164 HD
ENDBRANCH   1  22
TORSDOF 5
