REMARK  2 active torsions:
REMARK  status: ('A' for Active; 'I' for Inactive)
REMARK    1  A    between atoms: C_7  and  C_3 
REMARK    2  A    between atoms: C_8  and  C_4 
ROOT
ATOM      1  N   UNL d   1       1.291  -0.589   0.482  0.00  0.00    -0.349 N 
ATOM      2  HN  UNL d   1       2.067  -1.075   0.932  1.00  0.00     0.166 HD
ATOM      3  C   UNL d   1       0.243  -1.184  -0.056  0.00  0.00     0.085 A 
ATOM      4  C   UNL d   1       1.193   0.788   0.351  0.00  0.00     0.050 A 
ATOM      5  S   UNL d   1      -0.927  -0.105  -0.725  0.00  0.00    -0.081 SA
ATOM      6  C   UNL d   1       0.056   1.227  -0.295  0.00  0.00     0.082 A 
ENDROOT
BRANCH   3   7
ATOM      7  C   UNL d   1       0.023  -2.641  -0.071  0.00  0.00     0.001 A 
ATOM      8  C   UNL d   1       0.534  -3.428   0.975  0.00  0.00     0.054 A 
ATOM      9  C   UNL d   1       0.345  -4.812   0.983  0.00  0.00     0.103 A 
ATOM     10  O   UNL d   1       0.881  -5.503   2.041  0.00  0.00    -0.346 OA
ATOM     11  C   UNL d   1      -0.370  -5.429  -0.046  0.00  0.00     0.102 A 
ATOM     12  C   UNL d   1       0.939  -6.909   1.770  0.00  0.00     0.202 C 
ATOM     13  C   UNL d   1      -0.370  -7.398   1.173  0.00  0.00     0.202 C 
ATOM     14  O   UNL d   1      -0.615  -6.777  -0.093  0.00  0.00    -0.346 OA
ATOM     15  C   UNL d   1      -0.861  -4.669  -1.102  0.00  0.00     0.040 A 
ATOM     16  C   UNL d   1      -0.666  -3.285  -1.114  0.00  0.00     0.017 A 
ENDBRANCH   3   7
BRANCH   4  17
ATOM     17  C   UNL d   1       2.243   1.673   0.842  0.00  0.00    -0.007 A 
ATOM     18  C   UNL d   1       3.571   1.224   0.869  0.00  0.00     0.039 A 
ATOM     19  C   UNL d   1       4.598   2.060   1.325  0.00  0.00     0.056 A 
ATOM     20 CL   UNL d   1       6.211   1.438   1.307  0.00  0.00    -0.083 Cl
ATOM     21  C   UNL d   1       4.302   3.352   1.770  0.00  0.00     0.055 A 
ATOM     22  C   UNL d   1       2.980   3.803   1.757  0.00  0.00     0.026 A 
ATOM     23 CL   UNL d   1       5.514   4.439   2.347  0.00  0.00    -0.083 Cl
ATOM     24  C   UNL d   1       1.957   2.969   1.296  0.00  0.00     0.015 A 
ENDBRANCH   4  17
TORSDOF 2
