REMARK  2 active torsions:
REMARK  status: ('A' for Active; 'I' for Inactive)
REMARK    1  A    between atoms: C_2  and  S_1 
REMARK    2  A    between atoms: N_10  and  S_1 
ROOT
ATOM      1  C   UNL d   1       0.299  -1.094   1.268  0.00  0.00     0.096 A 
ATOM      2  C   UNL d   1       0.745  -2.426   1.186  0.00  0.00     0.034 A 
ATOM      3  C   UNL d   1      -0.552  -0.717   2.308  0.00  0.00     0.030 A 
ATOM      4  C   UNL d   1       0.341  -3.394   2.118  0.00  0.00    -0.054 A 
ATOM      5  C   UNL d   1      -0.950  -1.683   3.248  0.00  0.00     0.027 A 
ATOM      6  C   UNL d   1      -0.519  -3.018   3.163  0.00  0.00    -0.055 A 
ATOM      7  I   UNL d   1      -1.351   1.203   2.613  0.00  0.00    -0.043 I 
ATOM      8  C   UNL d   1       0.823  -4.811   1.965  0.00  0.00     0.049 C 
ATOM      9  C   UNL d   1      -1.004  -4.018   4.178  0.00  0.00     0.049 C 
ENDROOT
BRANCH   1  10
ATOM     10  S   UNL d   1       0.896   0.028   0.027  0.00  0.00     0.259 S 
ATOM     11  O   UNL d   1       1.682  -0.719  -0.935  0.00  0.00    -0.201 OA
ATOM     12  O   UNL d   1       1.455   1.184   0.692  0.00  0.00    -0.201 OA
BRANCH  10  13
ATOM     13  N   UNL d   1      -0.495   0.533  -0.766  0.00  0.00    -0.320 N 
ATOM     14  C   UNL d   1      -1.046  -0.310  -1.818  0.00  0.00     0.159 C 
ATOM     15  H   UNL d   1      -0.519   1.545  -0.890  0.00  0.00     0.171 HD
ENDBRANCH  10  13
ENDBRANCH   1  10
TORSDOF 2
