REMARK  4 active torsions:
REMARK  status: ('A' for Active; 'I' for Inactive)
REMARK       I    between atoms: N_3  and  C_1 
REMARK       I    between atoms: N_9  and  C_1 
REMARK    1  A    between atoms: C_2  and  N_3 
REMARK    2  A    between atoms: C_12  and  N_9 
REMARK    3  A    between atoms: C_13  and  C_12 
REMARK    4  A    between atoms: C_14  and  C_13 
ROOT
ATOM      1  C   UNL d   1       1.291   0.164   0.057  0.00  0.00     0.316 C 
ATOM      2  N   UNL d   1       0.508   1.283   0.116  0.00  0.00    -0.338 N 
ATOM      3  O   UNL d   1       2.498   0.148   0.242  0.00  0.00    -0.247 OA
ATOM      4  N   UNL d   1       0.531  -0.939  -0.253  0.00  0.00    -0.343 N 
ATOM      5  H   UNL d   1      -0.470   1.113   0.293  0.00  0.00     0.164 HD
ATOM      6  H   UNL d   1      -0.286  -0.736  -0.804  0.00  0.00     0.164 HD
ENDROOT
BRANCH   2   7
ATOM      7  C   UNL d   1       0.997   2.619   0.401  0.00  0.00     0.094 C 
ATOM      8  C   UNL d   1       2.067   3.169  -0.564  0.00  0.00     0.064 C 
ATOM      9  C   UNL d   1       2.490   4.383   0.210  0.00  0.00    -0.050 A 
ATOM     10  C   UNL d   1       3.059   5.550  -0.268  0.00  0.00     0.007 A 
ATOM     11  C   UNL d   1       2.219   4.210   1.578  0.00  0.00    -0.050 A 
ATOM     12  C   UNL d   1       3.346   6.565   0.647  0.00  0.00     0.001 A 
ATOM     13  C   UNL d   1       3.089   6.388   2.017  0.00  0.00     0.001 A 
ATOM     14  C   UNL d   1       2.531   5.199   2.494  0.00  0.00     0.007 A 
ATOM     15  C   UNL d   1       1.567   2.874   1.816  0.00  0.00     0.064 C 
ENDBRANCH   2   7
BRANCH   4  16
ATOM     16  C   UNL d   1       1.133  -2.242  -0.459  0.00  0.00     0.124 C 
BRANCH  16  17
ATOM     17  C   UNL d   1       1.685  -2.880   0.817  0.00  0.00     0.019 C 
BRANCH  17  18
ATOM     18  C   UNL d   1       0.618  -3.033   1.903  0.00  0.00    -0.003 C 
ATOM     19  C   UNL d   1       1.183  -3.678   3.158  0.00  0.00     0.005 C 
ENDBRANCH  17  18
ENDBRANCH  16  17
ENDBRANCH   4  16
TORSDOF 4
