REMARK  6 active torsions:
REMARK  status: ('A' for Active; 'I' for Inactive)
REMARK    1  A    between atoms: C_7  and  C_1 
REMARK    2  A    between atoms: C_14  and  N_2 
REMARK    3  A    between atoms: C_15  and  C_6 
REMARK       I    between atoms: N_10  and  C_7 
REMARK       I    between atoms: C_8  and  N_13 
REMARK    4  A    between atoms: C_9  and  C_8 
REMARK    5  A    between atoms: N_13  and  N_10 
REMARK    6  A    between atoms: C_18  and  C_14 
ROOT
ATOM      1  C   UNL d   1      -0.319  -1.349   0.292  0.00  0.00     0.122 A 
ATOM      2  N   UNL d   1       0.901  -0.720   0.292  0.00  0.00    -0.282 N 
ATOM      3  N   UNL d   1       0.819   0.624   0.181  0.00  0.00    -0.301 N 
ATOM      4  HN  UNL d   1       1.593   1.287   0.127  1.00  0.00     0.187 HD
ATOM      5  C   UNL d   1      -1.234  -0.299   0.207  0.00  0.00     0.064 A 
ATOM      6  C   UNL d   1      -0.488   0.902   0.159  0.00  0.00     0.036 A 
ENDROOT
BRANCH   1   7
ATOM      7  C   UNL d   1      -0.634  -2.773   0.234  0.00  0.00     0.284 C 
ATOM      8  N   UNL d   1       0.061  -3.681   1.049  0.00  0.00    -0.279 N 
ATOM      9  H   UNL d   1       0.466  -3.320   1.904  0.00  0.00     0.184 HD
ATOM     10  O   UNL d   1      -1.563  -3.180  -0.462  0.00  0.00    -0.265 OA
BRANCH   8  11
ATOM     11  N   UNL d   1      -0.647  -4.956   1.186  0.00  0.00    -0.171 NA
ATOM     12  C   UNL d   1       0.012  -6.180   1.165  0.00  0.00     0.219 C 
ATOM     13  O   UNL d   1      -0.280  -7.016   0.315  0.00  0.00    -0.278 OA
ATOM     14  H   UNL d   1      -1.352  -4.995   0.439  0.00  0.00     0.156 HD
BRANCH  12  15
ATOM     15  C   UNL d   1       0.876  -6.614   2.296  0.00  0.00     0.074 A 
ATOM     16  C   UNL d   1       2.374  -6.412   2.212  0.00  0.00     0.014 A 
ATOM     17  C   UNL d   1       1.575  -5.756   3.306  0.00  0.00     0.014 A 
ENDBRANCH  12  15
ENDBRANCH   8  11
ENDBRANCH   1   7
BRANCH   2  18
ATOM     18  C   UNL d   1       2.240  -1.296   0.351  0.00  0.00     0.188 C 
BRANCH  18  19
ATOM     19  C   UNL d   1       2.738  -1.315   1.779  0.00  0.00    -0.038 A 
ATOM     20  C   UNL d   1       3.083  -2.526   2.388  0.00  0.00     0.012 A 
ATOM     21  C   UNL d   1       3.451  -2.556   3.733  0.00  0.00     0.043 A 
ATOM     22  C   UNL d   1       3.498  -1.376   4.463  0.00  0.00     0.116 A 
ATOM     23  C   UNL d   1       3.211  -0.157   3.867  0.00  0.00     0.043 A 
ATOM     24  F   UNL d   1       3.827  -1.416   5.761  0.00  0.00    -0.206 F 
ATOM     25  C   UNL d   1       2.841  -0.125   2.524  0.00  0.00     0.012 A 
ENDBRANCH  18  19
ENDBRANCH   2  18
BRANCH   6  26
ATOM     26  C   UNL d   1      -0.936   2.359   0.073  0.00  0.00    -0.007 C 
ATOM     27  C   UNL d   1      -2.470   2.509   0.072  0.00  0.00     0.021 C 
ATOM     28  C   UNL d   1      -0.387   3.153   1.281  0.00  0.00     0.021 C 
ATOM     29  C   UNL d   1      -0.399   3.014  -1.219  0.00  0.00     0.021 C 
ENDBRANCH   6  26
TORSDOF 6
