REMARK  3 active torsions:
REMARK  status: ('A' for Active; 'I' for Inactive)
REMARK    1  A    between atoms: N_5  and  C_1 
REMARK       I    between atoms: C_6  and  N_5 
REMARK       I    between atoms: N_9  and  C_6 
REMARK    2  A    between atoms: C_11  and  C_7 
REMARK    3  A    between atoms: C_12  and  N_9 
ROOT
ATOM      1  C   UNL d   1       0.890  -0.635  -0.383  0.00  0.00     0.126 A 
ATOM      2  C   UNL d   1       0.689   0.694  -0.669  0.00  0.00     0.081 A 
ATOM      3  N   UNL d   1      -1.277  -0.135   0.116  0.00  0.00    -0.298 N 
ATOM      4  HN  UNL d   1      -2.243  -0.233   0.429  1.00  0.00     0.187 HD
ATOM      5  C   UNL d   1      -0.671   0.967  -0.342  0.00  0.00     0.062 A 
ATOM      6  N   UNL d   1      -0.329  -1.079   0.072  0.00  0.00    -0.285 N 
ATOM      7  H   UNL d   1      -0.573  -2.006   0.404  0.00  0.00     0.188 HD
ENDROOT
BRANCH   1   8
ATOM      8  N   UNL d   1       2.026  -1.427  -0.434  0.00  0.00    -0.293 N 
ATOM      9  C   UNL d   1       3.378  -1.131  -0.776  0.00  0.00     0.326 C 
ATOM     10  N   UNL d   1       3.592   0.018  -1.472  0.00  0.00    -0.309 N 
ATOM     11  O   UNL d   1       4.173  -1.977  -0.416  0.00  0.00    -0.247 OA
ATOM     12  H   UNL d   1       2.791   0.475  -1.864  0.00  0.00     0.170 HD
ATOM     13  H   UNL d   1       1.962  -2.364  -0.048  0.00  0.00     0.172 HD
BRANCH  10  14
ATOM     14  C   UNL d   1       4.836   0.598  -1.794  0.00  0.00     0.036 A 
ATOM     15  C   UNL d   1       6.072   0.021  -1.491  0.00  0.00     0.029 A 
ATOM     16  C   UNL d   1       7.260   0.671  -1.840  0.00  0.00     0.002 A 
ATOM     17  C   UNL d   1       7.224   1.909  -2.478  0.00  0.00     0.000 A 
ATOM     18  C   UNL d   1       5.998   2.498  -2.774  0.00  0.00     0.002 A 
ATOM     19  C   UNL d   1       4.810   1.842  -2.440  0.00  0.00     0.029 A 
ENDBRANCH  10  14
ENDBRANCH   1   8
BRANCH   5  20
ATOM     20  C   UNL d   1      -1.330   2.268  -0.398  0.00  0.00    -0.008 A 
ATOM     21  C   UNL d   1      -1.066   3.158  -1.450  0.00  0.00     0.014 A 
ATOM     22  C   UNL d   1      -1.605   4.447  -1.436  0.00  0.00     0.001 A 
ATOM     23  C   UNL d   1      -2.411   4.854  -0.375  0.00  0.00     0.000 A 
ATOM     24  C   UNL d   1      -2.704   3.967   0.659  0.00  0.00     0.001 A 
ATOM     25  C   UNL d   1      -2.173   2.675   0.645  0.00  0.00     0.014 A 
ENDBRANCH   5  20
TORSDOF 3
