REMARK  11 active torsions:
REMARK  status: ('A' for Active; 'I' for Inactive)
REMARK    1  A    between atoms: C_6  and  N_1 
REMARK    2  A    between atoms: C_11  and  C_6 
REMARK    3  A    between atoms: C_12  and  C_11 
REMARK    4  A    between atoms: O_20  and  C_11 
REMARK    5  A    between atoms: N_15  and  C_12 
REMARK    6  A    between atoms: C_21  and  N_15 
REMARK    7  A    between atoms: C_22  and  N_15 
REMARK    8  A    between atoms: C_23  and  C_21 
REMARK    9  A    between atoms: C_24  and  C_22 
REMARK   10  A    between atoms: C_25  and  C_23 
REMARK   11  A    between atoms: C_26  and  C_24 
ROOT
ATOM      1  N   UNL d   1       1.995  -4.963  -1.819  0.00  0.00    -0.343 N 
ATOM      2  C   UNL d   1       2.535  -6.651  -3.184  0.00  0.00     0.005 A 
ATOM      3  C   UNL d   1       3.647  -5.760  -3.098  0.00  0.00     0.005 A 
ATOM      4  C   UNL d   1       1.506  -6.123  -2.401  0.00  0.00     0.046 A 
ATOM      5  C   UNL d   1       3.269  -4.693  -2.277  0.00  0.00     0.046 A 
ATOM      6  C   UNL d   1       0.252  -6.752  -2.307  0.00  0.00     0.032 A 
ATOM      7  C   UNL d   1       4.126  -3.605  -2.044  0.00  0.00     0.032 A 
ATOM      8  C   UNL d   1       2.313  -7.853  -3.892  0.00  0.00     0.033 A 
ATOM      9  C   UNL d   1       4.935  -5.762  -3.673  0.00  0.00     0.033 A 
ATOM     10  C   UNL d   1       1.063  -8.473  -3.808  0.00  0.00     0.011 A 
ATOM     11  C   UNL d   1       5.795  -4.689  -3.424  0.00  0.00     0.011 A 
ATOM     12  C   UNL d   1       0.047  -7.931  -3.032  0.00  0.00     0.021 A 
ATOM     13  C   UNL d   1       5.396  -3.623  -2.630  0.00  0.00     0.021 A 
ATOM     14 BR   UNL d   1       0.751 -10.065  -4.780  0.00  0.00    -0.051 Br
ATOM     15 BR   UNL d   1       7.524  -4.690  -4.188  0.00  0.00    -0.051 Br
ENDROOT
BRANCH   1  16
ATOM     16  C   UNL d   1       1.237  -4.124  -0.896  0.00  0.00     0.163 C 
BRANCH  16  17
ATOM     17  C   UNL d   1       1.204  -4.667   0.541  0.00  0.00     0.164 C 
BRANCH  17  18
ATOM     18  C   UNL d   1       2.396  -4.234   1.446  0.00  0.00     0.305 C 
BRANCH  18  19
ATOM     19  N   UNL d   1       2.727  -2.815   1.637  0.00  0.00     0.090 N 
BRANCH  19  20
ATOM     20  C   UNL d   1       1.620  -1.859   1.810  0.00  0.00     0.272 C 
BRANCH  20  21
ATOM     21  C   UNL d   1       1.121  -1.437   3.213  0.00  0.00     0.030 C 
BRANCH  21  22
ATOM     22  C   UNL d   1       0.163  -2.374   3.951  0.00  0.00    -0.003 C 
ATOM     23  C   UNL d   1       0.821  -3.479   4.756  0.00  0.00     0.005 C 
ENDBRANCH  21  22
ENDBRANCH  20  21
ENDBRANCH  19  20
BRANCH  19  24
ATOM     24  C   UNL d   1       3.815  -2.567   2.601  0.00  0.00     0.272 C 
BRANCH  24  25
ATOM     25  C   UNL d   1       5.097  -3.410   2.518  0.00  0.00     0.030 C 
BRANCH  25  26
ATOM     26  C   UNL d   1       5.863  -3.270   1.206  0.00  0.00    -0.003 C 
ATOM     27  C   UNL d   1       7.189  -4.013   1.264  0.00  0.00     0.005 C 
ENDBRANCH  25  26
ENDBRANCH  24  25
ENDBRANCH  19  24
ENDBRANCH  18  19
ENDBRANCH  17  18
BRANCH  17  28
ATOM     28  O   UNL d   1      -0.056  -4.337   1.142  0.00  0.00    -0.392 OA
ATOM     29  H   UNL d   1      -0.036  -4.668   2.057  0.00  0.00     0.210 HD
ENDBRANCH  17  28
ENDBRANCH  16  17
ENDBRANCH   1  16
TORSDOF 11
