REMARK  7 active torsions:
REMARK  status: ('A' for Active; 'I' for Inactive)
REMARK    1  A    between atoms: C_8  and  N_1 
REMARK    2  A    between atoms: C_7  and  C_2 
REMARK    3  A    between atoms: C_12  and  N_5 
REMARK       I    between atoms: N_10  and  C_7 
REMARK    4  A    between atoms: C_9  and  C_8 
REMARK       I    between atoms: C_11  and  N_10 
REMARK    5  A    between atoms: O_22  and  C_11 
REMARK    6  A    between atoms: C_21  and  C_12 
REMARK    7  A    between atoms: C_29  and  O_22 
ROOT
ATOM      1  N   UNL d   1      -0.662   1.150   0.027  0.00  0.00    -0.261 N 
ATOM      2  C   UNL d   1       1.417  -0.055   0.234  0.00  0.00     0.116 C 
ATOM      3  C   UNL d   1      -1.387  -0.025  -0.172  0.00  0.00     0.332 C 
ATOM      4  C   UNL d   1       0.588   1.105   0.604  0.00  0.00     0.269 C 
ATOM      5  N   UNL d   1      -0.638  -1.206  -0.091  0.00  0.00    -0.303 N 
ATOM      6  C   UNL d   1       0.745  -1.185  -0.028  0.00  0.00     0.118 C 
ATOM      7  O   UNL d   1      -2.600  -0.025  -0.372  0.00  0.00    -0.246 OA
ATOM      8  O   UNL d   1       1.050   1.961   1.357  0.00  0.00    -0.267 OA
ENDROOT
BRANCH   1   9
ATOM      9  C   UNL d   1      -1.373   2.431   0.035  0.00  0.00     0.179 C 
BRANCH   9  10
ATOM     10  C   UNL d   1      -1.425   3.148  -1.311  0.00  0.00     0.004 A 
ATOM     11  C   UNL d   1      -2.659   3.520  -1.887  0.00  0.00     0.043 A 
ATOM     12 CL   UNL d   1      -4.184   3.175  -1.143  0.00  0.00    -0.084 Cl
ATOM     13  C   UNL d   1      -2.723   4.241  -3.091  0.00  0.00     0.024 A 
ATOM     14  C   UNL d   1      -1.563   4.617  -3.754  0.00  0.00     0.003 A 
ATOM     15  C   UNL d   1      -0.334   4.285  -3.203  0.00  0.00     0.024 A 
ATOM     16  C   UNL d   1      -0.262   3.575  -1.995  0.00  0.00     0.043 A 
ATOM     17 CL   UNL d   1       1.343   3.334  -1.408  0.00  0.00    -0.084 Cl
ENDBRANCH   9  10
ENDBRANCH   1   9
BRANCH   5  18
ATOM     18  C   UNL d   1      -1.327  -2.497  -0.276  0.00  0.00     0.190 C 
BRANCH  18  19
ATOM     19  C   UNL d   1      -1.396  -3.383   0.956  0.00  0.00     0.027 A 
ATOM     20  N   UNL d   1      -0.933  -4.655   0.818  0.00  0.00    -0.368 N 
ATOM     21  C   UNL d   1      -1.123  -5.516   1.846  0.00  0.00     0.088 A 
ATOM     22  HN  UNL d   1      -0.456  -4.952  -0.034  1.00  0.00     0.165 HD
ATOM     23  C   UNL d   1      -1.759  -5.176   3.027  0.00  0.00     0.017 A 
ATOM     24  C   UNL d   1      -2.204  -3.867   3.171  0.00  0.00     0.003 A 
ATOM     25  C   UNL d   1      -2.023  -2.958   2.128  0.00  0.00     0.027 A 
ENDBRANCH  18  19
ENDBRANCH   5  18
BRANCH   2  26
ATOM     26  C   UNL d   1       2.908  -0.006   0.159  0.00  0.00     0.266 C 
ATOM     27  N   UNL d   1       3.467   1.148   0.661  0.00  0.00    -0.269 N 
ATOM     28  C   UNL d   1       4.792   1.480   0.641  0.00  0.00     0.367 C 
ATOM     29  H   UNL d   1       2.872   1.844   1.102  0.00  0.00     0.174 HD
ATOM     30  O   UNL d   1       5.705   0.860   0.114  0.00  0.00    -0.238 OA
ATOM     31  O   UNL d   1       3.525  -0.937  -0.346  0.00  0.00    -0.267 OA
BRANCH  28  32
ATOM     32  O   UNL d   1       4.953   2.656   1.305  0.00  0.00    -0.304 OA
BRANCH  32  33
ATOM     33  C   UNL d   1       6.299   3.160   1.375  0.00  0.00     0.176 C 
ATOM     34  C   UNL d   1       7.055   2.506   2.518  0.00  0.00     0.034 C 
ENDBRANCH  32  33
ENDBRANCH  28  32
ENDBRANCH   2  26
TORSDOF 7
