REMARK  5 active torsions:
REMARK  status: ('A' for Active; 'I' for Inactive)
REMARK    1  A    between atoms: S_7  and  C_1 
REMARK    2  A    between atoms: N_14  and  S_7 
REMARK    3  A    between atoms: C_8  and  C_16 
REMARK    4  A    between atoms: C_22  and  C_11 
REMARK    5  A    between atoms: C_16  and  N_14 
ROOT
ATOM      1  N   UNL d   1      -2.550   3.395   1.321  0.00  0.00    -0.210 NA
ATOM      2  H   UNL d   1      -3.006   4.296   1.197  0.00  0.00     0.140 HD
ENDROOT
BRANCH   1   3
ATOM      3  S   UNL d   1      -2.700   2.440  -0.061  0.00  0.00     0.261 S 
ATOM      4  O   UNL d   1      -2.153   1.132   0.223  0.00  0.00    -0.204 OA
ATOM      5  O   UNL d   1      -2.268   3.236  -1.185  0.00  0.00    -0.204 OA
BRANCH   3   6
ATOM      6  C   UNL d   1      -4.398   2.194  -0.348  0.00  0.00     0.191 A 
ATOM      7  N   UNL d   1      -5.026   0.976  -0.408  0.00  0.00    -0.288 N 
ATOM      8  C   UNL d   1      -6.341   1.221  -0.682  0.00  0.00     0.157 A 
ATOM      9  C   UNL d   1      -4.716  -0.363  -0.262  0.00  0.00     0.107 A 
ATOM     10  S   UNL d   1      -7.266  -0.244  -0.777  0.00  0.00    -0.064 SA
ATOM     11  N   UNL d   1      -6.637   2.482  -0.791  0.00  0.00    -0.324 N 
ATOM     12  C   UNL d   1      -5.792  -1.152  -0.428  0.00  0.00     0.071 A 
ATOM     13  C   UNL d   1      -5.420   3.100  -0.603  0.00  0.00     0.146 A 
ATOM     14  HN  UNL d   1      -7.545   2.909  -0.972  1.00  0.00     0.169 HD
ATOM     15 CL   UNL d   1      -5.274   4.798  -0.657  0.00  0.00    -0.061 Cl
ENDBRANCH   3   6
ENDBRANCH   1   3
BRANCH   1  16
ATOM     16  C   UNL d   1      -2.802   2.697   2.582  0.00  0.00     0.148 C 
BRANCH  16  17
ATOM     17  C   UNL d   1      -2.547   3.530   3.790  0.00  0.00     0.017 A 
ATOM     18  C   UNL d   1      -2.141   3.040   5.088  0.00  0.00     0.075 A 
ATOM     19  N   UNL d   1      -2.033   4.059   5.954  0.00  0.00    -0.260 N 
ATOM     20  O   UNL d   1      -2.356   5.200   5.265  0.00  0.00    -0.242 OA
ATOM     21  HN  UNL d   1      -1.764   3.998   6.936  1.00  0.00     0.195 HD
ATOM     22  C   UNL d   1      -2.662   4.895   3.980  0.00  0.00     0.082 A 
ATOM     23  C   UNL d   1      -3.021   6.050   3.135  0.00  0.00     0.079 C 
BRANCH  18  24
ATOM     24  C   UNL d   1      -1.831   1.668   5.520  0.00  0.00    -0.007 A 
ATOM     25  C   UNL d   1      -2.459   0.550   4.951  0.00  0.00     0.014 A 
ATOM     26  C   UNL d   1      -2.084  -0.747   5.313  0.00  0.00     0.001 A 
ATOM     27  C   UNL d   1      -1.110  -0.946   6.285  0.00  0.00     0.000 A 
ATOM     28  C   UNL d   1      -0.514   0.150   6.901  0.00  0.00     0.001 A 
ATOM     29  C   UNL d   1      -0.869   1.448   6.519  0.00  0.00     0.014 A 
ENDBRANCH  18  24
ENDBRANCH  16  17
ENDBRANCH   1  16
TORSDOF 5
