REMARK  5 active torsions:
REMARK  status: ('A' for Active; 'I' for Inactive)
REMARK    1  A    between atoms: C_3  and  C_1 
REMARK    2  A    between atoms: O_6  and  C_2 
REMARK    3  A    between atoms: O_8  and  C_3 
REMARK    4  A    between atoms: O_9  and  C_4 
REMARK    5  A    between atoms: C_12  and  O_8 
ROOT
ATOM      1  C   UNL d   1      -0.750  -1.404   0.042  0.00  0.00     0.075 A 
ATOM      2  C   UNL d   1       0.475  -0.729   0.041  0.00  0.00     0.115 A 
ATOM      3  C   UNL d   1       0.495   0.666   0.042  0.00  0.00     0.099 A 
ATOM      4  C   UNL d   1      -1.942  -0.658   0.052  0.00  0.00     0.021 A 
ATOM      5  C   UNL d   1      -1.906   0.739   0.049  0.00  0.00     0.004 A 
ATOM      6  C   UNL d   1      -0.681   1.404   0.042  0.00  0.00     0.039 A 
ENDROOT
BRANCH   1   7
ATOM      7  C   UNL d   1      -0.771  -2.883  -0.062  0.00  0.00     0.296 C 
ATOM      8  O   UNL d   1       0.248  -3.547  -0.171  0.00  0.00    -0.259 OA
BRANCH   7   9
ATOM      9  O   UNL d   1      -2.046  -3.331  -0.132  0.00  0.00    -0.318 OA
BRANCH   9  10
ATOM     10  C   UNL d   1      -2.227  -4.630  -0.709  0.00  0.00     0.174 C 
ATOM     11  C   UNL d   1      -2.325  -4.462  -2.214  0.00  0.00     0.034 C 
ENDBRANCH   9  10
ENDBRANCH   7   9
ENDBRANCH   1   7
BRANCH   2  12
ATOM     12  O   UNL d   1       1.699  -1.353   0.017  0.00  0.00    -0.357 OA
ATOM     13  H   UNL d   1       1.548  -2.325  -0.031  0.00  0.00     0.217 HD
ENDBRANCH   2  12
BRANCH   3  14
ATOM     14  O   UNL d   1       1.689   1.330   0.022  0.00  0.00    -0.358 OA
ATOM     15  H   UNL d   1       2.365   0.622   0.010  0.00  0.00     0.217 HD
ENDBRANCH   3  14
TORSDOF 5
