REMARK  5 active torsions:
REMARK  status: ('A' for Active; 'I' for Inactive)
REMARK    1  A    between atoms: N_9  and  C_1 
REMARK    2  A    between atoms: S_2  and  C_10 
REMARK    3  A    between atoms: N_16  and  S_2 
REMARK    4  A    between atoms: C_15  and  C_3 
REMARK       I    between atoms: C_8  and  N_9 
REMARK       I    between atoms: N_11  and  C_8 
REMARK    5  A    between atoms: C_17  and  N_11 
ROOT
ATOM      1  C   UNL d   1       1.771  -2.504   0.191  0.00  0.00     0.325 C 
ATOM      2  N   UNL d   1       0.533  -2.385  -0.350  0.00  0.00    -0.304 N 
ATOM      3  N   UNL d   1       2.108  -3.697   0.763  0.00  0.00    -0.309 N 
ATOM      4  O   UNL d   1       2.623  -1.616   0.172  0.00  0.00    -0.247 OA
ATOM      5  H   UNL d   1       0.239  -3.183  -0.893  0.00  0.00     0.171 HD
ATOM      6  H   UNL d   1       3.076  -3.662   1.062  0.00  0.00     0.170 HD
ENDROOT
BRANCH   2   7
ATOM      7  C   UNL d   1      -0.103  -1.186  -0.650  0.00  0.00     0.097 A 
ATOM      8  C   UNL d   1      -1.064  -0.987  -1.692  0.00  0.00     0.094 A 
ATOM      9  N   UNL d   1      -1.580   0.249  -1.632  0.00  0.00    -0.258 N 
ATOM     10  O   UNL d   1      -0.911   0.890  -0.612  0.00  0.00    -0.240 OA
ATOM     11  HN  UNL d   1      -2.317   0.635  -2.221  1.00  0.00     0.195 HD
ATOM     12  C   UNL d   1      -0.013   0.043  -0.035  0.00  0.00     0.101 A 
ATOM     13  C   UNL d   1       0.758   0.636   1.075  0.00  0.00     0.081 C 
BRANCH   8  14
ATOM     14  C   UNL d   1      -1.419  -1.907  -2.769  0.00  0.00    -0.005 A 
ATOM     15  C   UNL d   1      -2.744  -2.052  -3.194  0.00  0.00     0.014 A 
ATOM     16  C   UNL d   1      -3.049  -2.905  -4.259  0.00  0.00     0.001 A 
ATOM     17  C   UNL d   1      -2.035  -3.617  -4.903  0.00  0.00     0.000 A 
ATOM     18  C   UNL d   1      -0.714  -3.478  -4.487  0.00  0.00     0.001 A 
ATOM     19  C   UNL d   1      -0.407  -2.622  -3.433  0.00  0.00     0.014 A 
ENDBRANCH   8  14
ENDBRANCH   2   7
BRANCH   3  20
ATOM     20  C   UNL d   1       1.337  -4.745   1.312  0.00  0.00     0.037 A 
ATOM     21  C   UNL d   1      -0.026  -4.951   1.108  0.00  0.00     0.054 A 
ATOM     22  C   UNL d   1      -0.704  -5.949   1.825  0.00  0.00     0.076 A 
ATOM     23  C   UNL d   1      -0.039  -6.745   2.759  0.00  0.00     0.025 A 
ATOM     24  C   UNL d   1       1.327  -6.571   2.940  0.00  0.00     0.004 A 
ATOM     25  C   UNL d   1       2.009  -5.591   2.211  0.00  0.00     0.029 A 
BRANCH  22  26
ATOM     26  S   UNL d   1      -2.454  -6.114   1.616  0.00  0.00     0.239 S 
ATOM     27  O   UNL d   1      -3.011  -6.755   2.787  0.00  0.00    -0.206 OA
ATOM     28  O   UNL d   1      -2.981  -4.882   1.079  0.00  0.00    -0.206 OA
BRANCH  26  29
ATOM     29  N   UNL d   1      -2.563  -7.240   0.376  0.00  0.00    -0.225 NA
ATOM     30  H   UNL d   1      -3.042  -8.075   0.718  0.00  0.00     0.136 HD
ATOM     31  H   UNL d   1      -3.025  -6.814  -0.430  0.00  0.00     0.136 HD
ENDBRANCH  26  29
ENDBRANCH  22  26
ENDBRANCH   3  20
TORSDOF 5
