REMARK  3 active torsions:
REMARK  status: ('A' for Active; 'I' for Inactive)
REMARK    1  A    between atoms: N_3  and  N_1 
REMARK    2  A    between atoms: C_5  and  C_9 
REMARK    3  A    between atoms: C_6  and  C_10 
ROOT
ATOM      1  N   UNL d   1       0.872  -1.410   2.270  0.00  0.00    -0.304 N 
ATOM      2  HN  UNL d   1       0.434  -2.259   2.627  1.00  0.00     0.186 HD
ATOM      3  C   UNL d   1       2.029  -0.983   2.673  0.00  0.00     0.032 C 
ATOM      4  C   UNL d   1       2.595   0.351   2.192  0.00  0.00     0.070 C 
ENDROOT
BRANCH   1   5
ATOM      5  N   UNL d   1       0.284  -0.595   1.300  0.00  0.00    -0.304 N 
ATOM      6  C   UNL d   1      -0.978  -0.829   1.101  0.00  0.00     0.032 C 
ATOM      7  C   UNL d   1      -1.752  -1.830   1.942  0.00  0.00     0.070 C 
ATOM      8  HN  UNL d   1       0.802   0.122   0.791  1.00  0.00     0.186 HD
BRANCH   6   9
ATOM      9  C   UNL d   1      -1.704  -0.086   0.017  0.00  0.00    -0.007 A 
ATOM     10  C   UNL d   1      -1.121   0.214  -1.232  0.00  0.00    -0.049 A 
ATOM     11  C   UNL d   1      -1.884   0.925  -2.184  0.00  0.00     0.014 A 
ATOM     12  C   UNL d   1       0.284  -0.144  -1.637  0.00  0.00     0.049 C 
ATOM     13  C   UNL d   1      -3.205   1.311  -1.930  0.00  0.00    -0.061 A 
ATOM     14  C   UNL d   1      -3.767   1.008  -0.692  0.00  0.00     0.007 A 
ATOM     15  C   UNL d   1      -3.987   2.044  -2.979  0.00  0.00     0.048 C 
ATOM     16  C   UNL d   1      -3.021   0.329   0.275  0.00  0.00     0.014 A 
ENDBRANCH   6   9
ENDBRANCH   1   5
BRANCH   3  17
ATOM     17  C   UNL d   1       2.836  -1.782   3.650  0.00  0.00    -0.007 A 
ATOM     18  C   UNL d   1       2.929  -3.188   3.610  0.00  0.00    -0.049 A 
ATOM     19  C   UNL d   1       3.732  -3.839   4.572  0.00  0.00     0.014 A 
ATOM     20  C   UNL d   1       2.226  -4.077   2.620  0.00  0.00     0.049 C 
ATOM     21  C   UNL d   1       4.446  -3.126   5.543  0.00  0.00    -0.061 A 
ATOM     22  C   UNL d   1       4.338  -1.738   5.572  0.00  0.00     0.007 A 
ATOM     23  C   UNL d   1       5.302  -3.855   6.535  0.00  0.00     0.048 C 
ATOM     24  C   UNL d   1       3.531  -1.076   4.645  0.00  0.00     0.014 A 
ENDBRANCH   3  17
TORSDOF 3
