REMARK  4 active torsions:
REMARK  status: ('A' for Active; 'I' for Inactive)
REMARK    1  A    between atoms: S_8  and  C_3 
REMARK    2  A    between atoms: O_13  and  C_4 
REMARK    3  A    between atoms: C_11  and  S_8 
REMARK    4  A    between atoms: C_9  and  C_11 
ROOT
ATOM      1  N   UNL d   1      -0.507  -0.899   0.098  0.00  0.00    -0.318 N 
ATOM      2  HN  UNL d   1      -0.847  -1.860   0.066  1.00  0.00     0.170 HD
ATOM      3  C   UNL d   1      -1.331   0.159   0.077  0.00  0.00     0.146 A 
ATOM      4  C   UNL d   1       0.792  -0.599   0.165  0.00  0.00     0.143 A 
ATOM      5  N   UNL d   1      -0.928   1.443   0.111  0.00  0.00    -0.341 N 
ATOM      6  HN  UNL d   1      -1.601   2.209   0.083  1.00  0.00     0.167 HD
ATOM      7  C   UNL d   1       1.323   0.662   0.210  0.00  0.00     0.080 A 
ATOM      8  C   UNL d   1       0.400   1.680   0.181  0.00  0.00     0.011 A 
ATOM      9  C   UNL d   1       0.820   3.116   0.232  0.00  0.00     0.068 C 
ENDROOT
BRANCH   3  10
ATOM     10  S   UNL d   1      -3.076  -0.182  -0.005  0.00  0.00    -0.089 SA
BRANCH  10  11
ATOM     11  C   UNL d   1      -3.717   1.520   0.009  0.00  0.00     0.122 C 
BRANCH  11  12
ATOM     12  C   UNL d   1      -5.227   1.577  -0.007  0.00  0.00    -0.027 A 
ATOM     13  C   UNL d   1      -6.001   1.575   1.166  0.00  0.00     0.041 A 
ATOM     14 CL   UNL d   1      -5.286   1.470   2.736  0.00  0.00    -0.084 Cl
ATOM     15  C   UNL d   1      -7.396   1.675   1.100  0.00  0.00     0.024 A 
ATOM     16  C   UNL d   1      -8.037   1.768  -0.134  0.00  0.00     0.002 A 
ATOM     17  C   UNL d   1      -7.288   1.752  -1.306  0.00  0.00     0.001 A 
ATOM     18  C   UNL d   1      -5.895   1.652  -1.244  0.00  0.00     0.009 A 
ENDBRANCH  11  12
ENDBRANCH  10  11
ENDBRANCH   3  10
BRANCH   4  19
ATOM     19  O   UNL d   1       1.618  -1.677   0.186  0.00  0.00    -0.346 OA
ATOM     20  H   UNL d   1       0.967  -2.402   0.150  0.00  0.00     0.219 HD
ENDBRANCH   4  19
TORSDOF 4
