REMARK  4 active torsions:
REMARK  status: ('A' for Active; 'I' for Inactive)
REMARK    1  A    between atoms: C_8  and  N_1 
REMARK    2  A    between atoms: C_4  and  C_12 
REMARK    3  A    between atoms: C_18  and  C_5 
REMARK    4  A    between atoms: C_7  and  C_6 
ROOT
ATOM      1  N   UNL d   1       0.922   5.632  -1.581  0.00  0.00    -0.355 N 
ATOM      2  HN  UNL d   1       0.895   5.873  -0.591  1.00  0.00     0.166 HD
ATOM      3  C   UNL d   1       0.516   4.408  -2.001  0.00  0.00     0.043 A 
ATOM      4  C   UNL d   1       1.363   6.532  -2.497  0.00  0.00     0.043 A 
ATOM      5  C   UNL d   1       0.992   4.966  -4.301  0.00  0.00    -0.015 A 
ATOM      6  C   UNL d   1       0.511   4.065  -3.349  0.00  0.00     0.043 A 
ATOM      7  C   UNL d   1       1.431   6.213  -3.853  0.00  0.00     0.043 A 
ENDROOT
BRANCH   3   8
ATOM      8  C   UNL d   1       0.122   3.458  -0.938  0.00  0.00    -0.007 A 
ATOM      9  C   UNL d   1      -0.415   3.915   0.279  0.00  0.00     0.049 A 
ATOM     10  C   UNL d   1      -0.742   3.011   1.301  0.00  0.00     0.103 A 
ATOM     11  C   UNL d   1      -0.551   1.634   1.129  0.00  0.00     0.036 A 
ATOM     12  C   UNL d   1      -0.029   1.166  -0.071  0.00  0.00     0.003 A 
ATOM     13  C   UNL d   1       0.306   2.067  -1.086  0.00  0.00     0.014 A 
BRANCH  10  14
ATOM     14  N   UNL d   1      -1.278   3.509   2.575  0.00  0.00    -0.116 N 
ATOM     15  O   UNL d   1      -1.427   4.732   2.700  0.00  0.00    -0.532 OA
ATOM     16  O   UNL d   1      -1.551   2.676   3.449  0.00  0.00    -0.532 OA
ENDBRANCH  10  14
ENDBRANCH   3   8
BRANCH   4  17
ATOM     17  C   UNL d   1       1.767   7.857  -1.971  0.00  0.00    -0.009 A 
ATOM     18  C   UNL d   1       2.235   8.005  -0.652  0.00  0.00     0.013 A 
ATOM     19  C   UNL d   1       2.631   9.251  -0.153  0.00  0.00     0.001 A 
ATOM     20  C   UNL d   1       2.565  10.381  -0.961  0.00  0.00     0.000 A 
ATOM     21  C   UNL d   1       2.093  10.269  -2.264  0.00  0.00     0.001 A 
ATOM     22  C   UNL d   1       1.696   9.023  -2.759  0.00  0.00     0.013 A 
ENDBRANCH   4  17
BRANCH   5  23
ATOM     23  C   UNL d   1       1.019   4.580  -5.722  0.00  0.00     0.015 A 
ATOM     24  S   UNL d   1       2.254   5.151  -6.775  0.00  0.00    -0.101 SA
ATOM     25  C   UNL d   1       1.639   4.271  -8.102  0.00  0.00     0.050 A 
ATOM     26  C   UNL d   1       0.519   3.548  -7.767  0.00  0.00     0.008 A 
ATOM     27  C   UNL d   1       0.160   3.731  -6.400  0.00  0.00     0.020 A 
ENDBRANCH   5  23
TORSDOF 4
