REMARK  3 active torsions:
REMARK  status: ('A' for Active; 'I' for Inactive)
REMARK    1  A    between atoms: C_14  and  N_5 
REMARK    2  A    between atoms: N_12  and  N_9 
REMARK    3  A    between atoms: C_17  and  C_16 
ROOT
ATOM      1  C   UNL d   1      -0.148  -0.686   0.055  0.00  0.00     0.145 A 
ATOM      2  C   UNL d   1      -0.227   0.686   0.027  0.00  0.00     0.097 A 
ATOM      3  N   UNL d   1       0.997  -1.414   0.151  0.00  0.00    -0.335 N 
ATOM      4  HN  UNL d   1       1.008  -2.433   0.193  1.00  0.00     0.168 HD
ATOM      5  N   UNL d   1      -1.461  -1.153  -0.036  0.00  0.00    -0.239 N 
ATOM      6  C   UNL d   1       0.965   1.487   0.096  0.00  0.00     0.282 A 
ATOM      7  N   UNL d   1      -2.339  -0.103  -0.137  0.00  0.00    -0.302 N 
ATOM      8  HN  UNL d   1      -3.353  -0.150  -0.233  1.00  0.00     0.186 HD
ATOM      9  N   UNL d   1       2.138   0.703   0.115  0.00  0.00    -0.215 N 
ATOM     10  C   UNL d   1      -1.580   0.993  -0.082  0.00  0.00     0.128 A 
ATOM     11  C   UNL d   1       2.077  -0.688   0.186  0.00  0.00     0.212 A 
ATOM     12  O   UNL d   1       0.917   2.714   0.118  0.00  0.00    -0.265 OA
ENDROOT
BRANCH   9  13
ATOM     13  N   UNL d   1       3.328   1.407   0.178  0.00  0.00    -0.301 N 
ATOM     14  C   UNL d   1       4.419   0.896  -0.290  0.00  0.00     0.119 C 
ATOM     15  HN  UNL d   1       3.344   2.336   0.598  1.00  0.00     0.186 HD
BRANCH  14  16
ATOM     16  C   UNL d   1       5.683   1.663  -0.245  0.00  0.00    -0.019 A 
ATOM     17  C   UNL d   1       5.714   2.947   0.311  0.00  0.00     0.014 A 
ATOM     18  C   UNL d   1       6.902   3.681   0.305  0.00  0.00     0.024 A 
ATOM     19  C   UNL d   1       8.052   3.129  -0.255  0.00  0.00     0.034 A 
ATOM     20  C   UNL d   1       8.028   1.845  -0.802  0.00  0.00     0.024 A 
ATOM     21 CL   UNL d   1       9.510   4.040  -0.281  0.00  0.00    -0.084 Cl
ATOM     22  C   UNL d   1       6.840   1.106  -0.798  0.00  0.00     0.014 A 
ENDBRANCH  14  16
ENDBRANCH   9  13
BRANCH   5  23
ATOM     23  C   UNL d   1      -1.954  -2.493  -0.044  0.00  0.00     0.058 A 
ATOM     24  C   UNL d   1      -1.110  -3.595   0.142  0.00  0.00     0.031 A 
ATOM     25  C   UNL d   1      -1.627  -4.894   0.118  0.00  0.00     0.002 A 
ATOM     26  C   UNL d   1      -2.987  -5.105  -0.092  0.00  0.00     0.000 A 
ATOM     27  C   UNL d   1      -3.838  -4.018  -0.273  0.00  0.00     0.002 A 
ATOM     28  C   UNL d   1      -3.327  -2.717  -0.245  0.00  0.00     0.031 A 
ENDBRANCH   5  23
TORSDOF 3
