REMARK  4 active torsions:
REMARK  status: ('A' for Active; 'I' for Inactive)
REMARK    1  A    between atoms: C_5  and  C_1 
REMARK    2  A    between atoms: N_9  and  C_2 
REMARK    3  A    between atoms: C_6  and  N_10 
REMARK       I    between atoms: C_11  and  N_9 
REMARK    4  A    between atoms: N_10  and  N_14 
REMARK       I    between atoms: N_14  and  C_11 
ROOT
ATOM      1  N   UNL d   1       0.381  -2.445  -0.213  0.00  0.00    -0.308 N 
ATOM      2  C   UNL d   1       1.627  -2.863  -0.518  0.00  0.00     0.313 C 
ATOM      3  N   UNL d   1       2.298  -2.235  -1.550  0.00  0.00    -0.172 NA
ATOM      4  O   UNL d   1       2.046  -3.915  -0.023  0.00  0.00    -0.252 OA
ATOM      5  H   UNL d   1      -0.152  -3.179   0.241  0.00  0.00     0.170 HD
ATOM      6  H   UNL d   1       1.717  -1.652  -2.149  0.00  0.00     0.152 HD
ENDROOT
BRANCH   1   7
ATOM      7  C   UNL d   1      -0.192  -1.186  -0.132  0.00  0.00     0.097 A 
ATOM      8  C   UNL d   1      -1.601  -0.905   0.000  0.00  0.00     0.097 A 
ATOM      9  N   UNL d   1      -1.788   0.420   0.136  0.00  0.00    -0.258 N 
ATOM     10  O   UNL d   1      -0.545   0.996   0.132  0.00  0.00    -0.240 OA
ATOM     11  HN  UNL d   1      -2.683   0.902   0.226  1.00  0.00     0.195 HD
ATOM     12  C   UNL d   1       0.415   0.039   0.026  0.00  0.00     0.101 A 
ATOM     13  C   UNL d   1       1.785   0.527   0.268  0.00  0.00     0.081 C 
BRANCH   8  14
ATOM     14  C   UNL d   1      -2.757  -1.818   0.018  0.00  0.00     0.038 A 
ATOM     15  C   UNL d   1      -2.817  -2.928   0.887  0.00  0.00     0.048 A 
ATOM     16 CL   UNL d   1      -1.570  -3.320   2.026  0.00  0.00    -0.083 Cl
ATOM     17  C   UNL d   1      -3.937  -3.773   0.917  0.00  0.00     0.025 A 
ATOM     18  C   UNL d   1      -5.043  -3.507   0.120  0.00  0.00     0.003 A 
ATOM     19  C   UNL d   1      -5.019  -2.409  -0.731  0.00  0.00     0.025 A 
ATOM     20  C   UNL d   1      -3.884  -1.583  -0.800  0.00  0.00     0.048 A 
ATOM     21 CL   UNL d   1      -3.963  -0.304  -1.971  0.00  0.00    -0.083 Cl
ENDBRANCH   8  14
ENDBRANCH   1   7
BRANCH   3  22
ATOM     22  N   UNL d   1       3.072  -3.192  -2.285  0.00  0.00    -0.215 NA
ATOM     23  H   UNL d   1       3.437  -3.906  -1.629  0.00  0.00     0.147 HD
BRANCH  22  24
ATOM     24  C   UNL d   1       4.090  -2.730  -3.160  0.00  0.00     0.069 A 
ATOM     25  C   UNL d   1       5.289  -3.475  -3.241  0.00  0.00     0.073 A 
ATOM     26 CL   UNL d   1       5.600  -4.796  -2.170  0.00  0.00    -0.081 Cl
ATOM     27  C   UNL d   1       6.242  -3.160  -4.202  0.00  0.00     0.113 A 
ATOM     28  N   UNL d   1       6.093  -2.168  -5.105  0.00  0.00    -0.372 N 
ATOM     29  C   UNL d   1       4.933  -1.471  -5.037  0.00  0.00     0.113 A 
ATOM     30  HN  UNL d   1       6.810  -1.956  -5.798  1.00  0.00     0.164 HD
ATOM     31  C   UNL d   1       3.920  -1.704  -4.105  0.00  0.00     0.073 A 
ATOM     32 CL   UNL d   1       2.476  -0.765  -4.235  0.00  0.00    -0.081 Cl
ENDBRANCH  22  24
ENDBRANCH   3  22
TORSDOF 4
