REMARK  6 active torsions:
REMARK  status: ('A' for Active; 'I' for Inactive)
REMARK    1  A    between atoms: N_2  and  C_1 
REMARK       I    between atoms: C_4  and  N_2 
REMARK    2  A    between atoms: C_15  and  C_4 
REMARK    3  A    between atoms: C_6  and  C_16 
REMARK    4  A    between atoms: O_12  and  C_6 
REMARK    5  A    between atoms: C_17  and  C_15 
REMARK    6  A    between atoms: C_16  and  C_17 
ROOT
ATOM      1  N   UNL d   1      -1.709  -2.206   0.102  0.00  0.00    -0.324 N 
ATOM      2  C   UNL d   1      -3.080  -2.340   0.072  0.00  0.00     0.222 C 
ATOM      3  O   UNL d   1      -3.898  -1.424   0.111  0.00  0.00    -0.273 OA
ATOM      4  H   UNL d   1      -1.145  -3.047   0.184  0.00  0.00     0.169 HD
ENDROOT
BRANCH   1   5
ATOM      5  C   UNL d   1      -0.980  -0.996   0.062  0.00  0.00     0.076 A 
ATOM      6  C   UNL d   1      -1.548   0.246  -0.222  0.00  0.00     0.074 A 
ATOM      7  C   UNL d   1      -0.743   1.384  -0.253  0.00  0.00     0.118 A 
ATOM      8  F   UNL d   1      -1.295   2.570  -0.543  0.00  0.00    -0.206 F 
ATOM      9  C   UNL d   1       0.622   1.314   0.003  0.00  0.00     0.045 A 
ATOM     10  C   UNL d   1       1.202   0.078   0.282  0.00  0.00     0.047 A 
ATOM     11  C   UNL d   1       0.401  -1.062   0.300  0.00  0.00     0.143 A 
ATOM     12  F   UNL d   1       0.970  -2.247   0.573  0.00  0.00    -0.204 F 
ENDBRANCH   1   5
BRANCH   2  13
ATOM     13  C   UNL d   1      -3.548  -3.780  -0.030  0.00  0.00     0.103 C 
BRANCH  13  14
ATOM     14  C   UNL d   1      -4.516  -3.951  -1.205  0.00  0.00     0.019 C 
BRANCH  14  15
ATOM     15  C   UNL d   1      -3.881  -3.665  -2.566  0.00  0.00     0.110 C 
BRANCH  15  16
ATOM     16  C   UNL d   1      -2.814  -4.677  -2.893  0.00  0.00     0.139 C 
ATOM     17  O   UNL d   1      -1.652  -4.574  -2.532  0.00  0.00    -0.650 OA
BRANCH  16  18
ATOM     18  O   UNL d   1      -3.278  -5.753  -3.563  0.00  0.00    -0.776 OA
ATOM     19  H   UNL d   1      -4.232  -5.717  -3.768  0.00  0.00     0.167 HD
ENDBRANCH  16  18
ENDBRANCH  15  16
ENDBRANCH  14  15
ENDBRANCH  13  14
ENDBRANCH   2  13
TORSDOF 6
