REMARK  2 active torsions:
REMARK  status: ('A' for Active; 'I' for Inactive)
REMARK    1  A    between atoms: C_8  and  C_2 
REMARK    2  A    between atoms: S_9  and  C_5 
ROOT
ATOM      1  N   UNL d   1      -0.256  -1.232   0.008  0.00  0.00    -0.315 N 
ATOM      2  C   UNL d   1       1.008  -0.679  -0.069  0.00  0.00     0.134 A 
ATOM      3  N   UNL d   1       0.875   0.637  -0.092  0.00  0.00    -0.283 N 
ATOM      4  HN  UNL d   1       1.641   1.310  -0.114  1.00  0.00     0.188 HD
ATOM      5  C   UNL d   1      -1.127  -0.176  -0.033  0.00  0.00     0.159 A 
ATOM      6  N   UNL d   1      -0.459   0.950  -0.083  0.00  0.00    -0.278 N 
ATOM      7  HN  UNL d   1      -0.858   1.888  -0.111  1.00  0.00     0.189 HD
ATOM      8  C   UNL d   1      -0.600  -2.620   0.177  0.00  0.00     0.160 C 
ENDROOT
BRANCH   2   9
ATOM      9  C   UNL d   1       2.301  -1.367  -0.064  0.00  0.00     0.012 A 
ATOM     10  C   UNL d   1       2.536  -2.550  -0.765  0.00  0.00     0.032 A 
ATOM     11  C   UNL d   1       3.799  -3.121  -0.703  0.00  0.00     0.088 A 
ATOM     12  N   UNL d   1       4.830  -2.591  -0.015  0.00  0.00    -0.375 N 
ATOM     13  C   UNL d   1       4.598  -1.427   0.625  0.00  0.00     0.088 A 
ATOM     14  HN  UNL d   1       5.741  -3.048   0.020  1.00  0.00     0.164 HD
ATOM     15  C   UNL d   1       3.370  -0.787   0.629  0.00  0.00     0.032 A 
ENDBRANCH   2   9
BRANCH   5  16
ATOM     16  S   UNL d   1      -2.853  -0.284  -0.010  0.00  0.00    -0.105 SA
ATOM     17  H   UNL d   1      -3.019  -1.604  -0.141  0.00  0.00     0.110 HD
ENDBRANCH   5  16
TORSDOF 2
