REMARK  4 active torsions:
REMARK  status: ('A' for Active; 'I' for Inactive)
REMARK    1  A    between atoms: C_6  and  C_1 
REMARK    2  A    between atoms: C_3  and  C_6 
REMARK    3  A    between atoms: C_11  and  C_4 
REMARK    4  A    between atoms: C_13  and  C_8 
ROOT
ATOM      1  C   UNL d   1      -1.047  -3.716   0.605  0.00  0.00     0.096 C 
ATOM      2  C   UNL d   1      -0.590  -4.938   0.252  0.00  0.00     0.038 C 
ATOM      3  C   UNL d   1      -0.363  -2.898   1.564  0.00  0.00     0.103 C 
ATOM      4  N   UNL d   1       0.202  -2.225   2.322  0.00  0.00    -0.191 NA
ENDROOT
BRANCH   1   5
ATOM      5  C   UNL d   1      -2.353  -3.281  -0.012  0.00  0.00     0.205 C 
ATOM      6  O   UNL d   1      -3.136  -4.103  -0.484  0.00  0.00    -0.286 OA
BRANCH   5   7
ATOM      7  C   UNL d   1      -2.637  -1.846  -0.029  0.00  0.00     0.048 A 
ATOM      8  C   UNL d   1      -1.739  -0.733  -0.077  0.00  0.00     0.056 A 
ATOM      9  C   UNL d   1      -2.496   0.418  -0.033  0.00  0.00     0.086 A 
ATOM     10  O   UNL d   1      -3.816   0.090  -0.036  0.00  0.00    -0.314 OA
ATOM     11  C   UNL d   1      -3.904  -1.273  -0.037  0.00  0.00     0.064 A 
ATOM     12  C   UNL d   1      -5.289  -1.799  -0.005  0.00  0.00     0.077 C 
BRANCH   9  13
ATOM     13  C   UNL d   1      -2.168   1.835   0.058  0.00  0.00    -0.002 A 
ATOM     14  C   UNL d   1      -2.990   2.820  -0.509  0.00  0.00     0.016 A 
ATOM     15  C   UNL d   1      -2.657   4.176  -0.400  0.00  0.00     0.024 A 
ATOM     16  C   UNL d   1      -1.505   4.555   0.285  0.00  0.00     0.034 A 
ATOM     17  C   UNL d   1      -0.677   3.591   0.854  0.00  0.00     0.024 A 
ATOM     18 CL   UNL d   1      -1.104   6.221   0.438  0.00  0.00    -0.084 Cl
ATOM     19  C   UNL d   1      -1.006   2.238   0.736  0.00  0.00     0.016 A 
ENDBRANCH   9  13
ENDBRANCH   5   7
ENDBRANCH   1   5
BRANCH   2  20
ATOM     20  C   UNL d   1       0.638  -5.545   0.778  0.00  0.00    -0.035 A 
ATOM     21  C   UNL d   1       0.596  -6.300   1.956  0.00  0.00     0.013 A 
ATOM     22  C   UNL d   1       1.764  -6.873   2.467  0.00  0.00     0.024 A 
ATOM     23  C   UNL d   1       2.973  -6.694   1.799  0.00  0.00     0.034 A 
ATOM     24  C   UNL d   1       3.027  -5.935   0.631  0.00  0.00     0.024 A 
ATOM     25 CL   UNL d   1       4.405  -7.425   2.413  0.00  0.00    -0.084 Cl
ATOM     26  C   UNL d   1       1.860  -5.360   0.119  0.00  0.00     0.013 A 
ENDBRANCH   2  20
TORSDOF 4
