REMARK  5 active torsions:
REMARK  status: ('A' for Active; 'I' for Inactive)
REMARK    1  A    between atoms: C_9  and  C_1 
REMARK    2  A    between atoms: C_2  and  N_8 
REMARK    3  A    between atoms: N_12  and  C_2 
REMARK    4  A    between atoms: N_8  and  N_4 
REMARK    5  A    between atoms: O_14  and  C_6 
ROOT
ATOM      1  C   UNL d   1       1.097  -1.147  -0.010  0.00  0.00     0.025 A 
ATOM      2  C   UNL d   1      -0.270  -0.729  -0.006  0.00  0.00    -0.011 A 
ATOM      3  C   UNL d   1       2.127  -0.184  -0.004  0.00  0.00     0.078 A 
ATOM      4  C   UNL d   1      -0.536   0.669   0.002  0.00  0.00    -0.025 A 
ATOM      5  C   UNL d   1       1.839   1.173   0.007  0.00  0.00     0.038 A 
ATOM      6  C   UNL d   1       0.516   1.595   0.009  0.00  0.00     0.015 A 
ATOM      7  C   UNL d   1      -1.401  -1.588  -0.009  0.00  0.00     0.013 A 
ATOM      8  C   UNL d   1      -1.855   1.149   0.005  0.00  0.00     0.012 A 
ATOM      9  C   UNL d   1      -2.711  -1.093  -0.005  0.00  0.00     0.001 A 
ATOM     10  C   UNL d   1      -2.937   0.275   0.001  0.00  0.00     0.001 A 
ENDROOT
BRANCH   1  11
ATOM     11  C   UNL d   1       1.467  -2.591  -0.029  0.00  0.00     0.122 C 
ATOM     12  N   UNL d   1       2.719  -2.929  -0.029  0.00  0.00    -0.309 N 
ATOM     13  HN  UNL d   1       3.449  -2.217  -0.012  1.00  0.00     0.186 HD
BRANCH  12  14
ATOM     14  N   UNL d   1       3.039  -4.249  -0.050  0.00  0.00    -0.277 N 
ATOM     15  H   UNL d   1       2.298  -4.937  -0.069  0.00  0.00     0.189 HD
BRANCH  14  16
ATOM     16  C   UNL d   1       4.379  -4.643  -0.055  0.00  0.00     0.186 C 
ATOM     17  S   UNL d   1       5.668  -3.568  -0.031  0.00  0.00    -0.040 SA
BRANCH  16  18
ATOM     18  N   UNL d   1       4.505  -6.021  -0.082  0.00  0.00    -0.370 N 
ATOM     19  C   UNL d   1       5.744  -6.781  -0.093  0.00  0.00     0.148 C 
ATOM     20  H   UNL d   1       3.659  -6.569  -0.092  0.00  0.00     0.161 HD
ENDBRANCH  16  18
ENDBRANCH  14  16
ENDBRANCH  12  14
ENDBRANCH   1  11
BRANCH   3  21
ATOM     21  O   UNL d   1       3.465  -0.479  -0.006  0.00  0.00    -0.360 OA
ATOM     22  H   UNL d   1       3.575  -1.458  -0.013  0.00  0.00     0.217 HD
ENDBRANCH   3  21
TORSDOF 5
