REMARK  5 active torsions:
REMARK  status: ('A' for Active; 'I' for Inactive)
REMARK    1  A    between atoms: C_4  and  S_1 
REMARK    2  A    between atoms: N_8  and  S_1 
REMARK    3  A    between atoms: S_2  and  N_3 
REMARK    4  A    between atoms: C_6  and  S_2 
REMARK    5  A    between atoms: N_3  and  C_5 
ROOT
ATOM      1  C   UNL d   1       0.536  -1.022   1.418  0.00  0.00     0.081 A 
ATOM      2  C   UNL d   1      -0.478  -1.471   3.565  0.00  0.00     0.050 A 
ATOM      3  C   UNL d   1      -0.178  -0.579   2.533  0.00  0.00     0.055 A 
ATOM      4  C   UNL d   1      -0.071  -2.815   3.483  0.00  0.00    -0.035 A 
ATOM      5  C   UNL d   1       0.921  -2.358   1.304  0.00  0.00     0.026 A 
ATOM      6  C   UNL d   1       0.628  -3.245   2.340  0.00  0.00     0.010 A 
ATOM      7  C   UNL d   1      -0.418  -3.833   4.535  0.00  0.00     0.050 C 
ENDROOT
BRANCH   2   8
ATOM      8  N   UNL d   1      -1.361  -1.024   4.577  0.00  0.00    -0.280 N 
ATOM      9  H   UNL d   1      -2.364  -1.023   4.402  0.00  0.00     0.179 HD
BRANCH   8  10
ATOM     10  S   UNL d   1      -0.861  -0.383   6.032  0.00  0.00     0.263 S 
ATOM     11  O   UNL d   1      -2.068  -0.042   6.754  0.00  0.00    -0.200 OA
ATOM     12  O   UNL d   1       0.139  -1.248   6.622  0.00  0.00    -0.200 OA
BRANCH  10  13
ATOM     13  C   UNL d   1      -0.062   1.149   5.610  0.00  0.00     0.081 A 
ATOM     14  C   UNL d   1      -0.836   2.298   5.406  0.00  0.00     0.049 A 
ATOM     15  C   UNL d   1      -0.196   3.524   5.233  0.00  0.00     0.035 A 
ATOM     16 CL   UNL d   1      -1.130   4.952   5.009  0.00  0.00    -0.084 Cl
ATOM     17  C   UNL d   1       1.197   3.613   5.269  0.00  0.00     0.024 A 
ATOM     18  C   UNL d   1       1.963   2.465   5.473  0.00  0.00     0.003 A 
ATOM     19  C   UNL d   1       1.335   1.230   5.646  0.00  0.00     0.025 A 
ENDBRANCH  10  13
ENDBRANCH   8  10
ENDBRANCH   2   8
BRANCH   1  20
ATOM     20  S   UNL d   1       0.826   0.097   0.062  0.00  0.00     0.260 S 
ATOM     21  O   UNL d   1      -0.112   1.190   0.206  0.00  0.00    -0.200 OA
ATOM     22  O   UNL d   1       0.868  -0.699  -1.148  0.00  0.00    -0.200 OA
BRANCH  20  23
ATOM     23  N   UNL d   1       2.388   0.691   0.371  0.00  0.00    -0.315 N 
ATOM     24  C   UNL d   1       2.545   1.570   1.540  0.00  0.00     0.162 C 
ATOM     25  C   UNL d   1       3.510  -0.240   0.171  0.00  0.00     0.162 C 
ENDBRANCH  20  23
ENDBRANCH   1  20
TORSDOF 5
