REMARK  3 active torsions:
REMARK  status: ('A' for Active; 'I' for Inactive)
REMARK    1  A    between atoms: C_11  and  C_2 
REMARK    2  A    between atoms: C_14  and  C_10 
REMARK    3  A    between atoms: C_13  and  C_12 
ROOT
ATOM      1  N   UNL d   1       0.296   0.620   0.018  0.00  0.00    -0.235 N 
ATOM      2  C   UNL d   1      -0.824   1.444   0.019  0.00  0.00     0.144 A 
ATOM      3  C   UNL d   1       0.145  -0.769   0.037  0.00  0.00     0.130 A 
ATOM      4  N   UNL d   1       1.603   0.961   0.006  0.00  0.00    -0.291 N 
ATOM      5  HN  UNL d   1       1.987   1.905   0.000  1.00  0.00     0.187 HD
ATOM      6  N   UNL d   1      -1.075  -1.379   0.070  0.00  0.00    -0.340 N 
ATOM      7  HN  UNL d   1      -1.164  -2.394   0.100  1.00  0.00     0.167 HD
ATOM      8  C   UNL d   1      -2.054   0.892   0.036  0.00  0.00     0.067 A 
ATOM      9  C   UNL d   1       1.414  -1.293   0.017  0.00  0.00     0.082 A 
ATOM     10  C   UNL d   1       2.296  -0.187   0.004  0.00  0.00     0.062 A 
ATOM     11  C   UNL d   1      -2.122  -0.603   0.062  0.00  0.00     0.046 A 
ENDROOT
BRANCH  11  12
ATOM     12  C   UNL d   1      -3.479  -1.220   0.123  0.00  0.00    -0.009 A 
ATOM     13  C   UNL d   1      -3.633  -2.419   0.835  0.00  0.00     0.015 A 
ATOM     14  C   UNL d   1      -4.887  -3.026   0.935  0.00  0.00     0.024 A 
ATOM     15  C   UNL d   1      -5.989  -2.440   0.316  0.00  0.00     0.034 A 
ATOM     16  C   UNL d   1      -5.844  -1.260  -0.412  0.00  0.00     0.024 A 
ATOM     17 CL   UNL d   1      -7.536  -3.180   0.445  0.00  0.00    -0.084 Cl
ATOM     18  C   UNL d   1      -4.589  -0.650  -0.514  0.00  0.00     0.015 A 
ENDBRANCH  11  12
BRANCH   2  19
ATOM     19  C   UNL d   1      -0.642   2.916   0.015  0.00  0.00     0.434 C 
ATOM     20  F   UNL d   1       0.627   3.381   0.010  0.00  0.00    -0.165 F 
ATOM     21  F   UNL d   1      -1.255   3.466  -1.071  0.00  0.00    -0.165 F 
ATOM     22  F   UNL d   1      -1.250   3.474   1.099  0.00  0.00    -0.165 F 
ENDBRANCH   2  19
BRANCH  10  23
ATOM     23  C   UNL d   1       3.765  -0.191  -0.009  0.00  0.00    -0.008 A 
ATOM     24  C   UNL d   1       4.478   1.019   0.013  0.00  0.00     0.014 A 
ATOM     25  C   UNL d   1       5.875   1.030   0.003  0.00  0.00     0.001 A 
ATOM     26  C   UNL d   1       6.581  -0.170  -0.029  0.00  0.00     0.000 A 
ATOM     27  C   UNL d   1       5.890  -1.380  -0.052  0.00  0.00     0.001 A 
ATOM     28  C   UNL d   1       4.492  -1.391  -0.042  0.00  0.00     0.014 A 
ENDBRANCH  10  23
TORSDOF 3
