REMARK  5 active torsions:
REMARK  status: ('A' for Active; 'I' for Inactive)
REMARK    1  A    between atoms: C_5  and  C_1 
REMARK    2  A    between atoms: C_12  and  C_3 
REMARK    3  A    between atoms: C_7  and  C_5 
REMARK    4  A    between atoms: C_8  and  N_13 
REMARK    5  A    between atoms: N_13  and  C_9 
ROOT
ATOM      1  C   UNL d   1      -5.294   1.525   0.601  0.00  0.00     0.111 C 
ATOM      2  C   UNL d   1      -6.481   1.040   0.181  0.00  0.00     0.133 C 
ATOM      3  C   UNL d   1      -5.243   2.525   1.605  0.00  0.00     0.105 C 
ATOM      4  N   UNL d   1      -5.238   3.358   2.416  0.00  0.00    -0.191 NA
ENDROOT
BRANCH   1   5
ATOM      5  C   UNL d   1      -4.038   0.929   0.045  0.00  0.00     0.206 C 
ATOM      6  O   UNL d   1      -4.028  -0.220  -0.391  0.00  0.00    -0.286 OA
BRANCH   5   7
ATOM      7  C   UNL d   1      -2.837   1.768   0.053  0.00  0.00     0.047 A 
ATOM      8  C   UNL d   1      -2.690   3.196   0.071  0.00  0.00     0.051 A 
ATOM      9  C   UNL d   1      -1.339   3.476   0.071  0.00  0.00     0.061 A 
ATOM     10  O   UNL d   1      -0.644   2.310   0.032  0.00  0.00    -0.318 OA
ATOM     11  C   UNL d   1      -1.536   1.288  -0.027  0.00  0.00     0.063 A 
ATOM     12  C   UNL d   1      -0.909  -0.045  -0.159  0.00  0.00     0.077 C 
BRANCH   9  13
ATOM     13  C   UNL d   1      -0.500   4.726   0.061  0.00  0.00    -0.002 C 
ATOM     14  C   UNL d   1      -1.372   5.987  -0.053  0.00  0.00     0.021 C 
ATOM     15  C   UNL d   1       0.324   4.808   1.359  0.00  0.00     0.021 C 
ATOM     16  C   UNL d   1       0.456   4.678  -1.148  0.00  0.00     0.021 C 
ENDBRANCH   9  13
ENDBRANCH   5   7
ENDBRANCH   1   5
BRANCH   2  17
ATOM     17  N   UNL d   1      -7.746   1.437   0.549  0.00  0.00    -0.200 N 
ATOM     18  H   UNL d   1      -7.884   2.209   1.190  0.00  0.00     0.183 HD
BRANCH  17  19
ATOM     19  C   UNL d   1      -8.971   0.905   0.149  0.00  0.00     0.681 A 
ATOM     20  N   UNL d   1      -9.025  -0.167  -0.657  0.00  0.00    -0.202 N 
ATOM     21  C   UNL d   1     -10.248  -0.626  -0.983  0.00  0.00     0.107 A 
ATOM     22  HN  UNL d   1      -8.177  -0.613  -1.007  1.00  0.00     0.183 HD
ATOM     23  C   UNL d   1     -11.417  -0.051  -0.547  0.00  0.00     0.035 A 
ATOM     24  C   UNL d   1     -11.261   1.042   0.265  0.00  0.00     0.107 A 
ATOM     25  N   UNL d   1     -10.059   1.532   0.627  0.00  0.00    -0.202 N 
ATOM     26  HN  UNL d   1      -9.978   2.345   1.238  1.00  0.00     0.183 HD
ENDBRANCH  17  19
ENDBRANCH   2  17
TORSDOF 5
