REMARK  6 active torsions:
REMARK  status: ('A' for Active; 'I' for Inactive)
REMARK    1  A    between atoms: C_8  and  C_1 
REMARK    2  A    between atoms: N_11  and  C_2 
REMARK    3  A    between atoms: C_6  and  C_14 
REMARK    4  A    between atoms: O_16  and  C_8 
REMARK    5  A    between atoms: N_9  and  N_11 
REMARK    6  A    between atoms: C_23  and  O_16 
ROOT
ATOM      1  C   UNL d   1      -0.000   1.294  -0.003  0.00  0.00     0.109 A 
ATOM      2  C   UNL d   1      -0.149   2.667   0.051  0.00  0.00     0.153 A 
ATOM      3  N   UNL d   1       2.083   2.257   0.018  0.00  0.00    -0.302 N 
ATOM      4  HN  UNL d   1       3.092   2.404  -0.005  1.00  0.00     0.186 HD
ATOM      5  N   UNL d   1       1.111   3.183   0.098  0.00  0.00    -0.283 N 
ATOM      6  C   UNL d   1       1.413   1.096  -0.026  0.00  0.00     0.042 A 
ATOM      7  C   UNL d   1       2.169  -0.183  -0.058  0.00  0.00     0.071 C 
ATOM      8  H   UNL d   1       1.353   4.162   0.183  0.00  0.00     0.188 HD
ENDROOT
BRANCH   2   9
ATOM      9  N   UNL d   1      -1.238   3.480   0.081  0.00  0.00    -0.284 N 
ATOM     10  H   UNL d   1      -2.134   2.968   0.105  0.00  0.00     0.188 HD
BRANCH   9  11
ATOM     11  N   UNL d   1      -1.224   4.599   0.856  0.00  0.00    -0.309 N 
ATOM     12  C   UNL d   1      -2.079   5.551   0.608  0.00  0.00     0.122 C 
ATOM     13  HN  UNL d   1      -0.554   4.692   1.619  1.00  0.00     0.186 HD
BRANCH  12  14
ATOM     14  C   UNL d   1      -3.038   5.706  -0.509  0.00  0.00     0.024 A 
ATOM     15  C   UNL d   1      -3.965   4.725  -0.883  0.00  0.00     0.047 A 
ATOM     16 CL   UNL d   1      -4.276   3.308   0.056  0.00  0.00    -0.083 Cl
ATOM     17  C   UNL d   1      -4.787   4.916  -2.003  0.00  0.00     0.025 A 
ATOM     18  C   UNL d   1      -4.749   6.113  -2.712  0.00  0.00     0.003 A 
ATOM     19  C   UNL d   1      -3.899   7.132  -2.293  0.00  0.00     0.025 A 
ATOM     20  C   UNL d   1      -3.044   6.931  -1.202  0.00  0.00     0.047 A 
ATOM     21 CL   UNL d   1      -2.022   8.260  -0.767  0.00  0.00    -0.083 Cl
ENDBRANCH  12  14
ENDBRANCH   9  11
ENDBRANCH   2   9
BRANCH   1  22
ATOM     22  C   UNL d   1      -1.077   0.326   0.041  0.00  0.00     0.299 C 
ATOM     23  O   UNL d   1      -2.259   0.637   0.106  0.00  0.00    -0.259 OA
BRANCH  22  24
ATOM     24  O   UNL d   1      -0.620  -0.960   0.085  0.00  0.00    -0.318 OA
BRANCH  24  25
ATOM     25  C   UNL d   1      -1.563  -1.952   0.517  0.00  0.00     0.174 C 
ATOM     26  C   UNL d   1      -1.456  -2.080   2.025  0.00  0.00     0.034 C 
ENDBRANCH  24  25
ENDBRANCH  22  24
ENDBRANCH   1  22
TORSDOF 6
