REMARK  3 active torsions:
REMARK  status: ('A' for Active; 'I' for Inactive)
REMARK    1  A    between atoms: C_2  and  C_1 
REMARK    2  A    between atoms: C_5  and  C_2 
REMARK    3  A    between atoms: C_9  and  C_5 
ROOT
ATOM      1  C   UNL d   1      -0.194   2.534   0.233  0.00  0.00     0.170 C 
ATOM      2  O   UNL d   1       0.503   2.288  -0.759  0.00  0.00    -0.291 OA
ENDROOT
BRANCH   1   3
ATOM      3  C   UNL d   1       0.316   2.304   1.583  0.00  0.00     0.051 A 
ATOM      4  S   UNL d   1      -0.622   2.530   2.996  0.00  0.00    -0.098 SA
ATOM      5  C   UNL d   1       0.678   2.105   4.021  0.00  0.00     0.050 A 
ATOM      6  C   UNL d   1       1.808   1.777   3.309  0.00  0.00     0.009 A 
ATOM      7  C   UNL d   1       1.597   1.886   1.905  0.00  0.00     0.023 A 
ENDBRANCH   1   3
BRANCH   1   8
ATOM      8  C   UNL d   1      -1.591   3.100   0.022  0.00  0.00     0.123 C 
BRANCH   8   9
ATOM      9  C   UNL d   1      -2.660   2.058  -0.200  0.00  0.00    -0.051 A 
ATOM     10  C   UNL d   1      -3.833   2.070   0.568  0.00  0.00     0.007 A 
ATOM     11  C   UNL d   1      -4.858   1.155   0.314  0.00  0.00     0.001 A 
ATOM     12  C   UNL d   1      -4.723   0.220  -0.709  0.00  0.00     0.000 A 
ATOM     13  C   UNL d   1      -3.561   0.194  -1.477  0.00  0.00     0.001 A 
ATOM     14  C   UNL d   1      -2.537   1.110  -1.227  0.00  0.00     0.007 A 
ENDBRANCH   8   9
ENDBRANCH   1   8
TORSDOF 3
