REMARK  6 active torsions:
REMARK  status: ('A' for Active; 'I' for Inactive)
REMARK    1  A    between atoms: C_12  and  C_2 
REMARK    2  A    between atoms: S_17  and  C_5 
REMARK    3  A    between atoms: C_8  and  C_9 
REMARK       I    between atoms: N_13  and  C_14 
REMARK    4  A    between atoms: C_15  and  N_13 
REMARK    5  A    between atoms: C_14  and  C_25 
REMARK    6  A    between atoms: C_25  and  S_17 
ROOT
ATOM      1  S   UNL d   1      -0.162  -0.978  -1.125  0.00  0.00    -0.043 SA
ATOM      2  C   UNL d   1      -0.047   0.741  -1.018  0.00  0.00     0.118 A 
ATOM      3  N   UNL d   1       0.279   1.168   0.191  0.00  0.00    -0.291 N 
ATOM      4  HN  UNL d   1       0.342   2.154   0.446  1.00  0.00     0.187 HD
ATOM      5  C   UNL d   1       0.381  -1.041   0.496  0.00  0.00     0.129 A 
ATOM      6  N   UNL d   1       0.524   0.132   1.069  0.00  0.00    -0.287 N 
ATOM      7  HN  UNL d   1       0.785   0.262   2.047  1.00  0.00     0.188 HD
ENDROOT
BRANCH   5   8
ATOM      8  S   UNL d   1       0.780  -2.511   1.352  0.00  0.00    -0.094 SA
BRANCH   8   9
ATOM      9  C   UNL d   1       2.086  -3.179   0.280  0.00  0.00     0.184 C 
BRANCH   9  10
ATOM     10  C   UNL d   1       3.141  -2.152  -0.109  0.00  0.00     0.231 C 
ATOM     11  N   UNL d   1       3.597  -1.369   0.931  0.00  0.00    -0.325 N 
ATOM     12  H   UNL d   1       3.283  -1.600   1.871  0.00  0.00     0.169 HD
ATOM     13  O   UNL d   1       3.560  -2.116  -1.265  0.00  0.00    -0.272 OA
BRANCH  11  14
ATOM     14  C   UNL d   1       4.466  -0.254   0.850  0.00  0.00     0.056 A 
ATOM     15  C   UNL d   1       4.982   0.292   2.040  0.00  0.00     0.060 A 
ATOM     16 CL   UNL d   1       4.583  -0.393   3.581  0.00  0.00    -0.082 Cl
ATOM     17  C   UNL d   1       5.852   1.386   2.011  0.00  0.00     0.026 A 
ATOM     18  C   UNL d   1       6.197   1.966   0.793  0.00  0.00     0.002 A 
ATOM     19  C   UNL d   1       5.670   1.455  -0.391  0.00  0.00     0.002 A 
ATOM     20  C   UNL d   1       4.812   0.350  -0.362  0.00  0.00     0.031 A 
ENDBRANCH  11  14
ENDBRANCH   9  10
ENDBRANCH   8   9
ENDBRANCH   5   8
BRANCH   2  21
ATOM     21  C   UNL d   1      -0.268   1.603  -2.186  0.00  0.00     0.067 A 
ATOM     22  N   UNL d   1      -0.560   0.989  -3.363  0.00  0.00    -0.363 N 
ATOM     23  C   UNL d   1      -0.716   1.766  -4.459  0.00  0.00     0.104 A 
ATOM     24  HN  UNL d   1      -0.658  -0.024  -3.417  1.00  0.00     0.165 HD
ATOM     25  C   UNL d   1      -0.598   3.146  -4.453  0.00  0.00     0.063 A 
ATOM     26  C   UNL d   1      -0.308   3.762  -3.232  0.00  0.00     0.020 A 
ATOM     27  C   UNL d   1      -0.140   2.984  -2.087  0.00  0.00     0.033 A 
BRANCH  25  28
ATOM     28  C   UNL d   1      -0.773   3.938  -5.713  0.00  0.00     0.418 C 
ATOM     29  F   UNL d   1      -1.021   3.170  -6.809  0.00  0.00    -0.166 F 
ATOM     30  F   UNL d   1      -1.807   4.819  -5.633  0.00  0.00    -0.166 F 
ATOM     31  F   UNL d   1       0.328   4.678  -6.018  0.00  0.00    -0.166 F 
ENDBRANCH  25  28
ENDBRANCH   2  21
TORSDOF 6
