REMARK  7 active torsions:
REMARK  status: ('A' for Active; 'I' for Inactive)
REMARK    1  A    between atoms: C_3  and  N_1 
REMARK    2  A    between atoms: N_4  and  C_2 
REMARK       I    between atoms: C_5  and  N_4 
REMARK    3  A    between atoms: C_12  and  C_5 
REMARK    4  A    between atoms: C_6  and  C_13 
REMARK    5  A    between atoms: O_11  and  C_6 
REMARK    6  A    between atoms: S_10  and  C_12 
REMARK    7  A    between atoms: C_13  and  S_10 
ROOT
ATOM      1  C   UNL d   1      -2.422   0.790  -2.191  0.00  0.00     0.061 A 
ATOM      2  C   UNL d   1      -2.443   0.081  -0.961  0.00  0.00     0.057 A 
ATOM      3  C   UNL d   1      -3.579   0.874  -2.989  0.00  0.00     0.032 A 
ATOM      4  C   UNL d   1      -3.652  -0.574  -0.634  0.00  0.00     0.031 A 
ATOM      5  C   UNL d   1      -4.754   0.218  -2.620  0.00  0.00     0.002 A 
ATOM      6  C   UNL d   1      -4.789  -0.511  -1.442  0.00  0.00     0.002 A 
ENDROOT
BRANCH   1   7
ATOM      7  N   UNL d   1      -1.340   1.641  -2.547  0.00  0.00    -0.325 N 
ATOM      8  C   UNL d   1      -0.387   1.264  -3.492  0.00  0.00     0.231 C 
ATOM      9  O   UNL d   1      -0.264   0.152  -4.005  0.00  0.00    -0.272 OA
ATOM     10  H   UNL d   1      -1.630   2.608  -2.646  0.00  0.00     0.169 HD
BRANCH   8  11
ATOM     11  C   UNL d   1       0.591   2.380  -3.844  0.00  0.00     0.177 C 
BRANCH  11  12
ATOM     12  S   UNL d   1       2.237   2.095  -3.103  0.00  0.00    -0.149 SA
BRANCH  12  13
ATOM     13  C   UNL d   1       2.780   0.559  -3.924  0.00  0.00     0.184 C 
BRANCH  13  14
ATOM     14  C   UNL d   1       2.802   0.670  -5.433  0.00  0.00     0.149 C 
ATOM     15  O   UNL d   1       3.731   1.127  -6.081  0.00  0.00    -0.649 OA
BRANCH  14  16
ATOM     16  O   UNL d   1       1.656   0.237  -6.018  0.00  0.00    -0.776 OA
ATOM     17  H   UNL d   1       0.970  -0.088  -5.390  0.00  0.00     0.167 HD
ENDBRANCH  14  16
ENDBRANCH  13  14
ENDBRANCH  12  13
ENDBRANCH  11  12
ENDBRANCH   8  11
ENDBRANCH   1   7
BRANCH   2  18
ATOM     18  N   UNL d   1      -1.390  -0.001  -0.066  0.00  0.00    -0.375 N 
ATOM     19  C   UNL d   1       0.015  -0.046  -0.476  0.00  0.00     0.149 C 
ATOM     20  C   UNL d   1       0.765  -1.115   0.339  0.00  0.00     0.187 C 
ATOM     21  O   UNL d   1       0.590  -0.955   1.755  0.00  0.00    -0.388 OA
ATOM     22  C   UNL d   1      -0.807  -1.021   2.088  0.00  0.00     0.187 C 
ATOM     23  C   UNL d   1      -1.588   0.102   1.391  0.00  0.00     0.149 C 
ENDBRANCH   2  18
TORSDOF 7
