REMARK  2 active torsions:
REMARK  status: ('A' for Active; 'I' for Inactive)
REMARK    1  A    between atoms: O_13  and  C_7 
REMARK    2  A    between atoms: O_14  and  C_8 
ROOT
ATOM      1  C   UNL d   1       1.168  -0.717   0.012  0.00  0.00     0.065 A 
ATOM      2  C   UNL d   1       1.206   0.707  -0.001  0.00  0.00     0.065 A 
ATOM      3  C   UNL d   1      -0.186  -1.355   0.070  0.00  0.00     0.197 A 
ATOM      4  C   UNL d   1      -0.070   1.500  -0.027  0.00  0.00     0.197 A 
ATOM      5  C   UNL d   1      -1.415  -0.564   0.083  0.00  0.00     0.029 A 
ATOM      6  C   UNL d   1      -1.367   0.810  -0.023  0.00  0.00     0.029 A 
ATOM      7  C   UNL d   1       2.386  -1.435  -0.019  0.00  0.00     0.083 A 
ATOM      8  C   UNL d   1       2.448   1.401  -0.013  0.00  0.00     0.083 A 
ATOM      9  O   UNL d   1      -0.370  -2.567   0.090  0.00  0.00    -0.286 OA
ATOM     10  O   UNL d   1      -0.101   2.726  -0.045  0.00  0.00    -0.286 OA
ATOM     11  C   UNL d   1       3.590  -0.711  -0.049  0.00  0.00     0.040 A 
ATOM     12  C   UNL d   1       3.632   0.675  -0.039  0.00  0.00     0.040 A 
ATOM     13  C   UNL d   1      -2.658  -1.222   0.147  0.00  0.00     0.016 A 
ATOM     14  C   UNL d   1      -2.566   1.534  -0.129  0.00  0.00     0.016 A 
ATOM     15  C   UNL d   1      -3.844  -0.507   0.048  0.00  0.00     0.001 A 
ATOM     16  C   UNL d   1      -3.799   0.875  -0.110  0.00  0.00     0.001 A 
ENDROOT
BRANCH   7  17
ATOM     17  O   UNL d   1       2.716  -2.759  -0.031  0.00  0.00    -0.355 OA
ATOM     18  C   UNL d   1       1.788  -3.819  -0.005  0.00  0.00     0.210 C 
ENDBRANCH   7  17
BRANCH   8  19
ATOM     19  O   UNL d   1       2.436   2.770   0.005  0.00  0.00    -0.355 OA
ATOM     20  C   UNL d   1       3.670   3.476  -0.003  0.00  0.00     0.210 C 
ENDBRANCH   8  19
TORSDOF 2
