REMARK  8 active torsions:
REMARK  status: ('A' for Active; 'I' for Inactive)
REMARK    1  A    between atoms: C_2  and  C_1 
REMARK       I    between atoms: N_8  and  C_2 
REMARK    2  A    between atoms: C_4  and  N_11 
REMARK    3  A    between atoms: N_14  and  C_4 
REMARK    4  A    between atoms: C_7  and  C_5 
REMARK    5  A    between atoms: N_11  and  N_8 
REMARK    6  A    between atoms: C_15  and  C_9 
REMARK    7  A    between atoms: C_17  and  C_15 
REMARK    8  A    between atoms: C_18  and  C_17 
ROOT
ATOM      1  C   UNL d   1      -0.286  -1.106   0.004  0.00  0.00     0.146 A 
ATOM      2  O   UNL d   1       1.032  -0.678  -0.008  0.00  0.00    -0.296 OA
ATOM      3  C   UNL d   1       1.004   0.691  -0.015  0.00  0.00     0.129 A 
ATOM      4  C   UNL d   1      -1.117   0.002   0.002  0.00  0.00     0.046 A 
ATOM      5  C   UNL d   1      -0.291   1.150  -0.006  0.00  0.00     0.050 A 
ENDROOT
BRANCH   1   6
ATOM      6  C   UNL d   1      -0.633  -2.517   0.010  0.00  0.00     0.293 C 
ATOM      7  N   UNL d   1       0.429  -3.397   0.013  0.00  0.00    -0.262 N 
ATOM      8  H   UNL d   1       1.394  -3.072   0.008  0.00  0.00     0.190 HD
ATOM      9  O   UNL d   1      -1.797  -2.924   0.015  0.00  0.00    -0.264 OA
BRANCH   7  10
ATOM     10  N   UNL d   1       0.209  -4.793   0.016  0.00  0.00    -0.274 N 
ATOM     11  H   UNL d   1      -0.766  -5.090   0.025  0.00  0.00     0.189 HD
BRANCH  10  12
ATOM     12  C   UNL d   1       1.282  -5.674   0.016  0.00  0.00     0.186 C 
ATOM     13  S   UNL d   1       2.877  -5.155   0.011  0.00  0.00    -0.040 SA
BRANCH  12  14
ATOM     14  N   UNL d   1       0.884  -6.998   0.020  0.00  0.00    -0.370 N 
ATOM     15  C   UNL d   1       1.750  -8.171   0.021  0.00  0.00     0.148 C 
ATOM     16  H   UNL d   1      -0.107  -7.192   0.020  0.00  0.00     0.161 HD
ENDBRANCH  12  14
ENDBRANCH  10  12
ENDBRANCH   7  10
ENDBRANCH   1   6
BRANCH   3  17
ATOM     17  C   UNL d   1       2.224   1.427  -0.026  0.00  0.00    -0.041 C 
ATOM     18  C   UNL d   1       3.198   2.137  -0.026  0.00  0.00    -0.099 C 
BRANCH  18  19
ATOM     19  C   UNL d   1       4.372   3.030  -0.002  0.00  0.00     0.094 C 
BRANCH  19  20
ATOM     20  C   UNL d   1       4.091   4.380  -0.674  0.00  0.00     0.012 C 
BRANCH  20  21
ATOM     21  C   UNL d   1       5.322   5.295  -0.648  0.00  0.00    -0.004 C 
ATOM     22  C   UNL d   1       5.050   6.636  -1.317  0.00  0.00     0.005 C 
ENDBRANCH  20  21
ENDBRANCH  19  20
ENDBRANCH  18  19
ENDBRANCH   3  17
TORSDOF 8
