REMARK  4 active torsions:
REMARK  status: ('A' for Active; 'I' for Inactive)
REMARK    1  A    between atoms: C_3  and  S_1 
REMARK    2  A    between atoms: N_9  and  S_1 
REMARK       I    between atoms: C_2  and  N_4 
REMARK    3  A    between atoms: C_11  and  C_2 
REMARK    4  A    between atoms: N_4  and  C_8 
ROOT
ATOM      1  C   UNL d   1       0.303  -1.464  -0.719  0.00  0.00     0.076 A 
ATOM      2  C   UNL d   1       1.093  -2.535  -0.289  0.00  0.00     0.054 A 
ATOM      3  C   UNL d   1       0.840  -3.828  -0.744  0.00  0.00     0.036 A 
ATOM      4  C   UNL d   1      -0.763  -1.663  -1.592  0.00  0.00     0.025 A 
ATOM      5  C   UNL d   1      -1.039  -2.956  -2.032  0.00  0.00     0.004 A 
ATOM      6  C   UNL d   1      -0.244  -4.032  -1.609  0.00  0.00     0.029 A 
ENDROOT
BRANCH   3   7
ATOM      7  N   UNL d   1       1.621  -4.948  -0.370  0.00  0.00    -0.327 N 
ATOM      8  C   UNL d   1       2.793  -4.923   0.374  0.00  0.00     0.226 C 
ATOM      9  O   UNL d   1       3.354  -3.896   0.765  0.00  0.00    -0.273 OA
ATOM     10  H   UNL d   1       1.310  -5.848  -0.714  0.00  0.00     0.169 HD
BRANCH   8  11
ATOM     11  C   UNL d   1       3.412  -6.300   0.681  0.00  0.00     0.078 C 
ATOM     12  C   UNL d   1       2.559  -7.590   0.787  0.00  0.00     0.014 C 
ATOM     13  C   UNL d   1       3.506  -8.040   1.920  0.00  0.00     0.002 C 
ATOM     14  C   UNL d   1       3.776  -6.549   2.176  0.00  0.00     0.014 C 
ENDBRANCH   8  11
ENDBRANCH   3   7
BRANCH   1  15
ATOM     15  S   UNL d   1       0.700   0.150  -0.122  0.00  0.00     0.239 S 
ATOM     16  O   UNL d   1       0.674   0.130   1.321  0.00  0.00    -0.206 OA
ATOM     17  O   UNL d   1      -0.017   1.134  -0.900  0.00  0.00    -0.206 OA
BRANCH  15  18
ATOM     18  N   UNL d   1       2.310   0.311  -0.571  0.00  0.00    -0.225 NA
ATOM     19  H   UNL d   1       2.913   0.317   0.252  0.00  0.00     0.136 HD
ATOM     20  H   UNL d   1       2.428   1.113  -1.189  0.00  0.00     0.136 HD
ENDBRANCH  15  18
ENDBRANCH   1  15
TORSDOF 4
