REMARK  6 active torsions:
REMARK  status: ('A' for Active; 'I' for Inactive)
REMARK    1  A    between atoms: N_7  and  C_1 
REMARK    2  A    between atoms: N_9  and  C_1 
REMARK    3  A    between atoms: N_8  and  C_2 
REMARK    4  A    between atoms: C_13  and  N_7 
REMARK    5  A    between atoms: C_14  and  N_8 
REMARK    6  A    between atoms: N_10  and  N_9 
ROOT
ATOM      1  C   UNL d   1      -0.790   5.267   3.547  0.00  0.00    -0.078 C 
ATOM      2  C   UNL d   1      -1.804   5.608   4.098  0.00  0.00     0.018 C 
ATOM      3  C   UNL d   1       1.394   3.305   1.256  0.00  0.00     0.035 A 
ATOM      4  C   UNL d   1       0.376   4.834   2.845  0.00  0.00     0.019 A 
ATOM      5  C   UNL d   1       0.286   3.731   1.991  0.00  0.00     0.050 A 
ATOM      6  C   UNL d   1       2.691   5.112   2.227  0.00  0.00     0.004 A 
ATOM      7  C   UNL d   1       2.592   4.018   1.362  0.00  0.00     0.029 A 
ATOM      8  C   UNL d   1       1.584   5.519   2.972  0.00  0.00     0.021 A 
ENDROOT
BRANCH   3   9
ATOM      9  N   UNL d   1       1.329   2.245   0.326  0.00  0.00    -0.332 N 
ATOM     10  H   UNL d   1       2.091   2.190  -0.337  0.00  0.00     0.168 HD
BRANCH   9  11
ATOM     11  C   UNL d   1       0.413   1.206   0.264  0.00  0.00     0.191 C 
ATOM     12  S   UNL d   1      -0.358   0.470   1.564  0.00  0.00    -0.039 SA
BRANCH  11  13
ATOM     13  N   UNL d   1       0.233   0.787  -1.050  0.00  0.00    -0.274 N 
ATOM     14  H   UNL d   1       0.602   1.340  -1.820  0.00  0.00     0.189 HD
BRANCH  13  15
ATOM     15  N   UNL d   1      -0.867  -0.030  -1.378  0.00  0.00    -0.274 N 
ATOM     16  C   UNL d   1      -1.502   0.077  -2.582  0.00  0.00     0.191 C 
ATOM     17  S   UNL d   1      -1.202   1.289  -3.703  0.00  0.00    -0.039 SA
ATOM     18  H   UNL d   1      -1.475  -0.225  -0.582  0.00  0.00     0.189 HD
BRANCH  16  19
ATOM     19  N   UNL d   1      -2.405  -0.891  -2.925  0.00  0.00    -0.332 N 
ATOM     20  H   UNL d   1      -2.838  -0.697  -3.822  0.00  0.00     0.168 HD
BRANCH  19  21
ATOM     21  C   UNL d   1      -2.623  -2.199  -2.426  0.00  0.00     0.035 A 
ATOM     22  C   UNL d   1      -2.069  -2.727  -1.258  0.00  0.00     0.050 A 
ATOM     23  C   UNL d   1      -2.272  -4.066  -0.903  0.00  0.00     0.019 A 
ATOM     24  C   UNL d   1      -1.655  -4.563   0.291  0.00  0.00    -0.078 C 
ATOM     25  C   UNL d   1      -3.032  -4.900  -1.715  0.00  0.00     0.021 A 
ATOM     26  C   UNL d   1      -1.103  -4.923   1.290  0.00  0.00     0.018 C 
ATOM     27  C   UNL d   1      -3.601  -4.388  -2.878  0.00  0.00     0.004 A 
ATOM     28  C   UNL d   1      -3.406  -3.046  -3.224  0.00  0.00     0.029 A 
ENDBRANCH  19  21
ENDBRANCH  16  19
ENDBRANCH  13  15
ENDBRANCH  11  13
ENDBRANCH   9  11
ENDBRANCH   3   9
TORSDOF 6
