REMARK  4 active torsions:
REMARK  status: ('A' for Active; 'I' for Inactive)
REMARK    1  A    between atoms: N_4  and  C_1 
REMARK    2  A    between atoms: N_2  and  N_4 
REMARK    3  A    between atoms: C_5  and  N_2 
REMARK    4  A    between atoms: C_7  and  C_5 
ROOT
ATOM      1  N   UNL d   1       0.910  -2.391  -0.582  0.00  0.00    -0.302 N 
ATOM      2  HN  UNL d   1       1.929  -2.434  -0.588  1.00  0.00     0.186 HD
ENDROOT
BRANCH   1   3
ATOM      3  N   UNL d   1       0.269  -1.211  -0.341  0.00  0.00    -0.276 N 
ATOM      4  H   UNL d   1      -0.740  -1.148  -0.329  0.00  0.00     0.189 HD
BRANCH   3   5
ATOM      5  C   UNL d   1       0.921  -0.028  -0.090  0.00  0.00     0.186 C 
ATOM      6  S   UNL d   1       0.001   1.335   0.196  0.00  0.00    -0.040 SA
ATOM      7  N   UNL d   1       2.283  -0.110  -0.104  0.00  0.00    -0.370 N 
ATOM      8  C   UNL d   1       3.242   0.951   0.119  0.00  0.00     0.148 C 
ATOM      9  H   UNL d   1       2.616  -1.048  -0.302  0.00  0.00     0.161 HD
ENDBRANCH   3   5
ENDBRANCH   1   3
BRANCH   1  10
ATOM     10  C   UNL d   1       0.200  -3.467  -0.805  0.00  0.00     0.032 C 
ATOM     11  C   UNL d   1      -1.321  -3.527  -0.825  0.00  0.00     0.070 C 
BRANCH  10  12
ATOM     12  C   UNL d   1       0.920  -4.771  -1.065  0.00  0.00    -0.013 A 
ATOM     13  C   UNL d   1       2.320  -4.801  -1.060  0.00  0.00     0.014 A 
ATOM     14  C   UNL d   1       3.009  -5.998  -1.289  0.00  0.00     0.007 A 
ATOM     15  C   UNL d   1       2.313  -7.188  -1.527  0.00  0.00    -0.062 A 
ATOM     16  C   UNL d   1       0.916  -7.161  -1.538  0.00  0.00     0.007 A 
ATOM     17  C   UNL d   1       3.063  -8.466  -1.763  0.00  0.00     0.048 C 
ATOM     18  C   UNL d   1       0.226  -5.965  -1.310  0.00  0.00     0.014 A 
ENDBRANCH  10  12
ENDBRANCH   1  10
TORSDOF 4
