REMARK  5 active torsions:
REMARK  status: ('A' for Active; 'I' for Inactive)
REMARK    1  A    between atoms: C_2  and  S_1 
REMARK    2  A    between atoms: C_4  and  S_1 
REMARK    3  A    between atoms: C_7  and  C_3 
REMARK    4  A    between atoms: C_8  and  C_6 
REMARK       I    between atoms: N_13  and  C_7 
REMARK    5  A    between atoms: O_15  and  C_8 
ROOT
ATOM      1  C   UNL d   1       0.367   1.691   0.103  0.00  0.00     0.048 C 
ATOM      2  C   UNL d   1      -1.037   1.838  -0.199  0.00  0.00     0.010 A 
ATOM      3  C   UNL d   1      -2.023   0.839  -0.521  0.00  0.00     0.052 A 
ATOM      4  C   UNL d   1      -1.537   3.180  -0.167  0.00  0.00    -0.024 A 
ATOM      5  C   UNL d   1       1.095   2.794   0.614  0.00  0.00     0.022 C 
ATOM      6  C   UNL d   1      -3.339   1.186  -0.902  0.00  0.00     0.018 A 
ATOM      7  C   UNL d   1       0.542   4.057   0.715  0.00  0.00     0.002 C 
ATOM      8  C   UNL d   1      -3.739   2.509  -0.950  0.00  0.00     0.002 A 
ATOM      9  C   UNL d   1      -0.755   4.251   0.282  0.00  0.00     0.012 C 
ATOM     10  C   UNL d   1      -2.846   3.493  -0.559  0.00  0.00     0.012 A 
ENDROOT
BRANCH   1  11
ATOM     11  S   UNL d   1       1.381   0.183  -0.039  0.00  0.00     0.086 S 
ATOM     12  O   UNL d   1       2.805   0.657  -0.149  0.00  0.00    -0.247 OA
BRANCH  11  13
ATOM     13  C   UNL d   1       1.038  -0.442  -1.696  0.00  0.00     0.052 A 
ATOM     14  C   UNL d   1       0.895   0.276  -2.889  0.00  0.00     0.051 A 
ATOM     15  C   UNL d   1       0.701  -0.417  -4.105  0.00  0.00     0.018 A 
ATOM     16  C   UNL d   1       0.704  -1.810  -4.156  0.00  0.00     0.001 A 
ATOM     17  C   UNL d   1       0.888  -2.532  -2.987  0.00  0.00     0.002 A 
ATOM     18  C   UNL d   1       1.047  -1.855  -1.776  0.00  0.00     0.022 A 
BRANCH  14  19
ATOM     19  C   UNL d   1       0.967   1.747  -3.042  0.00  0.00     0.252 C 
ATOM     20  O   UNL d   1       0.097   2.322  -3.689  0.00  0.00    -0.268 OA
ATOM     21  N   UNL d   1       2.075   2.366  -2.518  0.00  0.00    -0.361 N 
ATOM     22  C   UNL d   1       2.277   3.784  -2.682  0.00  0.00     0.149 C 
ATOM     23  H   UNL d   1       2.694   1.851  -1.895  0.00  0.00     0.162 HD
ENDBRANCH  14  19
ENDBRANCH  11  13
ENDBRANCH   1  11
BRANCH   3  24
ATOM     24  C   UNL d   1      -1.814  -0.608  -0.267  0.00  0.00     0.293 C 
ATOM     25  O   UNL d   1      -1.230  -1.048   0.712  0.00  0.00    -0.259 OA
BRANCH  24  26
ATOM     26  O   UNL d   1      -2.414  -1.328  -1.245  0.00  0.00    -0.322 OA
ATOM     27  C   UNL d   1      -2.457  -2.747  -1.071  0.00  0.00     0.213 C 
ENDBRANCH  24  26
ENDBRANCH   3  24
TORSDOF 5
