REMARK  2 active torsions:
REMARK  status: ('A' for Active; 'I' for Inactive)
REMARK       I    between atoms: N_2  and  C_1 
REMARK    1  A    between atoms: C_5  and  C_1 
REMARK    2  A    between atoms: C_3  and  N_2 
ROOT
ATOM      1  C   UNL d   1       1.018  -0.083  -0.299  0.00  0.00     0.256 C 
ATOM      2  N   UNL d   1       0.391  -1.283  -0.005  0.00  0.00    -0.323 N 
ATOM      3  O   UNL d   1       0.464   0.990  -0.512  0.00  0.00    -0.267 OA
ATOM      4  H   UNL d   1       0.974  -2.033   0.344  0.00  0.00     0.169 HD
ENDROOT
BRANCH   2   5
ATOM      5  C   UNL d   1      -1.005  -1.500   0.030  0.00  0.00     0.036 A 
ATOM      6  C   UNL d   1      -1.938  -0.603  -0.498  0.00  0.00     0.053 A 
ATOM      7  C   UNL d   1      -3.305  -0.866  -0.392  0.00  0.00     0.036 A 
ATOM      8 CL   UNL d   1      -4.444   0.251  -1.041  0.00  0.00    -0.084 Cl
ATOM      9  C   UNL d   1      -3.759  -2.024   0.234  0.00  0.00     0.024 A 
ATOM     10  C   UNL d   1      -2.837  -2.937   0.740  0.00  0.00     0.004 A 
ATOM     11  C   UNL d   1      -1.466  -2.680   0.630  0.00  0.00     0.029 A 
ENDBRANCH   2   5
BRANCH   1  12
ATOM     12  C   UNL d   1       2.503  -0.104  -0.291  0.00  0.00     0.032 A 
ATOM     13  C   UNL d   1       3.233  -1.189  -0.790  0.00  0.00     0.017 A 
ATOM     14  C   UNL d   1       4.630  -1.126  -0.822  0.00  0.00     0.001 A 
ATOM     15  C   UNL d   1       5.294   0.011  -0.359  0.00  0.00     0.000 A 
ATOM     16  C   UNL d   1       4.568   1.093   0.138  0.00  0.00     0.001 A 
ATOM     17  C   UNL d   1       3.175   1.037   0.169  0.00  0.00     0.017 A 
ENDBRANCH   1  12
TORSDOF 2
