REMARK  5 active torsions:
REMARK  status: ('A' for Active; 'I' for Inactive)
REMARK    1  A    between atoms: S_10  and  C_1 
REMARK    2  A    between atoms: C_9  and  C_3 
REMARK    3  A    between atoms: O_13  and  C_9 
REMARK    4  A    between atoms: C_12  and  S_10 
REMARK    5  A    between atoms: C_22  and  O_13 
ROOT
ATOM      1  C   UNL d   1      -0.811   1.115  -0.030  0.00  0.00     0.084 A 
ATOM      2  C   UNL d   1      -1.510  -0.076  -0.168  0.00  0.00     0.005 A 
ATOM      3  C   UNL d   1      -0.705  -1.205  -0.095  0.00  0.00     0.118 A 
ATOM      4  N   UNL d   1       0.536   1.183   0.065  0.00  0.00    -0.340 N 
ATOM      5  HN  UNL d   1       1.014   2.080   0.146  1.00  0.00     0.167 HD
ATOM      6  N   UNL d   1       0.651  -1.165  -0.000  0.00  0.00    -0.341 N 
ATOM      7  HN  UNL d   1       1.208  -2.019   0.030  1.00  0.00     0.167 HD
ATOM      8  C   UNL d   1       1.219   0.034   0.051  0.00  0.00     0.078 A 
ATOM      9  C   UNL d   1      -2.993  -0.157  -0.344  0.00  0.00     0.054 C 
ATOM     10  C   UNL d   1       2.712   0.100   0.093  0.00  0.00     0.089 C 
ENDROOT
BRANCH   1  11
ATOM     11  S   UNL d   1      -1.596   2.718   0.003  0.00  0.00    -0.072 SA
BRANCH  11  12
ATOM     12  C   UNL d   1      -1.973   2.976   1.731  0.00  0.00     0.007 A 
ATOM     13  C   UNL d   1      -1.228   2.431   2.784  0.00  0.00     0.020 A 
ATOM     14  C   UNL d   1      -1.592   2.673   4.115  0.00  0.00     0.025 A 
ATOM     15  C   UNL d   1      -2.694   3.476   4.399  0.00  0.00     0.034 A 
ATOM     16  C   UNL d   1      -3.425   4.053   3.366  0.00  0.00     0.025 A 
ATOM     17 CL   UNL d   1      -3.151   3.759   6.033  0.00  0.00    -0.084 Cl
ATOM     18  C   UNL d   1      -3.063   3.805   2.038  0.00  0.00     0.020 A 
ENDBRANCH  11  12
ENDBRANCH   1  11
BRANCH   3  19
ATOM     19  C   UNL d   1      -1.278  -2.589  -0.013  0.00  0.00     0.310 C 
ATOM     20  O   UNL d   1      -2.367  -2.869   0.458  0.00  0.00    -0.258 OA
BRANCH  19  21
ATOM     21  O   UNL d   1      -0.342  -3.469  -0.460  0.00  0.00    -0.317 OA
BRANCH  21  22
ATOM     22  C   UNL d   1      -0.490  -4.831  -0.045  0.00  0.00     0.175 C 
ATOM     23  C   UNL d   1       0.249  -5.010   1.269  0.00  0.00     0.034 C 
ENDBRANCH  21  22
ENDBRANCH  19  21
ENDBRANCH   3  19
TORSDOF 5
