REMARK  6 active torsions:
REMARK  status: ('A' for Active; 'I' for Inactive)
REMARK    1  A    between atoms: N_2  and  C_1 
REMARK       I    between atoms: C_5  and  N_3 
REMARK    2  A    between atoms: C_19  and  C_5 
REMARK    3  A    between atoms: C_10  and  C_20 
REMARK    4  A    between atoms: O_18  and  C_10 
REMARK    5  A    between atoms: O_17  and  C_19 
REMARK    6  A    between atoms: C_20  and  O_17 
ROOT
ATOM      1  C   UNL d   1      -0.224  -1.226  -0.059  0.00  0.00     0.103 A 
ATOM      2  C   UNL d   1      -0.539  -0.391  -1.146  0.00  0.00     0.083 A 
ATOM      3  C   UNL d   1      -0.046  -0.650  -2.463  0.00  0.00     0.102 C 
ATOM      4  N   UNL d   1       0.326  -0.853  -3.545  0.00  0.00    -0.191 NA
ATOM      5  N   UNL d   1      -0.636  -0.921   1.193  0.00  0.00    -0.355 N 
ATOM      6  HN  UNL d   1      -0.391  -1.520   1.982  1.00  0.00     0.166 HD
ATOM      7  C   UNL d   1      -1.312   0.756  -0.927  0.00  0.00     0.027 A 
ATOM      8  C   UNL d   1      -1.380   0.195   1.377  0.00  0.00     0.089 A 
ATOM      9  C   UNL d   1      -1.744   1.054   0.359  0.00  0.00     0.019 A 
ENDROOT
BRANCH   1  10
ATOM     10  N   UNL d   1       0.583  -2.355  -0.248  0.00  0.00    -0.265 NA
ATOM     11  C   UNL d   1       1.334  -2.798   0.943  0.00  0.00     0.117 C 
ATOM     12  C   UNL d   1       2.427  -3.788   0.481  0.00  0.00     0.140 C 
ATOM     13  N   UNL d   1       1.857  -4.902  -0.294  0.00  0.00    -0.348 N 
ATOM     14  C   UNL d   1       0.971  -4.489  -1.393  0.00  0.00     0.140 C 
ATOM     15  C   UNL d   1       2.223  -6.232  -0.192  0.00  0.00     0.243 C 
ATOM     16  C   UNL d   1      -0.098  -3.490  -0.912  0.00  0.00     0.117 C 
ATOM     17  O   UNL d   1       1.787  -7.091  -0.964  0.00  0.00    -0.271 OA
BRANCH  15  18
ATOM     18  C   UNL d   1       3.226  -6.634   0.897  0.00  0.00     0.271 C 
BRANCH  18  19
ATOM     19  O   UNL d   1       2.800  -6.321   2.226  0.00  0.00    -0.372 OA
BRANCH  19  20
ATOM     20  C   UNL d   1       3.641  -6.938   3.201  0.00  0.00     0.277 C 
BRANCH  20  21
ATOM     21  C   UNL d   1       4.972  -6.211   3.346  0.00  0.00     0.164 C 
ATOM     22  O   UNL d   1       6.060  -6.757   3.427  0.00  0.00    -0.648 OA
BRANCH  21  23
ATOM     23  O   UNL d   1       4.815  -4.864   3.378  0.00  0.00    -0.775 OA
ATOM     24  H   UNL d   1       3.867  -4.632   3.299  0.00  0.00     0.167 HD
ENDBRANCH  21  23
ENDBRANCH  20  21
ENDBRANCH  19  20
ENDBRANCH  18  19
ENDBRANCH  15  18
ENDBRANCH   1  10
TORSDOF 6
