REMARK  2 active torsions:
REMARK  status: ('A' for Active; 'I' for Inactive)
REMARK    1  A    between atoms: C_13  and  C_4 
REMARK    2  A    between atoms: C_23  and  C_19 
ROOT
ATOM      1  C   UNL d   1      -0.026   0.703   0.107  0.00  0.00     0.024 C 
ATOM      2  C   UNL d   1      -0.058  -0.646   0.109  0.00  0.00     0.021 C 
ATOM      3  C   UNL d   1      -2.576   0.692   0.134  0.00  0.00     0.057 C 
ATOM      4  C   UNL d   1      -1.297   1.532   0.001  0.00  0.00     0.103 C 
ATOM      5  N   UNL d   1      -1.277  -1.301   0.080  0.00  0.00    -0.362 N 
ATOM      6  C   UNL d   1      -2.509  -0.662   0.128  0.00  0.00     0.023 C 
ATOM      7  C   UNL d   1       1.276   1.422   0.209  0.00  0.00     0.159 C 
ATOM      8  C   UNL d   1      -3.816   1.393   0.212  0.00  0.00     0.098 C 
ATOM      9  N   UNL d   1      -4.831   1.955   0.286  0.00  0.00    -0.192 NA
ATOM     10  C   UNL d   1       1.195  -1.497   0.100  0.00  0.00     0.067 C 
ATOM     11  C   UNL d   1       2.452  -0.735  -0.381  0.00  0.00    -0.036 C 
ATOM     12  C   UNL d   1       2.534   0.599   0.374  0.00  0.00     0.092 C 
ATOM     13  O   UNL d   1       1.321   2.650   0.243  0.00  0.00    -0.293 OA
ATOM     14  C   UNL d   1      -3.719  -1.565   0.131  0.00  0.00     0.069 C 
ATOM     15  C   UNL d   1       2.401  -0.495  -1.906  0.00  0.00     0.015 C 
ATOM     16  C   UNL d   1       3.715  -1.558  -0.075  0.00  0.00     0.015 C 
ATOM     17  H   UNL d   1      -1.272  -2.318   0.112  0.00  0.00     0.165 HD
ENDROOT
BRANCH   4  18
ATOM     18  C   UNL d   1      -1.328   2.296  -1.324  0.00  0.00    -0.044 A 
ATOM     19  C   UNL d   1      -1.304   3.697  -1.338  0.00  0.00     0.009 A 
ATOM     20  C   UNL d   1      -1.327   4.393  -2.549  0.00  0.00     0.007 A 
ATOM     21  C   UNL d   1      -1.371   3.700  -3.767  0.00  0.00    -0.059 A 
ATOM     22  C   UNL d   1      -1.400   2.302  -3.752  0.00  0.00     0.007 A 
ATOM     23  C   UNL d   1      -1.378   1.606  -2.547  0.00  0.00     0.009 A 
BRANCH  21  24
ATOM     24  C   UNL d   1      -1.379   4.438  -5.080  0.00  0.00     0.034 C 
ATOM     25  C   UNL d   1      -2.783   4.751  -5.574  0.00  0.00     0.010 C 
ENDBRANCH  21  24
ENDBRANCH   4  18
TORSDOF 2
