REMARK  1 active torsions:
REMARK  status: ('A' for Active; 'I' for Inactive)
REMARK    1  A    between atoms: S_10  and  C_2 
ROOT
ATOM      1  N   UNL d   1       0.271  -0.719  -0.001  0.00  0.00    -0.286 N 
ATOM      2  C   UNL d   1       1.599  -1.087  -0.002  0.00  0.00     0.164 A 
ATOM      3  N   UNL d   1       2.366  -0.019  -0.001  0.00  0.00    -0.278 N 
ATOM      4  HN  UNL d   1       3.386  -0.014  -0.001  1.00  0.00     0.189 HD
ATOM      5  N   UNL d   1       1.553   1.091   0.001  0.00  0.00    -0.283 N 
ATOM      6  HN  UNL d   1       1.861   2.063   0.001  1.00  0.00     0.188 HD
ATOM      7  C   UNL d   1       0.306   0.673   0.000  0.00  0.00     0.128 A 
ATOM      8  C   UNL d   1      -0.926  -1.443  -0.000  0.00  0.00     0.101 A 
ATOM      9  C   UNL d   1      -0.933   1.369   0.001  0.00  0.00     0.050 A 
ATOM     10  C   UNL d   1      -2.097  -0.780   0.000  0.00  0.00     0.018 A 
ATOM     11  C   UNL d   1      -2.087   0.675   0.000  0.00  0.00     0.005 A 
ENDROOT
BRANCH   2  12
ATOM     12  S   UNL d   1       2.197  -2.711  -0.004  0.00  0.00    -0.105 SA
ATOM     13  H   UNL d   1       1.052  -3.400  -0.004  0.00  0.00     0.110 HD
ENDBRANCH   2  12
TORSDOF 1
