REMARK  4 active torsions:
REMARK  status: ('A' for Active; 'I' for Inactive)
REMARK    1  A    between atoms: C_6  and  C_1 
REMARK       I    between atoms: N_11  and  C_6 
REMARK    2  A    between atoms: C_14  and  N_11 
REMARK    3  A    between atoms: C_12  and  C_13 
REMARK    4  A    between atoms: C_13  and  C_14 
ROOT
ATOM      1  C   UNL d   1       3.964  -0.005  -0.019  0.00  0.00     0.260 C 
ATOM      2  O   UNL d   1       4.620  -1.042  -0.071  0.00  0.00    -0.267 OA
ATOM      3  N   UNL d   1       4.601   1.219   0.036  0.00  0.00    -0.356 N 
ATOM      4  H   UNL d   1       4.046   2.066  -0.006  0.00  0.00     0.162 HD
ENDROOT
BRANCH   1   5
ATOM      5  C   UNL d   1       2.506   0.031  -0.009  0.00  0.00     0.096 A 
ATOM      6  S   UNL d   1       1.656   1.519   0.019  0.00  0.00    -0.082 SA
ATOM      7  C   UNL d   1       0.120   0.757   0.024  0.00  0.00     0.017 A 
ATOM      8  C   UNL d   1      -1.138   1.394   0.046  0.00  0.00     0.020 A 
ATOM      9  C   UNL d   1       0.237  -0.635   0.004  0.00  0.00     0.004 A 
ATOM     10  C   UNL d   1      -2.293   0.612   0.048  0.00  0.00     0.001 A 
ATOM     11  C   UNL d   1      -2.208  -0.771   0.028  0.00  0.00     0.001 A 
ATOM     12  C   UNL d   1      -0.959  -1.398   0.007  0.00  0.00     0.014 A 
ATOM     13  C   UNL d   1       1.623  -1.035  -0.014  0.00  0.00     0.068 A 
ATOM     14 CL   UNL d   1       2.061  -2.701  -0.035  0.00  0.00    -0.082 Cl
ENDBRANCH   1   5
BRANCH   3  15
ATOM     15  C   UNL d   1       6.048   1.345   0.051  0.00  0.00     0.129 C 
BRANCH  15  16
ATOM     16  C   UNL d   1       6.671   1.377  -1.346  0.00  0.00     0.076 C 
BRANCH  16  17
ATOM     17  C   UNL d   1       6.232   2.588  -2.131  0.00  0.00     0.010 A 
ATOM     18  N   UNL d   1       6.504   3.801  -1.590  0.00  0.00    -0.369 N 
ATOM     19  C   UNL d   1       6.083   4.893  -2.265  0.00  0.00     0.088 A 
ATOM     20  HN  UNL d   1       7.006   3.886  -0.706  1.00  0.00     0.165 HD
ATOM     21  C   UNL d   1       5.393   4.838  -3.462  0.00  0.00     0.017 A 
ATOM     22  C   UNL d   1       5.138   3.589  -4.014  0.00  0.00     0.003 A 
ATOM     23  C   UNL d   1       5.569   2.446  -3.347  0.00  0.00     0.025 A 
ENDBRANCH  16  17
ENDBRANCH  15  16
ENDBRANCH   3  15
TORSDOF 4
