REMARK  4 active torsions:
REMARK  status: ('A' for Active; 'I' for Inactive)
REMARK    1  A    between atoms: N_2  and  C_1 
REMARK    2  A    between atoms: C_3  and  N_2 
REMARK    3  A    between atoms: C_4  and  C_12 
REMARK    4  A    between atoms: C_12  and  N_6 
ROOT
ATOM      1  C   UNL d   1       1.028  -0.004   0.005  0.00  0.00     0.172 C 
ATOM      2  S   UNL d   1       0.238  -0.265   1.454  0.00  0.00    -0.041 SA
ATOM      3  N   UNL d   1       2.390  -0.072   0.006  0.00  0.00    -0.361 N 
ATOM      4  H   UNL d   1       2.764  -0.190   0.941  0.00  0.00     0.162 HD
ENDROOT
BRANCH   1   5
ATOM      5  N   UNL d   1       0.446   0.211  -1.217  0.00  0.00    -0.332 N 
ATOM      6  H   UNL d   1       0.727  -0.452  -1.932  0.00  0.00     0.168 HD
BRANCH   5   7
ATOM      7  C   UNL d   1      -0.760   0.907  -1.474  0.00  0.00     0.056 A 
ATOM      8  C   UNL d   1      -1.575   0.542  -2.558  0.00  0.00     0.060 A 
ATOM      9 CL   UNL d   1      -1.233  -0.870  -3.496  0.00  0.00    -0.082 Cl
ATOM     10  C   UNL d   1      -2.702   1.301  -2.888  0.00  0.00     0.026 A 
ATOM     11  C   UNL d   1      -3.014   2.443  -2.149  0.00  0.00     0.002 A 
ATOM     12  C   UNL d   1      -2.215   2.809  -1.068  0.00  0.00     0.002 A 
ATOM     13  C   UNL d   1      -1.097   2.043  -0.730  0.00  0.00     0.031 A 
ENDBRANCH   5   7
ENDBRANCH   1   5
BRANCH   3  14
ATOM     14  C   UNL d   1       3.249   0.679  -0.896  0.00  0.00     0.187 C 
BRANCH  14  15
ATOM     15  C   UNL d   1       4.649   0.481  -0.449  0.00  0.00     0.070 A 
ATOM     16  O   UNL d   1       5.128   1.379   0.463  0.00  0.00    -0.325 OA
ATOM     17  C   UNL d   1       6.385   0.983   0.791  0.00  0.00     0.142 A 
ATOM     18  C   UNL d   1       6.721  -0.162   0.102  0.00  0.00     0.027 A 
ATOM     19  C   UNL d   1       5.601  -0.480  -0.704  0.00  0.00     0.036 A 
ENDBRANCH  14  15
ENDBRANCH   3  14
TORSDOF 4
