REMARK  6 active torsions:
REMARK  status: ('A' for Active; 'I' for Inactive)
REMARK    1  A    between atoms: C_8  and  C_1 
REMARK    2  A    between atoms: O_14  and  C_2 
REMARK    3  A    between atoms: N_4  and  C_11 
REMARK    4  A    between atoms: C_13  and  N_6 
REMARK    5  A    between atoms: N_9  and  C_8 
REMARK    6  A    between atoms: O_20  and  C_15 
ROOT
ATOM      1  C   UNL d   1      -0.376  -0.701  -0.091  0.00  0.00     0.006 A 
ATOM      2  C   UNL d   1      -0.443   0.697  -0.007  0.00  0.00     0.079 A 
ATOM      3  C   UNL d   1       0.714   1.484  -0.013  0.00  0.00    -0.026 A 
ATOM      4  C   UNL d   1       0.896  -1.304  -0.119  0.00  0.00     0.042 A 
ATOM      5  C   UNL d   1       2.080  -0.547  -0.113  0.00  0.00     0.049 A 
ATOM      6  C   UNL d   1       1.968   0.846  -0.064  0.00  0.00     0.040 A 
ATOM      7  C   UNL d   1       0.661   2.985   0.034  0.00  0.00     0.051 C 
ENDROOT
BRANCH   5   8
ATOM      8  N   UNL d   1       3.370  -1.129  -0.088  0.00  0.00    -0.300 N 
ATOM      9  N   UNL d   1       3.394  -2.240  -0.658  0.00  0.00    -0.300 N 
ATOM     10  HN  UNL d   1       2.592  -2.631  -1.152  1.00  0.00     0.187 HD
ATOM     11  HN  UNL d   1       4.184  -0.691   0.344  1.00  0.00     0.187 HD
BRANCH   9  12
ATOM     12  C   UNL d   1       4.635  -2.904  -0.554  0.00  0.00     0.048 A 
ATOM     13  C   UNL d   1       5.505  -2.780   0.538  0.00  0.00     0.034 A 
ATOM     14  C   UNL d   1       6.695  -3.522   0.607  0.00  0.00     0.039 A 
ATOM     15  C   UNL d   1       7.030  -4.404  -0.418  0.00  0.00     0.068 A 
ATOM     16  C   UNL d   1       6.163  -4.546  -1.502  0.00  0.00     0.039 A 
ATOM     17  C   UNL d   1       4.978  -3.804  -1.567  0.00  0.00     0.034 A 
BRANCH  15  18
ATOM     18  O   UNL d   1       8.152  -5.182  -0.481  0.00  0.00    -0.356 OA
ATOM     19  C   UNL d   1       9.082  -5.064   0.589  0.00  0.00     0.210 C 
ENDBRANCH  15  18
ENDBRANCH   9  12
ENDBRANCH   5   8
BRANCH   1  20
ATOM     20  C   UNL d   1      -1.587  -1.611  -0.052  0.00  0.00     0.313 C 
BRANCH  20  21
ATOM     21  N   UNL d   1      -2.830  -1.032  -0.625  0.00  0.00     0.092 N 
ATOM     22  C   UNL d   1      -2.717  -0.906  -2.096  0.00  0.00     0.272 C 
ATOM     23  C   UNL d   1      -4.013  -0.382  -2.717  0.00  0.00     0.030 C 
ATOM     24  C   UNL d   1      -5.187  -1.286  -2.368  0.00  0.00     0.003 C 
ATOM     25  C   UNL d   1      -5.286  -1.440  -0.856  0.00  0.00     0.030 C 
ATOM     26  C   UNL d   1      -3.959  -1.915  -0.265  0.00  0.00     0.272 C 
ENDBRANCH  20  21
ENDBRANCH   1  20
BRANCH   2  27
ATOM     27  O   UNL d   1      -1.655   1.330   0.082  0.00  0.00    -0.360 OA
ATOM     28  H   UNL d   1      -2.348   0.649  -0.064  0.00  0.00     0.217 HD
ENDBRANCH   2  27
TORSDOF 6
