REMARK  4 active torsions:
REMARK  status: ('A' for Active; 'I' for Inactive)
REMARK    1  A    between atoms: C_3  and  C_8 
REMARK    2  A    between atoms: C_4  and  C_7 
REMARK    3  A    between atoms: O_13  and  C_7 
REMARK    4  A    between atoms: O_12  and  C_8 
ROOT
ATOM      1  C   UNL d   1      -1.166   1.062  -0.156  0.00  0.00     0.023 C 
ATOM      2  C   UNL d   1       0.340  -0.439  -0.872  0.00  0.00     0.023 C 
ATOM      3  C   UNL d   1       0.179   1.710   0.276  0.00  0.00     0.106 C 
ATOM      4  C   UNL d   1       1.208   0.635  -0.168  0.00  0.00     0.106 C 
ATOM      5  C   UNL d   1      -1.421  -0.239   0.578  0.00  0.00    -0.025 C 
ATOM      6  C   UNL d   1      -0.545  -1.145   0.122  0.00  0.00    -0.025 C 
ATOM      7  C   UNL d   1      -0.742   0.454  -1.505  0.00  0.00     0.019 C 
ENDROOT
BRANCH   3   8
ATOM      8  C   UNL d   1       0.233   2.172   1.711  0.00  0.00     0.145 C 
ATOM      9  O   UNL d   1      -0.692   2.072   2.501  0.00  0.00    -0.650 OA
BRANCH   8  10
ATOM     10  O   UNL d   1       1.398   2.766   2.046  0.00  0.00    -0.776 OA
ATOM     11  H   UNL d   1       2.109   2.777   1.373  0.00  0.00     0.167 HD
ENDBRANCH   8  10
ENDBRANCH   3   8
BRANCH   4  12
ATOM     12  C   UNL d   1       2.185   0.160   0.883  0.00  0.00     0.145 C 
ATOM     13  O   UNL d   1       3.371   0.461   0.814  0.00  0.00    -0.650 OA
BRANCH  12  14
ATOM     14  O   UNL d   1       1.694  -0.498   1.942  0.00  0.00    -0.776 OA
ATOM     15  H   UNL d   1       0.721  -0.589   2.001  0.00  0.00     0.167 HD
ENDBRANCH  12  14
ENDBRANCH   4  12
TORSDOF 4
