REMARK  6 active torsions:
REMARK  status: ('A' for Active; 'I' for Inactive)
REMARK       I    between atoms: C_2  and  N_1 
REMARK    1  A    between atoms: C_3  and  N_1 
REMARK       I    between atoms: N_4  and  C_2 
REMARK    2  A    between atoms: C_18  and  N_4 
REMARK    3  A    between atoms: O_13  and  C_8 
REMARK    4  A    between atoms: C_9  and  C_10 
REMARK    5  A    between atoms: C_21  and  O_13 
REMARK    6  A    between atoms: C_19  and  C_21 
ROOT
ATOM      1  C   UNL d   1       2.099  -0.157   0.512  0.00  0.00     0.143 A 
ATOM      2  N   UNL d   1       2.885  -0.788  -0.386  0.00  0.00    -0.350 N 
ATOM      3  HN  UNL d   1       2.500  -1.211  -1.230  1.00  0.00     0.166 HD
ATOM      4  C   UNL d   1       2.565   0.402   1.714  0.00  0.00     0.113 A 
ATOM      5  C   UNL d   1       4.204  -0.832  -0.112  0.00  0.00     0.090 A 
ATOM      6  C   UNL d   1       3.935   0.337   1.958  0.00  0.00     0.042 A 
ATOM      7  C   UNL d   1       4.770  -0.275   1.023  0.00  0.00     0.020 A 
ENDROOT
BRANCH   1   8
ATOM      8  N   UNL d   1       0.769   0.025   0.120  0.00  0.00    -0.292 N 
ATOM      9  C   UNL d   1       0.330   1.167  -0.516  0.00  0.00     0.326 C 
ATOM     10  N   UNL d   1       1.292   2.118  -0.785  0.00  0.00    -0.309 N 
ATOM     11  O   UNL d   1      -0.847   1.228  -0.866  0.00  0.00    -0.247 OA
ATOM     12  H   UNL d   1       2.240   1.775  -0.826  0.00  0.00     0.170 HD
ATOM     13  H   UNL d   1       0.366  -0.771  -0.355  0.00  0.00     0.172 HD
BRANCH  10  14
ATOM     14  C   UNL d   1       1.088   3.421  -1.279  0.00  0.00     0.036 A 
ATOM     15  C   UNL d   1      -0.150   4.052  -1.274  0.00  0.00     0.030 A 
ATOM     16  C   UNL d   1      -0.268   5.385  -1.682  0.00  0.00     0.010 A 
ATOM     17  C   UNL d   1       0.843   6.131  -2.119  0.00  0.00    -0.051 A 
ATOM     18  C   UNL d   1       2.079   5.468  -2.154  0.00  0.00     0.010 A 
ATOM     19  C   UNL d   1       2.201   4.134  -1.735  0.00  0.00     0.030 A 
BRANCH  17  20
ATOM     20  C   UNL d   1       0.692   7.631  -2.430  0.00  0.00    -0.024 C 
ATOM     21  C   UNL d   1       1.892   8.239  -3.191  0.00  0.00     0.019 C 
ATOM     22  C   UNL d   1      -0.562   7.915  -3.287  0.00  0.00     0.019 C 
ATOM     23  C   UNL d   1       0.560   8.373  -1.083  0.00  0.00     0.019 C 
ENDBRANCH  17  20
ENDBRANCH  10  14
ENDBRANCH   1   8
BRANCH   4  24
ATOM     24  O   UNL d   1       1.635   0.876   2.599  0.00  0.00    -0.343 OA
BRANCH  24  25
ATOM     25  C   UNL d   1       2.038   1.833   3.580  0.00  0.00     0.214 C 
BRANCH  25  26
ATOM     26  C   UNL d   1       2.333   1.260   4.955  0.00  0.00    -0.032 A 
ATOM     27  C   UNL d   1       2.555   2.154   6.019  0.00  0.00     0.035 A 
ATOM     28  C   UNL d   1       2.827   1.690   7.314  0.00  0.00     0.056 A 
ATOM     29 CL   UNL d   1       3.074   2.867   8.553  0.00  0.00    -0.083 Cl
ATOM     30  C   UNL d   1       2.888   0.317   7.561  0.00  0.00     0.055 A 
ATOM     31  C   UNL d   1       2.676  -0.581   6.511  0.00  0.00     0.026 A 
ATOM     32 CL   UNL d   1       3.227  -0.332   9.126  0.00  0.00    -0.083 Cl
ATOM     33  C   UNL d   1       2.392  -0.114   5.223  0.00  0.00     0.011 A 
ENDBRANCH  25  26
ENDBRANCH  24  25
ENDBRANCH   4  24
TORSDOF 6
