REMARK  11 active torsions:
REMARK  status: ('A' for Active; 'I' for Inactive)
REMARK    1  A    between atoms: C_6  and  N_1 
REMARK    2  A    between atoms: C_7  and  C_6 
REMARK    3  A    between atoms: C_8  and  C_7 
REMARK    4  A    between atoms: O_10  and  C_7 
REMARK    5  A    between atoms: N_9  and  C_8 
REMARK    6  A    between atoms: C_15  and  N_9 
REMARK    7  A    between atoms: C_16  and  N_9 
REMARK    8  A    between atoms: C_17  and  C_15 
REMARK    9  A    between atoms: C_18  and  C_16 
REMARK   10  A    between atoms: C_19  and  C_17 
REMARK   11  A    between atoms: C_20  and  C_18 
ROOT
ATOM      1  C   UNL d   1       1.033  -3.996  -0.810  0.00  0.00     0.163 C 
ENDROOT
BRANCH   1   2
ATOM      2  N   UNL d   1       1.695  -4.977  -1.665  0.00  0.00    -0.343 N 
ATOM      3  C   UNL d   1       1.101  -6.122  -2.176  0.00  0.00     0.046 A 
ATOM      4  C   UNL d   1       2.053  -6.752  -2.985  0.00  0.00     0.003 A 
ATOM      5  C   UNL d   1      -0.191  -6.657  -2.024  0.00  0.00     0.030 A 
ATOM      6  C   UNL d   1       1.718  -7.958  -3.638  0.00  0.00     0.014 A 
ATOM      7  C   UNL d   1       3.216  -5.928  -3.002  0.00  0.00     0.003 A 
ATOM      8  C   UNL d   1       0.434  -8.487  -3.500  0.00  0.00     0.001 A 
ATOM      9  C   UNL d   1      -0.509  -7.839  -2.709  0.00  0.00     0.002 A 
ATOM     10  C   UNL d   1       2.955  -4.803  -2.217  0.00  0.00     0.046 A 
ATOM     11  C   UNL d   1       4.458  -6.024  -3.668  0.00  0.00     0.014 A 
ATOM     12  C   UNL d   1       3.874  -3.753  -2.106  0.00  0.00     0.030 A 
ATOM     13  C   UNL d   1       5.090  -3.863  -2.790  0.00  0.00     0.002 A 
ATOM     14  C   UNL d   1       5.388  -4.988  -3.551  0.00  0.00     0.001 A 
ENDBRANCH   1   2
BRANCH   1  15
ATOM     15  C   UNL d   1       1.027  -4.328   0.692  0.00  0.00     0.164 C 
BRANCH  15  16
ATOM     16  C   UNL d   1       2.311  -3.969   1.513  0.00  0.00     0.305 C 
BRANCH  16  17
ATOM     17  N   UNL d   1       2.883  -2.605   1.496  0.00  0.00     0.090 N 
BRANCH  17  18
ATOM     18  C   UNL d   1       1.925  -1.504   1.743  0.00  0.00     0.272 C 
BRANCH  18  19
ATOM     19  C   UNL d   1       1.122  -1.427   3.064  0.00  0.00     0.030 C 
BRANCH  19  20
ATOM     20  C   UNL d   1       1.803  -0.951   4.354  0.00  0.00    -0.003 C 
ATOM     21  C   UNL d   1       2.489   0.401   4.257  0.00  0.00     0.005 C 
ENDBRANCH  19  20
ENDBRANCH  18  19
ENDBRANCH  17  18
BRANCH  17  22
ATOM     22  C   UNL d   1       4.076  -2.454   2.356  0.00  0.00     0.272 C 
BRANCH  22  23
ATOM     23  C   UNL d   1       5.208  -3.492   2.279  0.00  0.00     0.030 C 
BRANCH  23  24
ATOM     24  C   UNL d   1       5.901  -3.656   0.933  0.00  0.00    -0.003 C 
ATOM     25  C   UNL d   1       6.563  -2.388   0.421  0.00  0.00     0.005 C 
ENDBRANCH  23  24
ENDBRANCH  22  23
ENDBRANCH  17  22
ENDBRANCH  16  17
ENDBRANCH  15  16
BRANCH  15  26
ATOM     26  O   UNL d   1      -0.140  -3.726   1.278  0.00  0.00    -0.392 OA
ATOM     27  H   UNL d   1      -0.193  -4.038   2.198  0.00  0.00     0.210 HD
ENDBRANCH  15  26
ENDBRANCH   1  15
TORSDOF 11
