REMARK  11 active torsions:
REMARK  status: ('A' for Active; 'I' for Inactive)
REMARK    1  A    between atoms: C_1  and  O_5 
REMARK    2  A    between atoms: C_2  and  O_7 
REMARK    3  A    between atoms: C_3  and  O_19 
REMARK    4  A    between atoms: C_8  and  O_5 
REMARK    5  A    between atoms: C_6  and  C_12 
REMARK    6  A    between atoms: C_9  and  O_7 
REMARK    7  A    between atoms: C_16  and  C_8 
REMARK    8  A    between atoms: C_15  and  C_9 
REMARK    9  A    between atoms: C_10  and  O_11 
REMARK   10  A    between atoms: C_18  and  C_10 
REMARK   11  A    between atoms: O_11  and  C_12 
ROOT
ATOM      1  C   UNL d   1      -1.136  -0.605  -0.350  0.00  0.00     0.219 C 
ATOM      2  C   UNL d   1      -0.962   0.751   0.331  0.00  0.00     0.197 C 
ATOM      3  C   UNL d   1       0.223  -1.258   0.011  0.00  0.00     0.291 C 
ATOM      4  O   UNL d   1       1.194  -0.209   0.183  0.00  0.00    -0.348 OA
ATOM      5  C   UNL d   1       0.515   1.056   0.040  0.00  0.00     0.181 C 
ENDROOT
BRANCH   5   6
ATOM      6  C   UNL d   1       0.784   1.570  -1.388  0.00  0.00     0.213 C 
BRANCH   6   7
ATOM      7  O   UNL d   1       2.182   1.855  -1.586  0.00  0.00    -0.315 OA
BRANCH   7   8
ATOM      8  C   UNL d   1       2.595   3.089  -1.222  0.00  0.00     0.293 C 
ATOM      9  O   UNL d   1       1.895   3.953  -0.721  0.00  0.00    -0.259 OA
BRANCH   8  10
ATOM     10  C   UNL d   1       4.043   3.253  -1.524  0.00  0.00     0.039 A 
ATOM     11  C   UNL d   1       4.651   4.468  -1.184  0.00  0.00     0.017 A 
ATOM     12  C   UNL d   1       6.013   4.664  -1.422  0.00  0.00     0.001 A 
ATOM     13  C   UNL d   1       6.772   3.649  -2.004  0.00  0.00     0.000 A 
ATOM     14  C   UNL d   1       6.173   2.442  -2.358  0.00  0.00     0.001 A 
ATOM     15  C   UNL d   1       4.810   2.242  -2.120  0.00  0.00     0.017 A 
ENDBRANCH   8  10
ENDBRANCH   7   8
ENDBRANCH   6   7
ENDBRANCH   5   6
BRANCH   2  16
ATOM     16  O   UNL d   1      -1.138   0.604   1.775  0.00  0.00    -0.306 OA
BRANCH  16  17
ATOM     17  C   UNL d   1      -2.428   0.667   2.198  0.00  0.00     0.293 C 
ATOM     18  O   UNL d   1      -3.385   0.874   1.469  0.00  0.00    -0.259 OA
BRANCH  17  19
ATOM     19  C   UNL d   1      -2.594   0.442   3.658  0.00  0.00     0.039 A 
ATOM     20  C   UNL d   1      -3.899   0.513   4.179  0.00  0.00     0.017 A 
ATOM     21  C   UNL d   1      -4.140   0.312   5.538  0.00  0.00     0.001 A 
ATOM     22  C   UNL d   1      -3.078   0.033   6.394  0.00  0.00     0.000 A 
ATOM     23  C   UNL d   1      -1.776  -0.046   5.886  0.00  0.00     0.001 A 
ATOM     24  C   UNL d   1      -1.533   0.157   4.524  0.00  0.00     0.017 A 
ENDBRANCH  17  19
ENDBRANCH  16  17
ENDBRANCH   2  16
BRANCH   1  25
ATOM     25  O   UNL d   1      -1.304  -0.456  -1.785  0.00  0.00    -0.304 OA
BRANCH  25  26
ATOM     26  C   UNL d   1      -2.529  -0.044  -2.199  0.00  0.00     0.293 C 
ATOM     27  O   UNL d   1      -3.472   0.200  -1.466  0.00  0.00    -0.259 OA
BRANCH  26  28
ATOM     28  C   UNL d   1      -2.613   0.079  -3.681  0.00  0.00     0.039 A 
ATOM     29  C   UNL d   1      -3.873   0.326  -4.251  0.00  0.00     0.017 A 
ATOM     30  C   UNL d   1      -4.025   0.390  -5.638  0.00  0.00     0.001 A 
ATOM     31  C   UNL d   1      -2.916   0.227  -6.466  0.00  0.00     0.000 A 
ATOM     32  C   UNL d   1      -1.654   0.021  -5.908  0.00  0.00     0.001 A 
ATOM     33  C   UNL d   1      -1.500  -0.054  -4.519  0.00  0.00     0.017 A 
ENDBRANCH  26  28
ENDBRANCH  25  26
ENDBRANCH   1  25
BRANCH   3  34
ATOM     34  O   UNL d   1       0.656  -2.208  -0.956  0.00  0.00    -0.363 OA
ATOM     35  C   UNL d   1       1.903  -2.790  -0.586  0.00  0.00     0.204 C 
ENDBRANCH   3  34
TORSDOF 11
