REMARK  5 active torsions:
REMARK  status: ('A' for Active; 'I' for Inactive)
REMARK    1  A    between atoms: C_7  and  O_16 
REMARK    2  A    between atoms: C_10  and  C_7 
REMARK    3  A    between atoms: C_24  and  N_8 
REMARK    4  A    between atoms: O_16  and  C_23 
REMARK    5  A    between atoms: C_23  and  C_24 
ROOT
ATOM      1  C   UNL d   1       2.987  -1.729   0.876  0.00  0.00     0.147 A 
ATOM      2  N   UNL d   1       1.693  -1.784   0.637  0.00  0.00    -0.336 N 
ATOM      3  HN  UNL d   1       1.285  -1.837  -0.297  1.00  0.00     0.168 HD
ATOM      4  S   UNL d   1       3.373  -1.598   2.559  0.00  0.00    -0.052 SA
ATOM      5  C   UNL d   1       0.957  -1.760   1.807  0.00  0.00     0.053 A 
ATOM      6  C   UNL d   1       1.711  -1.701   2.976  0.00  0.00     0.035 A 
ATOM      7  N   UNL d   1       3.932  -1.813  -0.103  0.00  0.00    -0.364 N 
ATOM      8  C   UNL d   1      -0.449  -1.805   1.900  0.00  0.00     0.054 A 
ATOM      9  C   UNL d   1       1.115  -1.724   4.248  0.00  0.00     0.023 A 
ATOM     10  C   UNL d   1      -1.048  -1.818   3.161  0.00  0.00     0.036 A 
ATOM     11  C   UNL d   1      -0.280  -1.789   4.321  0.00  0.00     0.025 A 
ATOM     12 CL   UNL d   1      -2.765  -1.875   3.283  0.00  0.00    -0.084 Cl
ATOM     13  C   UNL d   1       3.566  -2.388  -1.390  0.00  0.00     0.151 C 
ENDROOT
BRANCH   7  14
ATOM     14  C   UNL d   1       5.291  -1.286   0.029  0.00  0.00     0.151 C 
BRANCH  14  15
ATOM     15  C   UNL d   1       5.332   0.251  -0.027  0.00  0.00     0.199 C 
BRANCH  15  16
ATOM     16  O   UNL d   1       6.681   0.764  -0.055  0.00  0.00    -0.316 OA
BRANCH  16  17
ATOM     17  C   UNL d   1       7.287   0.709  -1.269  0.00  0.00     0.293 C 
ATOM     18  O   UNL d   1       6.826   0.176  -2.265  0.00  0.00    -0.259 OA
BRANCH  17  19
ATOM     19  C   UNL d   1       8.610   1.393  -1.259  0.00  0.00     0.039 A 
ATOM     20  C   UNL d   1       9.413   1.284  -2.406  0.00  0.00     0.019 A 
ATOM     21  C   UNL d   1      10.647   1.937  -2.475  0.00  0.00     0.025 A 
ATOM     22  C   UNL d   1      11.083   2.704  -1.397  0.00  0.00     0.034 A 
ATOM     23  C   UNL d   1      10.297   2.816  -0.249  0.00  0.00     0.025 A 
ATOM     24 CL   UNL d   1      12.592   3.524  -1.488  0.00  0.00    -0.084 Cl
ATOM     25  C   UNL d   1       9.062   2.163  -0.177  0.00  0.00     0.019 A 
ENDBRANCH  17  19
ENDBRANCH  16  17
ENDBRANCH  15  16
ENDBRANCH  14  15
ENDBRANCH   7  14
TORSDOF 5
