REMARK  5 active torsions:
REMARK  status: ('A' for Active; 'I' for Inactive)
REMARK    1  A    between atoms: C_7  and  N_1 
REMARK    2  A    between atoms: S_12  and  C_2 
REMARK    3  A    between atoms: N_6  and  C_11 
REMARK    4  A    between atoms: C_22  and  S_12 
REMARK    5  A    between atoms: C_23  and  C_22 
ROOT
ATOM      1  N   UNL d   1       0.996  -0.669   0.045  0.00  0.00    -0.241 N 
ATOM      2  C   UNL d   1       0.943   0.702   0.094  0.00  0.00     0.170 A 
ATOM      3  C   UNL d   1      -0.339  -1.046   0.028  0.00  0.00     0.347 A 
ATOM      4  N   UNL d   1      -0.258   1.209   0.127  0.00  0.00    -0.275 N 
ATOM      5  HN  UNL d   1      -0.521   2.193   0.171  1.00  0.00     0.189 HD
ATOM      6  N   UNL d   1      -1.074   0.131   0.090  0.00  0.00    -0.249 N 
ATOM      7  O   UNL d   1      -0.858  -2.151   0.002  0.00  0.00    -0.245 OA
ATOM      8  H   UNL d   1      -2.084   0.193   0.079  0.00  0.00     0.192 HD
ENDROOT
BRANCH   2   9
ATOM      9  S   UNL d   1       2.321   1.757   0.009  0.00  0.00    -0.087 SA
BRANCH   9  10
ATOM     10  C   UNL d   1       1.668   3.186   0.914  0.00  0.00     0.121 C 
BRANCH  10  11
ATOM     11  C   UNL d   1       2.697   4.280   1.081  0.00  0.00    -0.046 A 
ATOM     12  C   UNL d   1       3.605   4.259   2.153  0.00  0.00     0.043 A 
ATOM     13  C   UNL d   1       4.523   5.308   2.315  0.00  0.00     0.103 A 
ATOM     14  C   UNL d   1       4.555   6.377   1.410  0.00  0.00     0.036 A 
ATOM     15  C   UNL d   1       3.670   6.388   0.334  0.00  0.00     0.003 A 
ATOM     16  C   UNL d   1       2.752   5.347   0.169  0.00  0.00     0.008 A 
BRANCH  13  17
ATOM     17  N   UNL d   1       5.454   5.295   3.452  0.00  0.00    -0.116 N 
ATOM     18  O   UNL d   1       5.401   4.329   4.227  0.00  0.00    -0.532 OA
ATOM     19  O   UNL d   1       6.233   6.250   3.573  0.00  0.00    -0.532 OA
ENDBRANCH  13  17
ENDBRANCH  10  11
ENDBRANCH   9  10
ENDBRANCH   2   9
BRANCH   1  20
ATOM     20  C   UNL d   1       2.091  -1.583   0.016  0.00  0.00     0.049 A 
ATOM     21  C   UNL d   1       1.919  -2.894  -0.470  0.00  0.00     0.069 A 
ATOM     22  C   UNL d   1       2.985  -3.799  -0.535  0.00  0.00     0.104 A 
ATOM     23  O   UNL d   1       2.704  -5.056  -1.011  0.00  0.00    -0.346 OA
ATOM     24  C   UNL d   1       4.262  -3.406  -0.142  0.00  0.00     0.102 A 
ATOM     25  C   UNL d   1       3.772  -5.970  -0.731  0.00  0.00     0.202 C 
ATOM     26  C   UNL d   1       5.110  -5.342  -1.082  0.00  0.00     0.202 C 
ATOM     27  O   UNL d   1       5.365  -4.212  -0.238  0.00  0.00    -0.346 OA
ATOM     28  C   UNL d   1       4.450  -2.140   0.391  0.00  0.00     0.042 A 
ATOM     29  C   UNL d   1       3.372  -1.247   0.480  0.00  0.00     0.033 A 
ENDBRANCH   1  20
TORSDOF 5
