REMARK  7 active torsions:
REMARK  status: ('A' for Active; 'I' for Inactive)
REMARK    1  A    between atoms: N_4  and  C_1 
REMARK    2  A    between atoms: N_10  and  C_1 
REMARK    3  A    between atoms: C_2  and  C_5 
REMARK    4  A    between atoms: C_3  and  C_6 
REMARK       I    between atoms: C_7  and  N_4 
REMARK    5  A    between atoms: O_21  and  C_7 
REMARK    6  A    between atoms: C_9  and  N_10 
REMARK    7  A    between atoms: C_22  and  O_21 
ROOT
ATOM      1  C   UNL d   1      -3.218  -0.084  -0.831  0.00  0.00     0.050 A 
ATOM      2  C   UNL d   1      -3.174  -1.930   0.763  0.00  0.00     0.050 A 
ATOM      3  C   UNL d   1      -3.889  -1.008  -0.017  0.00  0.00     0.032 A 
ATOM      4  C   UNL d   1      -1.087  -1.032  -0.126  0.00  0.00     0.035 A 
ATOM      5  C   UNL d   1      -1.770  -1.915   0.715  0.00  0.00     0.045 A 
ATOM      6  C   UNL d   1      -1.815  -0.119  -0.891  0.00  0.00     0.045 A 
ENDROOT
BRANCH   4   7
ATOM      7  N   UNL d   1       0.319  -1.026  -0.062  0.00  0.00    -0.333 N 
ATOM      8  H   UNL d   1       0.718  -1.385   0.806  0.00  0.00     0.168 HD
BRANCH   7   9
ATOM      9  C   UNL d   1       1.244  -0.571  -0.971  0.00  0.00     0.180 C 
ATOM     10  S   UNL d   1       1.087  -0.516  -2.635  0.00  0.00    -0.040 SA
BRANCH   9  11
ATOM     11  N   UNL d   1       2.432  -0.128  -0.431  0.00  0.00    -0.279 N 
ATOM     12  C   UNL d   1       2.657   0.179   0.885  0.00  0.00     0.366 C 
ATOM     13  O   UNL d   1       2.079  -0.329   1.838  0.00  0.00    -0.238 OA
ATOM     14  H   UNL d   1       3.049   0.337  -1.084  0.00  0.00     0.173 HD
BRANCH  12  15
ATOM     15  O   UNL d   1       3.618   1.130   0.963  0.00  0.00    -0.304 OA
BRANCH  15  16
ATOM     16  C   UNL d   1       3.748   1.762   2.246  0.00  0.00     0.176 C 
ATOM     17  C   UNL d   1       2.746   2.901   2.341  0.00  0.00     0.034 C 
ENDBRANCH  15  16
ENDBRANCH  12  15
ENDBRANCH   9  11
ENDBRANCH   7   9
ENDBRANCH   4   7
BRANCH   2  18
ATOM     18  C   UNL d   1      -3.884  -2.924   1.651  0.00  0.00     0.417 C 
ATOM     19  F   UNL d   1      -5.234  -2.749   1.688  0.00  0.00    -0.166 F 
ATOM     20  F   UNL d   1      -3.684  -4.210   1.253  0.00  0.00    -0.166 F 
ATOM     21  F   UNL d   1      -3.464  -2.860   2.944  0.00  0.00    -0.166 F 
ENDBRANCH   2  18
BRANCH   1  22
ATOM     22  C   UNL d   1      -3.969   0.976  -1.602  0.00  0.00     0.417 C 
ATOM     23  F   UNL d   1      -5.320   0.908  -1.440  0.00  0.00    -0.166 F 
ATOM     24  F   UNL d   1      -3.614   2.235  -1.221  0.00  0.00    -0.166 F 
ATOM     25  F   UNL d   1      -3.747   0.912  -2.942  0.00  0.00    -0.166 F 
ENDBRANCH   1  22
TORSDOF 7
