REMARK  2 active torsions:
REMARK  status: ('A' for Active; 'I' for Inactive)
REMARK    1  A    between atoms: C_11  and  C_3 
REMARK    2  A    between atoms: C_12  and  C_8 
ROOT
ATOM      1  C   UNL d   1       0.072   0.603   0.009  0.00  0.00     0.172 A 
ATOM      2  N   UNL d   1      -0.168  -0.739   0.007  0.00  0.00    -0.235 N 
ATOM      3  C   UNL d   1      -1.996   0.305   0.010  0.00  0.00     0.207 A 
ATOM      4  N   UNL d   1      -1.022   1.305   0.011  0.00  0.00    -0.316 N 
ATOM      5  HN  UNL d   1      -1.138   2.319   0.012  1.00  0.00     0.169 HD
ATOM      6  N   UNL d   1      -1.496  -0.958   0.007  0.00  0.00    -0.273 N 
ATOM      7  HN  UNL d   1      -1.999  -1.845   0.006  1.00  0.00     0.189 HD
ATOM      8  C   UNL d   1       2.090  -0.785   0.005  0.00  0.00     0.078 A 
ATOM      9  C   UNL d   1       0.964  -1.536   0.004  0.00  0.00     0.053 A 
ATOM     10  S   UNL d   1       1.764   0.954   0.009  0.00  0.00    -0.046 SA
ATOM     11  C   UNL d   1       0.835  -3.021   0.001  0.00  0.00     0.072 C 
ENDROOT
BRANCH   3  12
ATOM     12  C   UNL d   1      -3.483   0.600   0.010  0.00  0.00     0.450 C 
ATOM     13  F   UNL d   1      -3.757   1.933   0.018  0.00  0.00    -0.163 F 
ATOM     14  F   UNL d   1      -4.108   0.086  -1.085  0.00  0.00    -0.163 F 
ATOM     15  F   UNL d   1      -4.110   0.073   1.099  0.00  0.00    -0.163 F 
ENDBRANCH   3  12
BRANCH   8  16
ATOM     16  C   UNL d   1       3.479  -1.334   0.002  0.00  0.00     0.164 C 
ATOM     17  O   UNL d   1       3.656  -2.555  -0.001  0.00  0.00    -0.292 OA
ATOM     18  C   UNL d   1       4.684  -0.426   0.003  0.00  0.00     0.097 C 
ENDBRANCH   8  16
TORSDOF 2
