REMARK  5 active torsions:
REMARK  status: ('A' for Active; 'I' for Inactive)
REMARK    1  A    between atoms: C_2  and  C_1 
REMARK       I    between atoms: N_5  and  C_2 
REMARK    2  A    between atoms: C_8  and  N_5 
REMARK    3  A    between atoms: C_14  and  N_5 
REMARK    4  A    between atoms: C_9  and  C_8 
REMARK    5  A    between atoms: C_23  and  C_14 
ROOT
ATOM      1  C   UNL d   1       6.171  -1.320  -0.045  0.00  0.00     0.228 C 
ATOM      2  N   UNL d   1       7.831  -3.385   0.061  0.00  0.00    -0.195 NA
ATOM      3  C   UNL d   1       7.115  -2.471   0.027  0.00  0.00     0.089 C 
ENDROOT
BRANCH   1   4
ATOM      4  N   UNL d   1       4.732  -1.594   0.294  0.00  0.00    -0.322 N 
ATOM      5  C   UNL d   1       3.807  -0.653  -0.225  0.00  0.00     0.264 C 
ATOM      6  O   UNL d   1       4.276   0.220  -0.969  0.00  0.00    -0.267 OA
BRANCH   5   7
ATOM      7  C   UNL d   1       2.370  -0.583   0.105  0.00  0.00     0.096 C 
ATOM      8  S   UNL d   1       1.818   1.057   0.341  0.00  0.00    -0.082 SA
ATOM      9  C   UNL d   1       0.163   0.642   0.311  0.00  0.00     0.017 A 
ATOM     10  C   UNL d   1      -0.938   1.527   0.299  0.00  0.00     0.020 A 
ATOM     11  C   UNL d   1      -0.004  -0.738   0.300  0.00  0.00     0.004 A 
ATOM     12  C   UNL d   1      -2.233   1.005   0.299  0.00  0.00     0.001 A 
ATOM     13  C   UNL d   1      -2.435  -0.364   0.340  0.00  0.00     0.001 A 
ATOM     14  C   UNL d   1      -1.339  -1.233   0.343  0.00  0.00     0.014 A 
ATOM     15  C   UNL d   1       1.271  -1.432   0.160  0.00  0.00     0.068 C 
ATOM     16 CL   UNL d   1       1.190  -3.133  -0.092  0.00  0.00    -0.082 Cl
ENDBRANCH   5   7
BRANCH   4  17
ATOM     17  C   UNL d   1       4.374  -2.946   0.698  0.00  0.00     0.166 C 
BRANCH  17  18
ATOM     18  C   UNL d   1       4.131  -3.213   2.159  0.00  0.00    -0.040 A 
ATOM     19  C   UNL d   1       4.036  -2.225   3.143  0.00  0.00     0.009 A 
ATOM     20  C   UNL d   1       3.874  -2.579   4.489  0.00  0.00     0.001 A 
ATOM     21  C   UNL d   1       3.778  -3.917   4.861  0.00  0.00     0.000 A 
ATOM     22  C   UNL d   1       3.832  -4.913   3.891  0.00  0.00     0.001 A 
ATOM     23  C   UNL d   1       4.005  -4.559   2.553  0.00  0.00     0.009 A 
ENDBRANCH  17  18
ENDBRANCH   4  17
ENDBRANCH   1   4
BRANCH   1  24
ATOM     24  C   UNL d   1       6.749  -0.153   0.758  0.00  0.00    -0.019 A 
ATOM     25  C   UNL d   1       7.131   1.027   0.089  0.00  0.00     0.050 A 
ATOM     26  C   UNL d   1       7.651   2.064   0.833  0.00  0.00     0.105 A 
ATOM     27  O   UNL d   1       8.040   3.272   0.345  0.00  0.00    -0.323 OA
ATOM     28  C   UNL d   1       7.821   1.968   2.192  0.00  0.00     0.105 A 
ATOM     29  C   UNL d   1       8.337   3.969   1.572  0.00  0.00     0.352 C 
ATOM     30  O   UNL d   1       8.328   3.109   2.731  0.00  0.00    -0.323 OA
ATOM     31  C   UNL d   1       7.492   0.823   2.883  0.00  0.00     0.040 A 
ATOM     32  C   UNL d   1       6.950  -0.245   2.158  0.00  0.00     0.013 A 
ENDBRANCH   1  24
TORSDOF 5
