REMARK  5 active torsions:
REMARK  status: ('A' for Active; 'I' for Inactive)
REMARK    1  A    between atoms: N_5  and  C_1 
REMARK    2  A    between atoms: C_8  and  N_2 
REMARK    3  A    between atoms: N_7  and  N_5 
REMARK       I    between atoms: C_6  and  N_7 
REMARK    4  A    between atoms: C_10  and  C_6 
REMARK    5  A    between atoms: C_13  and  C_8 
ROOT
ATOM      1  C   UNL d   1      -0.261  -1.205  -0.105  0.00  0.00     0.691 C 
ATOM      2  N   UNL d   1       0.983  -0.667  -0.240  0.00  0.00    -0.211 N 
ATOM      3  N   UNL d   1      -1.254  -0.345  -0.024  0.00  0.00    -0.223 N 
ATOM      4  HN  UNL d   1      -2.249  -0.548   0.079  1.00  0.00     0.177 HD
ATOM      5  C   UNL d   1      -0.603   0.989  -0.115  0.00  0.00     0.158 C 
ATOM      6  C   UNL d   1       0.901   0.752   0.015  0.00  0.00     0.161 C 
ENDROOT
BRANCH   1   7
ATOM      7  N   UNL d   1      -0.556  -2.536  -0.093  0.00  0.00    -0.130 N 
ATOM      8  H   UNL d   1      -1.525  -2.660   0.193  0.00  0.00     0.205 HD
BRANCH   7   9
ATOM      9  N   UNL d   1       0.316  -3.495   0.427  0.00  0.00    -0.251 N 
ATOM     10  C   UNL d   1       0.910  -3.339   1.669  0.00  0.00     0.270 C 
ATOM     11  O   UNL d   1       0.762  -2.374   2.410  0.00  0.00    -0.266 OA
ATOM     12  H   UNL d   1       0.254  -4.400  -0.023  0.00  0.00     0.191 HD
BRANCH  10  13
ATOM     13  C   UNL d   1       1.825  -4.447   2.083  0.00  0.00     0.033 A 
ATOM     14  C   UNL d   1       2.339  -5.388   1.177  0.00  0.00     0.017 A 
ATOM     15  C   UNL d   1       3.198  -6.397   1.623  0.00  0.00     0.001 A 
ATOM     16  C   UNL d   1       3.563  -6.461   2.965  0.00  0.00     0.000 A 
ATOM     17  C   UNL d   1       3.082  -5.512   3.865  0.00  0.00     0.001 A 
ATOM     18  C   UNL d   1       2.219  -4.507   3.426  0.00  0.00     0.017 A 
ENDBRANCH  10  13
ENDBRANCH   7   9
ENDBRANCH   1   7
BRANCH   2  19
ATOM     19  C   UNL d   1       2.279  -1.263  -0.437  0.00  0.00     0.179 C 
BRANCH  19  20
ATOM     20  C   UNL d   1       2.729  -1.222  -1.884  0.00  0.00    -0.040 A 
ATOM     21  C   UNL d   1       4.101  -1.192  -2.175  0.00  0.00     0.009 A 
ATOM     22  C   UNL d   1       4.551  -1.230  -3.496  0.00  0.00     0.001 A 
ATOM     23  C   UNL d   1       3.634  -1.302  -4.542  0.00  0.00     0.000 A 
ATOM     24  C   UNL d   1       2.268  -1.343  -4.269  0.00  0.00     0.001 A 
ATOM     25  C   UNL d   1       1.821  -1.312  -2.952  0.00  0.00     0.009 A 
ENDBRANCH  19  20
ENDBRANCH   2  19
TORSDOF 5
