REMARK  5 active torsions:
REMARK  status: ('A' for Active; 'I' for Inactive)
REMARK    1  A    between atoms: O_8  and  C_2 
REMARK    2  A    between atoms: C_13  and  O_8 
REMARK    3  A    between atoms: C_10  and  C_13 
REMARK    4  A    between atoms: O_14  and  C_10 
REMARK    5  A    between atoms: C_17  and  O_14 
ROOT
ATOM      1  C   UNL d   1       0.833   0.330  -0.050  0.00  0.00     0.101 A 
ATOM      2  C   UNL d   1      -0.012   1.437  -0.072  0.00  0.00     0.164 A 
ATOM      3  N   UNL d   1      -1.364   1.367  -0.054  0.00  0.00    -0.340 N 
ATOM      4  HN  UNL d   1      -1.942   2.208  -0.068  1.00  0.00     0.167 HD
ATOM      5  C   UNL d   1       0.249  -0.945  -0.016  0.00  0.00    -0.035 A 
ATOM      6  C   UNL d   1       2.252   0.512  -0.059  0.00  0.00     0.104 C 
ATOM      7  N   UNL d   1       3.411   0.608  -0.062  0.00  0.00    -0.191 NA
ATOM      8  C   UNL d   1      -1.917   0.130  -0.017  0.00  0.00     0.008 A 
ATOM      9  C   UNL d   1      -1.149  -1.033  -0.001  0.00  0.00     0.033 A 
ATOM     10  C   UNL d   1       1.050  -2.218  -0.006  0.00  0.00     0.050 C 
ATOM     11  C   UNL d   1      -3.415   0.050   0.004  0.00  0.00     0.068 C 
ENDROOT
BRANCH   2  12
ATOM     12  O   UNL d   1       0.590   2.671  -0.129  0.00  0.00    -0.325 OA
BRANCH  12  13
ATOM     13  C   UNL d   1      -0.294   3.788  -0.121  0.00  0.00     0.288 C 
BRANCH  13  14
ATOM     14  C   UNL d   1       0.583   5.024  -0.047  0.00  0.00     0.283 C 
ATOM     15  O   UNL d   1       1.806   5.028  -0.017  0.00  0.00    -0.263 OA
BRANCH  14  16
ATOM     16  O   UNL d   1      -0.197   6.140   0.069  0.00  0.00    -0.320 OA
BRANCH  16  17
ATOM     17  C   UNL d   1       0.493   7.298   0.565  0.00  0.00     0.174 C 
ATOM     18  C   UNL d   1       0.405   7.274   2.080  0.00  0.00     0.034 C 
ENDBRANCH  16  17
ENDBRANCH  14  16
ENDBRANCH  13  14
ENDBRANCH  12  13
ENDBRANCH   2  12
TORSDOF 5
