REMARK  7 active torsions:
REMARK  status: ('A' for Active; 'I' for Inactive)
REMARK    1  A    between atoms: C_2  and  C_1 
REMARK       I    between atoms: N_7  and  C_2 
REMARK    2  A    between atoms: C_17  and  C_5 
REMARK    3  A    between atoms: C_6  and  N_7 
REMARK    4  A    between atoms: N_11  and  C_10 
REMARK    5  A    between atoms: C_12  and  C_13 
REMARK    6  A    between atoms: O_21  and  C_12 
REMARK    7  A    between atoms: C_29  and  O_21 
ROOT
ATOM      1  C   UNL d   1      -1.795  -3.734  -0.269  0.00  0.00     0.057 A 
ATOM      2  C   UNL d   1      -2.144  -2.807  -1.282  0.00  0.00     0.037 A 
ATOM      3  C   UNL d   1      -4.061  -4.573  -0.164  0.00  0.00     0.041 A 
ATOM      4  C   UNL d   1      -2.732  -4.617   0.271  0.00  0.00     0.049 A 
ATOM      5  C   UNL d   1      -3.471  -2.814  -1.738  0.00  0.00     0.027 A 
ATOM      6  C   UNL d   1      -4.423  -3.683  -1.183  0.00  0.00     0.019 A 
ENDROOT
BRANCH   1   7
ATOM      7  N   UNL d   1      -0.503  -3.638   0.289  0.00  0.00    -0.321 N 
ATOM      8  C   UNL d   1       0.290  -4.712   0.641  0.00  0.00     0.261 C 
ATOM      9  O   UNL d   1       0.067  -5.875   0.324  0.00  0.00    -0.267 OA
ATOM     10  H   UNL d   1      -0.042  -2.750   0.116  0.00  0.00     0.169 HD
BRANCH   8  11
ATOM     11  C   UNL d   1       1.468  -4.329   1.392  0.00  0.00     0.093 A 
ATOM     12  C   UNL d   1       2.828  -4.772   1.319  0.00  0.00     0.083 A 
ATOM     13  N   UNL d   1       3.554  -4.154   2.272  0.00  0.00    -0.259 N 
ATOM     14  O   UNL d   1       2.693  -3.362   2.987  0.00  0.00    -0.241 OA
ATOM     15  HN  UNL d   1       4.556  -4.257   2.432  1.00  0.00     0.195 HD
ATOM     16  C   UNL d   1       1.447  -3.479   2.477  0.00  0.00     0.090 A 
ATOM     17  C   UNL d   1       0.386  -2.751   3.206  0.00  0.00     0.080 C 
BRANCH  12  18
ATOM     18  C   UNL d   1       3.513  -5.697   0.407  0.00  0.00    -0.006 A 
ATOM     19  C   UNL d   1       4.602  -6.452   0.882  0.00  0.00     0.014 A 
ATOM     20  C   UNL d   1       5.343  -7.273   0.028  0.00  0.00     0.001 A 
ATOM     21  C   UNL d   1       5.007  -7.349  -1.319  0.00  0.00     0.000 A 
ATOM     22  C   UNL d   1       3.924  -6.617  -1.806  0.00  0.00     0.001 A 
ATOM     23  C   UNL d   1       3.176  -5.797  -0.948  0.00  0.00     0.014 A 
ENDBRANCH  12  18
ENDBRANCH   8  11
ENDBRANCH   1   7
BRANCH   2  24
ATOM     24  N   UNL d   1      -1.161  -1.947  -1.784  0.00  0.00    -0.278 NA
ATOM     25  C   UNL d   1      -1.555  -0.665  -2.402  0.00  0.00     0.122 C 
ATOM     26  C   UNL d   1      -0.297   0.220  -2.510  0.00  0.00     0.182 C 
ATOM     27  O   UNL d   1       0.755  -0.426  -3.253  0.00  0.00    -0.389 OA
ATOM     28  C   UNL d   1       1.099  -1.692  -2.664  0.00  0.00     0.182 C 
ATOM     29  C   UNL d   1      -0.124  -2.621  -2.610  0.00  0.00     0.122 C 
ENDBRANCH   2  24
BRANCH   3  30
ATOM     30  C   UNL d   1      -5.037  -5.461   0.521  0.00  0.00     0.293 C 
ATOM     31  O   UNL d   1      -4.734  -6.193   1.450  0.00  0.00    -0.259 OA
BRANCH  30  32
ATOM     32  O   UNL d   1      -6.272  -5.345  -0.029  0.00  0.00    -0.318 OA
BRANCH  32  33
ATOM     33  C   UNL d   1      -7.252  -6.261   0.485  0.00  0.00     0.174 C 
ATOM     34  C   UNL d   1      -7.221  -7.532  -0.343  0.00  0.00     0.034 C 
ENDBRANCH  32  33
ENDBRANCH  30  32
ENDBRANCH   3  30
TORSDOF 7
