REMARK  9 active torsions:
REMARK  status: ('A' for Active; 'I' for Inactive)
REMARK    1  A    between atoms: C_9  and  C_5 
REMARK    2  A    between atoms: N_7  and  C_10 
REMARK    3  A    between atoms: N_8  and  C_15 
REMARK       I    between atoms: N_21  and  C_9 
REMARK    4  A    between atoms: C_28  and  N_21 
REMARK    5  A    between atoms: C_29  and  N_21 
REMARK    6  A    between atoms: C_31  and  C_28 
REMARK    7  A    between atoms: C_30  and  C_29 
REMARK    8  A    between atoms: C_32  and  C_30 
REMARK    9  A    between atoms: C_33  and  C_31 
ROOT
ATOM      1  C   UNL d   1      -2.163   1.999   0.906  0.00  0.00     0.002 C 
ATOM      2  C   UNL d   1      -0.599   2.689   2.544  0.00  0.00     0.018 C 
ATOM      3  C   UNL d   1      -0.764   2.055   1.182  0.00  0.00    -0.008 C 
ATOM      4  C   UNL d   1      -1.962   3.143   2.979  0.00  0.00    -0.009 C 
ATOM      5  C   UNL d   1      -2.628   1.219  -0.176  0.00  0.00     0.046 C 
ATOM      6  C   UNL d   1      -2.842   2.832   1.913  0.00  0.00    -0.013 C 
ATOM      7  C   UNL d   1      -0.319   1.057  -0.947  0.00  0.00     0.104 C 
ATOM      8  C   UNL d   1       0.560   2.844   3.239  0.00  0.00     0.136 C 
ATOM      9  C   UNL d   1       0.160   1.614   0.243  0.00  0.00     0.049 C 
ATOM     10  C   UNL d   1      -1.692   0.853  -1.151  0.00  0.00     0.054 C 
ATOM     11  C   UNL d   1      -2.424   3.807   4.114  0.00  0.00     0.049 C 
ATOM     12  C   UNL d   1      -3.734   4.306   4.109  0.00  0.00     0.103 C 
ATOM     13  C   UNL d   1       1.808   2.341   2.780  0.00  0.00     0.111 C 
ATOM     14  C   UNL d   1       0.641   3.526   4.489  0.00  0.00     0.111 C 
ATOM     15  N   UNL d   1       2.835   1.927   2.414  0.00  0.00    -0.191 NA
ATOM     16  N   UNL d   1       0.731   4.088   5.501  0.00  0.00    -0.191 NA
ATOM     17  C   UNL d   1      -4.079   3.469   1.866  0.00  0.00     0.015 C 
ATOM     18  C   UNL d   1      -4.531   4.210   2.963  0.00  0.00     0.037 C 
ENDROOT
BRANCH   5  19
ATOM     19  C   UNL d   1      -4.049   0.762  -0.359  0.00  0.00     0.254 C 
ATOM     20  N   UNL d   1      -4.362  -0.510  -0.903  0.00  0.00    -0.348 N 
ATOM     21  O   UNL d   1      -4.944   1.540  -0.041  0.00  0.00    -0.267 OA
BRANCH  20  22
ATOM     22  C   UNL d   1      -5.793  -0.813  -1.103  0.00  0.00     0.126 C 
BRANCH  22  23
ATOM     23  C   UNL d   1      -6.549   0.102  -2.083  0.00  0.00     0.020 C 
BRANCH  23  24
ATOM     24  C   UNL d   1      -5.971   0.118  -3.500  0.00  0.00    -0.003 C 
ATOM     25  C   UNL d   1      -6.788   1.028  -4.410  0.00  0.00     0.005 C 
ENDBRANCH  23  24
ENDBRANCH  22  23
ENDBRANCH  20  22
BRANCH  20  26
ATOM     26  C   UNL d   1      -3.472  -1.690  -0.916  0.00  0.00     0.126 C 
BRANCH  26  27
ATOM     27  C   UNL d   1      -3.225  -2.329   0.456  0.00  0.00     0.020 C 
BRANCH  27  28
ATOM     28  C   UNL d   1      -2.350  -3.582   0.298  0.00  0.00    -0.003 C 
ATOM     29  C   UNL d   1      -2.001  -4.234   1.626  0.00  0.00     0.005 C 
ENDBRANCH  27  28
ENDBRANCH  26  27
ENDBRANCH  20  26
ENDBRANCH   5  19
BRANCH   7  30
ATOM     30  N   UNL d   1       0.629   0.648  -1.993  0.00  0.00    -0.116 N 
ATOM     31  O   UNL d   1       1.820   0.944  -1.836  0.00  0.00    -0.532 OA
ATOM     32  O   UNL d   1       0.175   0.032  -2.966  0.00  0.00    -0.532 OA
ENDBRANCH   7  30
BRANCH  12  33
ATOM     33  N   UNL d   1      -4.277   4.940   5.318  0.00  0.00    -0.116 N 
ATOM     34  O   UNL d   1      -3.623   4.830   6.364  0.00  0.00    -0.532 OA
ATOM     35  O   UNL d   1      -5.366   5.524   5.225  0.00  0.00    -0.532 OA
ENDBRANCH  12  33
TORSDOF 9
