REMARK  2 active torsions:
REMARK  status: ('A' for Active; 'I' for Inactive)
REMARK    1  A    between atoms: C_12  and  N_2 
REMARK    2  A    between atoms: C_6  and  C_7 
ROOT
ATOM      1  C   UNL d   1      -2.422   0.024   0.067  0.00  0.00     0.179 A 
ATOM      2  N   UNL d   1      -1.603  -1.136   0.002  0.00  0.00    -0.318 N 
ATOM      3  N   UNL d   1      -1.565   1.133   0.086  0.00  0.00    -0.331 N 
ATOM      4  C   UNL d   1      -0.252   0.690   0.041  0.00  0.00     0.062 A 
ATOM      5  C   UNL d   1      -0.254  -0.705  -0.008  0.00  0.00     0.064 A 
ATOM      6  C   UNL d   1       2.122   0.763  -0.002  0.00  0.00     0.050 A 
ATOM      7  C   UNL d   1       0.899   1.449   0.042  0.00  0.00     0.048 A 
ATOM      8  S   UNL d   1      -4.072   0.168   0.117  0.00  0.00    -0.040 SA
ATOM      9  C   UNL d   1       0.936  -1.399  -0.052  0.00  0.00     0.033 A 
ATOM     10  C   UNL d   1       2.128  -0.656  -0.047  0.00  0.00     0.018 A 
ATOM     11  H   UNL d   1      -1.878   2.092   0.130  0.00  0.00     0.168 HD
ENDROOT
BRANCH   6  12
ATOM     12  C   UNL d   1       3.430   1.520   0.006  0.00  0.00     0.417 C 
ATOM     13  F   UNL d   1       3.276   2.873   0.019  0.00  0.00    -0.166 F 
ATOM     14  F   UNL d   1       4.195   1.221   1.092  0.00  0.00    -0.166 F 
ATOM     15  F   UNL d   1       4.199   1.242  -1.082  0.00  0.00    -0.166 F 
ENDBRANCH   6  12
BRANCH   2  16
ATOM     16  C   UNL d   1      -2.067  -2.521  -0.067  0.00  0.00     0.084 C 
ATOM     17  C   UNL d   1      -1.700  -3.201  -1.387  0.00  0.00     0.032 C 
ATOM     18  C   UNL d   1      -1.654  -3.350   1.148  0.00  0.00     0.032 C 
ENDBRANCH   2  16
TORSDOF 2
