REMARK  4 active torsions:
REMARK  status: ('A' for Active; 'I' for Inactive)
REMARK       I    between atoms: N_2  and  C_1 
REMARK       I    between atoms: N_4  and  C_1 
REMARK    1  A    between atoms: C_6  and  C_3 
REMARK    2  A    between atoms: C_8  and  N_4 
REMARK    3  A    between atoms: C_7  and  C_6 
REMARK       I    between atoms: N_12  and  C_7 
REMARK    4  A    between atoms: C_18  and  N_12 
ROOT
ATOM      1  C   UNL d   1       0.906   0.229   0.107  0.00  0.00     0.323 C 
ATOM      2  N   UNL d   1       0.535  -1.076  -0.192  0.00  0.00    -0.318 N 
ATOM      3  C   UNL d   1       1.095  -2.233   0.577  0.00  0.00     0.189 C 
ATOM      4  N   UNL d   1       0.381   1.208  -0.714  0.00  0.00    -0.306 N 
ATOM      5  C   UNL d   1       1.168  -3.523  -0.289  0.00  0.00     0.241 C 
ATOM      6  N   UNL d   1       0.190  -3.699  -1.237  0.00  0.00    -0.358 N 
ATOM      7  O   UNL d   1       1.704   0.485   1.000  0.00  0.00    -0.247 OA
ATOM      8  O   UNL d   1       1.929  -4.459  -0.055  0.00  0.00    -0.271 OA
ATOM      9  C   UNL d   1      -0.718  -1.421  -0.887  0.00  0.00     0.148 C 
ATOM     10  C   UNL d   1      -0.528  -2.601  -1.834  0.00  0.00     0.142 C 
ATOM     11  H   UNL d   1      -0.575   1.087  -1.002  0.00  0.00     0.171 HD
ATOM     12  H   UNL d   1       0.298  -4.559  -1.763  0.00  0.00     0.162 HD
ENDROOT
BRANCH   3  13
ATOM     13  C   UNL d   1       2.372  -2.096   1.422  0.00  0.00     0.138 C 
BRANCH  13  14
ATOM     14  C   UNL d   1       3.731  -1.995   0.746  0.00  0.00     0.224 C 
ATOM     15  N   UNL d   1       3.769  -1.362  -0.477  0.00  0.00    -0.327 N 
ATOM     16  H   UNL d   1       2.934  -0.865  -0.757  0.00  0.00     0.169 HD
ATOM     17  O   UNL d   1       4.716  -2.425   1.350  0.00  0.00    -0.273 OA
BRANCH  15  18
ATOM     18  C   UNL d   1       4.896  -1.193  -1.314  0.00  0.00     0.034 A 
ATOM     19  C   UNL d   1       6.162  -1.724  -1.039  0.00  0.00     0.032 A 
ATOM     20  C   UNL d   1       7.228  -1.530  -1.922  0.00  0.00     0.044 A 
ATOM     21  C   UNL d   1       7.028  -0.811  -3.091  0.00  0.00     0.116 A 
ATOM     22  C   UNL d   1       5.783  -0.275  -3.388  0.00  0.00     0.044 A 
ATOM     23  F   UNL d   1       8.047  -0.633  -3.942  0.00  0.00    -0.206 F 
ATOM     24  C   UNL d   1       4.719  -0.461  -2.498  0.00  0.00     0.032 A 
ENDBRANCH  15  18
ENDBRANCH  13  14
ENDBRANCH   3  13
BRANCH   4  25
ATOM     25  C   UNL d   1       0.834   2.553  -0.732  0.00  0.00     0.075 A 
ATOM     26  C   UNL d   1       2.156   2.945  -0.452  0.00  0.00     0.146 A 
ATOM     27  C   UNL d   1       2.516   4.289  -0.415  0.00  0.00     0.086 A 
ATOM     28  F   UNL d   1       3.130   2.038  -0.300  0.00  0.00    -0.204 F 
ATOM     29  C   UNL d   1       1.559   5.250  -0.698  0.00  0.00     0.119 A 
ATOM     30  C   UNL d   1       0.261   4.890  -1.044  0.00  0.00     0.044 A 
ATOM     31  F   UNL d   1       1.891   6.547  -0.656  0.00  0.00    -0.206 F 
ATOM     32  C   UNL d   1      -0.101   3.540  -1.070  0.00  0.00     0.036 A 
ENDBRANCH   4  25
TORSDOF 4
