REMARK  10 active torsions:
REMARK  status: ('A' for Active; 'I' for Inactive)
REMARK    1  A    between atoms: N_3  and  C_1 
REMARK    2  A    between atoms: S_2  and  C_10 
REMARK    3  A    between atoms: N_11  and  S_2 
REMARK       I    between atoms: C_6  and  N_3 
REMARK    4  A    between atoms: C_8  and  N_3 
REMARK    5  A    between atoms: C_15  and  C_6 
REMARK    6  A    between atoms: C_28  and  N_11 
REMARK    7  A    between atoms: C_29  and  N_11 
REMARK    8  A    between atoms: S_23  and  C_22 
REMARK    9  A    between atoms: C_32  and  C_28 
REMARK   10  A    between atoms: C_33  and  C_29 
ROOT
ATOM      1  N   UNL d   1      -1.340  -1.811   1.900  0.00  0.00    -0.282 N 
ATOM      2  C   UNL d   1      -0.221  -2.589   2.249  0.00  0.00     0.260 C 
ATOM      3  O   UNL d   1       0.826  -2.607   1.601  0.00  0.00    -0.267 OA
ENDROOT
BRANCH   1   4
ATOM      4  C   UNL d   1      -1.345  -1.053   0.641  0.00  0.00     0.276 A 
ATOM      5  O   UNL d   1      -1.729  -1.919  -0.443  0.00  0.00    -0.286 OA
ATOM      6  C   UNL d   1      -0.832  -1.853  -1.468  0.00  0.00     0.296 A 
ATOM      7  O   UNL d   1      -0.932  -2.424  -2.541  0.00  0.00    -0.259 OA
ATOM      8  C   UNL d   1       0.230  -0.958  -1.057  0.00  0.00     0.050 A 
ATOM      9  C   UNL d   1      -0.067  -0.448   0.191  0.00  0.00     0.007 A 
ATOM     10  C   UNL d   1       1.403  -0.652  -1.728  0.00  0.00     0.018 A 
ATOM     11  C   UNL d   1       0.809   0.419   0.825  0.00  0.00     0.012 A 
ATOM     12  C   UNL d   1       2.013   0.725   0.181  0.00  0.00     0.001 A 
ATOM     13  C   UNL d   1       2.311   0.190  -1.085  0.00  0.00     0.001 A 
ENDBRANCH   1   4
BRANCH   1  14
ATOM     14  C   UNL d   1      -2.579  -1.809   2.606  0.00  0.00     0.041 A 
ATOM     15  C   UNL d   1      -2.634  -1.465   3.964  0.00  0.00     0.048 A 
ATOM     16  C   UNL d   1      -3.854  -1.467   4.651  0.00  0.00     0.002 A 
ATOM     17  C   UNL d   1      -5.024  -1.805   3.960  0.00  0.00     0.018 A 
ATOM     18  C   UNL d   1      -4.981  -2.157   2.610  0.00  0.00     0.004 A 
ATOM     19  C   UNL d   1      -3.764  -2.153   1.936  0.00  0.00     0.030 A 
BRANCH  16  20
ATOM     20  S   UNL d   1      -4.029  -0.970   6.359  0.00  0.00    -0.134 SA
ATOM     21  C   UNL d   1      -2.484  -1.552   7.114  0.00  0.00     0.095 C 
ENDBRANCH  16  20
ENDBRANCH   1  14
BRANCH   2  22
ATOM     22  C   UNL d   1      -0.215  -3.458   3.457  0.00  0.00     0.032 A 
ATOM     23  C   UNL d   1      -1.299  -4.255   3.824  0.00  0.00     0.018 A 
ATOM     24  C   UNL d   1      -1.259  -5.006   4.998  0.00  0.00     0.026 A 
ATOM     25  C   UNL d   1      -0.091  -5.034   5.765  0.00  0.00     0.074 A 
ATOM     26  C   UNL d   1       1.015  -4.269   5.389  0.00  0.00     0.026 A 
ATOM     27  C   UNL d   1       0.960  -3.493   4.229  0.00  0.00     0.018 A 
BRANCH  25  28
ATOM     28  S   UNL d   1      -0.066  -6.014   7.257  0.00  0.00     0.243 S 
ATOM     29  O   UNL d   1       0.446  -5.152   8.306  0.00  0.00    -0.206 OA
ATOM     30  O   UNL d   1      -1.371  -6.614   7.378  0.00  0.00    -0.206 OA
BRANCH  28  31
ATOM     31  N   UNL d   1       1.128  -7.233   6.894  0.00  0.00    -0.206 NA
BRANCH  31  32
ATOM     32  C   UNL d   1       2.494  -6.808   7.389  0.00  0.00     0.107 C 
BRANCH  32  33
ATOM     33  C   UNL d   1       3.664  -7.707   6.999  0.00  0.00     0.011 C 
ATOM     34  C   UNL d   1       3.869  -7.838   5.500  0.00  0.00     0.006 C 
ENDBRANCH  32  33
ENDBRANCH  31  32
BRANCH  31  35
ATOM     35  C   UNL d   1       0.781  -8.631   7.311  0.00  0.00     0.107 C 
BRANCH  35  36
ATOM     36  C   UNL d   1      -0.409  -9.270   6.591  0.00  0.00     0.011 C 
ATOM     37  C   UNL d   1      -0.286  -9.297   5.077  0.00  0.00     0.006 C 
ENDBRANCH  35  36
ENDBRANCH  31  35
ENDBRANCH  28  31
ENDBRANCH  25  28
ENDBRANCH   2  22
TORSDOF 10
