REMARK  7 active torsions:
REMARK  status: ('A' for Active; 'I' for Inactive)
REMARK    1  A    between atoms: C_6  and  C_1 
REMARK    2  A    between atoms: C_10  and  C_4 
REMARK    3  A    between atoms: C_5  and  C_15 
REMARK    4  A    between atoms: N_7  and  N_11 
REMARK    5  A    between atoms: N_11  and  C_9 
REMARK    6  A    between atoms: O_18  and  C_10 
REMARK    7  A    between atoms: C_17  and  C_16 
ROOT
ATOM      1  N   UNL d   1      -0.232   5.956   3.783  0.00  0.00    -0.309 N 
ATOM      2  HN  UNL d   1      -0.832   6.775   3.879  1.00  0.00     0.186 HD
ATOM      3  C   UNL d   1       0.209   5.323   4.820  0.00  0.00     0.118 C 
ENDROOT
BRANCH   1   4
ATOM      4  N   UNL d   1       0.130   5.492   2.571  0.00  0.00    -0.286 N 
ATOM      5  H   UNL d   1       0.641   4.634   2.398  0.00  0.00     0.188 HD
BRANCH   4   6
ATOM      6  C   UNL d   1      -0.304   6.156   1.415  0.00  0.00     0.120 A 
ATOM      7  N   UNL d   1       0.093   5.668   0.220  0.00  0.00    -0.338 N 
ATOM      8  C   UNL d   1      -0.330   6.299  -0.920  0.00  0.00     0.118 A 
ATOM      9  HN  UNL d   1       0.695   4.846   0.167  1.00  0.00     0.167 HD
ATOM     10  C   UNL d   1      -1.155   7.425  -0.884  0.00  0.00     0.034 A 
ATOM     11  C   UNL d   1      -1.555   7.920   0.347  0.00  0.00     0.006 A 
ATOM     12  C   UNL d   1      -1.121   7.283   1.502  0.00  0.00     0.050 A 
BRANCH   8  13
ATOM     13  C   UNL d   1       0.087   5.747  -2.278  0.00  0.00     0.432 C 
ATOM     14  F   UNL d   1       0.861   4.627  -2.212  0.00  0.00    -0.165 F 
ATOM     15  F   UNL d   1       0.799   6.646  -3.022  0.00  0.00    -0.165 F 
ATOM     16  F   UNL d   1      -0.986   5.410  -3.054  0.00  0.00    -0.165 F 
ENDBRANCH   8  13
ENDBRANCH   4   6
ENDBRANCH   1   4
BRANCH   3  17
ATOM     17  C   UNL d   1      -0.142   5.808   6.171  0.00  0.00    -0.019 A 
ATOM     18  C   UNL d   1      -0.917   6.965   6.319  0.00  0.00     0.014 A 
ATOM     19  C   UNL d   1      -1.301   7.391   7.590  0.00  0.00     0.021 A 
ATOM     20  C   UNL d   1      -0.898   6.671   8.718  0.00  0.00     0.017 A 
ATOM     21  C   UNL d   1      -0.106   5.527   8.569  0.00  0.00     0.021 A 
ATOM     22  C   UNL d   1       0.273   5.092   7.295  0.00  0.00     0.014 A 
BRANCH  20  23
ATOM     23  C   UNL d   1      -1.304   7.090  10.022  0.00  0.00    -0.064 C 
ATOM     24  C   UNL d   1      -1.644   7.433  11.126  0.00  0.00    -0.064 C 
BRANCH  24  25
ATOM     25  C   UNL d   1      -2.054   7.850  12.477  0.00  0.00     0.114 C 
ATOM     26  C   UNL d   1      -2.116   6.650  13.421  0.00  0.00     0.060 C 
ATOM     27  C   UNL d   1      -3.401   8.567  12.432  0.00  0.00     0.060 C 
BRANCH  25  28
ATOM     28  O   UNL d   1      -1.091   8.770  12.990  0.00  0.00    -0.378 OA
ATOM     29  H   UNL d   1      -0.224   8.334  12.934  0.00  0.00     0.211 HD
ENDBRANCH  25  28
ENDBRANCH  24  25
ENDBRANCH  20  23
ENDBRANCH   3  17
TORSDOF 7
