REMARK  1 active torsions:
REMARK  status: ('A' for Active; 'I' for Inactive)
REMARK    1  A    between atoms: C_7  and  N_1 
ROOT
ATOM      1  N   UNL d   1      -0.621  -1.204  -0.102  0.00  0.00    -0.273 N 
ATOM      2  C   UNL d   1      -1.404  -0.039  -0.105  0.00  0.00     0.334 A 
ATOM      3  N   UNL d   1      -0.699   1.138  -0.029  0.00  0.00    -0.274 N 
ATOM      4  C   UNL d   1       1.439   0.026  -0.073  0.00  0.00     0.128 A 
ATOM      5  C   UNL d   1       0.766  -1.133  -0.088  0.00  0.00     0.130 A 
ATOM      6  C   UNL d   1       0.660   1.280  -0.050  0.00  0.00     0.271 A 
ATOM      7  C   UNL d   1       2.855   0.075  -0.101  0.00  0.00     0.106 C 
ATOM      8  N   UNL d   1       4.015   0.053  -0.132  0.00  0.00    -0.191 NA
ATOM      9  O   UNL d   1      -2.631   0.007  -0.149  0.00  0.00    -0.246 OA
ATOM     10  O   UNL d   1       1.188   2.386  -0.059  0.00  0.00    -0.266 OA
ATOM     11  H   UNL d   1      -1.252   1.982  -0.016  0.00  0.00     0.173 HD
ENDROOT
BRANCH   1  12
ATOM     12  C   UNL d   1      -1.291  -2.466  -0.176  0.00  0.00     0.049 A 
ATOM     13  C   UNL d   1      -1.134  -3.463   0.808  0.00  0.00    -0.035 A 
ATOM     14  C   UNL d   1      -0.351  -3.280   2.079  0.00  0.00     0.050 C 
ATOM     15  C   UNL d   1      -1.820  -4.683   0.650  0.00  0.00     0.009 A 
ATOM     16  C   UNL d   1      -2.654  -4.907  -0.445  0.00  0.00     0.001 A 
ATOM     17  C   UNL d   1      -2.813  -3.918  -1.408  0.00  0.00     0.002 A 
ATOM     18  C   UNL d   1      -2.138  -2.705  -1.273  0.00  0.00     0.031 A 
ENDBRANCH   1  12
TORSDOF 1
