REMARK  1 active torsions:
REMARK  status: ('A' for Active; 'I' for Inactive)
REMARK    1  A    between atoms: C_6  and  C_1 
ROOT
ATOM      1  C   UNL d   1       0.607  -0.878  -0.013  0.00  0.00     0.111 A 
ATOM      2  N   UNL d   1      -0.726  -1.186  -0.093  0.00  0.00    -0.335 N 
ATOM      3  HN  UNL d   1      -1.164  -2.101  -0.197  1.00  0.00     0.168 HD
ATOM      4  C   UNL d   1       0.786   0.594   0.107  0.00  0.00     0.316 A 
ATOM      5  O   UNL d   1      -0.495   1.058   0.109  0.00  0.00    -0.261 OA
ATOM      6  C   UNL d   1      -1.290  -0.027  -0.003  0.00  0.00     0.124 A 
ATOM      7  O   UNL d   1       1.808   1.245   0.185  0.00  0.00    -0.257 OA
ATOM      8  C   UNL d   1      -2.750   0.228  -0.017  0.00  0.00     0.098 C 
ENDROOT
BRANCH   1   9
ATOM      9  C   UNL d   1       1.655  -1.712   0.010  0.00  0.00     0.054 C 
ATOM     10  C   UNL d   1       1.522  -3.129  -0.075  0.00  0.00     0.007 A 
ATOM     11  S   UNL d   1       2.695  -4.134   0.693  0.00  0.00    -0.102 SA
ATOM     12  C   UNL d   1       0.569  -3.910  -0.710  0.00  0.00     0.019 A 
ATOM     13  C   UNL d   1       1.892  -5.567   0.223  0.00  0.00     0.050 A 
ATOM     14  C   UNL d   1       0.776  -5.308  -0.534  0.00  0.00     0.008 A 
ENDBRANCH   1   9
TORSDOF 1
