REMARK  4 active torsions:
REMARK  status: ('A' for Active; 'I' for Inactive)
REMARK    1  A    between atoms: N_2  and  C_1 
REMARK    2  A    between atoms: S_6  and  C_3 
REMARK    3  A    between atoms: C_9  and  C_5 
REMARK    4  A    between atoms: C_13  and  S_6 
ROOT
ATOM      1  C   UNL d   1       1.404  -0.133  -0.112  0.00  0.00     0.120 A 
ATOM      2  C   UNL d   1       0.645  -1.306  -0.036  0.00  0.00     0.038 A 
ATOM      3  C   UNL d   1       0.818   1.142  -0.025  0.00  0.00     0.052 A 
ATOM      4  C   UNL d   1      -0.568   1.268   0.131  0.00  0.00     0.012 A 
ATOM      5  C   UNL d   1      -0.745  -1.162   0.093  0.00  0.00     0.022 A 
ATOM      6  C   UNL d   1      -1.345   0.106   0.182  0.00  0.00     0.016 A 
ENDROOT
BRANCH   2   7
ATOM      7  S   UNL d   1       1.300  -2.964  -0.174  0.00  0.00    -0.088 SA
BRANCH   7   8
ATOM      8  C   UNL d   1       1.443  -3.420   1.548  0.00  0.00     0.005 A 
ATOM      9  C   UNL d   1       0.341  -3.915   2.253  0.00  0.00     0.020 A 
ATOM     10  C   UNL d   1       0.469  -4.274   3.600  0.00  0.00     0.025 A 
ATOM     11  C   UNL d   1       1.701  -4.145   4.240  0.00  0.00     0.034 A 
ATOM     12  C   UNL d   1       2.807  -3.672   3.542  0.00  0.00     0.025 A 
ATOM     13 CL   UNL d   1       1.855  -4.579   5.897  0.00  0.00    -0.084 Cl
ATOM     14  C   UNL d   1       2.679  -3.319   2.194  0.00  0.00     0.020 A 
ENDBRANCH   7   8
ENDBRANCH   2   7
BRANCH   1  15
ATOM     15  N   UNL d   1       2.834  -0.176  -0.324  0.00  0.00    -0.114 N 
ATOM     16  O   UNL d   1       3.535  -0.609   0.598  0.00  0.00    -0.532 OA
ATOM     17  O   UNL d   1       3.253   0.284  -1.395  0.00  0.00    -0.532 OA
ENDBRANCH   1  15
BRANCH   4  18
ATOM     18  C   UNL d   1      -1.131   2.650   0.228  0.00  0.00     0.155 C 
ATOM     19  O   UNL d   1      -0.359   3.607   0.176  0.00  0.00    -0.293 OA
ATOM     20  C   UNL d   1      -2.607   2.881   0.425  0.00  0.00     0.096 C 
ENDBRANCH   4  18
TORSDOF 4
