REMARK  8 active torsions:
REMARK  status: ('A' for Active; 'I' for Inactive)
REMARK       I    between atoms: N_6  and  C_1 
REMARK    1  A    between atoms: C_14  and  C_1 
REMARK    2  A    between atoms: N_2  and  N_6 
REMARK    3  A    between atoms: C_4  and  C_19 
REMARK       I    between atoms: N_5  and  C_4 
REMARK    4  A    between atoms: C_12  and  N_5 
REMARK    5  A    between atoms: S_9  and  C_14 
REMARK    6  A    between atoms: C_19  and  S_9 
REMARK    7  A    between atoms: C_11  and  C_10 
REMARK    8  A    between atoms: O_20  and  C_13 
ROOT
ATOM      1  C   UNL d   1       0.456  -0.533  -0.975  0.00  0.00     0.245 C 
ATOM      2  N   UNL d   1      -0.466  -0.983  -0.024  0.00  0.00    -0.270 N 
ATOM      3  O   UNL d   1       0.158  -0.212  -2.127  0.00  0.00    -0.271 OA
ATOM      4  H   UNL d   1      -0.098  -1.320   0.863  0.00  0.00     0.190 HD
ENDROOT
BRANCH   1   5
ATOM      5  C   UNL d   1       1.885  -0.456  -0.462  0.00  0.00     0.178 C 
BRANCH   5   6
ATOM      6  S   UNL d   1       3.058  -1.343  -1.569  0.00  0.00    -0.150 SA
BRANCH   6   7
ATOM      7  C   UNL d   1       3.029  -0.190  -2.977  0.00  0.00     0.177 C 
BRANCH   7   8
ATOM      8  C   UNL d   1       3.917  -0.549  -4.161  0.00  0.00     0.231 C 
ATOM      9  N   UNL d   1       4.815  -1.580  -3.980  0.00  0.00    -0.327 N 
ATOM     10  H   UNL d   1       4.656  -2.163  -3.163  0.00  0.00     0.169 HD
ATOM     11  O   UNL d   1       3.768   0.086  -5.208  0.00  0.00    -0.272 OA
BRANCH   9  12
ATOM     12  C   UNL d   1       5.631  -2.093  -5.011  0.00  0.00     0.034 A 
ATOM     13  C   UNL d   1       6.069  -1.309  -6.083  0.00  0.00     0.029 A 
ATOM     14  C   UNL d   1       6.756  -1.884  -7.152  0.00  0.00     0.002 A 
ATOM     15  C   UNL d   1       7.020  -3.250  -7.152  0.00  0.00     0.000 A 
ATOM     16  C   UNL d   1       6.640  -4.029  -6.058  0.00  0.00     0.002 A 
ATOM     17  C   UNL d   1       5.969  -3.448  -4.977  0.00  0.00     0.029 A 
ENDBRANCH   9  12
ENDBRANCH   7   8
ENDBRANCH   6   7
ENDBRANCH   5   6
ENDBRANCH   1   5
BRANCH   2  18
ATOM     18  N   UNL d   1      -1.643  -1.612  -0.356  0.00  0.00    -0.308 N 
ATOM     19  C   UNL d   1      -2.292  -1.212  -1.404  0.00  0.00     0.118 C 
ATOM     20  HN  UNL d   1      -1.999  -2.380   0.213  1.00  0.00     0.186 HD
BRANCH  19  21
ATOM     21  C   UNL d   1      -3.380  -2.030  -1.972  0.00  0.00    -0.019 A 
ATOM     22  C   UNL d   1      -3.976  -3.047  -1.224  0.00  0.00     0.015 A 
ATOM     23  C   UNL d   1      -4.877  -3.921  -1.836  0.00  0.00     0.037 A 
ATOM     24  C   UNL d   1      -5.166  -3.790  -3.196  0.00  0.00     0.068 A 
ATOM     25  C   UNL d   1      -4.603  -2.739  -3.925  0.00  0.00     0.037 A 
ATOM     26  C   UNL d   1      -3.708  -1.856  -3.317  0.00  0.00     0.015 A 
BRANCH  24  27
ATOM     27  O   UNL d   1      -5.982  -4.622  -3.913  0.00  0.00    -0.356 OA
ATOM     28  C   UNL d   1      -6.181  -5.920  -3.360  0.00  0.00     0.210 C 
ENDBRANCH  24  27
ENDBRANCH  19  21
ENDBRANCH   2  18
TORSDOF 8
