REMARK  5 active torsions:
REMARK  status: ('A' for Active; 'I' for Inactive)
REMARK    1  A    between atoms: N_2  and  C_1 
REMARK    2  A    between atoms: S_9  and  C_3 
REMARK    3  A    between atoms: N_10  and  N_5 
REMARK       I    between atoms: C_7  and  N_10 
REMARK       I    between atoms: N_18  and  C_7 
REMARK    4  A    between atoms: C_11  and  C_8 
REMARK    5  A    between atoms: C_17  and  S_9 
ROOT
ATOM      1  C   UNL d   1       1.424  -0.231  -0.245  0.00  0.00     0.120 A 
ATOM      2  C   UNL d   1       0.604  -1.343  -0.027  0.00  0.00     0.038 A 
ATOM      3  C   UNL d   1       0.919   1.081  -0.247  0.00  0.00     0.051 A 
ATOM      4  C   UNL d   1      -0.436   1.311   0.020  0.00  0.00    -0.010 A 
ATOM      5  C   UNL d   1      -0.762  -1.098   0.181  0.00  0.00     0.022 A 
ATOM      6  C   UNL d   1      -1.270   0.210   0.242  0.00  0.00     0.015 A 
ENDROOT
BRANCH   4   7
ATOM      7  C   UNL d   1      -0.922   2.719   0.185  0.00  0.00     0.032 C 
ATOM      8  N   UNL d   1      -2.088   3.221  -0.095  0.00  0.00    -0.300 N 
ATOM      9  HN  UNL d   1      -2.291   4.186   0.168  1.00  0.00     0.186 HD
ATOM     10  C   UNL d   1       0.064   3.697   0.802  0.00  0.00     0.070 C 
BRANCH   8  11
ATOM     11  N   UNL d   1      -3.042   2.492  -0.728  0.00  0.00    -0.252 N 
ATOM     12  C   UNL d   1      -4.325   2.964  -0.870  0.00  0.00     0.332 C 
ATOM     13  O   UNL d   1      -5.194   2.365  -1.491  0.00  0.00    -0.246 OA
ATOM     14  N   UNL d   1      -4.558   4.148  -0.246  0.00  0.00    -0.351 N 
ATOM     15  H   UNL d   1      -3.728   4.679  -0.025  0.00  0.00     0.160 HD
ATOM     16  H   UNL d   1      -5.420   4.628  -0.455  0.00  0.00     0.160 HD
ATOM     17  H   UNL d   1      -2.815   1.645  -1.232  0.00  0.00     0.191 HD
ENDBRANCH   8  11
ENDBRANCH   4   7
BRANCH   1  18
ATOM     18  N   UNL d   1       2.852  -0.376  -0.449  0.00  0.00    -0.114 N 
ATOM     19  O   UNL d   1       3.523  -0.799   0.500  0.00  0.00    -0.532 OA
ATOM     20  O   UNL d   1       3.302   0.021  -1.532  0.00  0.00    -0.532 OA
ENDBRANCH   1  18
BRANCH   2  21
ATOM     21  S   UNL d   1       1.155  -3.044  -0.046  0.00  0.00    -0.088 SA
BRANCH  21  22
ATOM     22  C   UNL d   1       1.548  -3.325   1.675  0.00  0.00     0.005 A 
ATOM     23  C   UNL d   1       0.590  -3.165   2.684  0.00  0.00     0.020 A 
ATOM     24  C   UNL d   1       0.920  -3.399   4.023  0.00  0.00     0.025 A 
ATOM     25  C   UNL d   1       2.207  -3.811   4.356  0.00  0.00     0.034 A 
ATOM     26  C   UNL d   1       3.164  -3.998   3.363  0.00  0.00     0.025 A 
ATOM     27 CL   UNL d   1       2.613  -4.093   6.004  0.00  0.00    -0.084 Cl
ATOM     28  C   UNL d   1       2.834  -3.758   2.024  0.00  0.00     0.020 A 
ENDBRANCH  21  22
ENDBRANCH   2  21
TORSDOF 5
