REMARK  5 active torsions:
REMARK  status: ('A' for Active; 'I' for Inactive)
REMARK    1  A    between atoms: C_7  and  N_1 
REMARK    2  A    between atoms: C_14  and  N_2 
REMARK    3  A    between atoms: C_11  and  C_8 
REMARK    4  A    between atoms: C_20  and  C_14 
REMARK    5  A    between atoms: O_28  and  C_23 
ROOT
ATOM      1  N   UNL d   1       0.922  -1.393  -0.004  0.00  0.00    -0.246 N 
ATOM      2  N   UNL d   1       2.118   0.687  -0.030  0.00  0.00    -0.260 N 
ATOM      3  C   UNL d   1       2.152  -0.720   0.047  0.00  0.00     0.338 A 
ATOM      4  C   UNL d   1      -0.254  -0.681  -0.092  0.00  0.00     0.150 A 
ATOM      5  C   UNL d   1      -0.231   0.681  -0.118  0.00  0.00     0.147 A 
ATOM      6  C   UNL d   1       0.954   1.460  -0.098  0.00  0.00     0.282 A 
ATOM      7  N   UNL d   1      -1.537  -1.152  -0.082  0.00  0.00    -0.336 N 
ATOM      8  HN  UNL d   1      -1.842  -2.125  -0.070  1.00  0.00     0.168 HD
ATOM      9  N   UNL d   1      -1.539   1.073  -0.122  0.00  0.00    -0.345 N 
ATOM     10  C   UNL d   1      -2.292  -0.072  -0.092  0.00  0.00     0.182 A 
ATOM     11  O   UNL d   1       3.221  -1.333   0.157  0.00  0.00    -0.246 OA
ATOM     12  O   UNL d   1       0.926   2.685  -0.123  0.00  0.00    -0.265 OA
ATOM     13  H   UNL d   1      -1.878   2.026  -0.113  0.00  0.00     0.167 HD
ENDROOT
BRANCH   1  14
ATOM     14  C   UNL d   1       0.846  -2.806   0.088  0.00  0.00     0.060 A 
ATOM     15  C   UNL d   1       1.321  -3.514   1.209  0.00  0.00     0.075 A 
ATOM     16  C   UNL d   1       1.375  -4.923   1.149  0.00  0.00     0.018 A 
ATOM     17  C   UNL d   1       0.961  -5.614   0.012  0.00  0.00     0.001 A 
ATOM     18  C   UNL d   1       0.456  -4.912  -1.076  0.00  0.00     0.002 A 
ATOM     19  C   UNL d   1       0.388  -3.518  -1.035  0.00  0.00     0.031 A 
BRANCH  15  20
ATOM     20  C   UNL d   1       1.716  -2.860   2.510  0.00  0.00     0.419 C 
ATOM     21  F   UNL d   1       1.543  -1.509   2.575  0.00  0.00    -0.166 F 
ATOM     22  F   UNL d   1       0.993  -3.353   3.560  0.00  0.00    -0.166 F 
ATOM     23  F   UNL d   1       3.019  -3.086   2.839  0.00  0.00    -0.166 F 
ENDBRANCH  15  20
ENDBRANCH   1  14
BRANCH   2  24
ATOM     24  C   UNL d   1       3.393   1.392  -0.000  0.00  0.00     0.175 C 
BRANCH  24  25
ATOM     25  C   UNL d   1       3.966   1.597  -1.387  0.00  0.00    -0.040 A 
ATOM     26  C   UNL d   1       3.636   2.735  -2.136  0.00  0.00     0.011 A 
ATOM     27  C   UNL d   1       4.107   2.894  -3.445  0.00  0.00     0.037 A 
ATOM     28  C   UNL d   1       4.916   1.917  -4.024  0.00  0.00     0.068 A 
ATOM     29  C   UNL d   1       5.277   0.799  -3.271  0.00  0.00     0.037 A 
ATOM     30  C   UNL d   1       4.805   0.635  -1.965  0.00  0.00     0.011 A 
BRANCH  28  31
ATOM     31  O   UNL d   1       5.411   1.935  -5.299  0.00  0.00    -0.356 OA
ATOM     32  C   UNL d   1       4.961   2.985  -6.146  0.00  0.00     0.210 C 
ENDBRANCH  28  31
ENDBRANCH  24  25
ENDBRANCH   2  24
TORSDOF 5
