REMARK  7 active torsions:
REMARK  status: ('A' for Active; 'I' for Inactive)
REMARK    1  A    between atoms: C_4  and  S_1 
REMARK    2  A    between atoms: N_8  and  S_1 
REMARK    3  A    between atoms: C_2  and  C_5 
REMARK    4  A    between atoms: C_3  and  C_6 
REMARK    5  A    between atoms: C_7  and  C_21 
REMARK    6  A    between atoms: N_14  and  N_8 
REMARK    7  A    between atoms: O_29  and  C_10 
ROOT
ATOM      1  S   UNL d   1       1.001   0.029   0.019  0.00  0.00     0.276 S 
ATOM      2  O   UNL d   1       0.295  -0.343  -1.188  0.00  0.00    -0.199 OA
ATOM      3  O   UNL d   1       2.447   0.122   0.056  0.00  0.00    -0.199 OA
ENDROOT
BRANCH   1   4
ATOM      4  C   UNL d   1       0.527  -1.157   1.269  0.00  0.00     0.082 A 
ATOM      5  C   UNL d   1      -0.663  -1.878   1.116  0.00  0.00     0.041 A 
ATOM      6  C   UNL d   1      -0.967  -2.932   1.993  0.00  0.00     0.050 A 
ATOM      7  C   UNL d   1      -0.057  -3.244   3.020  0.00  0.00     0.032 A 
ATOM      8  C   UNL d   1       1.150  -2.535   3.172  0.00  0.00     0.050 A 
ATOM      9  C   UNL d   1       1.431  -1.481   2.289  0.00  0.00     0.041 A 
BRANCH   6  10
ATOM     10  C   UNL d   1      -2.220  -3.760   1.817  0.00  0.00     0.417 C 
ATOM     11  F   UNL d   1      -2.977  -3.379   0.753  0.00  0.00    -0.166 F 
ATOM     12  F   UNL d   1      -1.945  -5.080   1.632  0.00  0.00    -0.166 F 
ATOM     13  F   UNL d   1      -3.037  -3.693   2.902  0.00  0.00    -0.166 F 
ENDBRANCH   6  10
BRANCH   8  14
ATOM     14  C   UNL d   1       2.140  -2.954   4.237  0.00  0.00     0.417 C 
ATOM     15  F   UNL d   1       3.285  -2.218   4.237  0.00  0.00    -0.166 F 
ATOM     16  F   UNL d   1       1.624  -2.846   5.492  0.00  0.00    -0.166 F 
ATOM     17  F   UNL d   1       2.526  -4.251   4.100  0.00  0.00    -0.166 F 
ENDBRANCH   8  14
ENDBRANCH   1   4
BRANCH   1  18
ATOM     18  N   UNL d   1       0.335   1.480   0.613  0.00  0.00    -0.223 N 
ATOM     19  H   UNL d   1      -0.441   1.407   1.271  0.00  0.00     0.200 HD
BRANCH  18  20
ATOM     20  N   UNL d   1       0.538   2.660  -0.183  0.00  0.00    -0.301 N 
ATOM     21  C   UNL d   1      -0.057   3.738   0.211  0.00  0.00     0.122 C 
ATOM     22  HN  UNL d   1       1.123   2.647  -1.019  1.00  0.00     0.186 HD
BRANCH  21  23
ATOM     23  C   UNL d   1       0.101   5.002  -0.543  0.00  0.00     0.017 A 
ATOM     24  C   UNL d   1      -0.482   6.184  -0.082  0.00  0.00     0.099 A 
ATOM     25  C   UNL d   1      -0.300   7.373  -0.799  0.00  0.00     0.069 A 
ATOM     26 CL   UNL d   1      -1.006   8.845  -0.236  0.00  0.00    -0.081 Cl
ATOM     27  C   UNL d   1       0.453   7.390  -1.972  0.00  0.00     0.050 A 
ATOM     28  C   UNL d   1       1.025   6.206  -2.430  0.00  0.00     0.036 A 
ATOM     29  C   UNL d   1       0.856   5.014  -1.724  0.00  0.00     0.039 A 
ATOM     30 CL   UNL d   1       1.954   6.216  -3.878  0.00  0.00    -0.084 Cl
BRANCH  24  31
ATOM     31  O   UNL d   1      -1.225   6.171   1.071  0.00  0.00    -0.358 OA
ATOM     32  H   UNL d   1      -1.542   7.083   1.227  0.00  0.00     0.217 HD
ENDBRANCH  24  31
ENDBRANCH  21  23
ENDBRANCH  18  20
ENDBRANCH   1  18
TORSDOF 7
