REMARK  10 active torsions:
REMARK  status: ('A' for Active; 'I' for Inactive)
REMARK    1  A    between atoms: C_9  and  C_3 
REMARK    2  A    between atoms: C_8  and  C_4 
REMARK       I    between atoms: C_5  and  N_6 
REMARK    3  A    between atoms: C_16  and  C_5 
REMARK    4  A    between atoms: N_6  and  C_13 
REMARK    5  A    between atoms: S_10  and  C_7 
REMARK    6  A    between atoms: O_19  and  C_8 
REMARK    7  A    between atoms: O_20  and  C_9 
REMARK    8  A    between atoms: C_14  and  S_10 
REMARK    9  A    between atoms: C_25  and  O_19 
REMARK   10  A    between atoms: C_26  and  O_20 
ROOT
ATOM      1  N   UNL d   1      -1.323  -0.011  -0.066  0.00  0.00    -0.346 N 
ATOM      2  HN  UNL d   1      -2.331  -0.080   0.077  1.00  0.00     0.166 HD
ATOM      3  C   UNL d   1      -0.713   1.189  -0.184  0.00  0.00     0.110 A 
ATOM      4  C   UNL d   1      -0.548  -1.119  -0.144  0.00  0.00     0.110 A 
ATOM      5  C   UNL d   1       1.436   0.180  -0.454  0.00  0.00     0.010 A 
ATOM      6  C   UNL d   1       0.651   1.330  -0.392  0.00  0.00     0.054 A 
ATOM      7  C   UNL d   1       0.829  -1.070  -0.323  0.00  0.00     0.054 A 
ENDROOT
BRANCH   5   8
ATOM      8  S   UNL d   1       3.212   0.314  -0.617  0.00  0.00    -0.088 SA
BRANCH   8   9
ATOM      9  C   UNL d   1       3.348   0.870  -2.317  0.00  0.00     0.032 A 
ATOM     10  C   UNL d   1       3.441   2.232  -2.662  0.00  0.00     0.052 A 
ATOM     11  C   UNL d   1       3.491   2.590  -4.016  0.00  0.00     0.031 A 
ATOM     12  C   UNL d   1       3.437   1.620  -5.017  0.00  0.00     0.002 A 
ATOM     13  C   UNL d   1       3.333   0.276  -4.676  0.00  0.00     0.002 A 
ATOM     14  C   UNL d   1       3.291  -0.098  -3.332  0.00  0.00     0.021 A 
BRANCH  10  15
ATOM     15  N   UNL d   1       3.498   3.231  -1.656  0.00  0.00    -0.322 N 
ATOM     16  C   UNL d   1       2.922   4.481  -1.802  0.00  0.00     0.256 C 
ATOM     17  O   UNL d   1       2.219   4.837  -2.743  0.00  0.00    -0.267 OA
ATOM     18  H   UNL d   1       3.726   2.921  -0.717  0.00  0.00     0.169 HD
BRANCH  16  19
ATOM     19  C   UNL d   1       3.114   5.428  -0.682  0.00  0.00     0.032 A 
ATOM     20  C   UNL d   1       4.383   5.660  -0.143  0.00  0.00     0.017 A 
ATOM     21  C   UNL d   1       4.548   6.662   0.818  0.00  0.00     0.001 A 
ATOM     22  C   UNL d   1       3.452   7.417   1.242  0.00  0.00     0.000 A 
ATOM     23  C   UNL d   1       2.185   7.173   0.713  0.00  0.00     0.001 A 
ATOM     24  C   UNL d   1       2.015   6.182  -0.253  0.00  0.00     0.017 A 
ENDBRANCH  16  19
ENDBRANCH  10  15
ENDBRANCH   8   9
ENDBRANCH   5   8
BRANCH   4  25
ATOM     25  C   UNL d   1      -1.242  -2.440  -0.079  0.00  0.00     0.310 C 
ATOM     26  O   UNL d   1      -0.676  -3.513  -0.217  0.00  0.00    -0.258 OA
BRANCH  25  27
ATOM     27  O   UNL d   1      -2.577  -2.242   0.062  0.00  0.00    -0.317 OA
BRANCH  27  28
ATOM     28  C   UNL d   1      -3.425  -3.352  -0.255  0.00  0.00     0.175 C 
ATOM     29  C   UNL d   1      -3.738  -3.300  -1.740  0.00  0.00     0.034 C 
ENDBRANCH  27  28
ENDBRANCH  25  27
ENDBRANCH   4  25
BRANCH   3  30
ATOM     30  C   UNL d   1      -1.532   2.414   0.047  0.00  0.00     0.310 C 
ATOM     31  O   UNL d   1      -1.066   3.544   0.075  0.00  0.00    -0.258 OA
BRANCH  30  32
ATOM     32  O   UNL d   1      -2.808   2.062   0.345  0.00  0.00    -0.317 OA
BRANCH  32  33
ATOM     33  C   UNL d   1      -3.595   3.068   0.991  0.00  0.00     0.175 C 
ATOM     34  C   UNL d   1      -3.340   2.989   2.490  0.00  0.00     0.034 C 
ENDBRANCH  32  33
ENDBRANCH  30  32
ENDBRANCH   3  30
TORSDOF 10
