REMARK  3 active torsions:
REMARK  status: ('A' for Active; 'I' for Inactive)
REMARK    1  A    between atoms: C_9  and  N_3 
REMARK    2  A    between atoms: C_17  and  N_10 
REMARK    3  A    between atoms: C_18  and  C_17 
ROOT
ATOM      1  C   UNL d   1      -1.159  -0.013  -0.072  0.00  0.00     0.329 C 
ATOM      2  N   UNL d   1      -0.391   1.083   0.235  0.00  0.00    -0.274 N 
ATOM      3  N   UNL d   1      -0.497  -1.238  -0.044  0.00  0.00    -0.303 N 
ATOM      4  C   UNL d   1       1.561  -0.238   0.674  0.00  0.00     0.128 C 
ATOM      5  C   UNL d   1       0.814  -1.317   0.421  0.00  0.00     0.124 C 
ATOM      6  C   UNL d   1       0.964   1.083   0.410  0.00  0.00     0.271 C 
ATOM      7  C   UNL d   1       2.908  -0.339   1.101  0.00  0.00     0.106 C 
ATOM      8  N   UNL d   1       4.001  -0.477   1.462  0.00  0.00    -0.191 NA
ATOM      9  O   UNL d   1      -2.328   0.167  -0.391  0.00  0.00    -0.246 OA
ATOM     10  O   UNL d   1       1.627   2.110   0.330  0.00  0.00    -0.266 OA
ATOM     11  H   UNL d   1      -0.822   1.976   0.046  0.00  0.00     0.173 HD
ENDROOT
BRANCH   3  12
ATOM     12  C   UNL d   1      -1.090  -2.487  -0.617  0.00  0.00     0.097 C 
ATOM     13  C   UNL d   1      -1.878  -2.284  -1.915  0.00  0.00     0.056 C 
ATOM     14  C   UNL d   1      -3.390  -2.248  -1.735  0.00  0.00     0.275 C 
ATOM     15  N   UNL d   1      -3.849  -3.441  -1.007  0.00  0.00     0.092 N 
ATOM     16  C   UNL d   1      -3.310  -3.403   0.362  0.00  0.00     0.275 C 
ATOM     17  C   UNL d   1      -1.781  -3.419   0.389  0.00  0.00     0.056 C 
BRANCH  15  18
ATOM     18  C   UNL d   1      -5.331  -3.489  -0.959  0.00  0.00     0.311 C 
BRANCH  18  19
ATOM     19  C   UNL d   1      -5.984  -3.437  -2.328  0.00  0.00    -0.030 A 
ATOM     20  C   UNL d   1      -5.699  -4.414  -3.293  0.00  0.00     0.009 A 
ATOM     21  C   UNL d   1      -6.200  -4.294  -4.591  0.00  0.00     0.001 A 
ATOM     22  C   UNL d   1      -7.002  -3.206  -4.933  0.00  0.00     0.000 A 
ATOM     23  C   UNL d   1      -7.318  -2.245  -3.974  0.00  0.00     0.001 A 
ATOM     24  C   UNL d   1      -6.815  -2.361  -2.677  0.00  0.00     0.009 A 
ENDBRANCH  18  19
ENDBRANCH  15  18
ENDBRANCH   3  12
TORSDOF 3
