REMARK  2 active torsions:
REMARK  status: ('A' for Active; 'I' for Inactive)
REMARK    1  A    between atoms: C_9  and  C_3 
REMARK    2  A    between atoms: O_10  and  C_6 
ROOT
ATOM      1  N   UNL d   1      -0.650   1.245   0.007  0.00  0.00    -0.326 N 
ATOM      2  HN  UNL d   1      -1.153   2.133   0.007  1.00  0.00     0.169 HD
ATOM      3  C   UNL d   1      -1.280   0.057   0.009  0.00  0.00     0.086 A 
ATOM      4  N   UNL d   1      -0.652  -1.140   0.005  0.00  0.00    -0.349 N 
ATOM      5  HN  UNL d   1      -1.178  -2.013   0.006  1.00  0.00     0.167 HD
ATOM      6  C   UNL d   1       0.684   1.177   0.004  0.00  0.00     0.142 A 
ATOM      7  C   UNL d   1       1.429   0.031  -0.001  0.00  0.00     0.080 A 
ATOM      8  C   UNL d   1       0.700  -1.135  -0.001  0.00  0.00     0.010 A 
ATOM      9  C   UNL d   1       1.388  -2.468  -0.004  0.00  0.00     0.068 C 
ENDROOT
BRANCH   3  10
ATOM     10  C   UNL d   1      -2.795   0.045   0.020  0.00  0.00     0.045 C 
ATOM     11  C   UNL d   1      -3.349   0.753   1.257  0.00  0.00     0.017 C 
ATOM     12  C   UNL d   1      -3.368   0.667  -1.254  0.00  0.00     0.017 C 
ENDBRANCH   3  10
BRANCH   6  13
ATOM     13  O   UNL d   1       1.302   2.387   0.007  0.00  0.00    -0.346 OA
ATOM     14  H   UNL d   1       0.527   2.976   0.013  0.00  0.00     0.219 HD
ENDBRANCH   6  13
TORSDOF 2
