REMARK  1 active torsions:
REMARK  status: ('A' for Active; 'I' for Inactive)
REMARK    1  A    between atoms: C_10  and  C_8 
REMARK       I    between atoms: N_18  and  C_10 
ROOT
ATOM      1  N   UNL d   1       0.940   0.747   0.009  0.00  0.00    -0.273 N 
ATOM      2  C   UNL d   1      -1.424   0.766   0.005  0.00  0.00     0.100 A 
ATOM      3  C   UNL d   1      -0.220   1.546   0.009  0.00  0.00     0.272 A 
ATOM      4  C   UNL d   1       0.844  -0.655   0.014  0.00  0.00     0.114 A 
ATOM      5  N   UNL d   1      -0.255  -1.358   0.016  0.00  0.00    -0.341 N 
ATOM      6  HN  UNL d   1      -0.259  -2.378   0.023  1.00  0.00     0.167 HD
ATOM      7  C   UNL d   1      -1.426  -0.598   0.009  0.00  0.00     0.057 A 
ATOM      8  C   UNL d   1       3.342   0.696   0.013  0.00  0.00     0.048 A 
ATOM      9  C   UNL d   1       2.184   1.378   0.004  0.00  0.00     0.119 A 
ATOM     10  C   UNL d   1       3.304  -0.750   0.003  0.00  0.00     0.022 A 
ATOM     11  C   UNL d   1       2.135  -1.403   0.009  0.00  0.00     0.050 A 
ATOM     12  S   UNL d   1      -2.993   1.411  -0.004  0.00  0.00    -0.094 SA
ATOM     13  C   UNL d   1      -2.724  -1.155   0.002  0.00  0.00     0.038 A 
ATOM     14  C   UNL d   1      -3.687  -0.164  -0.005  0.00  0.00     0.053 A 
ATOM     15  O   UNL d   1      -0.199   2.776   0.015  0.00  0.00    -0.266 OA
ENDROOT
BRANCH   8  16
ATOM     16  C   UNL d   1       4.601   1.502  -0.022  0.00  0.00     0.250 C 
ATOM     17  O   UNL d   1       4.627   2.680  -0.360  0.00  0.00    -0.268 OA
ATOM     18  N   UNL d   1       5.742   0.878   0.377  0.00  0.00    -0.366 N 
ATOM     19  H   UNL d   1       5.778  -0.039   0.792  0.00  0.00     0.159 HD
ATOM     20  H   UNL d   1       6.579   1.447   0.407  0.00  0.00     0.159 HD
ENDBRANCH   8  16
TORSDOF 1
