REMARK  5 active torsions:
REMARK  status: ('A' for Active; 'I' for Inactive)
REMARK    1  A    between atoms: N_7  and  C_1 
REMARK    2  A    between atoms: C_15  and  N_2 
REMARK    3  A    between atoms: C_10  and  C_6 
REMARK       I    between atoms: C_8  and  N_7 
REMARK       I    between atoms: N_14  and  C_8 
REMARK    4  A    between atoms: C_9  and  C_13 
REMARK    5  A    between atoms: C_18  and  N_14 
ROOT
ATOM      1  N   UNL d   1      -0.594  -2.127   0.262  0.00  0.00    -0.293 N 
ATOM      2  C   UNL d   1      -1.552  -2.887   0.863  0.00  0.00     0.326 C 
ATOM      3  N   UNL d   1      -1.819  -2.621   2.179  0.00  0.00    -0.309 N 
ATOM      4  O   UNL d   1      -1.969  -3.849   0.222  0.00  0.00    -0.247 OA
ATOM      5  H   UNL d   1      -0.175  -2.611  -0.528  0.00  0.00     0.172 HD
ATOM      6  H   UNL d   1      -1.272  -1.882   2.597  0.00  0.00     0.170 HD
ENDROOT
BRANCH   1   7
ATOM      7  C   UNL d   1      -0.047  -0.909   0.626  0.00  0.00     0.133 C 
ATOM      8  N   UNL d   1       1.293  -0.608   0.390  0.00  0.00    -0.240 N 
ATOM      9  N   UNL d   1       1.519   0.725   0.453  0.00  0.00    -0.296 N 
ATOM     10  C   UNL d   1       0.368   1.241   0.880  0.00  0.00     0.034 C 
ATOM     11  HN  UNL d   1       2.379   1.223   0.224  1.00  0.00     0.187 HD
ATOM     12  C   UNL d   1      -0.631   0.259   1.075  0.00  0.00     0.077 C 
BRANCH   8  13
ATOM     13  C   UNL d   1       2.373  -1.510   0.177  0.00  0.00     0.058 A 
ATOM     14  C   UNL d   1       3.537  -1.055  -0.455  0.00  0.00     0.031 A 
ATOM     15  C   UNL d   1       4.601  -1.931  -0.669  0.00  0.00     0.002 A 
ATOM     16  C   UNL d   1       4.523  -3.255  -0.231  0.00  0.00     0.000 A 
ATOM     17  C   UNL d   1       3.379  -3.703   0.427  0.00  0.00     0.002 A 
ATOM     18  C   UNL d   1       2.306  -2.837   0.631  0.00  0.00     0.031 A 
ENDBRANCH   8  13
BRANCH  10  19
ATOM     19  C   UNL d   1       0.245   2.751   1.034  0.00  0.00     0.037 A 
ATOM     20  C   UNL d   1      -0.763   3.361   1.979  0.00  0.00     0.011 A 
ATOM     21  C   UNL d   1      -0.988   3.454   0.507  0.00  0.00     0.011 A 
ENDBRANCH  10  19
ENDBRANCH   1   7
BRANCH   3  22
ATOM     22  C   UNL d   1      -2.557  -3.447   3.061  0.00  0.00     0.037 A 
ATOM     23  C   UNL d   1      -3.351  -4.519   2.637  0.00  0.00     0.045 A 
ATOM     24  C   UNL d   1      -4.037  -5.333   3.557  0.00  0.00     0.050 A 
ATOM     25  C   UNL d   1      -3.922  -5.054   4.925  0.00  0.00     0.016 A 
ATOM     26  C   UNL d   1      -3.137  -3.987   5.360  0.00  0.00     0.003 A 
ATOM     27  C   UNL d   1      -2.462  -3.186   4.433  0.00  0.00     0.029 A 
BRANCH  24  28
ATOM     28  C   UNL d   1      -4.902  -6.476   3.085  0.00  0.00     0.417 C 
ATOM     29  F   UNL d   1      -4.792  -6.743   1.754  0.00  0.00    -0.166 F 
ATOM     30  F   UNL d   1      -4.615  -7.646   3.722  0.00  0.00    -0.166 F 
ATOM     31  F   UNL d   1      -6.226  -6.247   3.310  0.00  0.00    -0.166 F 
ENDBRANCH  24  28
ENDBRANCH   3  22
TORSDOF 5
