REMARK  3 active torsions:
REMARK  status: ('A' for Active; 'I' for Inactive)
REMARK    1  A    between atoms: S_2  and  C_1 
REMARK    2  A    between atoms: C_3  and  S_2 
REMARK    3  A    between atoms: C_8  and  C_3 
ROOT
ATOM      1  C   UNL d   1       1.144   1.431  -0.080  0.00  0.00     0.084 C 
ATOM      2  N   UNL d   1       2.292   0.843   0.007  0.00  0.00    -0.383 N 
ATOM      3  HN  UNL d   1       3.165   1.348  -0.146  1.00  0.00     0.160 HD
ATOM      4  C   UNL d   1      -0.166   0.730   0.054  0.00  0.00     0.004 A 
ATOM      5  C   UNL d   1      -0.149  -0.664  -0.118  0.00  0.00    -0.044 A 
ATOM      6  C   UNL d   1       2.277  -0.588   0.338  0.00  0.00     0.125 C 
ATOM      7  C   UNL d   1      -1.372   1.377   0.346  0.00  0.00     0.015 A 
ATOM      8  C   UNL d   1       1.165  -1.345  -0.379  0.00  0.00     0.059 C 
ATOM      9  C   UNL d   1      -1.346  -1.388  -0.077  0.00  0.00     0.008 A 
ATOM     10  C   UNL d   1      -2.558   0.644   0.414  0.00  0.00     0.001 A 
ATOM     11  C   UNL d   1      -2.547  -0.732   0.189  0.00  0.00     0.001 A 
ENDROOT
BRANCH   1  12
ATOM     12  S   UNL d   1       1.201   3.171  -0.241  0.00  0.00    -0.029 SA
BRANCH  12  13
ATOM     13  C   UNL d   1       0.490   3.385  -1.841  0.00  0.00     0.225 C 
ATOM     14  O   UNL d   1       0.009   2.471  -2.492  0.00  0.00    -0.279 OA
BRANCH  13  15
ATOM     15  C   UNL d   1       0.408   4.801  -2.321  0.00  0.00     0.021 A 
ATOM     16  C   UNL d   1      -0.658   5.168  -3.155  0.00  0.00     0.016 A 
ATOM     17  C   UNL d   1      -0.810   6.499  -3.564  0.00  0.00     0.001 A 
ATOM     18  C   UNL d   1       0.105   7.467  -3.153  0.00  0.00     0.000 A 
ATOM     19  C   UNL d   1       1.187   7.106  -2.353  0.00  0.00     0.001 A 
ATOM     20  C   UNL d   1       1.343   5.779  -1.944  0.00  0.00     0.016 A 
ENDBRANCH  13  15
ENDBRANCH  12  13
ENDBRANCH   1  12
TORSDOF 3
