REMARK  2 active torsions:
REMARK  status: ('A' for Active; 'I' for Inactive)
REMARK    1  A    between atoms: C_2  and  C_1 
REMARK    2  A    between atoms: N_11  and  C_9 
ROOT
ATOM      1  C   UNL d   1       2.299   0.073   0.036  0.00  0.00     0.241 A 
ATOM      2  N   UNL d   1       2.039  -1.328   0.430  0.00  0.00    -0.260 NA
ATOM      3  O   UNL d   1       2.900   0.829   1.131  0.00  0.00    -0.324 OA
ATOM      4  C   UNL d   1       2.633  -1.358   1.704  0.00  0.00     0.044 A 
ATOM      5  C   UNL d   1       3.084  -0.114   2.103  0.00  0.00     0.092 A 
ATOM      6  C   UNL d   1       2.775  -2.454   2.532  0.00  0.00     0.026 A 
ATOM      7  C   UNL d   1       3.697   0.101   3.318  0.00  0.00     0.039 A 
ATOM      8  C   UNL d   1       3.399  -2.271   3.771  0.00  0.00     0.002 A 
ATOM      9  C   UNL d   1       3.856  -0.999   4.162  0.00  0.00     0.003 A 
ATOM     10  H   UNL d   1       2.473  -2.007  -0.186  0.00  0.00     0.130 HD
ENDROOT
BRANCH   1  11
ATOM     11  C   UNL d   1       3.197   0.123  -1.190  0.00  0.00     0.007 A 
ATOM     12  C   UNL d   1       2.689   0.182  -2.493  0.00  0.00     0.046 A 
ATOM     13  C   UNL d   1       3.551   0.209  -3.605  0.00  0.00     0.053 A 
ATOM     14 CL   UNL d   1       0.990   0.203  -2.817  0.00  0.00    -0.084 Cl
ATOM     15  C   UNL d   1       4.948   0.172  -3.475  0.00  0.00     0.031 A 
ATOM     16  C   UNL d   1       5.441   0.095  -2.166  0.00  0.00     0.030 A 
ATOM     17  C   UNL d   1       4.591   0.065  -1.051  0.00  0.00     0.015 A 
BRANCH  15  18
ATOM     18  N   UNL d   1       5.786   0.197  -4.575  0.00  0.00    -0.390 N 
ATOM     19  C   UNL d   1       5.423   0.884  -5.809  0.00  0.00     0.149 C 
ATOM     20  C   UNL d   1       7.112  -0.412  -4.557  0.00  0.00     0.149 C 
ENDBRANCH  15  18
ENDBRANCH   1  11
TORSDOF 2
