REMARK  3 active torsions:
REMARK  status: ('A' for Active; 'I' for Inactive)
REMARK    1  A    between atoms: C_3  and  C_1 
REMARK    2  A    between atoms: C_9  and  C_2 
REMARK    3  A    between atoms: C_18  and  N_15 
ROOT
ATOM      1  C   UNL d   1      -0.051  -1.287  -0.085  0.00  0.00     0.052 A 
ATOM      2  C   UNL d   1      -1.376  -0.764  -0.004  0.00  0.00     0.081 A 
ATOM      3  N   UNL d   1      -1.325   0.574   0.126  0.00  0.00    -0.259 N 
ATOM      4  HN  UNL d   1      -2.120   1.206   0.219  1.00  0.00     0.195 HD
ATOM      5  O   UNL d   1       0.006   0.927   0.111  0.00  0.00    -0.241 OA
ATOM      6  C   UNL d   1       0.771  -0.187   0.002  0.00  0.00     0.087 A 
ATOM      7  C   UNL d   1       2.233   0.012   0.007  0.00  0.00     0.080 C 
ENDROOT
BRANCH   1   8
ATOM      8  C   UNL d   1       0.383  -2.674  -0.179  0.00  0.00     0.056 A 
ATOM      9  N   UNL d   1       1.464  -3.034   0.595  0.00  0.00    -0.335 N 
ATOM     10  C   UNL d   1       1.785  -4.295   0.407  0.00  0.00     0.149 A 
ATOM     11  HN  UNL d   1       1.952  -2.404   1.231  1.00  0.00     0.168 HD
ATOM     12  N   UNL d   1       2.810  -4.940   1.004  0.00  0.00    -0.335 N 
ATOM     13  S   UNL d   1       0.784  -5.112  -0.739  0.00  0.00    -0.064 SA
ATOM     14  H   UNL d   1       3.144  -5.809   0.603  0.00  0.00     0.168 HD
ATOM     15  C   UNL d   1      -0.149  -3.685  -0.948  0.00  0.00     0.083 A 
BRANCH  12  16
ATOM     16  C   UNL d   1       3.448  -4.580   2.210  0.00  0.00     0.051 A 
ATOM     17  C   UNL d   1       4.791  -4.933   2.451  0.00  0.00     0.037 A 
ATOM     18 BR   UNL d   1       5.791  -5.914   1.166  0.00  0.00    -0.049 Br
ATOM     19  C   UNL d   1       5.438  -4.559   3.636  0.00  0.00     0.021 A 
ATOM     20  C   UNL d   1       4.754  -3.824   4.601  0.00  0.00     0.002 A 
ATOM     21  C   UNL d   1       3.437  -3.446   4.376  0.00  0.00     0.002 A 
ATOM     22  C   UNL d   1       2.797  -3.808   3.187  0.00  0.00     0.031 A 
ENDBRANCH  12  16
ENDBRANCH   1   8
BRANCH   2  23
ATOM     23  C   UNL d   1      -2.665  -1.461   0.051  0.00  0.00     0.015 A 
ATOM     24  C   UNL d   1      -3.808  -1.023  -0.646  0.00  0.00     0.048 A 
ATOM     25  C   UNL d   1      -5.027  -1.701  -0.516  0.00  0.00     0.048 A 
ATOM     26 CL   UNL d   1      -3.798   0.323  -1.736  0.00  0.00    -0.083 Cl
ATOM     27  C   UNL d   1      -5.112  -2.834   0.287  0.00  0.00     0.035 A 
ATOM     28  C   UNL d   1      -3.994  -3.293   0.974  0.00  0.00     0.025 A 
ATOM     29 CL   UNL d   1      -6.606  -3.672   0.432  0.00  0.00    -0.084 Cl
ATOM     30  C   UNL d   1      -2.784  -2.601   0.870  0.00  0.00     0.017 A 
ENDBRANCH   2  23
TORSDOF 3
