REMARK  5 active torsions:
REMARK  status: ('A' for Active; 'I' for Inactive)
REMARK    1  A    between atoms: C_6  and  C_1 
REMARK    2  A    between atoms: N_13  and  C_2 
REMARK    3  A    between atoms: C_8  and  C_3 
REMARK    4  A    between atoms: O_15  and  C_6 
REMARK    5  A    between atoms: C_18  and  O_15 
ROOT
ATOM      1  C   UNL d   1      -1.302   2.340   1.476  0.00  0.00     0.212 C 
ATOM      2  N   UNL d   1       0.612   4.138   1.700  0.00  0.00    -0.196 NA
ATOM      3  N   UNL d   1      -1.376   0.695   3.533  0.00  0.00    -0.196 NA
ATOM      4  C   UNL d   1      -1.320   1.420   2.627  0.00  0.00     0.079 C 
ATOM      5  C   UNL d   1      -0.230   3.343   1.609  0.00  0.00     0.079 C 
ENDROOT
BRANCH   1   6
ATOM      6  C   UNL d   1      -1.240   1.571   0.117  0.00  0.00     0.096 C 
ATOM      7  C   UNL d   1      -2.492   0.714  -0.088  0.00  0.00     0.073 C 
ATOM      8  C   UNL d   1      -2.439  -0.635  -0.067  0.00  0.00     0.134 C 
ATOM      9  O   UNL d   1      -1.254  -1.315   0.185  0.00  0.00    -0.298 OA
ATOM     10  C   UNL d   1      -0.059  -0.654   0.071  0.00  0.00     0.084 A 
ATOM     11  C   UNL d   1       0.020   0.735  -0.039  0.00  0.00    -0.013 A 
ATOM     12  C   UNL d   1       1.093  -1.439   0.068  0.00  0.00     0.038 A 
ATOM     13  C   UNL d   1       1.278   1.321  -0.250  0.00  0.00     0.011 A 
ATOM     14  C   UNL d   1       2.434   0.538  -0.246  0.00  0.00     0.001 A 
ATOM     15  C   UNL d   1       2.343  -0.840  -0.071  0.00  0.00     0.003 A 
BRANCH   7  16
ATOM     16  C   UNL d   1      -3.735   1.497  -0.326  0.00  0.00     0.293 C 
ATOM     17  O   UNL d   1      -3.701   2.689  -0.595  0.00  0.00    -0.259 OA
BRANCH  16  18
ATOM     18  O   UNL d   1      -4.859   0.776  -0.089  0.00  0.00    -0.318 OA
BRANCH  18  19
ATOM     19  C   UNL d   1      -6.108   1.472  -0.241  0.00  0.00     0.174 C 
ATOM     20  C   UNL d   1      -6.538   1.468  -1.696  0.00  0.00     0.034 C 
ENDBRANCH  18  19
ENDBRANCH  16  18
ENDBRANCH   7  16
BRANCH   8  21
ATOM     21  N   UNL d   1      -3.495  -1.494  -0.250  0.00  0.00    -0.282 NA
ATOM     22  H   UNL d   1      -4.402  -1.083  -0.029  0.00  0.00     0.126 HD
ATOM     23  H   UNL d   1      -3.339  -2.386   0.214  0.00  0.00     0.126 HD
ENDBRANCH   8  21
ENDBRANCH   1   6
TORSDOF 5
