REMARK  4 active torsions:
REMARK  status: ('A' for Active; 'I' for Inactive)
REMARK    1  A    between atoms: C_6  and  S_1 
REMARK    2  A    between atoms: N_12  and  S_1 
REMARK    3  A    between atoms: C_2  and  C_5 
REMARK       I    between atoms: C_5  and  N_8 
REMARK    4  A    between atoms: N_8  and  C_9 
ROOT
ATOM      1  C   UNL d   1       0.737   1.076   0.986  0.00  0.00     0.081 A 
ATOM      2  C   UNL d   1       0.517   3.340   1.863  0.00  0.00     0.042 A 
ATOM      3  C   UNL d   1       1.100   2.432   0.965  0.00  0.00     0.055 A 
ATOM      4  C   UNL d   1      -0.460   2.845   2.761  0.00  0.00    -0.035 A 
ATOM      5  C   UNL d   1      -0.116   0.572   1.962  0.00  0.00     0.026 A 
ATOM      6  C   UNL d   1      -0.717   1.458   2.839  0.00  0.00     0.010 A 
ATOM      7  C   UNL d   1      -1.287   3.724   3.660  0.00  0.00     0.050 C 
ENDROOT
BRANCH   2   8
ATOM      8  N   UNL d   1       0.877   4.720   1.915  0.00  0.00    -0.321 N 
ATOM      9  C   UNL d   1       1.808   5.395   1.122  0.00  0.00     0.274 C 
ATOM     10  O   UNL d   1       2.391   4.919   0.157  0.00  0.00    -0.266 OA
ATOM     11  H   UNL d   1       0.484   5.281   2.663  0.00  0.00     0.169 HD
BRANCH   9  12
ATOM     12  C   UNL d   1       2.129   6.763   1.578  0.00  0.00     0.125 C 
ATOM     13  N   UNL d   1       1.517   7.357   2.619  0.00  0.00    -0.256 N 
ATOM     14  O   UNL d   1       2.271   8.492   2.898  0.00  0.00    -0.242 OA
ATOM     15  HN  UNL d   1       0.676   7.041   3.102  1.00  0.00     0.195 HD
ATOM     16  C   UNL d   1       3.319   8.566   2.032  0.00  0.00     0.075 C 
ATOM     17  C   UNL d   1       3.177   7.589   1.079  0.00  0.00     0.071 C 
ATOM     18  C   UNL d   1       4.397   9.523   2.357  0.00  0.00     0.079 C 
ENDBRANCH   9  12
ENDBRANCH   2   8
BRANCH   1  19
ATOM     19  S   UNL d   1       1.331  -0.062  -0.253  0.00  0.00     0.260 S 
ATOM     20  O   UNL d   1       1.288  -1.391   0.310  0.00  0.00    -0.200 OA
ATOM     21  O   UNL d   1       2.567   0.484  -0.785  0.00  0.00    -0.200 OA
BRANCH  19  22
ATOM     22  N   UNL d   1       0.135   0.052  -1.464  0.00  0.00    -0.315 N 
ATOM     23  C   UNL d   1      -1.192  -0.520  -1.146  0.00  0.00     0.162 C 
ATOM     24  C   UNL d   1       0.047   1.324  -2.197  0.00  0.00     0.162 C 
ENDBRANCH  19  22
ENDBRANCH   1  19
TORSDOF 4
