REMARK  3 active torsions:
REMARK  status: ('A' for Active; 'I' for Inactive)
REMARK    1  A    between atoms: C_5  and  C_1 
REMARK    2  A    between atoms: C_8  and  C_4 
REMARK       I    between atoms: N_9  and  C_5 
REMARK    3  A    between atoms: C_13  and  N_9 
ROOT
ATOM      1  C   UNL d   1       1.261   0.754   0.014  0.00  0.00     0.108 A 
ATOM      2  N   UNL d   1      -0.047   1.257  -0.008  0.00  0.00    -0.345 N 
ATOM      3  HN  UNL d   1      -0.294   2.247  -0.016  1.00  0.00     0.167 HD
ATOM      4  C   UNL d   1      -0.916   0.257  -0.016  0.00  0.00     0.086 A 
ATOM      5  S   UNL d   1      -0.207  -1.319  -0.063  0.00  0.00    -0.081 SA
ATOM      6  C   UNL d   1       1.343  -0.626   0.001  0.00  0.00     0.087 A 
ENDROOT
BRANCH   1   7
ATOM      7  C   UNL d   1       2.469   1.594   0.023  0.00  0.00     0.273 C 
ATOM      8  N   UNL d   1       2.212   2.952   0.048  0.00  0.00    -0.322 N 
ATOM      9  H   UNL d   1       1.241   3.212   0.187  0.00  0.00     0.169 HD
ATOM     10  O   UNL d   1       3.578   1.074   0.011  0.00  0.00    -0.266 OA
BRANCH   8  11
ATOM     11  C   UNL d   1       3.162   3.984  -0.132  0.00  0.00     0.035 A 
ATOM     12  C   UNL d   1       4.475   3.750  -0.549  0.00  0.00     0.030 A 
ATOM     13  C   UNL d   1       5.351   4.810  -0.802  0.00  0.00     0.009 A 
ATOM     14  C   UNL d   1       4.934   6.131  -0.634  0.00  0.00    -0.062 A 
ATOM     15  C   UNL d   1       3.635   6.372  -0.176  0.00  0.00     0.009 A 
ATOM     16  C   UNL d   1       5.876   7.250  -0.963  0.00  0.00     0.048 C 
ATOM     17  C   UNL d   1       2.753   5.308   0.065  0.00  0.00     0.030 A 
ENDBRANCH   8  11
ENDBRANCH   1   7
BRANCH   4  18
ATOM     18  C   UNL d   1      -2.379   0.393  -0.017  0.00  0.00     0.013 A 
ATOM     19  C   UNL d   1      -2.989   1.500  -0.599  0.00  0.00     0.101 A 
ATOM     20  N   UNL d   1      -4.332   1.706  -0.645  0.00  0.00    -0.374 N 
ATOM     21  C   UNL d   1      -5.114   0.765  -0.075  0.00  0.00     0.087 A 
ATOM     22  HN  UNL d   1      -4.730   2.533  -1.089  1.00  0.00     0.164 HD
ATOM     23  C   UNL d   1      -4.617  -0.373   0.535  0.00  0.00     0.018 A 
ATOM     24  C   UNL d   1      -3.235  -0.556   0.564  0.00  0.00     0.017 A 
ENDBRANCH   4  18
TORSDOF 3
