REMARK  3 active torsions:
REMARK  status: ('A' for Active; 'I' for Inactive)
REMARK    1  A    between atoms: C_8  and  N_3 
REMARK    2  A    between atoms: N_13  and  C_4 
REMARK    3  A    between atoms: S_15  and  C_7 
ROOT
ATOM      1  N   UNL d   1      -0.364  -1.146  -0.201  0.00  0.00    -0.311 N 
ATOM      2  HN  UNL d   1      -0.733  -2.075  -0.405  1.00  0.00     0.170 HD
ATOM      3  N   UNL d   1       0.930   0.629   0.037  0.00  0.00    -0.228 N 
ATOM      4  C   UNL d   1       0.883  -0.743  -0.219  0.00  0.00     0.179 C 
ATOM      5  N   UNL d   1      -0.305   1.054   0.398  0.00  0.00    -0.270 N 
ATOM      6  HN  UNL d   1      -0.590   1.964   0.761  1.00  0.00     0.190 HD
ATOM      7  C   UNL d   1      -1.051  -0.022   0.156  0.00  0.00     0.161 C 
ENDROOT
BRANCH   3   8
ATOM      8  C   UNL d   1       2.012   1.545  -0.054  0.00  0.00     0.062 A 
ATOM      9  C   UNL d   1       3.126   1.271  -0.859  0.00  0.00     0.055 A 
ATOM     10  C   UNL d   1       4.158   2.206  -0.951  0.00  0.00     0.037 A 
ATOM     11 CL   UNL d   1       5.507   1.882  -1.970  0.00  0.00    -0.084 Cl
ATOM     12  C   UNL d   1       4.104   3.403  -0.243  0.00  0.00     0.048 A 
ATOM     13  C   UNL d   1       2.992   3.675   0.551  0.00  0.00     0.037 A 
ATOM     14  C   UNL d   1       1.939   2.764   0.637  0.00  0.00     0.055 A 
ATOM     15 CL   UNL d   1       2.923   5.147   1.441  0.00  0.00    -0.084 Cl
ENDBRANCH   3   8
BRANCH   4  16
ATOM     16  N   UNL d   1       1.955  -1.552  -0.378  0.00  0.00    -0.272 NA
ATOM     17  H   UNL d   1       2.808  -1.338   0.134  0.00  0.00     0.127 HD
ATOM     18  H   UNL d   1       1.737  -2.546  -0.327  0.00  0.00     0.127 HD
ENDBRANCH   4  16
BRANCH   7  19
ATOM     19  S   UNL d   1      -2.785   0.041   0.313  0.00  0.00    -0.097 SA
ATOM     20  C   UNL d   1      -3.227  -1.628  -0.207  0.00  0.00     0.099 C 
ENDBRANCH   7  19
TORSDOF 3
