REMARK  5 active torsions:
REMARK  status: ('A' for Active; 'I' for Inactive)
REMARK    1  A    between atoms: S_2  and  C_1 
REMARK    2  A    between atoms: N_18  and  S_2 
REMARK    3  A    between atoms: C_12  and  C_22 
REMARK    4  A    between atoms: C_21  and  N_18 
REMARK    5  A    between atoms: C_22  and  C_21 
ROOT
ATOM      1  S   UNL d   1      -1.340  -3.263   0.038  0.00  0.00     0.261 S 
ATOM      2  O   UNL d   1      -0.636  -4.008   1.062  0.00  0.00    -0.200 OA
ATOM      3  O   UNL d   1      -1.402  -1.822   0.063  0.00  0.00    -0.200 OA
ENDROOT
BRANCH   1   4
ATOM      4  C   UNL d   1      -0.664  -3.736  -1.513  0.00  0.00     0.108 A 
ATOM      5  C   UNL d   1      -1.203  -3.264  -2.731  0.00  0.00     0.090 A 
ATOM      6  N   UNL d   1      -2.271  -2.467  -2.906  0.00  0.00    -0.309 N 
ATOM      7  C   UNL d   1      -0.581  -3.689  -4.040  0.00  0.00     0.068 A 
ATOM      8  S   UNL d   1      -2.408  -2.194  -4.537  0.00  0.00     0.068 SA
ATOM      9  HN  UNL d   1      -2.881  -2.101  -2.175  1.00  0.00     0.176 HD
ATOM     10  N   UNL d   1      -1.182  -3.153  -5.112  0.00  0.00    -0.310 N 
ATOM     11  HN  UNL d   1      -0.933  -3.304  -6.090  1.00  0.00     0.176 HD
ATOM     12  C   UNL d   1       0.523  -4.576  -4.070  0.00  0.00     0.032 A 
ATOM     13  C   UNL d   1       0.999  -5.023  -2.825  0.00  0.00     0.004 A 
ATOM     14  C   UNL d   1       0.436  -4.616  -1.594  0.00  0.00     0.028 A 
ENDBRANCH   1   4
BRANCH   1  15
ATOM     15  N   UNL d   1      -2.910  -3.864  -0.050  0.00  0.00    -0.315 N 
ATOM     16  H   UNL d   1      -3.469  -3.365  -0.746  0.00  0.00     0.172 HD
BRANCH  15  17
ATOM     17  C   UNL d   1      -3.088  -5.325   0.043  0.00  0.00     0.137 C 
BRANCH  17  18
ATOM     18  C   UNL d   1      -4.565  -5.725  -0.012  0.00  0.00     0.061 C 
BRANCH  18  19
ATOM     19  C   UNL d   1      -5.378  -5.228   1.142  0.00  0.00    -0.029 A 
ATOM     20  C   UNL d   1      -6.163  -4.090   1.151  0.00  0.00     0.096 A 
ATOM     21  N   UNL d   1      -6.744  -3.977   2.383  0.00  0.00    -0.365 N 
ATOM     22  C   UNL d   1      -6.370  -5.028   3.186  0.00  0.00     0.042 A 
ATOM     23  H   UNL d   1      -7.360  -3.230   2.671  0.00  0.00     0.165 HD
ATOM     24  C   UNL d   1      -5.508  -5.830   2.436  0.00  0.00    -0.002 A 
ATOM     25  C   UNL d   1      -6.723  -5.320   4.508  0.00  0.00     0.030 A 
ATOM     26  C   UNL d   1      -4.973  -6.985   3.044  0.00  0.00     0.014 A 
ATOM     27  C   UNL d   1      -5.314  -7.291   4.367  0.00  0.00     0.001 A 
ATOM     28  C   UNL d   1      -6.178  -6.469   5.087  0.00  0.00     0.002 A 
ENDBRANCH  18  19
ENDBRANCH  17  18
ENDBRANCH  15  17
ENDBRANCH   1  15
TORSDOF 5
