REMARK  6 active torsions:
REMARK  status: ('A' for Active; 'I' for Inactive)
REMARK    1  A    between atoms: N_3  and  C_1 
REMARK    2  A    between atoms: C_2  and  N_3 
REMARK    3  A    between atoms: N_12  and  C_2 
REMARK    4  A    between atoms: N_15  and  N_12 
REMARK    5  A    between atoms: C_17  and  N_15 
REMARK    6  A    between atoms: C_16  and  C_17 
ROOT
ATOM      1  N   UNL d   1       0.315   7.890  -3.116  0.00  0.00    -0.197 NA
ATOM      2  C   UNL d   1       0.320   7.290  -2.119  0.00  0.00     0.060 C 
ATOM      3  C   UNL d   1       0.311   6.526  -0.869  0.00  0.00     0.140 C 
ENDROOT
BRANCH   3   4
ATOM      4  C   UNL d   1       1.693   5.917  -0.607  0.00  0.00     0.124 C 
BRANCH   4   5
ATOM      5  N   UNL d   1       1.716   5.144   0.647  0.00  0.00    -0.237 NA
ATOM      6  H   UNL d   1       2.689   4.864   0.838  0.00  0.00     0.146 HD
BRANCH   5   7
ATOM      7  N   UNL d   1       0.958   3.958   0.491  0.00  0.00    -0.298 N 
ATOM      8  H   UNL d   1       0.035   3.980   0.921  0.00  0.00     0.183 HD
BRANCH   7   9
ATOM      9  C   UNL d   1       1.559   2.677   0.443  0.00  0.00     0.186 C 
ATOM     10  S   UNL d   1       3.144   2.436   0.899  0.00  0.00    -0.040 SA
BRANCH   9  11
ATOM     11  N   UNL d   1       0.589   1.773   0.023  0.00  0.00    -0.330 N 
ATOM     12  H   UNL d   1      -0.321   2.216  -0.040  0.00  0.00     0.168 HD
BRANCH  11  13
ATOM     13  C   UNL d   1       0.479   0.358  -0.055  0.00  0.00     0.069 C 
ATOM     14  C   UNL d   1      -0.839  -0.137   0.127  0.00  0.00     0.039 C 
ATOM     15  C   UNL d   1      -1.129  -1.504   0.180  0.00  0.00     0.028 C 
ATOM     16 BR   UNL d   1      -2.331   1.050   0.311  0.00  0.00    -0.049 Br
ATOM     17  C   UNL d   1      -0.106  -2.437   0.054  0.00  0.00    -0.059 C 
ATOM     18  C   UNL d   1       1.186  -1.974  -0.208  0.00  0.00     0.028 C 
ATOM     19  C   UNL d   1      -0.410  -3.904   0.106  0.00  0.00     0.048 C 
ATOM     20  C   UNL d   1       1.473  -0.596  -0.317  0.00  0.00     0.039 C 
ATOM     21 BR   UNL d   1       3.125  -0.243  -1.193  0.00  0.00    -0.049 Br
ENDBRANCH  11  13
ENDBRANCH   9  11
ENDBRANCH   7   9
ENDBRANCH   5   7
ENDBRANCH   4   5
ENDBRANCH   3   4
TORSDOF 6
