REMARK  4 active torsions:
REMARK  status: ('A' for Active; 'I' for Inactive)
REMARK    1  A    between atoms: N_2  and  C_1 
REMARK    2  A    between atoms: C_5  and  C_4 
REMARK       I    between atoms: N_7  and  C_5 
REMARK    3  A    between atoms: C_6  and  C_11 
REMARK    4  A    between atoms: C_9  and  N_7 
ROOT
ATOM      1  C   UNL d   1      -0.811  -2.321   0.090  0.00  0.00     0.280 C 
ATOM      2  N   UNL d   1      -2.186  -2.498   0.092  0.00  0.00    -0.320 N 
ATOM      3  O   UNL d   1      -0.258  -1.233  -0.034  0.00  0.00    -0.265 OA
ATOM      4  H   UNL d   1      -2.538  -3.409   0.376  0.00  0.00     0.169 HD
ENDROOT
BRANCH   2   5
ATOM      5  C   UNL d   1      -3.158  -1.500  -0.197  0.00  0.00     0.057 A 
ATOM      6  C   UNL d   1      -2.814  -0.272  -0.783  0.00  0.00     0.047 A 
ATOM      7  C   UNL d   1      -3.780   0.704  -1.087  0.00  0.00     0.050 A 
ATOM      8  C   UNL d   1      -5.125   0.434  -0.809  0.00  0.00     0.018 A 
ATOM      9  C   UNL d   1      -5.490  -0.783  -0.230  0.00  0.00     0.027 A 
ATOM     10  C   UNL d   1      -4.515  -1.743   0.072  0.00  0.00     0.060 A 
ATOM     11 CL   UNL d   1      -5.029  -3.219   0.812  0.00  0.00    -0.082 Cl
BRANCH   7  12
ATOM     12  C   UNL d   1      -3.370   2.018  -1.712  0.00  0.00     0.417 C 
ATOM     13  F   UNL d   1      -2.025   2.157  -1.871  0.00  0.00    -0.166 F 
ATOM     14  F   UNL d   1      -3.911   2.191  -2.950  0.00  0.00    -0.166 F 
ATOM     15  F   UNL d   1      -3.771   3.091  -0.976  0.00  0.00    -0.166 F 
ENDBRANCH   7  12
ENDBRANCH   2   5
BRANCH   1  16
ATOM     16  C   UNL d   1      -0.014  -3.521   0.264  0.00  0.00     0.146 A 
ATOM     17  O   UNL d   1      -0.585  -4.763   0.391  0.00  0.00    -0.283 OA
ATOM     18  C   UNL d   1       0.457  -5.640   0.503  0.00  0.00     0.215 A 
ATOM     19  C   UNL d   1       1.674  -5.004   0.456  0.00  0.00     0.066 A 
ATOM     20  C   UNL d   1       1.368  -3.635   0.300  0.00  0.00     0.047 A 
BRANCH  18  21
ATOM     21  N   UNL d   1       0.130  -7.025   0.645  0.00  0.00    -0.090 N 
ATOM     22  O   UNL d   1       1.082  -7.799   0.810  0.00  0.00    -0.530 OA
ATOM     23  O   UNL d   1      -1.065  -7.341   0.590  0.00  0.00    -0.530 OA
ENDBRANCH  18  21
ENDBRANCH   1  16
TORSDOF 4
