REMARK  4 active torsions:
REMARK  status: ('A' for Active; 'I' for Inactive)
REMARK    1  A    between atoms: C_3  and  N_1 
REMARK    2  A    between atoms: S_7  and  C_2 
REMARK    3  A    between atoms: C_12  and  S_7 
REMARK    4  A    between atoms: C_15  and  C_12 
ROOT
ATOM      1  N   UNL d   1      -0.333  -1.122  -0.045  0.00  0.00    -0.300 N 
ATOM      2  C   UNL d   1       0.978  -0.651  -0.058  0.00  0.00     0.151 A 
ATOM      3  N   UNL d   1       1.040   0.657   0.082  0.00  0.00    -0.345 N 
ATOM      4  HN  UNL d   1       1.881   1.234   0.107  1.00  0.00     0.167 HD
ATOM      5  C   UNL d   1      -1.112   0.010   0.129  0.00  0.00     0.116 A 
ATOM      6  C   UNL d   1      -0.250   1.076   0.185  0.00  0.00     0.108 A 
ENDROOT
BRANCH   2   7
ATOM      7  S   UNL d   1       2.389  -1.621  -0.388  0.00  0.00    -0.089 SA
BRANCH   7   8
ATOM      8  C   UNL d   1       3.694  -0.417   0.008  0.00  0.00     0.121 C 
BRANCH   8   9
ATOM      9  C   UNL d   1       5.079  -1.023  -0.040  0.00  0.00    -0.048 A 
ATOM     10  C   UNL d   1       5.985  -0.643  -1.040  0.00  0.00     0.009 A 
ATOM     11  C   UNL d   1       7.280  -1.167  -1.063  0.00  0.00     0.024 A 
ATOM     12  C   UNL d   1       7.675  -2.078  -0.086  0.00  0.00     0.034 A 
ATOM     13  C   UNL d   1       6.787  -2.471   0.910  0.00  0.00     0.024 A 
ATOM     14 CL   UNL d   1       9.274  -2.717  -0.111  0.00  0.00    -0.084 Cl
ATOM     15  C   UNL d   1       5.494  -1.944   0.937  0.00  0.00     0.009 A 
ENDBRANCH   8   9
ENDBRANCH   7   8
ENDBRANCH   2   7
BRANCH   1  16
ATOM     16  C   UNL d   1      -0.827  -2.462  -0.084  0.00  0.00     0.064 A 
ATOM     17  C   UNL d   1      -2.000  -2.820  -0.786  0.00  0.00     0.083 A 
ATOM     18  C   UNL d   1      -2.457  -4.152  -0.727  0.00  0.00     0.058 A 
ATOM     19 CL   UNL d   1      -2.825  -1.705  -1.839  0.00  0.00    -0.080 Cl
ATOM     20 CL   UNL d   1      -3.890  -4.687  -1.540  0.00  0.00    -0.082 Cl
ATOM     21  C   UNL d   1      -1.752  -5.117  -0.002  0.00  0.00     0.026 A 
ATOM     22  C   UNL d   1      -0.593  -4.766   0.679  0.00  0.00     0.004 A 
ATOM     23  C   UNL d   1      -0.139  -3.447   0.649  0.00  0.00     0.032 A 
ENDBRANCH   1  16
TORSDOF 4
