REMARK  3 active torsions:
REMARK  status: ('A' for Active; 'I' for Inactive)
REMARK    1  A    between atoms: C_3  and  C_1 
REMARK    2  A    between atoms: C_4  and  C_2 
REMARK       I    between atoms: N_8  and  C_3 
REMARK    3  A    between atoms: C_9  and  N_8 
ROOT
ATOM      1  C   UNL d   1      -0.249  -1.456  -0.487  0.00  0.00     0.074 C 
ATOM      2  C   UNL d   1      -0.459  -0.764  -1.730  0.00  0.00     0.016 C 
ATOM      3  C   UNL d   1      -1.272   0.312  -1.424  0.00  0.00     0.155 C 
ATOM      4  C   UNL d   1      -0.831  -0.639   0.481  0.00  0.00     0.065 C 
ATOM      5  O   UNL d   1      -1.487   0.400  -0.095  0.00  0.00    -0.326 OA
ATOM      6  C   UNL d   1      -0.853  -0.635   1.961  0.00  0.00     0.077 C 
ENDROOT
BRANCH   1   7
ATOM      7  C   UNL d   1       0.466  -2.697  -0.191  0.00  0.00     0.255 C 
ATOM      8  N   UNL d   1      -0.200  -3.477   0.728  0.00  0.00    -0.352 N 
ATOM      9  H   UNL d   1      -1.128  -3.175   0.991  0.00  0.00     0.163 HD
ATOM     10  O   UNL d   1       1.530  -3.000  -0.713  0.00  0.00    -0.268 OA
BRANCH   8  11
ATOM     11  C   UNL d   1       0.275  -4.683   1.377  0.00  0.00     0.093 C 
ATOM     12  C   UNL d   1       1.463  -4.508   2.346  0.00  0.00     0.064 C 
ATOM     13  C   UNL d   1       1.791  -5.956   2.587  0.00  0.00    -0.050 A 
ATOM     14  C   UNL d   1       2.419  -6.526   3.680  0.00  0.00     0.007 A 
ATOM     15  C   UNL d   1       1.328  -6.744   1.521  0.00  0.00    -0.050 A 
ATOM     16  C   UNL d   1       2.563  -7.915   3.708  0.00  0.00     0.001 A 
ATOM     17  C   UNL d   1       2.103  -8.704   2.640  0.00  0.00     0.001 A 
ATOM     18  C   UNL d   1       1.490  -8.119   1.530  0.00  0.00     0.007 A 
ATOM     19  C   UNL d   1       0.649  -5.886   0.487  0.00  0.00     0.064 C 
ENDBRANCH   8  11
ENDBRANCH   1   7
BRANCH   2  20
ATOM     20  C   UNL d   1      -0.007  -0.978  -3.101  0.00  0.00     0.002 A 
ATOM     21  C   UNL d   1      -0.161  -2.179  -3.810  0.00  0.00     0.045 A 
ATOM     22  C   UNL d   1       0.257  -2.267  -5.152  0.00  0.00     0.028 A 
ATOM     23 CL   UNL d   1      -0.937  -3.571  -3.142  0.00  0.00    -0.083 Cl
ATOM     24  C   UNL d   1       0.808  -1.158  -5.799  0.00  0.00     0.044 A 
ATOM     25  C   UNL d   1       0.950   0.029  -5.101  0.00  0.00     0.117 A 
ATOM     26  C   UNL d   1       0.562   0.126  -3.771  0.00  0.00     0.056 A 
ATOM     27  F   UNL d   1       1.450   1.106  -5.721  0.00  0.00    -0.206 F 
ENDBRANCH   2  20
TORSDOF 3
