REMARK  6 active torsions:
REMARK  status: ('A' for Active; 'I' for Inactive)
REMARK    1  A    between atoms: C_6  and  C_1 
REMARK    2  A    between atoms: C_20  and  C_5 
REMARK       I    between atoms: C_7  and  N_11 
REMARK    3  A    between atoms: C_9  and  C_7 
REMARK    4  A    between atoms: N_11  and  C_20 
REMARK    5  A    between atoms: O_22  and  C_13 
REMARK    6  A    between atoms: O_23  and  C_15 
ROOT
ATOM      1  C   UNL d   1       4.956   1.456  -0.125  0.00  0.00     0.252 C 
ATOM      2  N   UNL d   1       3.676   0.979   0.043  0.00  0.00    -0.351 N 
ATOM      3  O   UNL d   1       5.925   0.732  -0.324  0.00  0.00    -0.268 OA
ATOM      4  H   UNL d   1       2.924   1.565   0.388  0.00  0.00     0.163 HD
ENDROOT
BRANCH   2   5
ATOM      5  C   UNL d   1       3.405  -0.434  -0.036  0.00  0.00     0.180 C 
BRANCH   5   6
ATOM      6  C   UNL d   1       1.944  -0.710   0.163  0.00  0.00     0.034 A 
ATOM      7  N   UNL d   1       1.040   0.324   0.434  0.00  0.00    -0.351 N 
ATOM      8  C   UNL d   1      -0.186  -0.159   0.564  0.00  0.00     0.091 A 
ATOM      9  HN  UNL d   1       1.290   1.309   0.520  1.00  0.00     0.166 HD
ATOM     10  S   UNL d   1      -0.307  -1.870   0.379  0.00  0.00    -0.081 SA
ATOM     11  C   UNL d   1       1.372  -1.966   0.102  0.00  0.00     0.078 A 
BRANCH   8  12
ATOM     12  C   UNL d   1      -1.329   0.693   0.831  0.00  0.00     0.038 A 
ATOM     13  S   UNL d   1      -2.927   0.091   1.063  0.00  0.00    -0.099 SA
ATOM     14  C   UNL d   1      -3.575   1.653   1.290  0.00  0.00     0.050 A 
ATOM     15  C   UNL d   1      -2.605   2.627   1.198  0.00  0.00     0.008 A 
ATOM     16  C   UNL d   1      -1.317   2.073   0.937  0.00  0.00     0.022 A 
ENDBRANCH   8  12
ENDBRANCH   5   6
ENDBRANCH   2   5
BRANCH   1  17
ATOM     17  C   UNL d   1       5.127   2.929  -0.022  0.00  0.00     0.034 A 
ATOM     18  C   UNL d   1       6.338   3.441   0.469  0.00  0.00     0.056 A 
ATOM     19  C   UNL d   1       6.536   4.825   0.610  0.00  0.00     0.102 A 
ATOM     20  C   UNL d   1       5.502   5.700   0.223  0.00  0.00     0.101 A 
ATOM     21  C   UNL d   1       4.314   5.175  -0.309  0.00  0.00     0.040 A 
ATOM     22  C   UNL d   1       4.119   3.801  -0.432  0.00  0.00     0.020 A 
BRANCH  19  23
ATOM     23  O   UNL d   1       7.690   5.369   1.105  0.00  0.00    -0.353 OA
ATOM     24  C   UNL d   1       8.727   4.497   1.534  0.00  0.00     0.210 C 
ENDBRANCH  19  23
BRANCH  20  25
ATOM     25  O   UNL d   1       5.466   7.069   0.282  0.00  0.00    -0.353 OA
ATOM     26  C   UNL d   1       6.564   7.769   0.846  0.00  0.00     0.210 C 
ENDBRANCH  20  25
ENDBRANCH   1  17
TORSDOF 6
