REMARK  1 active torsions:
REMARK  status: ('A' for Active; 'I' for Inactive)
REMARK    1  A    between atoms: C_12  and  N_9 
ROOT
ATOM      1  S   UNL d   1       1.710  -0.769  -0.160  0.00  0.00    -0.034 SA
ATOM      2  C   UNL d   1       2.045   0.921  -0.061  0.00  0.00     0.147 A 
ATOM      3  N   UNL d   1       0.992   1.704   0.026  0.00  0.00    -0.334 N 
ATOM      4  HN  UNL d   1       1.020   2.720   0.100  1.00  0.00     0.168 HD
ATOM      5  C   UNL d   1       0.047  -0.435  -0.074  0.00  0.00     0.104 A 
ATOM      6  C   UNL d   1      -0.160   0.939   0.004  0.00  0.00     0.068 A 
ATOM      7  N   UNL d   1      -0.894  -1.403  -0.091  0.00  0.00    -0.358 N 
ATOM      8  HN  UNL d   1      -0.676  -2.398  -0.140  1.00  0.00     0.166 HD
ATOM      9  N   UNL d   1       3.331   1.347  -0.063  0.00  0.00    -0.371 N 
ATOM     10  C   UNL d   1      -1.492   1.383   0.053  0.00  0.00     0.034 A 
ATOM     11  C   UNL d   1      -2.156  -0.918  -0.035  0.00  0.00     0.089 A 
ATOM     12  C   UNL d   1      -2.504   0.425   0.031  0.00  0.00     0.019 A 
ATOM     13  H   UNL d   1       4.031   0.624   0.064  0.00  0.00     0.161 HD
ENDROOT
BRANCH   9  14
ATOM     14  C   UNL d   1       3.631   2.615   0.580  0.00  0.00     0.117 C 
ATOM     15  C   UNL d   1       5.119   2.903   0.477  0.00  0.00     0.026 C 
ENDBRANCH   9  14
TORSDOF 1
