REMARK  6 active torsions:
REMARK  status: ('A' for Active; 'I' for Inactive)
REMARK    1  A    between atoms: C_4  and  N_1 
REMARK    2  A    between atoms: C_12  and  C_5 
REMARK    3  A    between atoms: C_6  and  O_13 
REMARK    4  A    between atoms: C_9  and  C_14 
REMARK    5  A    between atoms: O_13  and  C_10 
REMARK    6  A    between atoms: O_26  and  C_12 
ROOT
ATOM      1  C   UNL d   1      -2.665  -0.065  -0.465  0.00  0.00     0.080 A 
ATOM      2  C   UNL d   1      -3.065   0.731  -1.557  0.00  0.00     0.103 A 
ATOM      3  C   UNL d   1      -3.675  -0.858   0.135  0.00  0.00     0.049 A 
ATOM      4  C   UNL d   1      -5.017  -0.854  -0.284  0.00  0.00     0.050 A 
ATOM      5  C   UNL d   1      -4.426   0.790  -1.935  0.00  0.00     0.040 A 
ATOM      6  C   UNL d   1      -5.387  -0.006  -1.323  0.00  0.00     0.019 A 
ENDROOT
BRANCH   2   7
ATOM      7  O   UNL d   1      -2.187   1.546  -2.246  0.00  0.00    -0.307 OA
BRANCH   7   8
ATOM      8  C   UNL d   1      -2.215   1.576  -3.614  0.00  0.00     0.099 A 
ATOM      9  C   UNL d   1      -1.871   2.704  -4.342  0.00  0.00     0.114 A 
ATOM     10  S   UNL d   1      -2.090   2.428  -6.034  0.00  0.00    -0.093 SA
ATOM     11  C   UNL d   1      -2.593   0.820  -5.792  0.00  0.00     0.053 A 
ATOM     12  C   UNL d   1      -2.577   0.476  -4.461  0.00  0.00     0.046 A 
BRANCH   9  13
ATOM     13  C   UNL d   1      -1.414   4.023  -3.943  0.00  0.00     0.302 C 
ATOM     14  O   UNL d   1      -1.112   4.937  -4.702  0.00  0.00    -0.259 OA
BRANCH  13  15
ATOM     15  O   UNL d   1      -1.385   4.144  -2.583  0.00  0.00    -0.322 OA
ATOM     16  C   UNL d   1      -0.961   5.432  -2.135  0.00  0.00     0.213 C 
ENDBRANCH  13  15
ENDBRANCH   9  13
ENDBRANCH   7   8
ENDBRANCH   2   7
BRANCH   1  17
ATOM     17  N   UNL d   1      -1.334  -0.164   0.061  0.00  0.00    -0.242 N 
ATOM     18  C   UNL d   1      -0.160   0.110  -0.584  0.00  0.00     0.255 A 
ATOM     19  C   UNL d   1       0.941  -0.237   0.329  0.00  0.00     0.087 A 
ATOM     20  O   UNL d   1       0.088   0.466  -1.721  0.00  0.00    -0.268 OA
ATOM     21  C   UNL d   1       0.414  -0.755   1.437  0.00  0.00     0.012 A 
ATOM     22  C   UNL d   1      -1.042  -0.627   1.321  0.00  0.00     0.261 A 
ATOM     23  C   UNL d   1       1.071  -1.355   2.623  0.00  0.00     0.054 C 
ATOM     24  O   UNL d   1      -1.775  -0.877   2.266  0.00  0.00    -0.267 OA
ENDBRANCH   1  17
BRANCH   4  25
ATOM     25  C   UNL d   1      -6.034  -1.774   0.349  0.00  0.00     0.417 C 
ATOM     26  F   UNL d   1      -5.575  -2.422   1.454  0.00  0.00    -0.166 F 
ATOM     27  F   UNL d   1      -7.161  -1.119   0.739  0.00  0.00    -0.166 F 
ATOM     28  F   UNL d   1      -6.444  -2.748  -0.510  0.00  0.00    -0.166 F 
ENDBRANCH   4  25
TORSDOF 6
