REMARK  4 active torsions:
REMARK  status: ('A' for Active; 'I' for Inactive)
REMARK    1  A    between atoms: N_2  and  C_1 
REMARK    2  A    between atoms: N_6  and  C_1 
REMARK    3  A    between atoms: C_3  and  N_2 
REMARK    4  A    between atoms: C_12  and  N_6 
ROOT
ATOM      1  C   UNL d   1       0.875   0.277   0.718  0.00  0.00     0.172 C 
ATOM      2  S   UNL d   1       2.101   1.078  -0.090  0.00  0.00    -0.041 SA
ENDROOT
BRANCH   1   3
ATOM      3  N   UNL d   1       0.778  -1.072   0.858  0.00  0.00    -0.362 N 
ATOM      4  H   UNL d   1      -0.168  -1.428   0.889  0.00  0.00     0.162 HD
BRANCH   3   5
ATOM      5  C   UNL d   1       1.848  -2.052   0.702  0.00  0.00     0.092 C 
ATOM      6  C   UNL d   1       2.928  -1.981   1.826  0.00  0.00     0.031 C 
ATOM      7  C   UNL d   1       2.274  -2.178   3.180  0.00  0.00    -0.024 C 
ATOM      8  C   UNL d   1       3.566  -3.365   1.682  0.00  0.00     0.019 C 
ATOM      9  C   UNL d   1       1.859  -3.452   3.241  0.00  0.00    -0.026 C 
ATOM     10  C   UNL d   1       2.250  -4.107   1.937  0.00  0.00     0.010 C 
ATOM     11  C   UNL d   1       1.345  -3.525   0.828  0.00  0.00     0.034 C 
ENDBRANCH   3   5
ENDBRANCH   1   3
BRANCH   1  12
ATOM     12  N   UNL d   1      -0.119   1.038   1.265  0.00  0.00    -0.333 N 
ATOM     13  H   UNL d   1      -0.062   2.007   0.968  0.00  0.00     0.168 HD
BRANCH  12  14
ATOM     14  C   UNL d   1      -1.034   0.780   2.313  0.00  0.00     0.035 A 
ATOM     15  C   UNL d   1      -1.054  -0.384   3.085  0.00  0.00     0.053 A 
ATOM     16  C   UNL d   1      -1.963  -0.522   4.137  0.00  0.00     0.036 A 
ATOM     17 CL   UNL d   1      -1.967  -1.970   5.069  0.00  0.00    -0.084 Cl
ATOM     18  C   UNL d   1      -2.849   0.502   4.448  0.00  0.00     0.024 A 
ATOM     19  C   UNL d   1      -2.829   1.674   3.696  0.00  0.00     0.004 A 
ATOM     20  C   UNL d   1      -1.928   1.810   2.636  0.00  0.00     0.029 A 
ENDBRANCH  12  14
ENDBRANCH   1  12
TORSDOF 4
