REMARK  5 active torsions:
REMARK  status: ('A' for Active; 'I' for Inactive)
REMARK    1  A    between atoms: N_8  and  C_1 
REMARK    2  A    between atoms: C_9  and  C_2 
REMARK    3  A    between atoms: S_11  and  C_4 
REMARK    4  A    between atoms: O_16  and  C_9 
REMARK    5  A    between atoms: C_24  and  O_16 
ROOT
ATOM      1  C   UNL d   1       1.705   1.759  -0.041  0.00  0.00     0.062 A 
ATOM      2  C   UNL d   1       3.067   1.366  -0.129  0.00  0.00     0.100 A 
ATOM      3  C   UNL d   1       0.717   0.709  -0.013  0.00  0.00     0.020 A 
ATOM      4  C   UNL d   1       3.394   0.006  -0.124  0.00  0.00     0.088 A 
ATOM      5  N   UNL d   1       2.450  -0.961  -0.078  0.00  0.00    -0.349 N 
ATOM      6  HN  UNL d   1       2.724  -1.944  -0.075  1.00  0.00     0.166 HD
ATOM      7  C   UNL d   1       1.165  -0.627  -0.036  0.00  0.00     0.045 A 
ATOM      8  C   UNL d   1      -0.684   0.912   0.066  0.00  0.00     0.040 A 
ATOM      9  C   UNL d   1       0.253  -1.675  -0.005  0.00  0.00     0.032 A 
ATOM     10  C   UNL d   1      -1.588  -0.151   0.054  0.00  0.00     0.035 A 
ATOM     11  C   UNL d   1      -1.121  -1.454   0.024  0.00  0.00     0.026 A 
ATOM     12 CL   UNL d   1      -3.278   0.156   0.062  0.00  0.00    -0.084 Cl
ENDROOT
BRANCH   1  13
ATOM     13  N   UNL d   1       1.256   3.083   0.094  0.00  0.00    -0.375 N 
ATOM     14  C   UNL d   1       2.019   4.092   0.859  0.00  0.00     0.149 C 
ATOM     15  C   UNL d   1       1.055   5.186   1.348  0.00  0.00     0.187 C 
ATOM     16  O   UNL d   1       0.334   5.784   0.254  0.00  0.00    -0.388 OA
ATOM     17  C   UNL d   1      -0.406   4.785  -0.471  0.00  0.00     0.187 C 
ATOM     18  C   UNL d   1       0.529   3.698  -1.040  0.00  0.00     0.149 C 
ENDBRANCH   1  13
BRANCH   2  19
ATOM     19  C   UNL d   1       4.160   2.349  -0.245  0.00  0.00     0.298 C 
ATOM     20  O   UNL d   1       5.046   2.490   0.575  0.00  0.00    -0.259 OA
BRANCH  19  21
ATOM     21  O   UNL d   1       3.979   3.078  -1.379  0.00  0.00    -0.318 OA
BRANCH  21  22
ATOM     22  C   UNL d   1       4.883   4.180  -1.572  0.00  0.00     0.174 C 
ATOM     23  C   UNL d   1       5.906   3.804  -2.621  0.00  0.00     0.034 C 
ENDBRANCH  21  22
ENDBRANCH  19  21
ENDBRANCH   2  19
BRANCH   4  24
ATOM     24  S   UNL d   1       5.068  -0.637  -0.227  0.00  0.00    -0.116 SA
ATOM     25  C   UNL d   1       4.763  -2.420  -0.011  0.00  0.00     0.097 C 
ENDBRANCH   4  24
TORSDOF 5
