REMARK  7 active torsions:
REMARK  status: ('A' for Active; 'I' for Inactive)
REMARK    1  A    between atoms: N_2  and  C_1 
REMARK    2  A    between atoms: N_3  and  C_1 
REMARK    3  A    between atoms: C_8  and  N_2 
REMARK    4  A    between atoms: C_12  and  N_2 
REMARK    5  A    between atoms: C_7  and  N_3 
REMARK    6  A    between atoms: C_16  and  C_8 
REMARK    7  A    between atoms: N_11  and  C_10 
ROOT
ATOM      1  N   UNL d   1       0.155   1.137  -0.038  0.00  0.00    -0.350 N 
ENDROOT
BRANCH   1   2
ATOM      2  C   UNL d   1       0.929   0.040  -0.523  0.00  0.00     0.175 C 
ATOM      3  S   UNL d   1       0.319  -1.482  -0.911  0.00  0.00    -0.041 SA
BRANCH   2   4
ATOM      4  N   UNL d   1       2.293   0.310  -0.558  0.00  0.00    -0.333 N 
ATOM      5  H   UNL d   1       2.646   0.707   0.301  0.00  0.00     0.168 HD
BRANCH   4   6
ATOM      6  C   UNL d   1       3.286  -0.168  -1.440  0.00  0.00     0.035 A 
ATOM      7  C   UNL d   1       4.612  -0.162  -0.991  0.00  0.00     0.055 A 
ATOM      8  C   UNL d   1       5.652  -0.556  -1.839  0.00  0.00     0.058 A 
ATOM      9 CL   UNL d   1       7.258  -0.536  -1.201  0.00  0.00    -0.082 Cl
ATOM     10  C   UNL d   1       5.373  -0.937  -3.155  0.00  0.00     0.055 A 
ATOM     11  C   UNL d   1       4.052  -0.927  -3.609  0.00  0.00     0.028 A 
ATOM     12 CL   UNL d   1       6.608  -1.401  -4.269  0.00  0.00    -0.083 Cl
ATOM     13  C   UNL d   1       3.015  -0.539  -2.758  0.00  0.00     0.031 A 
ENDBRANCH   4   6
ENDBRANCH   2   4
ENDBRANCH   1   2
BRANCH   1  14
ATOM     14  C   UNL d   1      -1.206   0.904   0.502  0.00  0.00     0.164 C 
BRANCH  14  15
ATOM     15  C   UNL d   1      -2.345   0.626  -0.460  0.00  0.00    -0.040 A 
ATOM     16  C   UNL d   1      -3.530   0.101   0.074  0.00  0.00     0.011 A 
ATOM     17  C   UNL d   1      -4.634  -0.200  -0.738  0.00  0.00     0.030 A 
ATOM     18  C   UNL d   1      -4.625   0.017  -2.123  0.00  0.00     0.029 A 
ATOM     19  C   UNL d   1      -3.424   0.532  -2.647  0.00  0.00     0.030 A 
ATOM     20  C   UNL d   1      -2.314   0.854  -1.835  0.00  0.00     0.011 A 
BRANCH  18  21
ATOM     21  N   UNL d   1      -5.734  -0.308  -2.920  0.00  0.00    -0.390 N 
ATOM     22  C   UNL d   1      -5.703  -0.003  -4.348  0.00  0.00     0.149 C 
ATOM     23  C   UNL d   1      -7.059  -0.257  -2.300  0.00  0.00     0.149 C 
ENDBRANCH  18  21
ENDBRANCH  14  15
ENDBRANCH   1  14
BRANCH   1  24
ATOM     24  C   UNL d   1       0.794   2.445   0.299  0.00  0.00     0.079 C 
ATOM     25  C   UNL d   1      -0.076   3.674   0.019  0.00  0.00     0.032 C 
ATOM     26  C   UNL d   1       1.282   2.472   1.756  0.00  0.00     0.032 C 
ENDBRANCH   1  24
TORSDOF 7
