REMARK  3 active torsions:
REMARK  status: ('A' for Active; 'I' for Inactive)
REMARK    1  A    between atoms: C_10  and  C_2 
REMARK       I    between atoms: N_14  and  C_10 
REMARK       I    between atoms: C_11  and  N_15 
REMARK       I    between atoms: N_16  and  C_11 
REMARK    2  A    between atoms: N_15  and  N_14 
REMARK    3  A    between atoms: C_19  and  N_16 
ROOT
ATOM      1  C   UNL d   1      -3.029  -1.511   0.479  0.00  0.00     0.270 C 
ATOM      2  N   UNL d   1      -3.422  -2.831   0.428  0.00  0.00    -0.262 N 
ATOM      3  O   UNL d   1      -1.911  -1.149   0.117  0.00  0.00    -0.266 OA
ATOM      4  H   UNL d   1      -4.354  -3.182   0.641  0.00  0.00     0.190 HD
ENDROOT
BRANCH   2   5
ATOM      5  N   UNL d   1      -2.573  -3.772  -0.187  0.00  0.00    -0.248 N 
ATOM      6  C   UNL d   1      -2.998  -5.093  -0.142  0.00  0.00     0.339 C 
ATOM      7  N   UNL d   1      -2.094  -5.954  -0.721  0.00  0.00    -0.308 N 
ATOM      8  O   UNL d   1      -4.093  -5.377   0.339  0.00  0.00    -0.245 OA
ATOM      9  H   UNL d   1      -1.329  -5.522  -1.221  0.00  0.00     0.170 HD
ATOM     10  H   UNL d   1      -1.582  -3.547  -0.142  0.00  0.00     0.192 HD
BRANCH   7  11
ATOM     11  C   UNL d   1      -2.187  -7.361  -0.799  0.00  0.00     0.036 A 
ATOM     12  C   UNL d   1      -3.190  -8.106  -0.173  0.00  0.00     0.029 A 
ATOM     13  C   UNL d   1      -3.204  -9.502  -0.262  0.00  0.00     0.002 A 
ATOM     14  C   UNL d   1      -2.216 -10.168  -0.979  0.00  0.00     0.000 A 
ATOM     15  C   UNL d   1      -1.216  -9.438  -1.617  0.00  0.00     0.002 A 
ATOM     16  C   UNL d   1      -1.202  -8.042  -1.528  0.00  0.00     0.029 A 
ENDBRANCH   7  11
ENDBRANCH   2   5
BRANCH   1  17
ATOM     17  C   UNL d   1      -4.028  -0.509   0.979  0.00  0.00     0.036 A 
ATOM     18  C   UNL d   1      -5.224  -0.909   1.615  0.00  0.00     0.051 A 
ATOM     19  C   UNL d   1      -6.065   0.150   2.016  0.00  0.00     0.086 A 
ATOM     20  C   UNL d   1      -5.727   1.549   1.800  0.00  0.00     0.085 A 
ATOM     21  N   UNL d   1      -7.253   0.096   2.629  0.00  0.00    -0.240 N 
ATOM     22  N   UNL d   1      -6.720   2.301   2.286  0.00  0.00    -0.240 N 
ATOM     23  C   UNL d   1      -4.532   1.943   1.177  0.00  0.00     0.035 A 
ATOM     24  O   UNL d   1      -7.654   1.412   2.792  0.00  0.00    -0.156 OA
ATOM     25  HN  UNL d   1      -6.778   3.320   2.285  1.00  0.00     0.197 HD
ATOM     26  C   UNL d   1      -3.704   0.872   0.779  0.00  0.00     0.019 A 
ATOM     27  HN  UNL d   1      -7.759  -0.742   2.917  1.00  0.00     0.197 HD
ENDBRANCH   1  17
TORSDOF 3
