REMARK  7 active torsions:
REMARK  status: ('A' for Active; 'I' for Inactive)
REMARK    1  A    between atoms: C_4  and  C_3 
REMARK    2  A    between atoms: C_6  and  C_10 
REMARK    3  A    between atoms: O_22  and  C_8 
REMARK    4  A    between atoms: C_10  and  O_21 
REMARK    5  A    between atoms: C_11  and  C_17 
REMARK    6  A    between atoms: C_26  and  C_12 
REMARK    7  A    between atoms: O_21  and  C_26 
ROOT
ATOM      1  N   UNL d   1       1.102   1.364  -0.040  0.00  0.00    -0.352 N 
ATOM      2  HN  UNL d   1       1.061   2.383  -0.047  1.00  0.00     0.166 HD
ATOM      3  C   UNL d   1       2.302   0.723  -0.044  0.00  0.00     0.119 A 
ATOM      4  C   UNL d   1      -0.029  -0.770  -0.006  0.00  0.00     0.025 A 
ATOM      5  C   UNL d   1      -0.026   0.639  -0.026  0.00  0.00     0.045 A 
ATOM      6  C   UNL d   1       1.226  -1.422  -0.003  0.00  0.00     0.082 A 
ATOM      7  C   UNL d   1       2.396  -0.665  -0.024  0.00  0.00     0.072 A 
ATOM      8  C   UNL d   1      -1.272  -1.453   0.003  0.00  0.00     0.037 A 
ATOM      9  C   UNL d   1      -1.238   1.313  -0.046  0.00  0.00     0.032 A 
ATOM     10  C   UNL d   1      -2.481  -0.753  -0.022  0.00  0.00     0.018 A 
ATOM     11  C   UNL d   1      -2.461   0.636  -0.051  0.00  0.00     0.023 A 
ENDROOT
BRANCH  10  12
ATOM     12  C   UNL d   1      -3.730  -1.452  -0.005  0.00  0.00    -0.065 C 
ATOM     13  C   UNL d   1      -4.778  -2.040   0.033  0.00  0.00    -0.074 C 
BRANCH  13  14
ATOM     14  C   UNL d   1      -6.039  -2.788   0.108  0.00  0.00     0.273 C 
BRANCH  14  15
ATOM     15  O   UNL d   1      -7.130  -1.875   0.298  0.00  0.00    -0.305 OA
BRANCH  15  16
ATOM     16  C   UNL d   1      -8.201  -2.035  -0.509  0.00  0.00     0.295 C 
ATOM     17  O   UNL d   1      -8.275  -2.801  -1.462  0.00  0.00    -0.259 OA
BRANCH  16  18
ATOM     18  C   UNL d   1      -9.294  -1.091  -0.164  0.00  0.00     0.061 A 
ATOM     19  C   UNL d   1      -9.629  -0.695   1.138  0.00  0.00     0.050 A 
ATOM     20 CL   UNL d   1      -8.853  -1.299   2.560  0.00  0.00    -0.083 Cl
ATOM     21  C   UNL d   1     -10.693   0.198   1.345  0.00  0.00     0.025 A 
ATOM     22  C   UNL d   1     -11.435   0.686   0.268  0.00  0.00     0.002 A 
ATOM     23  C   UNL d   1     -11.127   0.274  -1.024  0.00  0.00     0.001 A 
ATOM     24  C   UNL d   1     -10.068  -0.613  -1.240  0.00  0.00     0.019 A 
ENDBRANCH  16  18
ENDBRANCH  15  16
ENDBRANCH  14  15
ENDBRANCH  13  14
ENDBRANCH  10  12
BRANCH   6  25
ATOM     25  O   UNL d   1       1.199  -2.796   0.008  0.00  0.00    -0.355 OA
ATOM     26  C   UNL d   1       2.445  -3.483  -0.015  0.00  0.00     0.210 C 
ENDBRANCH   6  25
BRANCH   3  27
ATOM     27  C   UNL d   1       3.585   1.542  -0.099  0.00  0.00     0.432 C 
ATOM     28  F   UNL d   1       3.398   2.892  -0.104  0.00  0.00    -0.165 F 
ATOM     29  F   UNL d   1       4.413   1.285   0.957  0.00  0.00    -0.165 F 
ATOM     30  F   UNL d   1       4.327   1.266  -1.213  0.00  0.00    -0.165 F 
ENDBRANCH   3  27
TORSDOF 7
