REMARK  4 active torsions:
REMARK  status: ('A' for Active; 'I' for Inactive)
REMARK    1  A    between atoms: C_6  and  C_1 
REMARK    2  A    between atoms: C_7  and  C_2 
REMARK    3  A    between atoms: O_11  and  C_6 
REMARK    4  A    between atoms: O_13  and  N_8 
ROOT
ATOM      1  C   UNL d   1      -0.757  -1.351  -0.008  0.00  0.00     0.075 A 
ATOM      2  C   UNL d   1       0.691  -1.341  -0.028  0.00  0.00     0.022 A 
ATOM      3  C   UNL d   1      -1.167  -0.016  -0.015  0.00  0.00     0.022 A 
ATOM      4  N   UNL d   1      -0.039   0.765  -0.034  0.00  0.00    -0.362 N 
ATOM      5  C   UNL d   1       1.091  -0.010  -0.029  0.00  0.00     0.018 A 
ATOM      6  C   UNL d   1      -2.500   0.644   0.008  0.00  0.00     0.069 C 
ATOM      7  C   UNL d   1       2.430   0.640  -0.015  0.00  0.00     0.069 C 
ATOM      8  H   UNL d   1      -0.038   1.778  -0.038  0.00  0.00     0.165 HD
ENDROOT
BRANCH   2   9
ATOM      9  C   UNL d   1       1.563  -2.508  -0.064  0.00  0.00     0.128 C 
ATOM     10  N   UNL d   1       2.757  -2.401  -0.554  0.00  0.00    -0.280 N 
ATOM     11  HN  UNL d   1       3.167  -1.541  -0.921  1.00  0.00     0.193 HD
BRANCH  10  12
ATOM     12  O   UNL d   1       3.401  -3.643  -0.505  0.00  0.00    -0.290 OA
ATOM     13  H   UNL d   1       4.259  -3.447  -0.927  0.00  0.00     0.244 HD
ENDBRANCH  10  12
ENDBRANCH   2   9
BRANCH   1  14
ATOM     14  C   UNL d   1      -1.609  -2.542   0.000  0.00  0.00     0.295 C 
ATOM     15  O   UNL d   1      -1.222  -3.638   0.390  0.00  0.00    -0.259 OA
BRANCH  14  16
ATOM     16  O   UNL d   1      -2.859  -2.316  -0.498  0.00  0.00    -0.322 OA
ATOM     17  C   UNL d   1      -3.703  -3.466  -0.522  0.00  0.00     0.213 C 
ENDBRANCH  14  16
ENDBRANCH   1  14
TORSDOF 4
