REMARK  6 active torsions:
REMARK  status: ('A' for Active; 'I' for Inactive)
REMARK    1  A    between atoms: C_3  and  C_1 
REMARK    2  A    between atoms: C_8  and  C_2 
REMARK    3  A    between atoms: N_4  and  C_12 
REMARK    4  A    between atoms: C_12  and  C_7 
REMARK    5  A    between atoms: O_22  and  C_8 
REMARK    6  A    between atoms: O_24  and  C_19 
ROOT
ATOM      1  C   UNL d   1       2.732   2.162   0.661  0.00  0.00     0.087 A 
ATOM      2  O   UNL d   1       4.050   1.961   0.367  0.00  0.00    -0.312 OA
ATOM      3  C   UNL d   1       4.362   2.736  -0.712  0.00  0.00     0.071 A 
ATOM      4  C   UNL d   1       2.208   3.076  -0.236  0.00  0.00     0.040 A 
ATOM      5  C   UNL d   1       3.246   3.427  -1.127  0.00  0.00     0.037 A 
ENDROOT
BRANCH   3   6
ATOM      6  C   UNL d   1       5.759   2.645  -1.224  0.00  0.00     0.188 C 
BRANCH   6   7
ATOM      7  N   UNL d   1       6.694   3.670  -0.757  0.00  0.00    -0.374 N 
ATOM      8  C   UNL d   1       6.887   4.895  -1.379  0.00  0.00     0.037 A 
ATOM      9  C   UNL d   1       7.960   5.727  -0.995  0.00  0.00    -0.029 A 
ATOM     10  C   UNL d   1       6.068   5.359  -2.417  0.00  0.00     0.033 A 
ATOM     11  C   UNL d   1       8.181   6.959  -1.641  0.00  0.00     0.046 A 
ATOM     12  C   UNL d   1       8.881   5.337   0.138  0.00  0.00     0.042 C 
ATOM     13  C   UNL d   1       7.346   7.398  -2.665  0.00  0.00     0.068 A 
ATOM     14  C   UNL d   1       6.275   6.597  -3.040  0.00  0.00     0.039 A 
ATOM     15  C   UNL d   1       8.723   3.881   0.558  0.00  0.00     0.024 C 
ATOM     16  C   UNL d   1       7.249   3.509   0.586  0.00  0.00     0.123 C 
BRANCH  13  17
ATOM     17  O   UNL d   1       7.677   8.605  -3.213  0.00  0.00    -0.356 OA
ATOM     18  C   UNL d   1       6.857   9.069  -4.279  0.00  0.00     0.210 C 
ENDBRANCH  13  17
ENDBRANCH   6   7
ENDBRANCH   3   6
BRANCH   1  19
ATOM     19  C   UNL d   1       1.961   1.459   1.737  0.00  0.00     0.021 A 
ATOM     20  C   UNL d   1       2.495   0.538   2.628  0.00  0.00     0.093 A 
ATOM     21  S   UNL d   1       1.252  -0.128   3.631  0.00  0.00    -0.095 SA
ATOM     22  C   UNL d   1       0.039   0.815   2.900  0.00  0.00     0.051 A 
ATOM     23  C   UNL d   1       0.549   1.631   1.920  0.00  0.00     0.023 A 
BRANCH  20  24
ATOM     24  C   UNL d   1       3.869   0.114   2.843  0.00  0.00     0.300 C 
ATOM     25  O   UNL d   1       4.874   0.811   2.725  0.00  0.00    -0.259 OA
BRANCH  24  26
ATOM     26  O   UNL d   1       3.905  -1.198   3.226  0.00  0.00    -0.322 OA
ATOM     27  C   UNL d   1       5.207  -1.708   3.510  0.00  0.00     0.213 C 
ENDBRANCH  24  26
ENDBRANCH  20  24
ENDBRANCH   1  19
TORSDOF 6
