REMARK  8 active torsions:
REMARK  status: ('A' for Active; 'I' for Inactive)
REMARK    1  A    between atoms: C_3  and  C_1 
REMARK    2  A    between atoms: O_9  and  C_2 
REMARK    3  A    between atoms: N_22  and  C_3 
REMARK    4  A    between atoms: C_4  and  C_8 
REMARK    5  A    between atoms: O_10  and  N_5 
REMARK    6  A    between atoms: C_7  and  O_10 
REMARK    7  A    between atoms: C_15  and  C_7 
REMARK    8  A    between atoms: C_17  and  O_9 
ROOT
ATOM      1  C   UNL d   1      -3.362  -2.232  -0.251  0.00  0.00     0.130 A 
ATOM      2  C   UNL d   1      -3.807  -3.552  -0.169  0.00  0.00     0.178 A 
ATOM      3  N   UNL d   1      -4.212  -1.185  -0.023  0.00  0.00    -0.358 N 
ATOM      4  HN  UNL d   1      -3.891  -0.218  -0.054  1.00  0.00     0.165 HD
ATOM      5  N   UNL d   1      -5.102  -3.859   0.138  0.00  0.00    -0.343 N 
ATOM      6  HN  UNL d   1      -5.424  -4.823   0.228  1.00  0.00     0.167 HD
ATOM      7  C   UNL d   1      -5.494  -1.497   0.245  0.00  0.00     0.105 A 
ATOM      8  C   UNL d   1      -5.930  -2.804   0.315  0.00  0.00     0.107 A 
ENDROOT
BRANCH   1   9
ATOM      9  C   UNL d   1      -1.986  -1.827  -0.744  0.00  0.00     0.151 C 
ATOM     10  N   UNL d   1      -1.784  -0.542  -0.857  0.00  0.00    -0.239 N 
ATOM     11  HN  UNL d   1      -2.388   0.156  -0.422  1.00  0.00     0.196 HD
BRANCH  10  12
ATOM     12  O   UNL d   1      -0.657  -0.204  -1.634  0.00  0.00    -0.193 OA
BRANCH  12  13
ATOM     13  C   UNL d   1      -1.065  -0.091  -2.937  0.00  0.00     0.315 C 
ATOM     14  O   UNL d   1      -1.926  -0.755  -3.503  0.00  0.00    -0.257 OA
BRANCH  13  15
ATOM     15  C   UNL d   1      -0.322   0.971  -3.648  0.00  0.00     0.041 A 
ATOM     16  C   UNL d   1      -0.225   0.868  -5.045  0.00  0.00     0.019 A 
ATOM     17  C   UNL d   1       0.351   1.898  -5.789  0.00  0.00     0.025 A 
ATOM     18  C   UNL d   1       0.819   3.037  -5.138  0.00  0.00     0.034 A 
ATOM     19  C   UNL d   1       0.727   3.149  -3.749  0.00  0.00     0.025 A 
ATOM     20 CL   UNL d   1       1.490   4.326  -6.059  0.00  0.00    -0.084 Cl
ATOM     21  C   UNL d   1       0.157   2.114  -2.999  0.00  0.00     0.019 A 
ENDBRANCH  13  15
ENDBRANCH  12  13
ENDBRANCH  10  12
BRANCH   9  22
ATOM     22  N   UNL d   1      -1.038  -2.762  -1.105  0.00  0.00    -0.382 N 
ATOM     23  H   UNL d   1      -1.110  -3.702  -0.731  0.00  0.00     0.157 HD
ATOM     24  H   UNL d   1      -0.093  -2.404  -1.167  0.00  0.00     0.157 HD
ENDBRANCH   9  22
ENDBRANCH   1   9
BRANCH   2  25
ATOM     25  O   UNL d   1      -2.913  -4.599  -0.324  0.00  0.00    -0.291 OA
BRANCH  25  26
ATOM     26  C   UNL d   1      -3.406  -5.758  -0.881  0.00  0.00     0.078 A 
ATOM     27  C   UNL d   1      -3.191  -6.954  -0.194  0.00  0.00     0.053 A 
ATOM     28  C   UNL d   1      -3.604  -8.176  -0.752  0.00  0.00     0.050 A 
ATOM     29  C   UNL d   1      -4.213  -8.172  -2.018  0.00  0.00     0.016 A 
ATOM     30  C   UNL d   1      -4.410  -6.975  -2.709  0.00  0.00     0.004 A 
ATOM     31  C   UNL d   1      -3.999  -5.768  -2.146  0.00  0.00     0.037 A 
BRANCH  28  32
ATOM     32  C   UNL d   1      -3.366  -9.482  -0.036  0.00  0.00     0.417 C 
ATOM     33  F   UNL d   1      -3.083  -9.332   1.288  0.00  0.00    -0.166 F 
ATOM     34  F   UNL d   1      -4.436 -10.322  -0.095  0.00  0.00    -0.166 F 
ATOM     35  F   UNL d   1      -2.319 -10.175  -0.564  0.00  0.00    -0.166 F 
ENDBRANCH  28  32
ENDBRANCH  25  26
ENDBRANCH   2  25
TORSDOF 8
