REMARK  3 active torsions:
REMARK  status: ('A' for Active; 'I' for Inactive)
REMARK    1  A    between atoms: C_11  and  C_2 
REMARK    2  A    between atoms: C_13  and  C_10 
REMARK    3  A    between atoms: C_14  and  C_12 
ROOT
ATOM      1  N   UNL d   1       0.299   0.624   0.042  0.00  0.00    -0.235 N 
ATOM      2  C   UNL d   1      -0.816   1.451   0.029  0.00  0.00     0.144 A 
ATOM      3  C   UNL d   1       0.144  -0.765   0.039  0.00  0.00     0.130 A 
ATOM      4  N   UNL d   1       1.605   0.962   0.042  0.00  0.00    -0.291 N 
ATOM      5  HN  UNL d   1       1.991   1.906   0.059  1.00  0.00     0.187 HD
ATOM      6  N   UNL d   1      -1.079  -1.371   0.056  0.00  0.00    -0.340 N 
ATOM      7  HN  UNL d   1      -1.170  -2.387   0.058  1.00  0.00     0.167 HD
ATOM      8  C   UNL d   1      -2.049   0.902   0.024  0.00  0.00     0.067 A 
ATOM      9  C   UNL d   1       1.413  -1.291   0.018  0.00  0.00     0.082 A 
ATOM     10  C   UNL d   1       2.296  -0.186   0.015  0.00  0.00     0.062 A 
ATOM     11  C   UNL d   1      -2.124  -0.593   0.069  0.00  0.00     0.046 A 
ENDROOT
BRANCH  11  12
ATOM     12  C   UNL d   1      -3.484  -1.208   0.118  0.00  0.00    -0.007 A 
ATOM     13  C   UNL d   1      -4.576  -0.557   0.694  0.00  0.00     0.030 A 
ATOM     14  C   UNL d   1      -5.794  -1.215   0.706  0.00  0.00     0.088 A 
ATOM     15  N   UNL d   1      -5.985  -2.450   0.201  0.00  0.00    -0.375 N 
ATOM     16  C   UNL d   1      -4.909  -3.068  -0.330  0.00  0.00     0.088 A 
ATOM     17  HN  UNL d   1      -6.902  -2.897   0.219  1.00  0.00     0.164 HD
ATOM     18  C   UNL d   1      -3.651  -2.497  -0.393  0.00  0.00     0.030 A 
ENDBRANCH  11  12
BRANCH   2  19
ATOM     19  C   UNL d   1      -0.629   2.922   0.009  0.00  0.00     0.434 C 
ATOM     20  F   UNL d   1       0.642   3.383  -0.002  0.00  0.00    -0.165 F 
ATOM     21  F   UNL d   1      -1.244   3.466  -1.077  0.00  0.00    -0.165 F 
ATOM     22  F   UNL d   1      -1.232   3.490   1.092  0.00  0.00    -0.165 F 
ENDBRANCH   2  19
BRANCH  10  23
ATOM     23  C   UNL d   1       3.764  -0.188  -0.015  0.00  0.00    -0.008 A 
ATOM     24  C   UNL d   1       4.475   1.024   0.005  0.00  0.00     0.014 A 
ATOM     25  C   UNL d   1       5.872   1.039  -0.032  0.00  0.00     0.001 A 
ATOM     26  C   UNL d   1       6.578  -0.159  -0.088  0.00  0.00     0.000 A 
ATOM     27  C   UNL d   1       5.890  -1.370  -0.108  0.00  0.00     0.001 A 
ATOM     28  C   UNL d   1       4.492  -1.385  -0.072  0.00  0.00     0.014 A 
ENDBRANCH  10  23
TORSDOF 3
