REMARK  2 active torsions:
REMARK  status: ('A' for Active; 'I' for Inactive)
REMARK    1  A    between atoms: N_2  and  S_1 
REMARK    2  A    between atoms: C_8  and  N_2 
ROOT
ATOM      1  C   UNL d   1       2.468  -1.048   4.367  0.00  0.00     0.103 A 
ATOM      2  C   UNL d   1       2.192  -0.461   3.132  0.00  0.00     0.064 A 
ATOM      3  C   UNL d   1       1.458  -1.168   5.328  0.00  0.00     0.102 A 
ATOM      4  C   UNL d   1       0.895  -0.034   2.849  0.00  0.00     0.025 A 
ATOM      5  O   UNL d   1       3.756  -1.474   4.573  0.00  0.00    -0.346 OA
ATOM      6  O   UNL d   1       1.671  -1.687   6.579  0.00  0.00    -0.346 OA
ATOM      7  C   UNL d   1       0.160  -0.750   5.036  0.00  0.00     0.041 A 
ATOM      8  C   UNL d   1      -0.120  -0.173   3.796  0.00  0.00     0.027 A 
ATOM      9  C   UNL d   1       3.855  -2.311   5.733  0.00  0.00     0.202 C 
ATOM     10  C   UNL d   1       3.070  -1.717   6.891  0.00  0.00     0.202 C 
ENDROOT
BRANCH   4  11
ATOM     11  N   UNL d   1       0.608   0.601   1.604  0.00  0.00    -0.186 NA
ATOM     12  H   UNL d   1       1.092   0.197   0.799  0.00  0.00     0.145 HD
BRANCH  11  13
ATOM     13  S   UNL d   1       0.781   2.285   1.536  0.00  0.00     0.210 S 
ATOM     14  O   UNL d   1       1.207   2.560   0.179  0.00  0.00    -0.211 OA
ATOM     15  O   UNL d   1       1.538   2.766   2.670  0.00  0.00    -0.211 OA
ATOM     16  C   UNL d   1      -0.909   2.821   1.684  0.00  0.00     0.180 C 
ENDBRANCH  11  13
ENDBRANCH   4  11
TORSDOF 2
