REMARK  6 active torsions:
REMARK  status: ('A' for Active; 'I' for Inactive)
REMARK    1  A    between atoms: C_7  and  C_1 
REMARK       I    between atoms: N_9  and  C_1 
REMARK    2  A    between atoms: C_2  and  C_11 
REMARK    3  A    between atoms: C_12  and  N_9 
REMARK    4  A    between atoms: S_10  and  C_15 
REMARK    5  A    between atoms: C_11  and  S_10 
REMARK    6  A    between atoms: C_15  and  C_12 
ROOT
ATOM      1  C   UNL d   1       1.081  -0.162   0.048  0.00  0.00     0.251 C 
ATOM      2  O   UNL d   1       0.424  -0.832   0.838  0.00  0.00    -0.268 OA
ATOM      3  N   UNL d   1       2.460  -0.153   0.019  0.00  0.00    -0.356 N 
ATOM      4  H   UNL d   1       2.907   0.666  -0.379  0.00  0.00     0.162 HD
ENDROOT
BRANCH   3   5
ATOM      5  C   UNL d   1       3.224  -0.887   1.012  0.00  0.00     0.133 C 
BRANCH   5   6
ATOM      6  C   UNL d   1       4.734  -0.701   0.846  0.00  0.00     0.094 C 
BRANCH   6   7
ATOM      7  S   UNL d   1       5.172   1.063   1.039  0.00  0.00    -0.161 SA
BRANCH   7   8
ATOM      8  C   UNL d   1       6.982   0.934   0.872  0.00  0.00     0.139 C 
BRANCH   8   9
ATOM      9  C   UNL d   1       7.612   2.268   1.047  0.00  0.00     0.061 A 
ATOM     10  O   UNL d   1       8.329   2.750  -0.010  0.00  0.00    -0.326 OA
ATOM     11  C   UNL d   1       8.806   3.968   0.356  0.00  0.00     0.142 A 
ATOM     12  C   UNL d   1       8.415   4.275   1.637  0.00  0.00     0.027 A 
ATOM     13  C   UNL d   1       7.649   3.175   2.089  0.00  0.00     0.035 A 
ENDBRANCH   8   9
ENDBRANCH   7   8
ENDBRANCH   6   7
ENDBRANCH   5   6
ENDBRANCH   3   5
BRANCH   1  14
ATOM     14  C   UNL d   1       0.407   0.735  -0.930  0.00  0.00     0.032 A 
ATOM     15  C   UNL d   1      -0.848   1.268  -0.611  0.00  0.00     0.017 A 
ATOM     16  C   UNL d   1      -1.506   2.101  -1.518  0.00  0.00     0.001 A 
ATOM     17  C   UNL d   1      -0.918   2.393  -2.749  0.00  0.00     0.000 A 
ATOM     18  C   UNL d   1       0.325   1.853  -3.079  0.00  0.00     0.001 A 
ATOM     19  C   UNL d   1       0.988   1.023  -2.173  0.00  0.00     0.017 A 
ENDBRANCH   1  14
TORSDOF 6
