REMARK  11 active torsions:
REMARK  status: ('A' for Active; 'I' for Inactive)
REMARK    1  A    between atoms: C_2  and  S_1 
REMARK    2  A    between atoms: N_4  and  S_1 
REMARK    3  A    between atoms: C_12  and  N_4 
REMARK    4  A    between atoms: C_20  and  N_4 
REMARK    5  A    between atoms: C_11  and  C_5 
REMARK    6  A    between atoms: S_26  and  C_9 
REMARK    7  A    between atoms: C_15  and  C_12 
REMARK    8  A    between atoms: C_16  and  C_20 
REMARK    9  A    between atoms: C_17  and  C_16 
REMARK   10  A    between atoms: O_29  and  C_17 
REMARK   11  A    between atoms: C_31  and  O_29 
ROOT
ATOM      1  S   UNL d   1       0.945   0.168  -0.153  0.00  0.00     0.250 S 
ATOM      2  O   UNL d   1       2.199   0.531  -0.784  0.00  0.00    -0.205 OA
ATOM      3  O   UNL d   1      -0.174   1.078  -0.149  0.00  0.00    -0.205 OA
ENDROOT
BRANCH   1   4
ATOM      4  C   UNL d   1       1.310  -0.084   1.578  0.00  0.00     0.116 A 
ATOM      5  S   UNL d   1       2.953  -0.036   2.055  0.00  0.00    -0.075 SA
ATOM      6  C   UNL d   1       2.574  -0.242   3.717  0.00  0.00     0.033 A 
ATOM      7  C   UNL d   1       1.206  -0.352   3.891  0.00  0.00     0.023 A 
ATOM      8  C   UNL d   1       0.483  -0.286   2.665  0.00  0.00     0.034 A 
BRANCH   6   9
ATOM      9  C   UNL d   1       3.619  -0.272   4.752  0.00  0.00     0.052 A 
ATOM     10  N   UNL d   1       3.213   0.182   5.956  0.00  0.00    -0.336 N 
ATOM     11  C   UNL d   1       4.101   0.129   6.960  0.00  0.00     0.144 A 
ATOM     12  HN  UNL d   1       2.271   0.549   6.097  1.00  0.00     0.168 HD
ATOM     13  N   UNL d   1       5.347  -0.361   6.851  0.00  0.00    -0.347 N 
ATOM     14  C   UNL d   1       5.709  -0.808   5.636  0.00  0.00     0.092 A 
ATOM     15  HN  UNL d   1       5.984  -0.393   7.647  1.00  0.00     0.167 HD
ATOM     16  C   UNL d   1       4.884  -0.780   4.539  0.00  0.00     0.048 A 
BRANCH  11  17
ATOM     17  S   UNL d   1       3.549   0.743   8.534  0.00  0.00    -0.098 SA
ATOM     18  C   UNL d   1       4.988   0.355   9.560  0.00  0.00     0.099 C 
ENDBRANCH  11  17
ENDBRANCH   6   9
ENDBRANCH   1   4
BRANCH   1  19
ATOM     19  N   UNL d   1       0.402  -1.363  -0.778  0.00  0.00    -0.199 NA
BRANCH  19  20
ATOM     20  C   UNL d   1      -1.097  -1.455  -0.663  0.00  0.00     0.172 C 
BRANCH  20  21
ATOM     21  C   UNL d   1      -1.663  -2.760  -1.106  0.00  0.00     0.066 A 
ATOM     22  O   UNL d   1      -2.601  -2.690  -2.099  0.00  0.00    -0.326 OA
ATOM     23  C   UNL d   1      -3.018  -3.955  -2.353  0.00  0.00     0.142 A 
ATOM     24  C   UNL d   1      -2.364  -4.847  -1.539  0.00  0.00     0.027 A 
ATOM     25  C   UNL d   1      -1.489  -4.077  -0.730  0.00  0.00     0.036 A 
ENDBRANCH  20  21
ENDBRANCH  19  20
BRANCH  19  26
ATOM     26  C   UNL d   1       0.894  -1.675  -2.162  0.00  0.00     0.118 C 
BRANCH  26  27
ATOM     27  C   UNL d   1       2.372  -2.052  -2.186  0.00  0.00     0.126 C 
BRANCH  27  28
ATOM     28  C   UNL d   1       2.751  -2.524  -3.560  0.00  0.00     0.259 C 
ATOM     29  O   UNL d   1       1.972  -2.686  -4.493  0.00  0.00    -0.265 OA
BRANCH  28  30
ATOM     30  O   UNL d   1       4.072  -2.852  -3.573  0.00  0.00    -0.322 OA
BRANCH  30  31
ATOM     31  C   UNL d   1       4.453  -3.764  -4.609  0.00  0.00     0.174 C 
ATOM     32  C   UNL d   1       4.204  -5.168  -4.086  0.00  0.00     0.034 C 
ENDBRANCH  30  31
ENDBRANCH  28  30
ENDBRANCH  27  28
ENDBRANCH  26  27
ENDBRANCH  19  26
ENDBRANCH   1  19
TORSDOF 11
