REMARK  4 active torsions:
REMARK  status: ('A' for Active; 'I' for Inactive)
REMARK    1  A    between atoms: C_2  and  N_1 
REMARK    2  A    between atoms: C_7  and  N_3 
REMARK    3  A    between atoms: O_16  and  C_6 
REMARK    4  A    between atoms: C_10  and  C_7 
ROOT
ATOM      1  N   UNL d   1      -1.322   0.063   0.581  0.00  0.00    -0.375 N 
ATOM      2  N   UNL d   1       1.426   0.056  -0.507  0.00  0.00     0.095 N 
ATOM      3  C   UNL d   1      -0.791  -1.157  -0.042  0.00  0.00     0.153 C 
ATOM      4  C   UNL d   1      -0.779   1.297  -0.020  0.00  0.00     0.153 C 
ATOM      5  C   UNL d   1       0.768   1.266   0.054  0.00  0.00     0.292 C 
ATOM      6  C   UNL d   1       0.757  -1.147   0.045  0.00  0.00     0.292 C 
ENDROOT
BRANCH   1   7
ATOM      7  C   UNL d   1      -2.628   0.104   1.077  0.00  0.00     0.064 A 
ATOM      8  C   UNL d   1      -3.004   0.990   2.123  0.00  0.00     0.094 A 
ATOM      9  C   UNL d   1      -4.319   1.001   2.616  0.00  0.00     0.039 A 
ATOM     10  C   UNL d   1      -5.266   0.104   2.127  0.00  0.00     0.003 A 
ATOM     11  C   UNL d   1      -4.911  -0.794   1.132  0.00  0.00     0.002 A 
ATOM     12  C   UNL d   1      -3.613  -0.786   0.610  0.00  0.00     0.032 A 
BRANCH   8  13
ATOM     13  O   UNL d   1      -2.024   1.811   2.637  0.00  0.00    -0.354 OA
ATOM     14  C   UNL d   1      -2.193   2.221   3.990  0.00  0.00     0.210 C 
ENDBRANCH   8  13
ENDBRANCH   1   7
BRANCH   2  15
ATOM     15  C   UNL d   1       1.436   0.027  -1.978  0.00  0.00     0.311 C 
BRANCH  15  16
ATOM     16  C   UNL d   1       2.215   1.171  -2.595  0.00  0.00    -0.030 A 
ATOM     17  C   UNL d   1       3.560   1.389  -2.261  0.00  0.00     0.009 A 
ATOM     18  C   UNL d   1       4.252   2.486  -2.779  0.00  0.00     0.007 A 
ATOM     19  C   UNL d   1       3.616   3.378  -3.651  0.00  0.00    -0.062 A 
ATOM     20  C   UNL d   1       2.283   3.146  -4.005  0.00  0.00     0.007 A 
ATOM     21  C   UNL d   1       4.340   4.595  -4.141  0.00  0.00     0.048 C 
ATOM     22  C   UNL d   1       1.590   2.051  -3.489  0.00  0.00     0.009 A 
ENDBRANCH  15  16
ENDBRANCH   2  15
TORSDOF 4
