REMARK  7 active torsions:
REMARK  status: ('A' for Active; 'I' for Inactive)
REMARK    1  A    between atoms: C_5  and  C_1 
REMARK    2  A    between atoms: C_8  and  N_4 
REMARK       I    between atoms: C_9  and  N_11 
REMARK    3  A    between atoms: C_20  and  C_9 
REMARK    4  A    between atoms: C_10  and  C_21 
REMARK    5  A    between atoms: O_22  and  C_10 
REMARK    6  A    between atoms: N_11  and  C_19 
REMARK    7  A    between atoms: C_21  and  C_20 
ROOT
ATOM      1  C   UNL d   1       1.954   1.577  -0.018  0.00  0.00     0.056 A 
ATOM      2  C   UNL d   1       2.893   1.400  -1.043  0.00  0.00     0.034 A 
ATOM      3  C   UNL d   1       2.161   2.589   0.927  0.00  0.00     0.034 A 
ATOM      4  C   UNL d   1       4.226   3.241  -0.177  0.00  0.00     0.034 A 
ATOM      5  C   UNL d   1       3.291   3.411   0.844  0.00  0.00     0.032 A 
ATOM      6  C   UNL d   1       4.016   2.234  -1.125  0.00  0.00     0.032 A 
ENDROOT
BRANCH   1   7
ATOM      7  N   UNL d   1       0.807   0.738   0.045  0.00  0.00    -0.267 N 
ATOM      8  N   UNL d   1       0.629  -0.270  -0.849  0.00  0.00    -0.290 N 
ATOM      9  C   UNL d   1      -0.536  -0.854  -0.508  0.00  0.00     0.134 A 
ATOM     10  HN  UNL d   1       1.248  -0.530  -1.617  1.00  0.00     0.187 HD
ATOM     11  C   UNL d   1      -1.118  -0.202   0.605  0.00  0.00     0.055 A 
ATOM     12  C   UNL d   1      -0.241   0.801   0.935  0.00  0.00     0.119 A 
BRANCH   9  13
ATOM     13  C   UNL d   1      -1.117  -2.036  -1.238  0.00  0.00     0.434 C 
ATOM     14  F   UNL d   1      -0.331  -2.501  -2.244  0.00  0.00    -0.165 F 
ATOM     15  F   UNL d   1      -1.334  -3.083  -0.395  0.00  0.00    -0.165 F 
ATOM     16  F   UNL d   1      -2.324  -1.736  -1.791  0.00  0.00    -0.165 F 
ENDBRANCH   9  13
ENDBRANCH   1   7
BRANCH   4  17
ATOM     17  N   UNL d   1       5.382   4.037  -0.315  0.00  0.00    -0.327 N 
ATOM     18  C   UNL d   1       5.905   4.895   0.630  0.00  0.00     0.222 C 
ATOM     19  O   UNL d   1       5.474   5.092   1.764  0.00  0.00    -0.273 OA
ATOM     20  H   UNL d   1       5.946   3.852  -1.137  0.00  0.00     0.169 HD
BRANCH  18  21
ATOM     21  C   UNL d   1       7.197   5.560   0.193  0.00  0.00     0.113 C 
BRANCH  21  22
ATOM     22  C   UNL d   1       8.162   5.608   1.371  0.00  0.00     0.119 C 
BRANCH  22  23
ATOM     23  C   UNL d   1       8.508   4.209   1.814  0.00  0.00     0.139 C 
ATOM     24  O   UNL d   1       9.458   3.581   1.372  0.00  0.00    -0.650 OA
BRANCH  23  25
ATOM     25  O   UNL d   1       7.631   3.681   2.695  0.00  0.00    -0.776 OA
ATOM     26  H   UNL d   1       6.835   4.241   2.857  0.00  0.00     0.167 HD
ENDBRANCH  23  25
ENDBRANCH  22  23
ENDBRANCH  21  22
ENDBRANCH  18  21
ENDBRANCH   4  17
TORSDOF 7
