REMARK  5 active torsions:
REMARK  status: ('A' for Active; 'I' for Inactive)
REMARK    1  A    between atoms: N_2  and  C_1 
REMARK    2  A    between atoms: N_3  and  C_1 
REMARK       I    between atoms: C_4  and  N_2 
REMARK       I    between atoms: C_5  and  N_3 
REMARK    3  A    between atoms: C_6  and  C_4 
REMARK    4  A    between atoms: O_10  and  C_5 
REMARK    5  A    between atoms: C_14  and  O_10 
ROOT
ATOM      1  C   UNL d   1       0.755   0.221   0.313  0.00  0.00     0.182 C 
ATOM      2  S   UNL d   1      -0.442   1.065   1.115  0.00  0.00    -0.040 SA
ENDROOT
BRANCH   1   3
ATOM      3  N   UNL d   1       0.323  -0.732  -0.594  0.00  0.00    -0.303 N 
ATOM      4  C   UNL d   1       1.051  -1.550  -1.452  0.00  0.00     0.231 C 
ATOM      5  O   UNL d   1       2.281  -1.552  -1.464  0.00  0.00    -0.272 OA
ATOM      6  H   UNL d   1      -0.684  -0.775  -0.642  0.00  0.00     0.171 HD
BRANCH   4   7
ATOM      7  C   UNL d   1       0.182  -2.444  -2.374  0.00  0.00     0.030 C 
ATOM      8  C   UNL d   1      -0.686  -1.575  -3.297  0.00  0.00     0.025 C 
ATOM      9  C   UNL d   1       1.085  -3.333  -3.247  0.00  0.00     0.025 C 
ATOM     10  C   UNL d   1      -0.719  -3.355  -1.524  0.00  0.00     0.025 C 
ENDBRANCH   4   7
ENDBRANCH   1   3
BRANCH   1  11
ATOM     11  N   UNL d   1       2.121   0.363   0.439  0.00  0.00    -0.279 N 
ATOM     12  C   UNL d   1       2.842   1.317   1.124  0.00  0.00     0.366 C 
ATOM     13  O   UNL d   1       2.410   2.236   1.798  0.00  0.00    -0.238 OA
ATOM     14  H   UNL d   1       2.695  -0.258  -0.121  0.00  0.00     0.173 HD
BRANCH  12  15
ATOM     15  O   UNL d   1       4.165   1.118   0.864  0.00  0.00    -0.304 OA
BRANCH  15  16
ATOM     16  C   UNL d   1       5.026   2.218   1.203  0.00  0.00     0.176 C 
ATOM     17  C   UNL d   1       5.040   3.188   0.035  0.00  0.00     0.034 C 
ENDBRANCH  15  16
ENDBRANCH  12  15
ENDBRANCH   1  11
TORSDOF 5
