REMARK  2 active torsions:
REMARK  status: ('A' for Active; 'I' for Inactive)
REMARK    1  A    between atoms: C_4  and  C_2 
REMARK       I    between atoms: N_11  and  C_4 
REMARK    2  A    between atoms: C_14  and  N_11 
ROOT
ATOM      1  C   UNL d   1      -3.461  -1.400  -0.254  0.00  0.00     0.256 C 
ATOM      2  N   UNL d   1      -3.451  -2.775  -0.063  0.00  0.00    -0.320 N 
ATOM      3  O   UNL d   1      -4.475  -0.712  -0.326  0.00  0.00    -0.267 OA
ATOM      4  H   UNL d   1      -2.599  -3.207   0.256  0.00  0.00     0.169 HD
ENDROOT
BRANCH   1   5
ATOM      5  C   UNL d   1      -2.149  -0.667  -0.256  0.00  0.00     0.034 A 
ATOM      6  C   UNL d   1      -0.909  -1.320  -0.091  0.00  0.00     0.051 A 
ATOM      7  C   UNL d   1       0.202  -0.454   0.008  0.00  0.00     0.086 A 
ATOM      8  C   UNL d   1       0.092   0.994  -0.101  0.00  0.00     0.085 A 
ATOM      9  N   UNL d   1       1.488  -0.760   0.222  0.00  0.00    -0.240 N 
ATOM     10  N   UNL d   1       1.310   1.522   0.055  0.00  0.00    -0.240 N 
ATOM     11  C   UNL d   1      -1.132   1.638  -0.327  0.00  0.00     0.035 A 
ATOM     12  O   UNL d   1       2.162   0.451   0.265  0.00  0.00    -0.156 OA
ATOM     13  HN  UNL d   1       1.561   2.511   0.026  1.00  0.00     0.197 HD
ATOM     14  C   UNL d   1      -2.233   0.762  -0.389  0.00  0.00     0.019 A 
ATOM     15  HN  UNL d   1       1.889  -1.691   0.330  1.00  0.00     0.197 HD
ENDBRANCH   1   5
BRANCH   2  16
ATOM     16  C   UNL d   1      -4.621  -3.578   0.046  0.00  0.00     0.074 A 
ATOM     17  C   UNL d   1      -5.878  -3.244  -0.488  0.00  0.00     0.146 A 
ATOM     18  C   UNL d   1      -7.009  -4.008  -0.214  0.00  0.00     0.086 A 
ATOM     19  F   UNL d   1      -6.030  -2.231  -1.351  0.00  0.00    -0.204 F 
ATOM     20  C   UNL d   1      -6.884  -5.145   0.564  0.00  0.00     0.119 A 
ATOM     21  C   UNL d   1      -5.640  -5.554   1.032  0.00  0.00     0.044 A 
ATOM     22  F   UNL d   1      -7.971  -5.871   0.856  0.00  0.00    -0.206 F 
ATOM     23  C   UNL d   1      -4.506  -4.778   0.764  0.00  0.00     0.036 A 
ENDBRANCH   2  16
TORSDOF 2
