REMARK  4 active torsions:
REMARK  status: ('A' for Active; 'I' for Inactive)
REMARK    1  A    between atoms: N_3  and  C_1 
REMARK    2  A    between atoms: C_2  and  N_3 
REMARK    3  A    between atoms: C_9  and  N_5 
REMARK    4  A    between atoms: C_11  and  C_9 
ROOT
ATOM      1  C   UNL d   1       1.172   0.069  -0.049  0.00  0.00     0.172 C 
ATOM      2  S   UNL d   1       0.451  -0.282   1.422  0.00  0.00    -0.041 SA
ATOM      3  N   UNL d   1       2.534   0.083  -0.077  0.00  0.00    -0.365 N 
ATOM      4  H   UNL d   1       2.955  -0.173   0.809  0.00  0.00     0.162 HD
ENDROOT
BRANCH   1   5
ATOM      5  N   UNL d   1       0.546   0.406  -1.229  0.00  0.00    -0.332 N 
ATOM      6  H   UNL d   1       0.935   1.258  -1.616  0.00  0.00     0.168 HD
BRANCH   5   7
ATOM      7  C   UNL d   1      -0.797   0.083  -1.576  0.00  0.00     0.062 C 
ATOM      8  C   UNL d   1      -1.316  -1.225  -1.417  0.00  0.00     0.061 C 
ATOM      9 CL   UNL d   1      -0.305  -2.610  -1.130  0.00  0.00    -0.082 Cl
ATOM     10  C   UNL d   1      -2.670  -1.496  -1.638  0.00  0.00     0.026 C 
ATOM     11  C   UNL d   1      -3.520  -0.488  -2.071  0.00  0.00     0.002 C 
ATOM     12  C   UNL d   1      -3.001   0.774  -2.344  0.00  0.00     0.009 C 
ATOM     13  C   UNL d   1      -1.637   1.072  -2.135  0.00  0.00    -0.034 C 
ATOM     14  C   UNL d   1      -1.199   2.472  -2.472  0.00  0.00     0.050 C 
ENDBRANCH   5   7
ENDBRANCH   1   5
BRANCH   3  15
ATOM     15  C   UNL d   1       3.423   0.564  -1.127  0.00  0.00     0.154 C 
BRANCH  15  16
ATOM     16  C   UNL d   1       3.778   2.047  -0.955  0.00  0.00     0.139 C 
ATOM     17  O   UNL d   1       2.596   2.870  -1.056  0.00  0.00    -0.384 OA
ATOM     18  C   UNL d   1       2.626   3.825   0.019  0.00  0.00     0.168 C 
ATOM     19  C   UNL d   1       4.033   3.820   0.576  0.00  0.00     0.029 C 
ATOM     20  C   UNL d   1       4.442   2.384   0.376  0.00  0.00     0.035 C 
ENDBRANCH  15  16
ENDBRANCH   3  15
TORSDOF 4
