REMARK  8 active torsions:
REMARK  status: ('A' for Active; 'I' for Inactive)
REMARK    1  A    between atoms: C_4  and  C_1 
REMARK    2  A    between atoms: O_11  and  C_4 
REMARK    3  A    between atoms: C_13  and  C_7 
REMARK    4  A    between atoms: N_14  and  C_7 
REMARK    5  A    between atoms: N_8  and  O_11 
REMARK    6  A    between atoms: O_15  and  C_13 
REMARK    7  A    between atoms: C_16  and  O_15 
REMARK    8  A    between atoms: O_22  and  C_17 
ROOT
ATOM      1  C   UNL d   1      -5.077   1.084   0.013  0.00  0.00     0.100 C 
ATOM      2  N   UNL d   1      -4.536   1.254  -1.153  0.00  0.00    -0.248 N 
ATOM      3  HN  UNL d   1      -4.900   0.837  -2.010  1.00  0.00     0.196 HD
ENDROOT
BRANCH   1   4
ATOM      4  C   UNL d   1      -6.354   0.227   0.063  0.00  0.00     0.247 C 
BRANCH   4   5
ATOM      5  O   UNL d   1      -6.037  -1.151   0.231  0.00  0.00    -0.344 OA
BRANCH   5   6
ATOM      6  C   UNL d   1      -7.092  -2.024   0.134  0.00  0.00     0.069 A 
ATOM      7  C   UNL d   1      -8.443  -1.668   0.112  0.00  0.00     0.039 A 
ATOM      8  C   UNL d   1      -9.441  -2.649   0.025  0.00  0.00     0.039 A 
ATOM      9  C   UNL d   1      -9.100  -3.999  -0.036  0.00  0.00     0.068 A 
ATOM     10  C   UNL d   1      -7.752  -4.356  -0.020  0.00  0.00     0.039 A 
ATOM     11  C   UNL d   1      -6.754  -3.376   0.068  0.00  0.00     0.039 A 
BRANCH   9  12
ATOM     12  O   UNL d   1      -9.980  -5.044  -0.113  0.00  0.00    -0.356 OA
ATOM     13  C   UNL d   1     -11.365  -4.725  -0.040  0.00  0.00     0.210 C 
ENDBRANCH   9  12
ENDBRANCH   5   6
ENDBRANCH   4   5
ENDBRANCH   1   4
BRANCH   1  14
ATOM     14  N   UNL d   1      -4.606   1.618   1.191  0.00  0.00    -0.289 NA
ATOM     15  H   UNL d   1      -3.648   1.946   1.143  0.00  0.00     0.125 HD
ATOM     16  H   UNL d   1      -4.819   1.101   2.038  0.00  0.00     0.125 HD
ENDBRANCH   1  14
BRANCH   2  17
ATOM     17  O   UNL d   1      -3.387   2.081  -1.113  0.00  0.00    -0.193 OA
BRANCH  17  18
ATOM     18  C   UNL d   1      -2.967   2.320  -2.410  0.00  0.00     0.333 C 
ATOM     19  O   UNL d   1      -3.526   1.901  -3.425  0.00  0.00    -0.256 OA
BRANCH  18  20
ATOM     20  C   UNL d   1      -1.759   3.140  -2.503  0.00  0.00     0.134 A 
ATOM     21  N   UNL d   1      -1.109   3.658  -1.447  0.00  0.00    -0.255 N 
ATOM     22  O   UNL d   1      -0.028   4.356  -1.972  0.00  0.00    -0.242 OA
ATOM     23  HN  UNL d   1      -1.357   3.558  -0.463  1.00  0.00     0.195 HD
ATOM     24  C   UNL d   1      -0.031   4.256  -3.328  0.00  0.00     0.075 A 
ATOM     25  C   UNL d   1      -1.106   3.502  -3.715  0.00  0.00     0.072 A 
ATOM     26  C   UNL d   1       1.056   4.933  -4.059  0.00  0.00     0.079 C 
ENDBRANCH  18  20
ENDBRANCH  17  18
ENDBRANCH   2  17
TORSDOF 8
