REMARK  5 active torsions:
REMARK  status: ('A' for Active; 'I' for Inactive)
REMARK    1  A    between atoms: C_10  and  N_3 
REMARK    2  A    between atoms: C_12  and  C_4 
REMARK    3  A    between atoms: C_9  and  C_13 
REMARK    4  A    between atoms: C_11  and  C_10 
REMARK       I    between atoms: N_15  and  C_11 
REMARK    5  A    between atoms: C_20  and  N_15 
ROOT
ATOM      1  N   UNL d   1      -0.459  -0.628   0.043  0.00  0.00    -0.265 N 
ATOM      2  HN  UNL d   1      -0.780  -1.529  -0.312  1.00  0.00     0.190 HD
ATOM      3  N   UNL d   1       0.748  -0.273   0.558  0.00  0.00    -0.209 N 
ATOM      4  C   UNL d   1      -1.112   0.553   0.137  0.00  0.00     0.147 A 
ATOM      5  N   UNL d   1      -0.329   1.548   0.668  0.00  0.00    -0.268 N 
ATOM      6  HN  UNL d   1      -0.608   2.516   0.832  1.00  0.00     0.190 HD
ATOM      7  N   UNL d   1       0.850   1.018   0.928  0.00  0.00    -0.224 N 
ATOM      8  HN  UNL d   1       1.665   1.486   1.324  1.00  0.00     0.210 HD
ENDROOT
BRANCH   3   9
ATOM      9  C   UNL d   1       1.976  -1.004   0.341  0.00  0.00     0.274 C 
BRANCH   9  10
ATOM     10  C   UNL d   1       2.006  -2.497   0.462  0.00  0.00     0.243 C 
ATOM     11  N   UNL d   1       0.839  -3.225   0.320  0.00  0.00    -0.326 N 
ATOM     12  H   UNL d   1      -0.011  -2.709   0.096  0.00  0.00     0.169 HD
ATOM     13  O   UNL d   1       3.125  -3.009   0.595  0.00  0.00    -0.271 OA
BRANCH  11  14
ATOM     14  C   UNL d   1       0.748  -4.644   0.318  0.00  0.00     0.034 A 
ATOM     15  C   UNL d   1       1.803  -5.492   0.676  0.00  0.00     0.030 A 
ATOM     16  C   UNL d   1       1.688  -6.883   0.573  0.00  0.00     0.009 A 
ATOM     17  C   UNL d   1       0.504  -7.467   0.126  0.00  0.00    -0.062 A 
ATOM     18  C   UNL d   1      -0.571  -6.628  -0.202  0.00  0.00     0.009 A 
ATOM     19  C   UNL d   1       0.431  -8.953  -0.061  0.00  0.00     0.048 C 
ATOM     20  C   UNL d   1      -0.451  -5.232  -0.093  0.00  0.00     0.030 A 
ENDBRANCH  11  14
ENDBRANCH   9  10
ENDBRANCH   3   9
BRANCH   4  21
ATOM     21  C   UNL d   1      -2.463   0.835  -0.338  0.00  0.00     0.011 A 
ATOM     22  C   UNL d   1      -3.339  -0.189  -0.723  0.00  0.00     0.031 A 
ATOM     23  C   UNL d   1      -4.609   0.110  -1.251  0.00  0.00     0.048 A 
ATOM     24  C   UNL d   1      -5.007   1.452  -1.368  0.00  0.00     0.016 A 
ATOM     25  C   UNL d   1      -4.156   2.476  -0.963  0.00  0.00     0.002 A 
ATOM     26  C   UNL d   1      -2.895   2.169  -0.452  0.00  0.00     0.015 A 
BRANCH  23  27
ATOM     27  C   UNL d   1      -5.536  -0.982  -1.725  0.00  0.00     0.417 C 
ATOM     28  F   UNL d   1      -5.023  -2.235  -1.573  0.00  0.00    -0.166 F 
ATOM     29  F   UNL d   1      -6.727  -0.983  -1.065  0.00  0.00    -0.166 F 
ATOM     30  F   UNL d   1      -5.841  -0.862  -3.047  0.00  0.00    -0.166 F 
ENDBRANCH  23  27
ENDBRANCH   4  21
TORSDOF 5
