REMARK  6 active torsions:
REMARK  status: ('A' for Active; 'I' for Inactive)
REMARK    1  A    between atoms: C_6  and  N_1 
REMARK    2  A    between atoms: C_8  and  C_3 
REMARK    3  A    between atoms: C_5  and  C_11 
REMARK    4  A    between atoms: N_13  and  C_12 
REMARK    5  A    between atoms: C_22  and  N_13 
REMARK    6  A    between atoms: C_23  and  N_13 
ROOT
ATOM      1  O   UNL d   1      -2.228   4.122   3.608  0.00  0.00    -0.342 OA
ATOM      2  C   UNL d   1      -1.525   4.882   4.594  0.00  0.00     0.391 C 
ATOM      3  N   UNL d   1      -0.791   5.951   3.922  0.00  0.00     0.119 N 
ATOM      4  C   UNL d   1      -2.302   4.927   2.423  0.00  0.00     0.185 C 
ATOM      5  C   UNL d   1      -1.620   6.253   2.760  0.00  0.00     0.310 C 
ATOM      6  H   UNL d   1      -0.716   6.763   4.527  0.00  0.00     0.319 HD
ENDROOT
BRANCH   2   7
ATOM      7  C   UNL d   1      -2.469   5.387   5.676  0.00  0.00     0.000 A 
ATOM      8  C   UNL d   1      -3.851   5.168   5.629  0.00  0.00     0.014 A 
ATOM      9  C   UNL d   1      -4.686   5.596   6.670  0.00  0.00     0.030 A 
ATOM     10  C   UNL d   1      -4.181   6.231   7.812  0.00  0.00     0.030 A 
ATOM     11  C   UNL d   1      -2.798   6.463   7.838  0.00  0.00     0.030 A 
ATOM     12  C   UNL d   1      -1.956   6.053   6.795  0.00  0.00     0.014 A 
BRANCH  10  13
ATOM     13  N   UNL d   1      -5.003   6.572   8.878  0.00  0.00    -0.382 N 
BRANCH  13  14
ATOM     14  C   UNL d   1      -6.340   7.122   8.642  0.00  0.00     0.118 C 
ATOM     15  C   UNL d   1      -7.428   6.090   8.896  0.00  0.00     0.026 C 
ENDBRANCH  13  14
BRANCH  13  16
ATOM     16  C   UNL d   1      -4.513   6.514  10.258  0.00  0.00     0.118 C 
ATOM     17  C   UNL d   1      -4.213   5.080  10.677  0.00  0.00     0.026 C 
ENDBRANCH  13  16
ENDBRANCH  10  13
ENDBRANCH   2   7
BRANCH   4  18
ATOM     18  C   UNL d   1      -1.686   4.168   1.268  0.00  0.00    -0.028 A 
ATOM     19  C   UNL d   1      -2.466   3.853   0.144  0.00  0.00     0.012 A 
ATOM     20  C   UNL d   1      -1.907   3.182  -0.947  0.00  0.00     0.037 A 
ATOM     21  C   UNL d   1      -0.555   2.818  -0.913  0.00  0.00     0.102 A 
ATOM     22  C   UNL d   1       0.231   3.101   0.208  0.00  0.00     0.037 A 
ATOM     23  C   UNL d   1      -0.339   3.771   1.293  0.00  0.00     0.012 A 
BRANCH  21  24
ATOM     24  N   UNL d   1       0.043   2.144  -2.072  0.00  0.00    -0.116 N 
ATOM     25  O   UNL d   1       1.252   1.868  -2.018  0.00  0.00    -0.532 OA
ATOM     26  O   UNL d   1      -0.690   1.900  -3.040  0.00  0.00    -0.532 OA
ENDBRANCH  21  24
ENDBRANCH   4  18
TORSDOF 6
