REMARK  4 active torsions:
REMARK  status: ('A' for Active; 'I' for Inactive)
REMARK    1  A    between atoms: C_2  and  C_1 
REMARK       I    between atoms: N_3  and  C_2 
REMARK       I    between atoms: C_4  and  N_8 
REMARK    2  A    between atoms: O_9  and  C_4 
REMARK    3  A    between atoms: N_8  and  C_18 
REMARK    4  A    between atoms: C_14  and  O_9 
ROOT
ATOM      1  C   UNL d   1      -1.949  -2.089   0.367  0.00  0.00     0.255 C 
ATOM      2  N   UNL d   1      -1.882  -3.481   0.255  0.00  0.00    -0.348 N 
ATOM      3  O   UNL d   1      -2.512  -1.371  -0.453  0.00  0.00    -0.267 OA
ATOM      4  C   UNL d   1      -2.354  -4.119  -0.969  0.00  0.00     0.128 C 
ATOM      5  C   UNL d   1      -1.485  -4.406   1.316  0.00  0.00     0.128 C 
ATOM      6  C   UNL d   1      -3.551  -5.013  -0.688  0.00  0.00     0.045 C 
ATOM      7  C   UNL d   1      -2.625  -5.342   1.686  0.00  0.00     0.045 C 
ATOM      8  C   UNL d   1      -3.339  -5.972   0.490  0.00  0.00     0.089 C 
ENDROOT
BRANCH   1   9
ATOM      9  C   UNL d   1      -1.229  -1.440   1.490  0.00  0.00     0.053 A 
ATOM     10  C   UNL d   1      -1.840  -0.512   2.345  0.00  0.00     0.051 A 
ATOM     11  C   UNL d   1      -1.112   0.030   3.411  0.00  0.00     0.048 A 
ATOM     12 CL   UNL d   1      -3.491  -0.032   2.188  0.00  0.00    -0.083 Cl
ATOM     13  C   UNL d   1       0.211  -0.356   3.621  0.00  0.00     0.035 A 
ATOM     14  C   UNL d   1       0.837  -1.246   2.752  0.00  0.00     0.025 A 
ATOM     15 CL   UNL d   1       1.079   0.259   4.973  0.00  0.00    -0.084 Cl
ATOM     16  C   UNL d   1       0.127  -1.764   1.671  0.00  0.00     0.020 A 
ENDBRANCH   1   9
BRANCH   8  17
ATOM     17  N   UNL d   1      -2.863  -7.304   0.115  0.00  0.00    -0.332 N 
ATOM     18  C   UNL d   1      -1.690  -7.791  -0.360  0.00  0.00     0.361 C 
ATOM     19  O   UNL d   1      -1.602  -8.980  -0.645  0.00  0.00    -0.238 OA
ATOM     20  H   UNL d   1      -3.555  -8.045   0.151  0.00  0.00     0.165 HD
BRANCH  18  21
ATOM     21  O   UNL d   1      -0.691  -6.886  -0.472  0.00  0.00    -0.294 OA
BRANCH  21  22
ATOM     22  C   UNL d   1       0.595  -7.300  -1.020  0.00  0.00     0.061 C 
ATOM     23  C   UNL d   1       0.442  -7.840  -2.449  0.00  0.00     0.046 C 
ATOM     24  C   UNL d   1       1.451  -6.025  -1.070  0.00  0.00     0.046 C 
ATOM     25  C   UNL d   1       1.299  -8.311  -0.104  0.00  0.00     0.046 C 
ENDBRANCH  21  22
ENDBRANCH  18  21
ENDBRANCH   8  17
TORSDOF 4
