REMARK  2 active torsions:
REMARK  status: ('A' for Active; 'I' for Inactive)
REMARK    1  A    between atoms: C_6  and  N_1 
REMARK    2  A    between atoms: C_7  and  C_10 
ROOT
ATOM      1  N   UNL d   1      -1.771   0.064   0.742  0.00  0.00    -0.261 N 
ATOM      2  C   UNL d   1      -1.230  -1.044   0.117  0.00  0.00     0.163 C 
ATOM      3  N   UNL d   1      -0.091  -0.648  -0.601  0.00  0.00    -0.236 NA
ATOM      4  C   UNL d   1      -1.181   1.220   0.255  0.00  0.00     0.258 C 
ATOM      5  C   UNL d   1      -0.056   0.800  -0.683  0.00  0.00     0.220 C 
ATOM      6  S   UNL d   1      -1.815  -2.613   0.081  0.00  0.00    -0.046 SA
ATOM      7  S   UNL d   1       1.564   1.331  -0.070  0.00  0.00    -0.138 SA
ATOM      8  O   UNL d   1      -1.456   2.383   0.534  0.00  0.00    -0.270 OA
ATOM      9  C   UNL d   1       1.199  -1.242  -0.240  0.00  0.00     0.110 C 
ATOM     10  C   UNL d   1       1.911  -0.269   0.692  0.00  0.00     0.091 C 
ENDROOT
BRANCH   1  11
ATOM     11  C   UNL d   1      -2.505   0.059   1.961  0.00  0.00     0.045 A 
ATOM     12  C   UNL d   1      -2.214  -0.901   2.940  0.00  0.00     0.046 A 
ATOM     13  C   UNL d   1      -2.813  -0.871   4.209  0.00  0.00     0.050 A 
ATOM     14  C   UNL d   1      -3.744   0.136   4.486  0.00  0.00     0.016 A 
ATOM     15  C   UNL d   1      -4.046   1.098   3.522  0.00  0.00     0.003 A 
ATOM     16  C   UNL d   1      -3.420   1.069   2.271  0.00  0.00     0.030 A 
BRANCH  13  17
ATOM     17  C   UNL d   1      -2.421  -1.876   5.264  0.00  0.00     0.417 C 
ATOM     18  F   UNL d   1      -1.482  -2.771   4.836  0.00  0.00    -0.166 F 
ATOM     19  F   UNL d   1      -1.884  -1.285   6.366  0.00  0.00    -0.166 F 
ATOM     20  F   UNL d   1      -3.471  -2.618   5.704  0.00  0.00    -0.166 F 
ENDBRANCH  13  17
ENDBRANCH   1  11
TORSDOF 2
