REMARK  8 active torsions:
REMARK  status: ('A' for Active; 'I' for Inactive)
REMARK    1  A    between atoms: C_15  and  C_2 
REMARK    2  A    between atoms: C_16  and  C_3 
REMARK    3  A    between atoms: S_18  and  C_6 
REMARK    4  A    between atoms: C_13  and  C_15 
REMARK    5  A    between atoms: C_14  and  C_19 
REMARK    6  A    between atoms: C_32  and  S_18 
REMARK    7  A    between atoms: C_20  and  C_32 
REMARK       I    between atoms: N_23  and  C_20 
REMARK    8  A    between atoms: C_25  and  N_23 
ROOT
ATOM      1  N   UNL d   1       1.095   0.150   0.334  0.00  0.00    -0.319 N 
ATOM      2  C   UNL d   1       0.202   1.147  -0.012  0.00  0.00     0.107 A 
ATOM      3  C   UNL d   1       0.329  -0.969   0.517  0.00  0.00     0.162 A 
ATOM      4  N   UNL d   1      -1.002   0.612  -0.130  0.00  0.00    -0.286 N 
ATOM      5  HN  UNL d   1      -1.850   1.104  -0.410  1.00  0.00     0.188 HD
ATOM      6  N   UNL d   1      -0.915  -0.714   0.189  0.00  0.00    -0.278 N 
ATOM      7  HN  UNL d   1      -1.682  -1.387   0.175  1.00  0.00     0.189 HD
ATOM      8  C   UNL d   1       2.524   0.259   0.473  0.00  0.00     0.159 C 
ENDROOT
BRANCH   2   9
ATOM      9  C   UNL d   1       0.486   2.609  -0.094  0.00  0.00     0.164 C 
BRANCH   9  10
ATOM     10  C   UNL d   1       1.433   3.002  -1.164  0.00  0.00     0.155 A 
ATOM     11  N   UNL d   1       2.707   2.719  -1.279  0.00  0.00    -0.321 N 
ATOM     12  C   UNL d   1       3.108   3.524  -2.329  0.00  0.00     0.156 A 
ATOM     13  HN  UNL d   1       3.265   2.065  -0.730  1.00  0.00     0.169 HD
ATOM     14  N   UNL d   1       2.109   4.251  -2.856  0.00  0.00    -0.241 N 
ATOM     15  O   UNL d   1       0.999   3.910  -2.084  0.00  0.00    -0.222 OA
ATOM     16  HN  UNL d   1       2.152   4.902  -3.640  1.00  0.00     0.196 HD
BRANCH  12  17
ATOM     17  C   UNL d   1       4.507   3.608  -2.738  0.00  0.00     0.094 A 
ATOM     18  N   UNL d   1       5.379   2.742  -2.149  0.00  0.00    -0.360 N 
ATOM     19  C   UNL d   1       6.680   2.887  -2.495  0.00  0.00     0.105 A 
ATOM     20  HN  UNL d   1       5.071   2.028  -1.489  1.00  0.00     0.165 HD
ATOM     21  C   UNL d   1       7.104   3.854  -3.388  0.00  0.00     0.104 A 
ATOM     22  N   UNL d   1       6.253   4.714  -3.985  0.00  0.00    -0.372 N 
ATOM     23  C   UNL d   1       4.944   4.568  -3.640  0.00  0.00     0.121 A 
ATOM     24  HN  UNL d   1       6.568   5.423  -4.647  1.00  0.00     0.164 HD
ENDBRANCH  12  17
ENDBRANCH   9  10
ENDBRANCH   2   9
BRANCH   3  25
ATOM     25  S   UNL d   1       0.887  -2.436   1.234  0.00  0.00    -0.083 SA
BRANCH  25  26
ATOM     26  C   UNL d   1      -0.601  -3.472   1.177  0.00  0.00     0.185 C 
BRANCH  26  27
ATOM     27  C   UNL d   1      -1.578  -3.224   2.320  0.00  0.00     0.231 C 
ATOM     28  N   UNL d   1      -2.091  -1.942   2.388  0.00  0.00    -0.327 N 
ATOM     29  H   UNL d   1      -1.775  -1.290   1.671  0.00  0.00     0.169 HD
ATOM     30  O   UNL d   1      -1.919  -4.164   3.038  0.00  0.00    -0.272 OA
BRANCH  28  31
ATOM     31  C   UNL d   1      -3.128  -1.465   3.213  0.00  0.00     0.035 A 
ATOM     32  C   UNL d   1      -3.760  -2.235   4.190  0.00  0.00     0.045 A 
ATOM     33  C   UNL d   1      -4.880  -1.746   4.884  0.00  0.00     0.050 A 
ATOM     34  C   UNL d   1      -5.336  -0.447   4.615  0.00  0.00     0.016 A 
ATOM     35  C   UNL d   1      -4.678   0.349   3.679  0.00  0.00     0.003 A 
ATOM     36  C   UNL d   1      -3.579  -0.159   2.983  0.00  0.00     0.029 A 
BRANCH  33  37
ATOM     37  C   UNL d   1      -5.618  -2.621   5.864  0.00  0.00     0.417 C 
ATOM     38  F   UNL d   1      -5.008  -3.812   6.115  0.00  0.00    -0.166 F 
ATOM     39  F   UNL d   1      -5.781  -2.025   7.078  0.00  0.00    -0.166 F 
ATOM     40  F   UNL d   1      -6.873  -2.931   5.433  0.00  0.00    -0.166 F 
ENDBRANCH  33  37
ENDBRANCH  28  31
ENDBRANCH  26  27
ENDBRANCH  25  26
ENDBRANCH   3  25
TORSDOF 8
