REMARK  4 active torsions:
REMARK  status: ('A' for Active; 'I' for Inactive)
REMARK    1  A    between atoms: N_6  and  C_1 
REMARK    2  A    between atoms: C_10  and  N_4 
REMARK       I    between atoms: C_7  and  N_6 
REMARK       I    between atoms: N_9  and  C_7 
REMARK    3  A    between atoms: C_17  and  N_9 
REMARK    4  A    between atoms: C_11  and  C_12 
ROOT
ATOM      1  N   UNL d   1      -0.404  -2.734  -0.172  0.00  0.00    -0.302 N 
ATOM      2  C   UNL d   1       0.453  -3.821  -0.076  0.00  0.00     0.325 C 
ATOM      3  N   UNL d   1       1.786  -3.464  -0.264  0.00  0.00    -0.309 N 
ATOM      4  O   UNL d   1       0.091  -4.965   0.147  0.00  0.00    -0.247 OA
ATOM      5  H   UNL d   1       0.006  -1.809  -0.233  0.00  0.00     0.171 HD
ATOM      6  H   UNL d   1       2.007  -2.488  -0.239  0.00  0.00     0.170 HD
ENDROOT
BRANCH   1   7
ATOM      7  C   UNL d   1      -1.763  -2.721   0.074  0.00  0.00     0.131 C 
ATOM      8  C   UNL d   1      -2.461  -1.411   0.301  0.00  0.00     0.296 C 
ATOM      9  N   UNL d   1      -3.772  -1.707   0.697  0.00  0.00    -0.217 N 
ATOM     10  O   UNL d   1      -1.875  -0.343   0.181  0.00  0.00    -0.264 OA
ATOM     11  N   UNL d   1      -3.938  -3.119   0.657  0.00  0.00    -0.289 N 
ATOM     12  C   UNL d   1      -2.726  -3.658   0.177  0.00  0.00     0.057 C 
ATOM     13  C   UNL d   1      -5.262  -3.655   0.355  0.00  0.00     0.178 C 
ATOM     14  C   UNL d   1      -2.599  -5.093  -0.231  0.00  0.00     0.072 C 
BRANCH   9  15
ATOM     15  C   UNL d   1      -4.653  -0.804   1.352  0.00  0.00     0.060 A 
ATOM     16  C   UNL d   1      -4.582   0.571   1.076  0.00  0.00     0.031 A 
ATOM     17  C   UNL d   1      -5.434   1.488   1.705  0.00  0.00     0.002 A 
ATOM     18  C   UNL d   1      -6.369   1.048   2.635  0.00  0.00     0.000 A 
ATOM     19  C   UNL d   1      -6.450  -0.309   2.933  0.00  0.00     0.002 A 
ATOM     20  C   UNL d   1      -5.599  -1.224   2.297  0.00  0.00     0.031 A 
ENDBRANCH   9  15
ENDBRANCH   1   7
BRANCH   3  21
ATOM     21  C   UNL d   1       2.859  -4.352  -0.555  0.00  0.00     0.036 C 
ATOM     22  C   UNL d   1       2.723  -5.723  -0.787  0.00  0.00     0.030 C 
ATOM     23  C   UNL d   1       3.739  -6.452  -1.437  0.00  0.00     0.010 C 
ATOM     24  C   UNL d   1       4.919  -5.822  -1.858  0.00  0.00    -0.051 C 
ATOM     25  C   UNL d   1       5.143  -4.527  -1.358  0.00  0.00     0.010 C 
ATOM     26  C   UNL d   1       4.120  -3.790  -0.745  0.00  0.00     0.030 C 
BRANCH  24  27
ATOM     27  C   UNL d   1       5.801  -6.416  -2.984  0.00  0.00    -0.024 C 
ATOM     28  C   UNL d   1       6.829  -5.378  -3.499  0.00  0.00     0.019 C 
ATOM     29  C   UNL d   1       6.572  -7.690  -2.595  0.00  0.00     0.019 C 
ATOM     30  C   UNL d   1       4.907  -6.779  -4.199  0.00  0.00     0.019 C 
ENDBRANCH  24  27
ENDBRANCH   3  21
TORSDOF 4
