REMARK  5 active torsions:
REMARK  status: ('A' for Active; 'I' for Inactive)
REMARK    1  A    between atoms: C_4  and  C_2 
REMARK    2  A    between atoms: C_11  and  C_4 
REMARK    3  A    between atoms: O_15  and  C_11 
REMARK    4  A    between atoms: O_16  and  N_12 
REMARK    5  A    between atoms: C_19  and  O_15 
ROOT
ATOM      1  N   UNL d   1      -0.185   1.342   0.200  0.00  0.00    -0.300 N 
ATOM      2  C   UNL d   1       0.975   0.809  -0.368  0.00  0.00     0.080 C 
ATOM      3  C   UNL d   1      -0.463   0.599   1.376  0.00  0.00     0.163 C 
ATOM      4  N   UNL d   1      -0.773   1.324   2.400  0.00  0.00    -0.299 N 
ATOM      5  HN  UNL d   1      -0.984   1.008   3.347  1.00  0.00     0.183 HD
ATOM      6  C   UNL d   1      -0.781   2.650   0.434  0.00  0.00     0.103 C 
ATOM      7  C   UNL d   1       1.131  -0.506  -0.074  0.00  0.00     0.085 C 
ATOM      8  N   UNL d   1      -0.756   2.657   1.913  0.00  0.00    -0.210 NA
ATOM      9  S   UNL d   1      -0.023  -1.046   1.147  0.00  0.00    -0.062 SA
ATOM     10  C   UNL d   1      -0.190   3.825  -0.321  0.00  0.00     0.058 C 
ATOM     11  C   UNL d   1      -2.283   2.574   0.066  0.00  0.00     0.058 C 
ATOM     12  H   UNL d   1       0.115   3.106   2.217  0.00  0.00     0.149 HD
ENDROOT
BRANCH   2  13
ATOM     13  C   UNL d   1       2.261   1.590  -0.415  0.00  0.00     0.156 C 
ATOM     14  N   UNL d   1       2.444   2.477   0.534  0.00  0.00    -0.261 N 
ATOM     15  HN  UNL d   1       1.724   2.726   1.213  1.00  0.00     0.194 HD
BRANCH  13  16
ATOM     16  C   UNL d   1       3.336   1.161  -1.412  0.00  0.00     0.314 C 
ATOM     17  O   UNL d   1       3.572  -0.010  -1.636  0.00  0.00    -0.257 OA
BRANCH  16  18
ATOM     18  O   UNL d   1       4.013   2.226  -1.895  0.00  0.00    -0.317 OA
BRANCH  18  19
ATOM     19  C   UNL d   1       5.342   1.942  -2.365  0.00  0.00     0.175 C 
ATOM     20  C   UNL d   1       6.302   1.842  -1.187  0.00  0.00     0.034 C 
ENDBRANCH  18  19
ENDBRANCH  16  18
ENDBRANCH  13  16
BRANCH  14  21
ATOM     21  O   UNL d   1       3.717   3.048   0.525  0.00  0.00    -0.289 OA
ATOM     22  H   UNL d   1       3.669   3.728   1.224  0.00  0.00     0.244 HD
ENDBRANCH  14  21
ENDBRANCH   2  13
TORSDOF 5
