REMARK  6 active torsions:
REMARK  status: ('A' for Active; 'I' for Inactive)
REMARK    1  A    between atoms: C_5  and  C_1 
REMARK       I    between atoms: C_6  and  N_8 
REMARK       I    between atoms: N_11  and  C_6 
REMARK    2  A    between atoms: N_8  and  C_7 
REMARK    3  A    between atoms: C_13  and  N_11 
REMARK    4  A    between atoms: O_14  and  C_15 
REMARK    5  A    between atoms: C_16  and  O_14 
REMARK    6  A    between atoms: C_22  and  C_16 
ROOT
ATOM      1  C   UNL d   1      -2.624  -1.650   1.076  0.00  0.00     0.325 C 
ATOM      2  N   UNL d   1      -3.778  -1.563   1.794  0.00  0.00    -0.308 N 
ATOM      3  N   UNL d   1      -2.584  -1.337  -0.233  0.00  0.00    -0.309 N 
ATOM      4  O   UNL d   1      -1.560  -2.126   1.482  0.00  0.00    -0.247 OA
ATOM      5  H   UNL d   1      -4.612  -1.207   1.345  0.00  0.00     0.170 HD
ATOM      6  H   UNL d   1      -1.683  -1.671  -0.560  0.00  0.00     0.170 HD
ENDROOT
BRANCH   2   7
ATOM      7  C   UNL d   1      -4.025  -2.357   2.959  0.00  0.00     0.050 C 
ATOM      8  C   UNL d   1      -5.348  -2.693   3.319  0.00  0.00     0.035 C 
ATOM      9  C   UNL d   1      -5.535  -3.831   4.137  0.00  0.00     0.017 C 
ATOM     10  C   UNL d   1      -4.456  -4.509   4.708  0.00  0.00     0.001 C 
ATOM     11  C   UNL d   1      -3.174  -4.017   4.535  0.00  0.00     0.002 C 
ATOM     12  C   UNL d   1      -2.967  -2.944   3.674  0.00  0.00     0.030 C 
BRANCH   8  13
ATOM     13  C   UNL d   1      -6.504  -1.847   2.951  0.00  0.00     0.118 C 
ATOM     14  N   UNL d   1      -6.489  -0.757   2.201  0.00  0.00    -0.340 N 
ATOM     15  C   UNL d   1      -7.695  -0.127   2.409  0.00  0.00     0.060 A 
ATOM     16  HN  UNL d   1      -5.734  -0.445   1.591  1.00  0.00     0.167 HD
ATOM     17  C   UNL d   1      -8.168   1.114   1.964  0.00  0.00     0.032 A 
ATOM     18  C   UNL d   1      -8.516  -0.896   3.233  0.00  0.00     0.060 A 
ATOM     19  C   UNL d   1      -9.443   1.548   2.375  0.00  0.00     0.002 A 
ATOM     20  C   UNL d   1     -10.239   0.743   3.197  0.00  0.00     0.002 A 
ATOM     21  C   UNL d   1      -9.789  -0.504   3.648  0.00  0.00     0.032 A 
ATOM     22  N   UNL d   1      -7.759  -1.998   3.515  0.00  0.00    -0.340 N 
ATOM     23  H   UNL d   1      -8.032  -2.733   4.147  0.00  0.00     0.167 HD
ENDBRANCH   8  13
ENDBRANCH   2   7
BRANCH   3  24
ATOM     24  C   UNL d   1      -3.397  -0.813  -1.236  0.00  0.00     0.036 A 
ATOM     25  C   UNL d   1      -4.597  -0.124  -1.080  0.00  0.00     0.032 A 
ATOM     26  C   UNL d   1      -5.287   0.355  -2.215  0.00  0.00     0.039 A 
ATOM     27  C   UNL d   1      -4.780   0.140  -3.497  0.00  0.00     0.069 A 
ATOM     28  C   UNL d   1      -3.574  -0.533  -3.646  0.00  0.00     0.039 A 
ATOM     29  C   UNL d   1      -2.889  -0.996  -2.531  0.00  0.00     0.032 A 
BRANCH  27  30
ATOM     30  O   UNL d   1      -5.320   0.519  -4.684  0.00  0.00    -0.347 OA
BRANCH  30  31
ATOM     31  C   UNL d   1      -6.588   1.159  -4.702  0.00  0.00     0.214 C 
BRANCH  31  32
ATOM     32  C   UNL d   1      -6.952   1.303  -6.162  0.00  0.00    -0.034 A 
ATOM     33  C   UNL d   1      -7.995   0.553  -6.724  0.00  0.00     0.009 A 
ATOM     34  C   UNL d   1      -8.275   0.643  -8.090  0.00  0.00     0.001 A 
ATOM     35  C   UNL d   1      -7.514   1.477  -8.908  0.00  0.00     0.000 A 
ATOM     36  C   UNL d   1      -6.473   2.225  -8.363  0.00  0.00     0.001 A 
ATOM     37  C   UNL d   1      -6.194   2.139  -6.998  0.00  0.00     0.009 A 
ENDBRANCH  31  32
ENDBRANCH  30  31
ENDBRANCH  27  30
ENDBRANCH   3  24
TORSDOF 6
