REMARK  3 active torsions:
REMARK  status: ('A' for Active; 'I' for Inactive)
REMARK    1  A    between atoms: C_8  and  C_2 
REMARK    2  A    between atoms: S_17  and  C_5 
REMARK    3  A    between atoms: C_20  and  S_17 
ROOT
ATOM      1  N   UNL d   1      -1.041  -6.037  -1.899  0.00  0.00    -0.197 NA
ATOM      2  C   UNL d   1      -1.146  -4.938  -1.542  0.00  0.00     0.069 C 
ATOM      3  C   UNL d   1      -1.285  -3.542  -1.094  0.00  0.00     0.206 C 
ENDROOT
BRANCH   3   4
ATOM      4  S   UNL d   1       0.331  -2.709  -1.009  0.00  0.00    -0.078 SA
BRANCH   4   5
ATOM      5  C   UNL d   1      -0.136  -1.124  -0.503  0.00  0.00     0.163 A 
ATOM      6  N   UNL d   1       0.671  -0.025  -0.636  0.00  0.00    -0.315 N 
ATOM      7  C   UNL d   1      -0.071   1.049  -0.180  0.00  0.00     0.134 A 
ATOM      8  C   UNL d   1       2.026  -0.028  -1.127  0.00  0.00     0.160 C 
ATOM      9  N   UNL d   1      -1.219   0.578   0.281  0.00  0.00    -0.283 N 
ATOM     10  N   UNL d   1      -1.269  -0.780   0.056  0.00  0.00    -0.278 N 
ATOM     11  HN  UNL d   1      -1.948   1.131   0.731  1.00  0.00     0.188 HD
ATOM     12  HN  UNL d   1      -2.045  -1.402   0.282  1.00  0.00     0.189 HD
BRANCH   7  13
ATOM     13  C   UNL d   1       0.328   2.462  -0.181  0.00  0.00     0.010 A 
ATOM     14  C   UNL d   1       0.021   3.285   0.913  0.00  0.00     0.029 A 
ATOM     15  C   UNL d   1       0.409   4.644   0.937  0.00  0.00    -0.009 A 
ATOM     16  C   UNL d   1       0.117   5.492   2.016  0.00  0.00     0.015 A 
ATOM     17  C   UNL d   1       1.117   5.197  -0.150  0.00  0.00     0.042 A 
ATOM     18  C   UNL d   1       0.533   6.819   1.991  0.00  0.00     0.018 A 
ATOM     19  C   UNL d   1       1.234   7.258   0.884  0.00  0.00     0.088 A 
ATOM     20  N   UNL d   1       1.530   6.476  -0.176  0.00  0.00    -0.365 N 
ATOM     21  HN  UNL d   1       2.050   6.844  -0.973  1.00  0.00     0.165 HD
ATOM     22  C   UNL d   1       1.385   4.382  -1.237  0.00  0.00     0.031 A 
ATOM     23  C   UNL d   1       0.985   3.040  -1.270  0.00  0.00     0.017 A 
ENDBRANCH   7  13
ENDBRANCH   4   5
ENDBRANCH   3   4
TORSDOF 3
