REMARK  3 active torsions:
REMARK  status: ('A' for Active; 'I' for Inactive)
REMARK    1  A    between atoms: C_9  and  C_1 
REMARK    2  A    between atoms: C_8  and  O_10 
REMARK    3  A    between atoms: O_10  and  C_9 
ROOT
ATOM      1  C   UNL d   1       1.732  -0.984   0.050  0.00  0.00    -0.016 A 
ATOM      2  C   UNL d   1       1.862  -0.045  -1.044  0.00  0.00    -0.009 A 
ATOM      3  S   UNL d   1       0.703   1.226   0.887  0.00  0.00    -0.101 SA
ATOM      4  C   UNL d   1       1.125  -0.399   1.146  0.00  0.00     0.060 A 
ATOM      5  C   UNL d   1       1.331   1.208  -0.713  0.00  0.00     0.015 A 
ATOM      6  C   UNL d   1       2.419  -0.203  -2.340  0.00  0.00     0.037 A 
ATOM      7  C   UNL d   1       1.336   2.284  -1.622  0.00  0.00     0.021 A 
ATOM      8  C   UNL d   1       2.424   0.864  -3.241  0.00  0.00     0.035 A 
ATOM      9  C   UNL d   1       1.889   2.095  -2.890  0.00  0.00     0.025 A 
ATOM     10 CL   UNL d   1       3.099   0.648  -4.810  0.00  0.00    -0.084 Cl
ENDROOT
BRANCH   1  11
ATOM     11  C   UNL d   1       2.166  -2.424   0.020  0.00  0.00     0.215 C 
BRANCH  11  12
ATOM     12  O   UNL d   1       3.586  -2.544  -0.112  0.00  0.00    -0.345 OA
BRANCH  12  13
ATOM     13  C   UNL d   1       4.077  -3.827  -0.087  0.00  0.00     0.090 A 
ATOM     14  C   UNL d   1       5.197  -4.122  -0.884  0.00  0.00     0.069 A 
ATOM     15  C   UNL d   1       5.767  -5.400  -0.872  0.00  0.00     0.050 A 
ATOM     16 CL   UNL d   1       5.899  -2.932  -1.922  0.00  0.00    -0.081 Cl
ATOM     17  C   UNL d   1       5.227  -6.384  -0.050  0.00  0.00     0.035 A 
ATOM     18  C   UNL d   1       4.132  -6.100   0.762  0.00  0.00     0.026 A 
ATOM     19 CL   UNL d   1       5.919  -7.959  -0.023  0.00  0.00    -0.084 Cl
ATOM     20  C   UNL d   1       3.565  -4.824   0.749  0.00  0.00     0.040 A 
ENDBRANCH  12  13
ENDBRANCH  11  12
ENDBRANCH   1  11
TORSDOF 3
