REMARK  2 active torsions:
REMARK  status: ('A' for Active; 'I' for Inactive)
REMARK    1  A    between atoms: C_10  and  C_3 
REMARK    2  A    between atoms: C_8  and  C_7 
ROOT
ATOM      1  N   UNL d   1       1.544  -0.093   0.020  0.00  0.00    -0.331 N 
ATOM      2  HN  UNL d   1       2.487  -0.483   0.021  1.00  0.00     0.168 HD
ATOM      3  C   UNL d   1       1.185   1.150   0.009  0.00  0.00     0.162 A 
ATOM      4  C   UNL d   1       0.341  -0.759   0.030  0.00  0.00     0.112 A 
ATOM      5  O   UNL d   1      -0.139   1.422   0.026  0.00  0.00    -0.256 OA
ATOM      6  C   UNL d   1      -0.785   0.223   0.044  0.00  0.00     0.316 A 
ATOM      7  C   UNL d   1       0.243  -2.093  -0.003  0.00  0.00     0.054 C 
ATOM      8  O   UNL d   1      -1.986   0.057   0.073  0.00  0.00    -0.257 OA
ENDROOT
BRANCH   3   9
ATOM      9  C   UNL d   1       2.063   2.329  -0.041  0.00  0.00     0.015 A 
ATOM     10  C   UNL d   1       3.449   2.143  -0.122  0.00  0.00     0.016 A 
ATOM     11  C   UNL d   1       4.297   3.248  -0.215  0.00  0.00     0.001 A 
ATOM     12  C   UNL d   1       3.766   4.538  -0.225  0.00  0.00     0.000 A 
ATOM     13  C   UNL d   1       2.388   4.728  -0.131  0.00  0.00     0.001 A 
ATOM     14  C   UNL d   1       1.535   3.626  -0.038  0.00  0.00     0.016 A 
ENDBRANCH   3   9
BRANCH   7  15
ATOM     15  C   UNL d   1      -0.991  -2.789  -0.031  0.00  0.00     0.007 A 
ATOM     16  S   UNL d   1      -1.641  -3.321  -1.531  0.00  0.00    -0.102 SA
ATOM     17  C   UNL d   1      -3.002  -4.023  -0.774  0.00  0.00     0.050 A 
ATOM     18  C   UNL d   1      -2.963  -3.879   0.594  0.00  0.00     0.008 A 
ATOM     19  C   UNL d   1      -1.803  -3.169   1.022  0.00  0.00     0.019 A 
ENDBRANCH   7  15
TORSDOF 2
