REMARK  7 active torsions:
REMARK  status: ('A' for Active; 'I' for Inactive)
REMARK    1  A    between atoms: C_7  and  N_1 
REMARK    2  A    between atoms: C_2  and  C_6 
REMARK    3  A    between atoms: C_12  and  C_2 
REMARK    4  A    between atoms: C_4  and  C_3 
REMARK    5  A    between atoms: C_10  and  C_4 
REMARK    6  A    between atoms: C_5  and  C_11 
REMARK    7  A    between atoms: C_6  and  C_5 
ROOT
ATOM      1  C   UNL d   1      -3.583   3.994  -0.283  0.00  0.00    -0.037 C 
ATOM      2  C   UNL d   1      -2.755   2.950  -0.526  0.00  0.00     0.064 C 
ENDROOT
BRANCH   1   3
ATOM      3  C   UNL d   1      -4.393   3.986   0.994  0.00  0.00     0.123 C 
BRANCH   3   4
ATOM      4  C   UNL d   1      -3.907   4.737   2.254  0.00  0.00     0.163 C 
ATOM      5  O   UNL d   1      -4.748   5.028   3.114  0.00  0.00    -0.292 OA
BRANCH   4   6
ATOM      6  C   UNL d   1      -2.469   5.048   2.585  0.00  0.00     0.010 A 
ATOM      7  C   UNL d   1      -1.416   5.096   1.666  0.00  0.00     0.017 A 
ATOM      8  C   UNL d   1      -0.100   5.356   2.072  0.00  0.00     0.037 A 
ATOM      9  C   UNL d   1       0.175   5.615   3.415  0.00  0.00     0.102 A 
ATOM     10  C   UNL d   1      -0.863   5.635   4.349  0.00  0.00     0.037 A 
ATOM     11  C   UNL d   1      -2.171   5.348   3.931  0.00  0.00     0.017 A 
BRANCH   9  12
ATOM     12  N   UNL d   1       1.557   5.870   3.840  0.00  0.00    -0.116 N 
ATOM     13  O   UNL d   1       1.747   6.185   5.022  0.00  0.00    -0.532 OA
ATOM     14  O   UNL d   1       2.453   5.741   2.991  0.00  0.00    -0.532 OA
ENDBRANCH   9  12
ENDBRANCH   4   6
ENDBRANCH   3   4
ENDBRANCH   1   3
BRANCH   1  15
ATOM     15  C   UNL d   1      -3.772   5.171  -1.183  0.00  0.00    -0.029 A 
ATOM     16  C   UNL d   1      -3.787   5.014  -2.579  0.00  0.00     0.012 A 
ATOM     17  C   UNL d   1      -3.994   6.101  -3.434  0.00  0.00     0.001 A 
ATOM     18  C   UNL d   1      -4.225   7.367  -2.909  0.00  0.00     0.000 A 
ATOM     19  C   UNL d   1      -4.246   7.544  -1.530  0.00  0.00     0.001 A 
ATOM     20  C   UNL d   1      -4.024   6.458  -0.677  0.00  0.00     0.012 A 
ENDBRANCH   1  15
BRANCH   2  21
ATOM     21  C   UNL d   1      -1.637   2.925  -1.517  0.00  0.00     0.182 C 
ATOM     22  O   UNL d   1      -1.081   3.944  -1.912  0.00  0.00    -0.288 OA
BRANCH  21  23
ATOM     23  C   UNL d   1      -1.058   1.605  -1.840  0.00  0.00     0.014 A 
ATOM     24  C   UNL d   1      -1.856   0.524  -2.219  0.00  0.00     0.016 A 
ATOM     25  C   UNL d   1      -1.256  -0.713  -2.480  0.00  0.00     0.007 A 
ATOM     26  C   UNL d   1       0.132  -0.873  -2.359  0.00  0.00    -0.062 A 
ATOM     27  C   UNL d   1       0.921   0.226  -2.000  0.00  0.00     0.007 A 
ATOM     28  C   UNL d   1       0.757  -2.224  -2.549  0.00  0.00     0.048 C 
ATOM     29  C   UNL d   1       0.331   1.465  -1.755  0.00  0.00     0.016 A 
ENDBRANCH  21  23
ENDBRANCH   2  21
TORSDOF 7
