REMARK  4 active torsions:
REMARK  status: ('A' for Active; 'I' for Inactive)
REMARK    1  A    between atoms: C_2  and  C_1 
REMARK       I    between atoms: N_3  and  C_2 
REMARK    2  A    between atoms: C_8  and  N_3 
REMARK    3  A    between atoms: N_10  and  C_4 
REMARK    4  A    between atoms: C_9  and  C_8 
ROOT
ATOM      1  C   UNL d   1       0.892   2.515  -0.072  0.00  0.00     0.253 C 
ATOM      2  N   UNL d   1       0.141   3.673  -0.006  0.00  0.00    -0.351 N 
ATOM      3  O   UNL d   1       2.115   2.574  -0.215  0.00  0.00    -0.268 OA
ATOM      4  H   UNL d   1      -0.861   3.703   0.117  0.00  0.00     0.163 HD
ENDROOT
BRANCH   1   5
ATOM      5  C   UNL d   1       0.203   1.178  -0.001  0.00  0.00     0.052 A 
ATOM      6  C   UNL d   1       0.978  -0.011   0.003  0.00  0.00     0.021 A 
ATOM      7  C   UNL d   1       0.328  -1.256   0.033  0.00  0.00     0.024 A 
ATOM      8  C   UNL d   1      -1.062  -1.340   0.005  0.00  0.00     0.002 A 
ATOM      9  C   UNL d   1      -1.824  -0.177  -0.015  0.00  0.00     0.001 A 
ATOM     10  C   UNL d   1      -1.199   1.075  -0.017  0.00  0.00     0.019 A 
BRANCH   6  11
ATOM     11  N   UNL d   1       2.376  -0.013   0.204  0.00  0.00    -0.302 NA
ATOM     12  H   UNL d   1       2.787   0.898  -0.037  0.00  0.00     0.124 HD
ATOM     13  H   UNL d   1       2.861  -0.785  -0.237  0.00  0.00     0.124 HD
ENDBRANCH   6  11
ENDBRANCH   1   5
BRANCH   2  14
ATOM     14  C   UNL d   1       0.804   4.959  -0.096  0.00  0.00     0.179 C 
BRANCH  14  15
ATOM     15  C   UNL d   1      -0.135   6.148  -0.085  0.00  0.00     0.026 A 
ATOM     16  N   UNL d   1      -1.475   5.932   0.009  0.00  0.00    -0.368 N 
ATOM     17  C   UNL d   1      -2.272   7.028   0.010  0.00  0.00     0.088 A 
ATOM     18  HN  UNL d   1      -1.861   4.990   0.075  1.00  0.00     0.165 HD
ATOM     19  C   UNL d   1      -1.807   8.334  -0.077  0.00  0.00     0.017 A 
ATOM     20  C   UNL d   1      -0.437   8.533  -0.170  0.00  0.00     0.003 A 
ATOM     21  C   UNL d   1       0.412   7.431  -0.175  0.00  0.00     0.027 A 
ENDBRANCH  14  15
ENDBRANCH   2  14
TORSDOF 4
