REMARK  1 active torsions:
REMARK  status: ('A' for Active; 'I' for Inactive)
REMARK    1  A    between atoms: C_7  and  N_1 
ROOT
ATOM      1  N   UNL d   1      -0.404   1.050   0.228  0.00  0.00    -0.224 N 
ATOM      2  N   UNL d   1       0.915   0.726  -0.028  0.00  0.00    -0.299 N 
ATOM      3  HN  UNL d   1       1.689   1.377  -0.162  1.00  0.00     0.187 HD
ATOM      4  C   UNL d   1      -1.258  -0.064   0.309  0.00  0.00     0.252 A 
ATOM      5  C   UNL d   1      -0.338  -1.253   0.182  0.00  0.00     0.122 A 
ATOM      6  C   UNL d   1       0.976  -0.570  -0.064  0.00  0.00     0.013 A 
ATOM      7  O   UNL d   1      -2.465  -0.136   0.472  0.00  0.00    -0.270 OA
ATOM      8  C   UNL d   1      -0.744  -2.197  -0.930  0.00  0.00     0.026 C 
ATOM      9  C   UNL d   1       2.243  -1.327  -0.259  0.00  0.00     0.066 C 
ENDROOT
BRANCH   1  10
ATOM     10  C   UNL d   1      -0.714   2.401   0.534  0.00  0.00     0.059 A 
ATOM     11  C   UNL d   1      -1.952   2.768   1.079  0.00  0.00     0.031 A 
ATOM     12  C   UNL d   1      -2.198   4.085   1.481  0.00  0.00     0.002 A 
ATOM     13  C   UNL d   1      -1.219   5.062   1.324  0.00  0.00     0.000 A 
ATOM     14  C   UNL d   1       0.002   4.726   0.751  0.00  0.00     0.002 A 
ATOM     15  C   UNL d   1       0.253   3.405   0.361  0.00  0.00     0.031 A 
ENDBRANCH   1  10
TORSDOF 1
