REMARK  2 active torsions:
REMARK  status: ('A' for Active; 'I' for Inactive)
REMARK    1  A    between atoms: C_7  and  N_1 
REMARK    2  A    between atoms: N_14  and  C_3 
ROOT
ATOM      1  N   UNL d   1      -0.322  -1.155   0.091  0.00  0.00    -0.221 N 
ATOM      2  N   UNL d   1       0.819  -0.634   0.614  0.00  0.00    -0.012 NA
ATOM      3  C   UNL d   1      -1.177  -0.119  -0.302  0.00  0.00     0.158 A 
ATOM      4  C   UNL d   1      -0.405   1.010  -0.097  0.00  0.00     0.172 A 
ATOM      5  N   UNL d   1       0.799   0.680   0.444  0.00  0.00    -0.271 N 
ATOM      6  HN  UNL d   1       1.552   1.328   0.677  1.00  0.00     0.185 HD
ATOM      7  C   UNL d   1      -0.762   2.372  -0.295  0.00  0.00     0.122 C 
ATOM      8  N   UNL d   1      -1.090   3.478  -0.450  0.00  0.00    -0.190 NA
ENDROOT
BRANCH   3   9
ATOM      9  N   UNL d   1      -2.476  -0.278  -0.693  0.00  0.00    -0.382 N 
ATOM     10  H   UNL d   1      -2.996  -1.120  -0.446  0.00  0.00     0.157 HD
ATOM     11  H   UNL d   1      -3.096   0.536  -0.718  0.00  0.00     0.157 HD
ENDBRANCH   3   9
BRANCH   1  12
ATOM     12  C   UNL d   1      -0.503  -2.558   0.034  0.00  0.00     0.059 A 
ATOM     13  C   UNL d   1       0.125  -3.359   0.999  0.00  0.00     0.055 A 
ATOM     14  C   UNL d   1      -0.047  -4.742   0.967  0.00  0.00     0.037 A 
ATOM     15 CL   UNL d   1       0.660  -5.714   2.197  0.00  0.00    -0.084 Cl
ATOM     16  C   UNL d   1      -0.793  -5.340  -0.044  0.00  0.00     0.048 A 
ATOM     17  C   UNL d   1      -1.385  -4.542  -1.020  0.00  0.00     0.037 A 
ATOM     18  C   UNL d   1      -1.263  -3.151  -0.981  0.00  0.00     0.055 A 
ATOM     19 CL   UNL d   1      -2.262  -5.281  -2.304  0.00  0.00    -0.084 Cl
ENDBRANCH   1  12
TORSDOF 2
