REMARK  6 active torsions:
REMARK  status: ('A' for Active; 'I' for Inactive)
REMARK    1  A    between atoms: C_8  and  C_2 
REMARK    2  A    between atoms: S_11  and  C_5 
REMARK       I    between atoms: N_9  and  C_10 
REMARK    3  A    between atoms: C_17  and  N_9 
REMARK    4  A    between atoms: C_18  and  N_9 
REMARK    5  A    between atoms: C_10  and  C_13 
REMARK    6  A    between atoms: C_13  and  S_11 
ROOT
ATOM      1  N   UNL d   1       2.090   0.675  -1.530  0.00  0.00    -0.315 N 
ATOM      2  C   UNL d   1       1.656   1.852  -0.953  0.00  0.00     0.134 C 
ATOM      3  N   UNL d   1       1.515   1.623   0.347  0.00  0.00    -0.283 N 
ATOM      4  HN  UNL d   1       1.116   2.274   1.024  1.00  0.00     0.188 HD
ATOM      5  C   UNL d   1       2.393  -0.170  -0.494  0.00  0.00     0.163 C 
ATOM      6  N   UNL d   1       1.995   0.361   0.635  0.00  0.00    -0.278 N 
ATOM      7  HN  UNL d   1       2.033  -0.076   1.556  1.00  0.00     0.189 HD
ATOM      8  C   UNL d   1       2.118   0.319  -2.923  0.00  0.00     0.160 C 
ENDROOT
BRANCH   5   9
ATOM      9  S   UNL d   1       3.305  -1.615  -0.715  0.00  0.00    -0.083 SA
BRANCH   9  10
ATOM     10  C   UNL d   1       2.241  -2.887   0.039  0.00  0.00     0.185 C 
BRANCH  10  11
ATOM     11  C   UNL d   1       2.863  -4.278  -0.188  0.00  0.00     0.234 C 
ATOM     12  N   UNL d   1       2.007  -5.385  -0.399  0.00  0.00    -0.313 N 
ATOM     13  O   UNL d   1       4.094  -4.406  -0.180  0.00  0.00    -0.272 OA
BRANCH  12  14
ATOM     14  C   UNL d   1       2.636  -6.674  -0.460  0.00  0.00     0.037 A 
ATOM     15  C   UNL d   1       3.397  -7.141   0.619  0.00  0.00     0.030 A 
ATOM     16  C   UNL d   1       3.940  -8.430   0.601  0.00  0.00     0.002 A 
ATOM     17  C   UNL d   1       3.734  -9.260  -0.499  0.00  0.00     0.000 A 
ATOM     18  C   UNL d   1       3.026  -8.785  -1.599  0.00  0.00     0.002 A 
ATOM     19  C   UNL d   1       2.499  -7.489  -1.585  0.00  0.00     0.030 A 
ENDBRANCH  12  14
BRANCH  12  20
ATOM     20  C   UNL d   1       0.530  -5.333  -0.171  0.00  0.00     0.093 C 
ATOM     21  C   UNL d   1      -0.170  -6.606   0.361  0.00  0.00     0.026 C 
ATOM     22  C   UNL d   1      -0.614  -7.628  -0.687  0.00  0.00     0.002 C 
ATOM     23  C   UNL d   1      -1.198  -7.039  -1.966  0.00  0.00     0.000 C 
ATOM     24  C   UNL d   1      -0.532  -5.765  -2.465  0.00  0.00     0.002 C 
ATOM     25  C   UNL d   1      -0.269  -4.761  -1.355  0.00  0.00     0.026 C 
ENDBRANCH  12  20
ENDBRANCH  10  11
ENDBRANCH   9  10
ENDBRANCH   5   9
BRANCH   2  26
ATOM     26  C   UNL d   1       1.361   3.120  -1.639  0.00  0.00     0.010 A 
ATOM     27  C   UNL d   1       2.058   3.534  -2.783  0.00  0.00     0.027 A 
ATOM     28  C   UNL d   1       1.716   4.706  -3.484  0.00  0.00    -0.025 A 
ATOM     29  C   UNL d   1       2.363   5.066  -4.675  0.00  0.00     0.012 A 
ATOM     30  C   UNL d   1       0.680   5.527  -2.984  0.00  0.00    -0.026 A 
ATOM     31  C   UNL d   1       1.994   6.215  -5.374  0.00  0.00     0.001 A 
ATOM     32  C   UNL d   1       0.980   7.031  -4.880  0.00  0.00     0.001 A 
ATOM     33  C   UNL d   1       0.333   6.693  -3.689  0.00  0.00     0.012 A 
ATOM     34  C   UNL d   1       0.033   5.156  -1.795  0.00  0.00     0.013 A 
ATOM     35  C   UNL d   1       0.364   3.966  -1.137  0.00  0.00     0.016 A 
ENDBRANCH   2  26
TORSDOF 6
