REMARK  4 active torsions:
REMARK  status: ('A' for Active; 'I' for Inactive)
REMARK    1  A    between atoms: N_2  and  C_1 
REMARK    2  A    between atoms: N_3  and  C_6 
REMARK    3  A    between atoms: N_7  and  C_5 
REMARK    4  A    between atoms: C_14  and  N_7 
ROOT
ATOM      1  C   UNL d   1       1.354  -0.314   0.157  0.00  0.00     0.131 A 
ATOM      2  C   UNL d   1       0.450  -1.386   0.230  0.00  0.00     0.074 A 
ATOM      3  C   UNL d   1       0.939   1.018  -0.042  0.00  0.00     0.066 A 
ATOM      4  C   UNL d   1      -0.916  -1.118   0.097  0.00  0.00     0.105 A 
ATOM      5  C   UNL d   1      -0.444   1.246  -0.142  0.00  0.00     0.034 A 
ATOM      6  C   UNL d   1      -1.368   0.193  -0.084  0.00  0.00     0.038 A 
ENDROOT
BRANCH   3   7
ATOM      7  N   UNL d   1       1.851   2.094  -0.078  0.00  0.00    -0.354 N 
ATOM      8  H   UNL d   1       2.687   1.910  -0.636  0.00  0.00     0.166 HD
BRANCH   7   9
ATOM      9  C   UNL d   1       1.617   3.454   0.190  0.00  0.00     0.032 A 
ATOM     10  C   UNL d   1       0.886   3.853   1.318  0.00  0.00     0.031 A 
ATOM     11  C   UNL d   1       0.592   5.200   1.544  0.00  0.00     0.026 A 
ATOM     12  C   UNL d   1       1.013   6.158   0.627  0.00  0.00     0.034 A 
ATOM     13  C   UNL d   1       1.735   5.781  -0.503  0.00  0.00     0.026 A 
ATOM     14 CL   UNL d   1       0.630   7.815   0.887  0.00  0.00    -0.084 Cl
ATOM     15  C   UNL d   1       2.038   4.432  -0.718  0.00  0.00     0.031 A 
ENDBRANCH   7   9
ENDBRANCH   3   7
BRANCH   1  16
ATOM     16  N   UNL d   1       2.768  -0.615   0.323  0.00  0.00    -0.113 N 
ATOM     17  O   UNL d   1       3.082  -1.347   1.269  0.00  0.00    -0.532 OA
ATOM     18  O   UNL d   1       3.550  -0.134  -0.511  0.00  0.00    -0.532 OA
ENDBRANCH   1  16
BRANCH   4  19
ATOM     19  N   UNL d   1      -1.886  -2.220   0.140  0.00  0.00    -0.116 N 
ATOM     20  O   UNL d   1      -1.439  -3.371   0.222  0.00  0.00    -0.532 OA
ATOM     21  O   UNL d   1      -3.089  -1.930   0.083  0.00  0.00    -0.532 OA
ENDBRANCH   4  19
TORSDOF 4
