REMARK  5 active torsions:
REMARK  status: ('A' for Active; 'I' for Inactive)
REMARK    1  A    between atoms: C_3  and  S_1 
REMARK    2  A    between atoms: C_5  and  S_1 
REMARK    3  A    between atoms: C_10  and  N_2 
REMARK    4  A    between atoms: C_11  and  C_3 
REMARK    5  A    between atoms: N_4  and  C_11 
ROOT
ATOM      1  N   UNL d   1       0.277  -5.202   1.042  0.00  0.00    -0.378 N 
ATOM      2  N   UNL d   1      -0.003  -3.457  -1.357  0.00  0.00     0.092 N 
ATOM      3  C   UNL d   1      -0.065  -3.782   1.145  0.00  0.00     0.153 C 
ATOM      4  C   UNL d   1       1.011  -5.580  -0.177  0.00  0.00     0.153 C 
ATOM      5  C   UNL d   1       0.471  -4.863  -1.455  0.00  0.00     0.292 C 
ATOM      6  C   UNL d   1      -0.803  -3.314  -0.122  0.00  0.00     0.292 C 
ENDROOT
BRANCH   2   7
ATOM      7  C   UNL d   1       1.052  -2.427  -1.439  0.00  0.00     0.287 C 
BRANCH   7   8
ATOM      8  C   UNL d   1       1.605  -2.336  -2.851  0.00  0.00     0.176 C 
BRANCH   8   9
ATOM      9  S   UNL d   1       2.764  -1.000  -3.043  0.00  0.00     0.177 S 
ATOM     10  O   UNL d   1       3.878  -1.214  -2.131  0.00  0.00    -0.223 OA
ATOM     11  O   UNL d   1       2.048   0.255  -3.072  0.00  0.00    -0.223 OA
BRANCH   9  12
ATOM     12  C   UNL d   1       3.367  -1.323  -4.691  0.00  0.00     0.059 A 
ATOM     13  C   UNL d   1       2.702  -0.766  -5.789  0.00  0.00     0.026 A 
ATOM     14  C   UNL d   1       3.108  -1.113  -7.078  0.00  0.00     0.044 A 
ATOM     15  C   UNL d   1       4.171  -1.996  -7.252  0.00  0.00     0.116 A 
ATOM     16  C   UNL d   1       4.849  -2.531  -6.161  0.00  0.00     0.044 A 
ATOM     17  F   UNL d   1       4.543  -2.341  -8.491  0.00  0.00    -0.206 F 
ATOM     18  C   UNL d   1       4.452  -2.191  -4.868  0.00  0.00     0.026 A 
ENDBRANCH   9  12
ENDBRANCH   8   9
ENDBRANCH   7   8
ENDBRANCH   2   7
BRANCH   1  19
ATOM     19  C   UNL d   1      -0.488  -6.144   1.719  0.00  0.00     0.030 A 
ATOM     20  C   UNL d   1      -1.848  -5.948   1.999  0.00  0.00     0.029 A 
ATOM     21  C   UNL d   1      -2.581  -6.846   2.781  0.00  0.00     0.002 A 
ATOM     22  C   UNL d   1      -1.960  -7.968   3.312  0.00  0.00     0.000 A 
ATOM     23  C   UNL d   1      -0.615  -8.203   3.034  0.00  0.00     0.002 A 
ATOM     24  C   UNL d   1       0.105  -7.306   2.233  0.00  0.00     0.029 A 
ENDBRANCH   1  19
TORSDOF 5
