REMARK  3 active torsions:
REMARK  status: ('A' for Active; 'I' for Inactive)
REMARK    1  A    between atoms: C_3  and  C_1 
REMARK    2  A    between atoms: C_12  and  N_2 
REMARK    3  A    between atoms: O_19  and  C_16 
ROOT
ATOM      1  C   UNL d   1      -0.149  -1.285  -0.157  0.00  0.00     0.152 C 
ATOM      2  N   UNL d   1       1.069  -0.695   0.127  0.00  0.00    -0.224 N 
ATOM      3  N   UNL d   1       0.859   0.617   0.366  0.00  0.00     0.001 NA
ATOM      4  N   UNL d   1      -0.392   0.845  -0.016  0.00  0.00    -0.007 NA
ATOM      5  N   UNL d   1      -1.022  -0.323  -0.376  0.00  0.00    -0.269 N 
ATOM      6  HN  UNL d   1      -1.971  -0.423  -0.738  1.00  0.00     0.185 HD
ENDROOT
BRANCH   1   7
ATOM      7  C   UNL d   1      -0.468  -2.734  -0.102  0.00  0.00     0.051 A 
ATOM      8  C   UNL d   1      -1.428  -3.409  -0.823  0.00  0.00     0.037 A 
ATOM      9  N   UNL d   1      -1.351  -4.711  -0.397  0.00  0.00    -0.305 N 
ATOM     10  C   UNL d   1      -2.362  -3.006  -1.898  0.00  0.00     0.070 C 
ATOM     11  N   UNL d   1      -0.384  -4.930   0.507  0.00  0.00    -0.311 N 
ATOM     12  H   UNL d   1      -1.910  -5.504  -0.703  0.00  0.00     0.186 HD
ATOM     13  C   UNL d   1       0.144  -3.719   0.701  0.00  0.00     0.124 A 
ATOM     14  HN  UNL d   1      -0.115  -5.812   0.943  1.00  0.00     0.186 HD
ENDBRANCH   1   7
BRANCH   2  15
ATOM     15  C   UNL d   1       2.366  -1.250   0.042  0.00  0.00     0.056 A 
ATOM     16  C   UNL d   1       2.614  -2.293  -0.863  0.00  0.00     0.034 A 
ATOM     17  C   UNL d   1       3.877  -2.881  -0.930  0.00  0.00     0.039 A 
ATOM     18  C   UNL d   1       4.896  -2.438  -0.092  0.00  0.00     0.068 A 
ATOM     19  C   UNL d   1       4.662  -1.359   0.767  0.00  0.00     0.039 A 
ATOM     20  C   UNL d   1       3.404  -0.750   0.831  0.00  0.00     0.034 A 
BRANCH  18  21
ATOM     21  O   UNL d   1       6.159  -2.962  -0.057  0.00  0.00    -0.356 OA
ATOM     22  C   UNL d   1       6.274  -4.316  -0.488  0.00  0.00     0.210 C 
ENDBRANCH  18  21
ENDBRANCH   2  15
TORSDOF 3
