REMARK  6 active torsions:
REMARK  status: ('A' for Active; 'I' for Inactive)
REMARK    1  A    between atoms: C_4  and  C_1 
REMARK       I    between atoms: C_2  and  N_7 
REMARK       I    between atoms: N_6  and  C_2 
REMARK    2  A    between atoms: O_8  and  C_3 
REMARK    3  A    between atoms: C_9  and  N_6 
REMARK    4  A    between atoms: N_7  and  C_13 
REMARK    5  A    between atoms: C_19  and  O_8 
REMARK    6  A    between atoms: O_20  and  C_10 
ROOT
ATOM      1  C   UNL d   1       3.480  -3.848   1.736  0.00  0.00     0.325 C 
ATOM      2  N   UNL d   1       3.342  -2.846   0.837  0.00  0.00    -0.309 N 
ATOM      3  N   UNL d   1       2.621  -3.871   2.796  0.00  0.00    -0.309 N 
ATOM      4  O   UNL d   1       4.424  -4.625   1.568  0.00  0.00    -0.247 OA
ATOM      5  H   UNL d   1       4.160  -2.807   0.238  0.00  0.00     0.170 HD
ATOM      6  H   UNL d   1       2.220  -2.977   3.053  0.00  0.00     0.170 HD
ENDROOT
BRANCH   2   7
ATOM      7  C   UNL d   1       2.289  -1.987   0.485  0.00  0.00     0.039 A 
ATOM      8  C   UNL d   1       0.934  -2.185   0.787  0.00  0.00     0.069 A 
ATOM      9  C   UNL d   1      -0.042  -1.286   0.309  0.00  0.00     0.104 A 
ATOM     10  C   UNL d   1       0.362  -0.146  -0.411  0.00  0.00     0.101 A 
ATOM     11  C   UNL d   1       1.714   0.022  -0.724  0.00  0.00     0.042 A 
ATOM     12  C   UNL d   1       2.663  -0.897  -0.300  0.00  0.00     0.032 A 
BRANCH   9  13
ATOM     13  O   UNL d   1      -1.383  -1.462   0.534  0.00  0.00    -0.343 OA
BRANCH  13  14
ATOM     14  C   UNL d   1      -1.917  -2.783   0.489  0.00  0.00     0.129 C 
ATOM     15  C   UNL d   1      -1.788  -3.470  -0.870  0.00  0.00     0.032 C 
ATOM     16  C   UNL d   1      -2.913  -4.502  -0.897  0.00  0.00     0.002 C 
ATOM     17  C   UNL d   1      -3.946  -4.035   0.127  0.00  0.00     0.002 C 
ATOM     18  C   UNL d   1      -3.438  -2.693   0.635  0.00  0.00     0.032 C 
ENDBRANCH  13  14
ENDBRANCH   9  13
BRANCH  10  19
ATOM     19  O   UNL d   1      -0.407   0.859  -0.933  0.00  0.00    -0.353 OA
ATOM     20  C   UNL d   1      -1.710   1.061  -0.413  0.00  0.00     0.210 C 
ENDBRANCH  10  19
ENDBRANCH   2   7
BRANCH   3  21
ATOM     21  C   UNL d   1       2.357  -4.981   3.619  0.00  0.00     0.037 A 
ATOM     22  C   UNL d   1       2.760  -6.268   3.260  0.00  0.00     0.045 A 
ATOM     23  C   UNL d   1       2.267  -7.396   3.929  0.00  0.00     0.050 A 
ATOM     24  C   UNL d   1       1.438  -7.215   5.042  0.00  0.00     0.016 A 
ATOM     25  C   UNL d   1       1.105  -5.926   5.465  0.00  0.00     0.003 A 
ATOM     26  C   UNL d   1       1.550  -4.812   4.745  0.00  0.00     0.029 A 
BRANCH  23  27
ATOM     27  C   UNL d   1       2.513  -8.763   3.340  0.00  0.00     0.417 C 
ATOM     28  F   UNL d   1       3.576  -8.813   2.491  0.00  0.00    -0.166 F 
ATOM     29  F   UNL d   1       1.440  -9.188   2.611  0.00  0.00    -0.166 F 
ATOM     30  F   UNL d   1       2.732  -9.724   4.276  0.00  0.00    -0.166 F 
ENDBRANCH  23  27
ENDBRANCH   3  21
TORSDOF 6
