REMARK  11 active torsions:
REMARK  status: ('A' for Active; 'I' for Inactive)
REMARK       I    between atoms: N_4  and  C_1 
REMARK    1  A    between atoms: O_10  and  C_1 
REMARK       I    between atoms: N_6  and  C_2 
REMARK    2  A    between atoms: C_5  and  C_2 
REMARK    3  A    between atoms: C_3  and  N_7 
REMARK    4  A    between atoms: N_13  and  C_3 
REMARK    5  A    between atoms: C_5  and  N_4 
REMARK    6  A    between atoms: C_16  and  C_5 
REMARK    7  A    between atoms: N_7  and  N_6 
REMARK    8  A    between atoms: C_8  and  C_18 
REMARK    9  A    between atoms: C_17  and  O_10 
REMARK   10  A    between atoms: C_18  and  N_13 
REMARK   11  A    between atoms: C_19  and  C_16 
ROOT
ATOM      1  C   UNL d   1       0.579   0.709  -2.894  0.00  0.00     0.184 C 
ENDROOT
BRANCH   1   2
ATOM      2  C   UNL d   1      -0.006   1.160  -4.237  0.00  0.00     0.073 C 
BRANCH   2   3
ATOM      3  C   UNL d   1       0.952   1.776  -5.219  0.00  0.00    -0.056 A 
ATOM      4  C   UNL d   1       1.055   1.219  -6.497  0.00  0.00     0.007 A 
ATOM      5  C   UNL d   1       1.888   1.789  -7.457  0.00  0.00     0.001 A 
ATOM      6  C   UNL d   1       2.612   2.937  -7.149  0.00  0.00     0.000 A 
ATOM      7  C   UNL d   1       2.505   3.512  -5.884  0.00  0.00     0.001 A 
ATOM      8  C   UNL d   1       1.676   2.935  -4.918  0.00  0.00     0.007 A 
ENDBRANCH   2   3
ENDBRANCH   1   2
BRANCH   1   9
ATOM      9  N   UNL d   1       1.760  -0.170  -2.876  0.00  0.00    -0.323 N 
ATOM     10  C   UNL d   1       2.124  -1.252  -3.607  0.00  0.00     0.362 C 
ATOM     11  O   UNL d   1       3.072  -1.933  -3.223  0.00  0.00    -0.238 OA
ATOM     12  H   UNL d   1       2.378  -0.053  -2.086  0.00  0.00     0.165 HD
BRANCH  10  13
ATOM     13  O   UNL d   1       1.372  -1.504  -4.699  0.00  0.00    -0.294 OA
BRANCH  13  14
ATOM     14  C   UNL d   1       1.683  -2.664  -5.529  0.00  0.00     0.061 C 
ATOM     15  C   UNL d   1       1.478  -3.966  -4.737  0.00  0.00     0.046 C 
ATOM     16  C   UNL d   1       0.681  -2.611  -6.694  0.00  0.00     0.046 C 
ATOM     17  C   UNL d   1       3.100  -2.600  -6.124  0.00  0.00     0.046 C 
ENDBRANCH  13  14
ENDBRANCH  10  13
ENDBRANCH   1   9
BRANCH   1  18
ATOM     18  C   UNL d   1      -0.594   0.204  -2.039  0.00  0.00     0.259 C 
ATOM     19  N   UNL d   1      -0.396  -1.001  -1.402  0.00  0.00    -0.266 N 
ATOM     20  H   UNL d   1       0.406  -1.603  -1.568  0.00  0.00     0.190 HD
ATOM     21  O   UNL d   1      -1.633   0.848  -1.885  0.00  0.00    -0.269 OA
BRANCH  19  22
ATOM     22  N   UNL d   1      -1.361  -1.412  -0.489  0.00  0.00    -0.274 N 
ATOM     23  H   UNL d   1      -2.189  -0.816  -0.444  0.00  0.00     0.189 HD
BRANCH  22  24
ATOM     24  C   UNL d   1      -1.472  -2.711  -0.076  0.00  0.00     0.186 C 
ATOM     25  S   UNL d   1      -0.656  -4.012  -0.728  0.00  0.00    -0.040 SA
BRANCH  24  26
ATOM     26  N   UNL d   1      -2.286  -2.900   1.006  0.00  0.00    -0.366 N 
ATOM     27  H   UNL d   1      -2.359  -3.864   1.310  0.00  0.00     0.161 HD
BRANCH  26  28
ATOM     28  C   UNL d   1      -2.563  -1.885   2.006  0.00  0.00     0.126 C 
BRANCH  28  29
ATOM     29  C   UNL d   1      -4.026  -1.607   2.064  0.00  0.00     0.003 A 
ATOM     30  C   UNL d   1      -4.549  -0.599   3.056  0.00  0.00     0.007 A 
ATOM     31  C   UNL d   1      -4.839  -2.061   3.249  0.00  0.00     0.007 A 
ENDBRANCH  28  29
ENDBRANCH  26  28
ENDBRANCH  24  26
ENDBRANCH  22  24
ENDBRANCH  19  22
ENDBRANCH   1  18
TORSDOF 11
