REMARK  4 active torsions:
REMARK  status: ('A' for Active; 'I' for Inactive)
REMARK    1  A    between atoms: N_4  and  S_1 
REMARK    2  A    between atoms: C_6  and  S_1 
REMARK    3  A    between atoms: N_3  and  C_2 
REMARK    4  A    between atoms: C_5  and  N_4 
ROOT
ATOM      1  N   UNL d   1       0.425  -0.680  -1.560  0.00  0.00    -0.179 NA
ATOM      2  H   UNL d   1      -0.583  -0.851  -1.438  0.00  0.00     0.146 HD
ENDROOT
BRANCH   1   3
ATOM      3  S   UNL d   1       0.998   0.006  -0.102  0.00  0.00     0.245 S 
ATOM      4  O   UNL d   1       0.198   1.182   0.167  0.00  0.00    -0.206 OA
ATOM      5  O   UNL d   1       2.444   0.070  -0.156  0.00  0.00    -0.206 OA
BRANCH   3   6
ATOM      6  C   UNL d   1       0.535  -1.264   1.050  0.00  0.00     0.074 A 
ATOM      7  C   UNL d   1       1.474  -2.225   1.429  0.00  0.00     0.025 A 
ATOM      8  C   UNL d   1       1.099  -3.246   2.303  0.00  0.00     0.008 A 
ATOM      9  C   UNL d   1      -0.209  -3.308   2.805  0.00  0.00    -0.062 A 
ATOM     10  C   UNL d   1      -1.133  -2.318   2.439  0.00  0.00     0.008 A 
ATOM     11  C   UNL d   1      -0.602  -4.433   3.718  0.00  0.00     0.048 C 
ATOM     12  C   UNL d   1      -0.764  -1.293   1.565  0.00  0.00     0.025 A 
ENDBRANCH   3   6
ENDBRANCH   1   3
BRANCH   1  13
ATOM     13  C   UNL d   1       0.679   0.133  -2.728  0.00  0.00     0.056 A 
ATOM     14  C   UNL d   1      -0.226   1.076  -3.246  0.00  0.00     0.125 A 
ATOM     15  C   UNL d   1       0.128   1.870  -4.352  0.00  0.00     0.044 A 
ATOM     16  C   UNL d   1       1.385   1.726  -4.955  0.00  0.00    -0.060 A 
ATOM     17  C   UNL d   1       2.284   0.789  -4.434  0.00  0.00     0.009 A 
ATOM     18  C   UNL d   1       1.749   2.572  -6.140  0.00  0.00     0.048 C 
ATOM     19  C   UNL d   1       1.938   0.010  -3.325  0.00  0.00     0.027 A 
BRANCH  14  20
ATOM     20  N   UNL d   1      -1.578   1.214  -2.696  0.00  0.00    -0.114 N 
ATOM     21  O   UNL d   1      -1.994   0.312  -1.949  0.00  0.00    -0.532 OA
ATOM     22  O   UNL d   1      -2.250   2.194  -3.048  0.00  0.00    -0.532 OA
ENDBRANCH  14  20
ENDBRANCH   1  13
TORSDOF 4
