REMARK  4 active torsions:
REMARK  status: ('A' for Active; 'I' for Inactive)
REMARK    1  A    between atoms: C_7  and  N_1 
REMARK    2  A    between atoms: C_8  and  N_3 
REMARK    3  A    between atoms: N_11  and  C_4 
REMARK    4  A    between atoms: C_13  and  C_8 
ROOT
ATOM      1  N   UNL d   1      -0.612   1.237   0.034  0.00  0.00    -0.254 N 
ATOM      2  C   UNL d   1      -1.386   0.053   0.030  0.00  0.00     0.338 A 
ATOM      3  N   UNL d   1      -0.676  -1.146  -0.037  0.00  0.00    -0.262 N 
ATOM      4  C   UNL d   1       0.780   1.219  -0.081  0.00  0.00     0.094 A 
ATOM      5  C   UNL d   1       0.693  -1.227  -0.111  0.00  0.00     0.254 A 
ATOM      6  C   UNL d   1       1.418   0.042  -0.136  0.00  0.00     0.117 A 
ATOM      7  O   UNL d   1      -2.620   0.055   0.050  0.00  0.00    -0.246 OA
ATOM      8  O   UNL d   1       1.343  -2.268  -0.175  0.00  0.00    -0.268 OA
ENDROOT
BRANCH   1   9
ATOM      9  C   UNL d   1      -1.337   2.481   0.054  0.00  0.00     0.051 A 
ATOM     10  C   UNL d   1      -2.173   2.851   1.129  0.00  0.00    -0.035 A 
ATOM     11  C   UNL d   1      -2.355   2.027   2.374  0.00  0.00     0.050 C 
ATOM     12  C   UNL d   1      -2.863   4.076   1.063  0.00  0.00     0.009 A 
ATOM     13  C   UNL d   1      -2.714   4.931  -0.029  0.00  0.00     0.001 A 
ATOM     14  C   UNL d   1      -1.871   4.577  -1.075  0.00  0.00     0.002 A 
ATOM     15  C   UNL d   1      -1.188   3.362  -1.033  0.00  0.00     0.031 A 
ENDBRANCH   1   9
BRANCH   4  16
ATOM     16  N   UNL d   1       1.542   2.378  -0.106  0.00  0.00    -0.288 NA
ATOM     17  H   UNL d   1       1.086   3.154   0.372  0.00  0.00     0.125 HD
ATOM     18  H   UNL d   1       2.506   2.259   0.193  0.00  0.00     0.125 HD
ENDBRANCH   4  16
BRANCH   3  19
ATOM     19  C   UNL d   1      -1.431  -2.392  -0.072  0.00  0.00     0.175 C 
BRANCH  19  20
ATOM     20  C   UNL d   1      -1.639  -2.980   1.307  0.00  0.00    -0.040 A 
ATOM     21  C   UNL d   1      -2.794  -2.681   2.043  0.00  0.00     0.009 A 
ATOM     22  C   UNL d   1      -2.962  -3.189   3.333  0.00  0.00     0.001 A 
ATOM     23  C   UNL d   1      -1.978  -3.996   3.901  0.00  0.00     0.000 A 
ATOM     24  C   UNL d   1      -0.831  -4.309   3.175  0.00  0.00     0.001 A 
ATOM     25  C   UNL d   1      -0.663  -3.807   1.884  0.00  0.00     0.009 A 
ENDBRANCH  19  20
ENDBRANCH   3  19
TORSDOF 4
