REMARK  3 active torsions:
REMARK  status: ('A' for Active; 'I' for Inactive)
REMARK    1  A    between atoms: N_5  and  N_7 
REMARK    2  A    between atoms: N_9  and  C_8 
REMARK    3  A    between atoms: C_13  and  C_12 
ROOT
ATOM      1  N   UNL d   1      -0.886  -4.736  -0.787  0.00  0.00    -0.309 N 
ATOM      2  HN  UNL d   1      -1.082  -5.539  -1.385  1.00  0.00     0.186 HD
ATOM      3  C   UNL d   1       0.179  -4.659  -0.056  0.00  0.00     0.118 C 
ENDROOT
BRANCH   1   4
ATOM      4  N   UNL d   1      -1.727  -3.667  -0.700  0.00  0.00    -0.276 N 
ATOM      5  C   UNL d   1      -2.926  -3.558  -1.339  0.00  0.00     0.168 C 
ATOM      6  N   UNL d   1      -3.714  -2.521  -1.299  0.00  0.00    -0.364 N 
ATOM      7  N   UNL d   1      -3.307  -4.611  -2.116  0.00  0.00    -0.262 NA
ATOM      8  C   UNL d   1      -4.849  -2.927  -2.184  0.00  0.00     0.137 C 
ATOM      9  HN  UNL d   1      -3.588  -1.647  -0.789  1.00  0.00     0.162 HD
ATOM     10  C   UNL d   1      -4.352  -4.137  -2.984  0.00  0.00     0.115 C 
ATOM     11  H   UNL d   1      -2.517  -5.110  -2.508  0.00  0.00     0.130 HD
ATOM     12  H   UNL d   1      -1.500  -2.858  -0.128  0.00  0.00     0.189 HD
ENDBRANCH   1   4
BRANCH   3  13
ATOM     13  C   UNL d   1       1.174  -5.749  -0.021  0.00  0.00    -0.019 A 
ATOM     14  C   UNL d   1       0.971  -6.927  -0.736  0.00  0.00     0.015 A 
ATOM     15  C   UNL d   1       1.937  -7.944  -0.703  0.00  0.00     0.030 A 
ATOM     16  C   UNL d   1       3.129  -7.820   0.032  0.00  0.00     0.029 A 
ATOM     17  C   UNL d   1       3.292  -6.619   0.748  0.00  0.00     0.030 A 
ATOM     18  C   UNL d   1       2.332  -5.596   0.733  0.00  0.00     0.015 A 
BRANCH  16  19
ATOM     19  N   UNL d   1       4.130  -8.783   0.005  0.00  0.00    -0.390 N 
ATOM     20  C   UNL d   1       4.923  -9.064   1.202  0.00  0.00     0.149 C 
ATOM     21  C   UNL d   1       4.124  -9.863  -0.980  0.00  0.00     0.149 C 
ENDBRANCH  16  19
ENDBRANCH   3  13
TORSDOF 3
