REMARK  2 active torsions:
REMARK  status: ('A' for Active; 'I' for Inactive)
REMARK    1  A    between atoms: C_2  and  C_1 
REMARK    2  A    between atoms: O_7  and  N_3 
ROOT
ATOM      1  C   UNL d   1      -1.937   2.408  -0.073  0.00  0.00     0.010 A 
ATOM      2  C   UNL d   1      -2.671   1.217  -0.149  0.00  0.00     0.046 A 
ATOM      3 CL   UNL d   1      -1.952  -0.333  -0.402  0.00  0.00    -0.083 Cl
ATOM      4  C   UNL d   1      -2.625   3.632   0.019  0.00  0.00     0.015 A 
ATOM      5  C   UNL d   1      -4.071   1.258  -0.087  0.00  0.00     0.025 A 
ATOM      6  C   UNL d   1      -4.020   3.665   0.065  0.00  0.00     0.001 A 
ATOM      7  C   UNL d   1      -4.743   2.477   0.023  0.00  0.00     0.002 A 
ENDROOT
BRANCH   1   8
ATOM      8  C   UNL d   1      -0.447   2.485  -0.104  0.00  0.00     0.040 C 
ATOM      9  N   UNL d   1       0.102   3.416  -0.833  0.00  0.00    -0.273 N 
ATOM     10  HN  UNL d   1      -0.420   4.080  -1.403  1.00  0.00     0.194 HD
ATOM     11  C   UNL d   1       0.354   1.528   0.752  0.00  0.00     0.071 C 
BRANCH   9  12
ATOM     12  O   UNL d   1       1.498   3.389  -0.735  0.00  0.00    -0.290 OA
ATOM     13  H   UNL d   1       1.760   4.145  -1.292  0.00  0.00     0.244 HD
ENDBRANCH   9  12
ENDBRANCH   1   8
TORSDOF 2
