REMARK  3 active torsions:
REMARK  status: ('A' for Active; 'I' for Inactive)
REMARK    1  A    between atoms: C_10  and  C_2 
REMARK    2  A    between atoms: O_15  and  C_7 
REMARK    3  A    between atoms: O_16  and  C_9 
ROOT
ATOM      1  C   UNL d   1      -0.176   0.690  -0.163  0.00  0.00     0.000 A 
ATOM      2  C   UNL d   1       1.179   1.327  -0.311  0.00  0.00     0.049 C 
ATOM      3  C   UNL d   1      -1.379   1.404  -0.131  0.00  0.00     0.054 A 
ATOM      4  N   UNL d   1       2.274   0.703  -0.007  0.00  0.00    -0.388 N 
ATOM      5  HN  UNL d   1       3.180   1.150  -0.148  1.00  0.00     0.159 HD
ATOM      6  C   UNL d   1      -0.207  -0.705  -0.015  0.00  0.00    -0.041 A 
ATOM      7  C   UNL d   1      -2.603   0.735   0.024  0.00  0.00     0.102 A 
ATOM      8  C   UNL d   1      -1.427  -1.368   0.170  0.00  0.00     0.047 A 
ATOM      9  C   UNL d   1      -2.629  -0.656   0.177  0.00  0.00     0.102 A 
ATOM     10  C   UNL d   1       2.191  -0.653   0.541  0.00  0.00     0.124 C 
ATOM     11  C   UNL d   1       1.084  -1.468  -0.106  0.00  0.00     0.059 C 
ENDROOT
BRANCH   2  12
ATOM     12  C   UNL d   1       1.340   2.735  -0.800  0.00  0.00    -0.009 A 
ATOM     13  C   UNL d   1       2.357   3.517  -0.230  0.00  0.00     0.015 A 
ATOM     14  C   UNL d   1       2.563   4.832  -0.651  0.00  0.00     0.024 A 
ATOM     15  C   UNL d   1       1.748   5.369  -1.647  0.00  0.00     0.034 A 
ATOM     16  C   UNL d   1       0.754   4.593  -2.239  0.00  0.00     0.024 A 
ATOM     17 CL   UNL d   1       1.987   6.994  -2.158  0.00  0.00    -0.084 Cl
ATOM     18  C   UNL d   1       0.560   3.268  -1.831  0.00  0.00     0.015 A 
ENDBRANCH   2  12
BRANCH   7  19
ATOM     19  O   UNL d   1      -3.722   1.514  -0.095  0.00  0.00    -0.353 OA
ATOM     20  C   UNL d   1      -4.521   1.565   1.084  0.00  0.00     0.210 C 
ENDBRANCH   7  19
BRANCH   9  21
ATOM     21  O   UNL d   1      -3.745  -1.406   0.426  0.00  0.00    -0.353 OA
ATOM     22  C   UNL d   1      -4.784  -1.276  -0.538  0.00  0.00     0.210 C 
ENDBRANCH   9  21
TORSDOF 3
