REMARK  5 active torsions:
REMARK  status: ('A' for Active; 'I' for Inactive)
REMARK    1  A    between atoms: N_3  and  S_1 
REMARK    2  A    between atoms: C_2  and  C_7 
REMARK    3  A    between atoms: C_4  and  N_3 
REMARK    4  A    between atoms: O_21  and  C_6 
REMARK    5  A    between atoms: N_8  and  C_17 
ROOT
ATOM      1  C   UNL d   1       0.859  -1.975  -1.885  0.00  0.00     0.030 A 
ATOM      2  C   UNL d   1      -0.285  -2.296  -2.632  0.00  0.00     0.054 A 
ATOM      3  C   UNL d   1       2.134  -2.048  -2.464  0.00  0.00    -0.040 A 
ATOM      4  C   UNL d   1      -0.172  -2.719  -3.961  0.00  0.00     0.033 A 
ATOM      5  C   UNL d   1       2.233  -2.397  -3.818  0.00  0.00     0.011 A 
ATOM      6  C   UNL d   1       1.093  -2.733  -4.550  0.00  0.00     0.030 A 
ATOM      7  C   UNL d   1       3.403  -1.780  -1.707  0.00  0.00     0.050 C 
ENDROOT
BRANCH   4   8
ATOM      8  N   UNL d   1      -1.260  -3.102  -4.766  0.00  0.00    -0.365 N 
ATOM      9  C   UNL d   1      -2.157  -3.902  -4.280  0.00  0.00     0.102 C 
ATOM     10  HN  UNL d   1      -1.343  -2.754  -5.721  1.00  0.00     0.165 HD
BRANCH   9  11
ATOM     11  C   UNL d   1      -3.275  -4.398  -5.115  0.00  0.00     0.016 A 
ATOM     12  C   UNL d   1      -4.315  -5.137  -4.544  0.00  0.00     0.099 A 
ATOM     13  C   UNL d   1      -5.355  -5.613  -5.353  0.00  0.00     0.069 A 
ATOM     14 CL   UNL d   1      -6.651  -6.519  -4.661  0.00  0.00    -0.081 Cl
ATOM     15  C   UNL d   1      -5.358  -5.368  -6.724  0.00  0.00     0.050 A 
ATOM     16  C   UNL d   1      -4.313  -4.638  -7.288  0.00  0.00     0.036 A 
ATOM     17  C   UNL d   1      -3.275  -4.150  -6.494  0.00  0.00     0.039 A 
ATOM     18 CL   UNL d   1      -4.301  -4.346  -8.983  0.00  0.00    -0.084 Cl
BRANCH  12  19
ATOM     19  O   UNL d   1      -4.311  -5.389  -3.196  0.00  0.00    -0.358 OA
ATOM     20  H   UNL d   1      -5.117  -5.901  -2.987  0.00  0.00     0.217 HD
ENDBRANCH  12  19
ENDBRANCH   9  11
ENDBRANCH   4   8
BRANCH   1  21
ATOM     21  N   UNL d   1       0.709  -1.589  -0.514  0.00  0.00    -0.185 NA
ATOM     22  H   UNL d   1       0.074  -2.184   0.022  0.00  0.00     0.146 HD
BRANCH  21  23
ATOM     23  S   UNL d   1       0.337   0.025  -0.175  0.00  0.00     0.210 S 
ATOM     24  O   UNL d   1      -0.488  -0.028   1.017  0.00  0.00    -0.211 OA
ATOM     25  O   UNL d   1      -0.109   0.710  -1.364  0.00  0.00    -0.211 OA
ATOM     26  C   UNL d   1       1.922   0.673   0.314  0.00  0.00     0.180 C 
ENDBRANCH  21  23
ENDBRANCH   1  21
TORSDOF 5
