REMARK  9 active torsions:
REMARK  status: ('A' for Active; 'I' for Inactive)
REMARK    1  A    between atoms: N_4  and  C_1 
REMARK    2  A    between atoms: N_6  and  C_1 
REMARK    3  A    between atoms: C_2  and  O_9 
REMARK    4  A    between atoms: C_3  and  N_4 
REMARK    5  A    between atoms: C_16  and  N_6 
REMARK    6  A    between atoms: O_24  and  C_8 
REMARK    7  A    between atoms: O_9  and  C_17 
REMARK    8  A    between atoms: O_10  and  C_18 
REMARK    9  A    between atoms: C_19  and  O_10 
ROOT
ATOM      1  C   UNL d   1      -1.091  -1.033  -0.670  0.00  0.00     0.034 A 
ATOM      2  C   UNL d   1      -3.868  -0.834  -1.050  0.00  0.00     0.076 A 
ATOM      3  C   UNL d   1      -1.672   0.161  -1.125  0.00  0.00     0.032 A 
ATOM      4  C   UNL d   1      -1.913  -2.151  -0.520  0.00  0.00     0.032 A 
ATOM      5  C   UNL d   1      -3.051   0.258  -1.326  0.00  0.00     0.039 A 
ATOM      6  C   UNL d   1      -3.293  -2.054  -0.705  0.00  0.00     0.039 A 
ENDROOT
BRANCH   1   7
ATOM      7  N   UNL d   1       0.294  -0.986  -0.390  0.00  0.00    -0.333 N 
ATOM      8  H   UNL d   1       0.753  -0.145  -0.716  0.00  0.00     0.168 HD
BRANCH   7   9
ATOM      9  C   UNL d   1       1.149  -1.849   0.295  0.00  0.00     0.176 C 
ATOM     10  S   UNL d   1       0.769  -3.308   1.028  0.00  0.00    -0.041 SA
BRANCH   9  11
ATOM     11  N   UNL d   1       2.414  -1.244   0.385  0.00  0.00    -0.331 N 
ATOM     12  H   UNL d   1       2.391  -0.257   0.614  0.00  0.00     0.168 HD
BRANCH  11  13
ATOM     13  C   UNL d   1       3.620  -1.885   0.755  0.00  0.00     0.069 A 
ATOM     14  C   UNL d   1       3.979  -3.109   0.179  0.00  0.00     0.056 A 
ATOM     15  C   UNL d   1       5.192  -3.708   0.513  0.00  0.00     0.036 A 
ATOM     16 CL   UNL d   1       5.635  -5.199  -0.224  0.00  0.00    -0.084 Cl
ATOM     17  C   UNL d   1       6.059  -3.096   1.416  0.00  0.00     0.026 A 
ATOM     18  C   UNL d   1       5.721  -1.860   1.972  0.00  0.00     0.041 A 
ATOM     19  C   UNL d   1       4.507  -1.253   1.641  0.00  0.00     0.095 A 
BRANCH  19  20
ATOM     20  O   UNL d   1       4.266  -0.010   2.168  0.00  0.00    -0.354 OA
ATOM     21  C   UNL d   1       3.201  -0.005   3.122  0.00  0.00     0.210 C 
ENDBRANCH  19  20
ENDBRANCH  11  13
ENDBRANCH   9  11
ENDBRANCH   7   9
ENDBRANCH   1   7
BRANCH   2  22
ATOM     22  O   UNL d   1      -5.230  -0.806  -1.181  0.00  0.00    -0.311 OA
BRANCH  22  23
ATOM     23  C   UNL d   1      -5.951   0.207  -0.587  0.00  0.00     0.076 A 
ATOM     24  C   UNL d   1      -7.241   0.377  -1.089  0.00  0.00     0.040 A 
ATOM     25  C   UNL d   1      -8.081   1.347  -0.547  0.00  0.00     0.040 A 
ATOM     26  C   UNL d   1      -7.657   2.157   0.506  0.00  0.00     0.078 A 
ATOM     27  C   UNL d   1      -6.361   2.006   0.999  0.00  0.00     0.040 A 
ATOM     28  C   UNL d   1      -5.521   1.011   0.473  0.00  0.00     0.040 A 
BRANCH  26  29
ATOM     29  O   UNL d   1      -8.603   3.032   0.951  0.00  0.00    -0.255 OA
BRANCH  29  30
ATOM     30  C   UNL d   1      -8.421   3.674   2.201  0.00  0.00     0.530 C 
ATOM     31  F   UNL d   1      -7.842   2.874   3.121  0.00  0.00    -0.144 F 
ATOM     32  F   UNL d   1      -7.680   4.792   2.049  0.00  0.00    -0.144 F 
ATOM     33  F   UNL d   1      -9.636   4.032   2.676  0.00  0.00    -0.144 F 
ENDBRANCH  29  30
ENDBRANCH  26  29
ENDBRANCH  22  23
ENDBRANCH   2  22
TORSDOF 9
