REMARK  4 active torsions:
REMARK  status: ('A' for Active; 'I' for Inactive)
REMARK    1  A    between atoms: N_9  and  C_1 
REMARK    2  A    between atoms: N_11  and  N_7 
REMARK    3  A    between atoms: C_10  and  N_9 
REMARK    4  A    between atoms: C_14  and  N_11 
ROOT
ATOM      1  C   UNL d   1       0.863   0.652  -0.113  0.00  0.00     0.155 A 
ATOM      2  C   UNL d   1      -0.510   1.189   0.151  0.00  0.00     0.163 A 
ATOM      3  C   UNL d   1      -1.383  -0.012   0.358  0.00  0.00     0.293 A 
ATOM      4  N   UNL d   1       0.819  -0.656  -0.076  0.00  0.00    -0.279 N 
ATOM      5  HN  UNL d   1       1.607  -1.284  -0.237  1.00  0.00     0.189 HD
ATOM      6  N   UNL d   1      -0.485  -1.045   0.220  0.00  0.00    -0.258 N 
ATOM      7  N   UNL d   1      -0.809   2.452   0.174  0.00  0.00    -0.292 N 
ATOM      8  HN  UNL d   1      -0.110   3.181   0.033  1.00  0.00     0.187 HD
ATOM      9  O   UNL d   1      -2.571   0.014   0.599  0.00  0.00    -0.264 OA
ATOM     10  C   UNL d   1      -0.813  -2.436   0.386  0.00  0.00     0.181 C 
ENDROOT
BRANCH   1  11
ATOM     11  N   UNL d   1       1.939   1.463  -0.340  0.00  0.00    -0.338 N 
ATOM     12  H   UNL d   1       1.854   2.451  -0.112  0.00  0.00     0.167 HD
BRANCH  11  13
ATOM     13  C   UNL d   1       3.090   1.106  -1.070  0.00  0.00     0.055 A 
ATOM     14  C   UNL d   1       4.344   1.678  -0.788  0.00  0.00     0.060 A 
ATOM     15 CL   UNL d   1       4.517   2.866   0.456  0.00  0.00    -0.082 Cl
ATOM     16  C   UNL d   1       5.490   1.285  -1.490  0.00  0.00     0.026 A 
ATOM     17  C   UNL d   1       5.402   0.318  -2.491  0.00  0.00     0.002 A 
ATOM     18  C   UNL d   1       4.174  -0.266  -2.778  0.00  0.00     0.002 A 
ATOM     19  C   UNL d   1       3.035   0.114  -2.063  0.00  0.00     0.031 A 
ENDBRANCH  11  13
ENDBRANCH   1  11
BRANCH   7  20
ATOM     20  N   UNL d   1      -2.129   2.738   0.402  0.00  0.00    -0.300 N 
ATOM     21  H   UNL d   1      -2.775   1.972   0.634  0.00  0.00     0.187 HD
BRANCH  20  22
ATOM     22  C   UNL d   1      -2.429   3.933   1.089  0.00  0.00     0.048 A 
ATOM     23  C   UNL d   1      -1.627   5.072   0.982  0.00  0.00     0.031 A 
ATOM     24  C   UNL d   1      -1.936   6.235   1.695  0.00  0.00     0.009 A 
ATOM     25  C   UNL d   1      -3.055   6.278   2.532  0.00  0.00    -0.062 A 
ATOM     26  C   UNL d   1      -3.883   5.154   2.613  0.00  0.00     0.009 A 
ATOM     27  C   UNL d   1      -3.355   7.516   3.322  0.00  0.00     0.048 C 
ATOM     28  C   UNL d   1      -3.578   3.998   1.889  0.00  0.00     0.031 A 
ENDBRANCH  20  22
ENDBRANCH   7  20
TORSDOF 4
