REMARK  3 active torsions:
REMARK  status: ('A' for Active; 'I' for Inactive)
REMARK    1  A    between atoms: C_14  and  N_1 
REMARK    2  A    between atoms: C_10  and  C_15 
REMARK    3  A    between atoms: C_15  and  C_14 
ROOT
ATOM      1  C   UNL d   1       3.633  -2.606   0.019  0.00  0.00     0.099 C 
ENDROOT
BRANCH   1   2
ATOM      2  C   UNL d   1       4.057  -4.033   0.059  0.00  0.00     0.105 A 
ATOM      3  N   UNL d   1       3.339  -5.064  -0.503  0.00  0.00    -0.322 N 
ATOM      4  C   UNL d   1       4.064  -6.127  -0.198  0.00  0.00     0.189 A 
ATOM      5  HN  UNL d   1       2.465  -5.018  -1.026  1.00  0.00     0.169 HD
ATOM      6  C   UNL d   1       3.717  -7.484  -0.528  0.00  0.00     0.058 A 
ATOM      7  O   UNL d   1       5.203  -5.788   0.492  0.00  0.00    -0.217 OA
ATOM      8  S   UNL d   1       4.709  -8.794  -0.024  0.00  0.00    -0.098 SA
ATOM      9  C   UNL d   1       2.619  -7.939  -1.235  0.00  0.00     0.024 A 
ATOM     10  C   UNL d   1       3.689  -9.953  -0.761  0.00  0.00     0.050 A 
ATOM     11  C   UNL d   1       2.608  -9.363  -1.374  0.00  0.00     0.009 A 
ATOM     12  N   UNL d   1       5.195  -4.406   0.652  0.00  0.00    -0.247 N 
ATOM     13  HN  UNL d   1       5.891  -3.819   1.112  1.00  0.00     0.196 HD
ENDBRANCH   1   2
BRANCH   1  14
ATOM     14  C   UNL d   1       2.113  -2.447   0.000  0.00  0.00     0.142 C 
BRANCH  14  15
ATOM     15  N   UNL d   1       1.677  -1.068  -0.031  0.00  0.00    -0.290 N 
ATOM     16  C   UNL d   1       1.381  -0.284   1.067  0.00  0.00     0.372 A 
ATOM     17  O   UNL d   1       0.927   0.985   0.674  0.00  0.00    -0.259 OA
ATOM     18  O   UNL d   1       1.485  -0.622   2.238  0.00  0.00    -0.237 OA
ATOM     19  C   UNL d   1       0.969   0.902  -0.709  0.00  0.00     0.107 A 
ATOM     20  C   UNL d   1       1.425  -0.320  -1.158  0.00  0.00     0.073 A 
ATOM     21  C   UNL d   1       0.601   1.905  -1.580  0.00  0.00     0.040 A 
ATOM     22  C   UNL d   1       1.541  -0.614  -2.500  0.00  0.00     0.039 A 
ATOM     23  C   UNL d   1       1.177   0.386  -3.416  0.00  0.00    -0.060 A 
ATOM     24  C   UNL d   1       0.710   1.638  -2.949  0.00  0.00     0.009 A 
ATOM     25  C   UNL d   1       1.280   0.143  -4.895  0.00  0.00     0.048 C 
ENDBRANCH  14  15
ENDBRANCH   1  14
TORSDOF 3
