REMARK  2 active torsions:
REMARK  status: ('A' for Active; 'I' for Inactive)
REMARK    1  A    between atoms: C_5  and  N_1 
REMARK    2  A    between atoms: C_6  and  C_3 
ROOT
ATOM      1  N   UNL d   1       1.141  -0.131  -0.232  0.00  0.00    -0.364 N 
ATOM      2  HN  UNL d   1       0.740   0.634  -0.775  1.00  0.00     0.165 HD
ATOM      3  C   UNL d   1       0.370  -1.034   0.284  0.00  0.00     0.101 C 
ENDROOT
BRANCH   1   4
ATOM      4  C   UNL d   1       2.533  -0.208  -0.042  0.00  0.00     0.054 A 
ATOM      5  C   UNL d   1       3.363  -1.286  -0.405  0.00  0.00     0.062 A 
ATOM      6  C   UNL d   1       4.750  -1.212  -0.223  0.00  0.00     0.045 A 
ATOM      7 CL   UNL d   1       2.736  -2.731  -1.123  0.00  0.00    -0.082 Cl
ATOM      8  C   UNL d   1       5.320  -0.052   0.297  0.00  0.00     0.012 A 
ATOM      9  C   UNL d   1       4.521   1.032   0.644  0.00  0.00     0.021 A 
ATOM     10 BR   UNL d   1       7.195   0.065   0.508  0.00  0.00    -0.051 Br
ATOM     11  C   UNL d   1       3.138   0.948   0.474  0.00  0.00     0.032 A 
ENDBRANCH   1   4
BRANCH   3  12
ATOM     12  C   UNL d   1      -1.102  -0.918   0.163  0.00  0.00     0.001 A 
ATOM     13  C   UNL d   1      -1.955  -2.012   0.344  0.00  0.00     0.045 A 
ATOM     14 CL   UNL d   1      -1.374  -3.611   0.639  0.00  0.00    -0.083 Cl
ATOM     15  C   UNL d   1      -3.341  -1.831   0.265  0.00  0.00     0.024 A 
ATOM     16  C   UNL d   1      -3.877  -0.565   0.015  0.00  0.00     0.002 A 
ATOM     17  C   UNL d   1      -3.029   0.524  -0.170  0.00  0.00     0.001 A 
ATOM     18  C   UNL d   1      -1.647   0.348  -0.102  0.00  0.00     0.014 A 
ENDBRANCH   3  12
TORSDOF 2
