REMARK  8 active torsions:
REMARK  status: ('A' for Active; 'I' for Inactive)
REMARK    1  A    between atoms: S_16  and  C_5 
REMARK    2  A    between atoms: C_12  and  C_10 
REMARK    3  A    between atoms: C_14  and  C_11 
REMARK    4  A    between atoms: C_13  and  O_22 
REMARK       I    between atoms: N_15  and  C_13 
REMARK    5  A    between atoms: C_21  and  N_15 
REMARK    6  A    between atoms: C_32  and  S_16 
REMARK    7  A    between atoms: O_22  and  C_33 
REMARK    8  A    between atoms: C_33  and  C_32 
ROOT
ATOM      1  N   UNL d   1       0.248   0.614   0.094  0.00  0.00    -0.233 N 
ATOM      2  C   UNL d   1       0.117  -0.780   0.052  0.00  0.00     0.130 A 
ATOM      3  N   UNL d   1       1.563   0.976   0.087  0.00  0.00    -0.295 N 
ATOM      4  HN  UNL d   1       1.941   1.922   0.134  1.00  0.00     0.187 HD
ATOM      5  C   UNL d   1      -0.907   1.420   0.129  0.00  0.00     0.097 A 
ATOM      6  N   UNL d   1      -1.091  -1.413   0.064  0.00  0.00    -0.337 N 
ATOM      7  HN  UNL d   1      -1.158  -2.431   0.045  1.00  0.00     0.167 HD
ATOM      8  C   UNL d   1       1.392  -1.286  -0.007  0.00  0.00     0.077 A 
ATOM      9  C   UNL d   1      -2.120   0.840   0.123  0.00  0.00     0.073 A 
ATOM     10  C   UNL d   1      -2.161  -0.661   0.100  0.00  0.00     0.120 A 
ATOM     11  C   UNL d   1       2.255  -0.169   0.006  0.00  0.00     0.037 A 
ENDROOT
BRANCH   5  12
ATOM     12  S   UNL d   1      -0.804   3.156   0.051  0.00  0.00    -0.108 SA
BRANCH  12  13
ATOM     13  C   UNL d   1       0.027   3.570   1.623  0.00  0.00     0.108 C 
BRANCH  13  14
ATOM     14  C   UNL d   1       0.240   5.084   1.716  0.00  0.00     0.191 C 
BRANCH  14  15
ATOM     15  O   UNL d   1      -1.000   5.819   1.737  0.00  0.00    -0.303 OA
BRANCH  15  16
ATOM     16  C   UNL d   1      -1.550   6.028   2.956  0.00  0.00     0.365 C 
ATOM     17  N   UNL d   1      -2.631   6.869   2.990  0.00  0.00    -0.303 N 
ATOM     18  H   UNL d   1      -2.883   7.096   3.941  0.00  0.00     0.171 HD
ATOM     19  O   UNL d   1      -1.101   5.559   4.001  0.00  0.00    -0.238 OA
BRANCH  17  20
ATOM     20  C   UNL d   1      -3.443   7.406   1.973  0.00  0.00     0.036 A 
ATOM     21  C   UNL d   1      -3.393   7.022   0.634  0.00  0.00     0.031 A 
ATOM     22  C   UNL d   1      -4.326   7.524  -0.284  0.00  0.00     0.026 A 
ATOM     23  C   UNL d   1      -5.304   8.421   0.133  0.00  0.00     0.034 A 
ATOM     24  C   UNL d   1      -5.340   8.849   1.456  0.00  0.00     0.026 A 
ATOM     25 CL   UNL d   1      -6.490   8.980  -0.981  0.00  0.00    -0.084 Cl
ATOM     26  C   UNL d   1      -4.412   8.341   2.372  0.00  0.00     0.031 A 
ENDBRANCH  17  20
ENDBRANCH  15  16
ENDBRANCH  14  15
ENDBRANCH  13  14
ENDBRANCH  12  13
ENDBRANCH   5  12
BRANCH  10  27
ATOM     27  C   UNL d   1      -3.547  -1.314   0.118  0.00  0.00     0.432 C 
ATOM     28  F   UNL d   1      -4.558  -0.401   0.154  0.00  0.00    -0.165 F 
ATOM     29  F   UNL d   1      -3.772  -2.085  -0.979  0.00  0.00    -0.165 F 
ATOM     30  F   UNL d   1      -3.722  -2.115   1.204  0.00  0.00    -0.165 F 
ENDBRANCH  10  27
BRANCH  11  31
ATOM     31  C   UNL d   1       3.777  -0.169  -0.009  0.00  0.00    -0.007 C 
ATOM     32  C   UNL d   1       4.304  -0.239   1.437  0.00  0.00     0.021 C 
ATOM     33  C   UNL d   1       4.327  -1.383  -0.791  0.00  0.00     0.021 C 
ATOM     34  C   UNL d   1       4.340   1.103  -0.679  0.00  0.00     0.021 C 
ENDBRANCH  11  31
TORSDOF 8
