REMARK  6 active torsions:
REMARK  status: ('A' for Active; 'I' for Inactive)
REMARK    1  A    between atoms: C_2  and  S_1 
REMARK    2  A    between atoms: C_12  and  S_1 
REMARK    3  A    between atoms: N_16  and  C_3 
REMARK    4  A    between atoms: C_17  and  C_9 
REMARK    5  A    between atoms: O_13  and  C_17 
REMARK    6  A    between atoms: C_14  and  O_13 
ROOT
ATOM      1  C   UNL d   1       0.686  -0.915  -1.549  0.00  0.00     0.117 A 
ATOM      2  C   UNL d   1       0.865  -2.259  -1.786  0.00  0.00     0.102 A 
ATOM      3  N   UNL d   1       0.438  -2.841  -2.925  0.00  0.00    -0.334 N 
ATOM      4  HN  UNL d   1       0.592  -3.834  -3.100  1.00  0.00     0.168 HD
ATOM      5  C   UNL d   1       0.028  -0.195  -2.513  0.00  0.00     0.116 A 
ATOM      6  N   UNL d   1      -0.415  -0.740  -3.659  0.00  0.00    -0.352 N 
ATOM      7  HN  UNL d   1      -0.891  -0.182  -4.368  1.00  0.00     0.166 HD
ATOM      8  C   UNL d   1      -0.199  -2.062  -3.826  0.00  0.00     0.107 A 
ENDROOT
BRANCH   1   9
ATOM      9  S   UNL d   1       1.135  -0.140  -0.053  0.00  0.00     0.211 S 
ATOM     10  O   UNL d   1       1.018  -1.123   1.013  0.00  0.00    -0.217 OA
ATOM     11  O   UNL d   1       0.365   1.090   0.039  0.00  0.00    -0.217 OA
BRANCH   9  12
ATOM     12  C   UNL d   1       2.842   0.333  -0.182  0.00  0.00     0.064 A 
ATOM     13  C   UNL d   1       3.168   1.602  -0.674  0.00  0.00     0.024 A 
ATOM     14  C   UNL d   1       4.505   1.997  -0.723  0.00  0.00     0.002 A 
ATOM     15  C   UNL d   1       5.505   1.133  -0.275  0.00  0.00     0.000 A 
ATOM     16  C   UNL d   1       5.173  -0.128   0.224  0.00  0.00     0.002 A 
ATOM     17  C   UNL d   1       3.838  -0.532   0.276  0.00  0.00     0.024 A 
ENDBRANCH   9  12
ENDBRANCH   1   9
BRANCH   2  18
ATOM     18  N   UNL d   1       1.535  -3.113  -0.916  0.00  0.00    -0.287 NA
ATOM     19  H   UNL d   1       1.180  -3.045   0.041  0.00  0.00     0.125 HD
ATOM     20  H   UNL d   1       1.463  -4.061  -1.280  0.00  0.00     0.125 HD
ENDBRANCH   2  18
BRANCH   8  21
ATOM     21  C   UNL d   1      -0.833  -2.713  -5.043  0.00  0.00     0.252 C 
BRANCH  21  22
ATOM     22  O   UNL d   1       0.039  -2.669  -6.171  0.00  0.00    -0.342 OA
BRANCH  22  23
ATOM     23  C   UNL d   1      -0.357  -3.279  -7.334  0.00  0.00     0.090 A 
ATOM     24  C   UNL d   1      -1.647  -3.522  -7.834  0.00  0.00     0.067 A 
ATOM     25 CL   UNL d   1      -3.129  -3.102  -7.050  0.00  0.00    -0.081 Cl
ATOM     26  C   UNL d   1      -1.812  -4.117  -9.097  0.00  0.00     0.026 A 
ATOM     27  C   UNL d   1      -0.711  -4.474  -9.872  0.00  0.00     0.002 A 
ATOM     28  C   UNL d   1       0.569  -4.237  -9.389  0.00  0.00     0.003 A 
ATOM     29  C   UNL d   1       0.740  -3.642  -8.136  0.00  0.00     0.038 A 
ENDBRANCH  22  23
ENDBRANCH  21  22
ENDBRANCH   8  21
TORSDOF 6
