REMARK  3 active torsions:
REMARK  status: ('A' for Active; 'I' for Inactive)
REMARK    1  A    between atoms: C_7  and  N_1 
REMARK    2  A    between atoms: C_9  and  C_3 
REMARK    3  A    between atoms: C_8  and  C_11 
ROOT
ATOM      1  N   UNL d   1      -0.018  -1.194  -0.069  0.00  0.00    -0.238 N 
ATOM      2  C   UNL d   1       1.298  -0.704  -0.057  0.00  0.00     0.136 A 
ATOM      3  C   UNL d   1       1.211   0.686   0.018  0.00  0.00     0.070 A 
ATOM      4  N   UNL d   1      -0.907  -0.182  -0.105  0.00  0.00    -0.296 N 
ATOM      5  HN  UNL d   1      -1.921  -0.259  -0.183  1.00  0.00     0.187 HD
ATOM      6  C   UNL d   1      -0.192   0.942  -0.021  0.00  0.00     0.039 A 
ATOM      7  N   UNL d   1       2.414  -1.484  -0.138  0.00  0.00    -0.383 N 
ATOM      8  C   UNL d   1      -0.923   2.236  -0.041  0.00  0.00     0.071 C 
ATOM      9  H   UNL d   1       2.376  -2.489  -0.275  0.00  0.00     0.157 HD
ATOM     10  H   UNL d   1       3.266  -1.179   0.335  0.00  0.00     0.157 HD
ENDROOT
BRANCH   1  11
ATOM     11  C   UNL d   1      -0.483  -2.534   0.112  0.00  0.00     0.081 A 
ATOM     12  C   UNL d   1       0.275  -3.417   0.909  0.00  0.00     0.049 A 
ATOM     13  C   UNL d   1      -0.166  -4.723   1.186  0.00  0.00     0.050 A 
ATOM     14  C   UNL d   1      -1.398  -5.140   0.674  0.00  0.00     0.018 A 
ATOM     15  C   UNL d   1      -2.163  -4.274  -0.111  0.00  0.00     0.027 A 
ATOM     16  C   UNL d   1      -1.714  -2.977  -0.401  0.00  0.00     0.062 A 
ATOM     17 CL   UNL d   1      -2.713  -2.078  -1.494  0.00  0.00    -0.082 Cl
BRANCH  13  18
ATOM     18  C   UNL d   1       0.653  -5.660   2.043  0.00  0.00     0.417 C 
ATOM     19  F   UNL d   1       1.855  -5.137   2.415  0.00  0.00    -0.166 F 
ATOM     20  F   UNL d   1       0.018  -6.003   3.196  0.00  0.00    -0.166 F 
ATOM     21  F   UNL d   1       0.939  -6.828   1.405  0.00  0.00    -0.166 F 
ENDBRANCH  13  18
ENDBRANCH   1  11
BRANCH   3  22
ATOM     22  C   UNL d   1       2.341   1.600   0.044  0.00  0.00     0.110 C 
ATOM     23  S   UNL d   1       2.292   3.033   0.878  0.00  0.00    -0.060 SA
ATOM     24  N   UNL d   1       3.468   1.226  -0.629  0.00  0.00    -0.389 N 
ATOM     25  H   UNL d   1       3.473   0.384  -1.195  0.00  0.00     0.157 HD
ATOM     26  H   UNL d   1       4.253   1.857  -0.683  0.00  0.00     0.157 HD
ENDBRANCH   3  22
TORSDOF 3
