REMARK  10 active torsions:
REMARK  status: ('A' for Active; 'I' for Inactive)
REMARK    1  A    between atoms: C_3  and  C_1 
REMARK    2  A    between atoms: C_13  and  N_2 
REMARK    3  A    between atoms: C_20  and  C_8 
REMARK    4  A    between atoms: N_21  and  C_8 
REMARK    5  A    between atoms: N_9  and  O_14 
REMARK    6  A    between atoms: C_11  and  C_12 
REMARK    7  A    between atoms: O_14  and  C_11 
REMARK    8  A    between atoms: C_12  and  C_13 
REMARK    9  A    between atoms: O_22  and  C_20 
REMARK   10  A    between atoms: C_23  and  O_22 
ROOT
ATOM      1  O   UNL d   1      -3.293  -1.950  -0.605  0.00  0.00    -0.199 OA
ENDROOT
BRANCH   1   2
ATOM      2  N   UNL d   1      -4.656  -1.600  -0.565  0.00  0.00    -0.249 N 
ATOM      3  C   UNL d   1      -5.398  -2.662  -0.731  0.00  0.00     0.100 C 
ATOM      4  HN  UNL d   1      -5.013  -0.655  -0.425  1.00  0.00     0.196 HD
BRANCH   3   5
ATOM      5  C   UNL d   1      -6.917  -2.483  -0.767  0.00  0.00     0.247 C 
BRANCH   5   6
ATOM      6  O   UNL d   1      -7.293  -2.646  -2.134  0.00  0.00    -0.344 OA
BRANCH   6   7
ATOM      7  C   UNL d   1      -8.631  -2.692  -2.410  0.00  0.00     0.069 A 
ATOM      8  C   UNL d   1      -9.663  -2.697  -1.474  0.00  0.00     0.037 A 
ATOM      9  C   UNL d   1     -10.995  -2.801  -1.894  0.00  0.00     0.009 A 
ATOM     10  C   UNL d   1     -11.312  -2.889  -3.254  0.00  0.00    -0.062 A 
ATOM     11  C   UNL d   1     -10.276  -2.866  -4.191  0.00  0.00     0.009 A 
ATOM     12  C   UNL d   1     -12.742  -3.039  -3.682  0.00  0.00     0.048 C 
ATOM     13  C   UNL d   1      -8.947  -2.767  -3.770  0.00  0.00     0.037 A 
ENDBRANCH   6   7
ENDBRANCH   5   6
ENDBRANCH   3   5
BRANCH   3  14
ATOM     14  N   UNL d   1      -4.911  -3.939  -0.905  0.00  0.00    -0.289 NA
ATOM     15  H   UNL d   1      -3.963  -3.987  -1.269  0.00  0.00     0.125 HD
ATOM     16  H   UNL d   1      -5.539  -4.594  -1.362  0.00  0.00     0.125 HD
ENDBRANCH   3  14
ENDBRANCH   1   2
BRANCH   1  17
ATOM     17  C   UNL d   1      -2.816  -2.267   0.646  0.00  0.00     0.282 C 
ATOM     18  O   UNL d   1      -3.403  -2.129   1.713  0.00  0.00    -0.263 OA
BRANCH  17  19
ATOM     19  C   UNL d   1      -1.504  -2.998   0.519  0.00  0.00     0.133 C 
BRANCH  19  20
ATOM     20  C   UNL d   1      -0.652  -2.518  -0.657  0.00  0.00     0.141 C 
BRANCH  20  21
ATOM     21  N   UNL d   1       0.610  -3.255  -0.767  0.00  0.00    -0.323 N 
ATOM     22  C   UNL d   1       1.815  -2.584  -0.619  0.00  0.00     0.110 A 
ATOM     23  C   UNL d   1       2.997  -3.212  -0.748  0.00  0.00     0.063 A 
ATOM     24  C   UNL d   1       3.000  -4.645  -0.990  0.00  0.00     0.023 A 
ATOM     25  C   UNL d   1       1.856  -5.316  -1.172  0.00  0.00     0.075 A 
ATOM     26  C   UNL d   1       0.553  -4.606  -1.119  0.00  0.00     0.247 A 
ATOM     27  O   UNL d   1      -0.482  -5.220  -1.363  0.00  0.00    -0.268 OA
BRANCH  23  28
ATOM     28  C   UNL d   1       4.305  -2.474  -0.667  0.00  0.00     0.418 C 
ATOM     29  F   UNL d   1       5.384  -3.284  -0.822  0.00  0.00    -0.166 F 
ATOM     30  F   UNL d   1       4.394  -1.518  -1.628  0.00  0.00    -0.166 F 
ATOM     31  F   UNL d   1       4.455  -1.845   0.526  0.00  0.00    -0.166 F 
ENDBRANCH  23  28
ENDBRANCH  20  21
ENDBRANCH  19  20
ENDBRANCH  17  19
ENDBRANCH   1  17
TORSDOF 10
