REMARK  7 active torsions:
REMARK  status: ('A' for Active; 'I' for Inactive)
REMARK    1  A    between atoms: C_5  and  C_1 
REMARK    2  A    between atoms: O_14  and  C_2 
REMARK    3  A    between atoms: O_16  and  C_5 
REMARK    4  A    between atoms: C_15  and  C_9 
REMARK    5  A    between atoms: O_10  and  C_15 
REMARK    6  A    between atoms: C_12  and  O_10 
REMARK    7  A    between atoms: C_20  and  O_16 
ROOT
ATOM      1  C   UNL d   1      -0.191   1.316   0.139  0.00  0.00     0.105 A 
ATOM      2  C   UNL d   1      -0.875   0.120   0.145  0.00  0.00     0.159 A 
ATOM      3  N   UNL d   1      -0.269  -1.079   0.174  0.00  0.00    -0.324 N 
ATOM      4  HN  UNL d   1      -0.805  -1.947   0.177  1.00  0.00     0.169 HD
ATOM      5  C   UNL d   1       1.182   1.209   0.192  0.00  0.00     0.111 A 
ATOM      6  N   UNL d   1       1.841   0.030   0.216  0.00  0.00    -0.353 N 
ATOM      7  HN  UNL d   1       2.859  -0.015   0.245  1.00  0.00     0.166 HD
ATOM      8  C   UNL d   1       1.080  -1.084   0.199  0.00  0.00     0.107 A 
ENDROOT
BRANCH   8   9
ATOM      9  C   UNL d   1       1.771  -2.425   0.093  0.00  0.00     0.252 C 
BRANCH   9  10
ATOM     10  O   UNL d   1       2.019  -2.966   1.393  0.00  0.00    -0.342 OA
BRANCH  10  11
ATOM     11  C   UNL d   1       2.599  -4.209   1.412  0.00  0.00     0.090 A 
ATOM     12  C   UNL d   1       3.488  -4.503   2.457  0.00  0.00     0.067 A 
ATOM     13 CL   UNL d   1       3.908  -3.319   3.644  0.00  0.00    -0.081 Cl
ATOM     14  C   UNL d   1       4.074  -5.769   2.557  0.00  0.00     0.026 A 
ATOM     15  C   UNL d   1       3.769  -6.757   1.621  0.00  0.00     0.002 A 
ATOM     16  C   UNL d   1       2.876  -6.479   0.590  0.00  0.00     0.003 A 
ATOM     17  C   UNL d   1       2.288  -5.215   0.489  0.00  0.00     0.038 A 
ENDBRANCH  10  11
ENDBRANCH   9  10
ENDBRANCH   8   9
BRANCH   2  18
ATOM     18  O   UNL d   1      -2.238   0.034   0.077  0.00  0.00    -0.345 OA
ATOM     19  H   UNL d   1      -2.609   0.937   0.016  0.00  0.00     0.219 HD
ENDBRANCH   2  18
BRANCH   1  20
ATOM     20  C   UNL d   1      -0.891   2.594  -0.023  0.00  0.00     0.299 C 
ATOM     21  O   UNL d   1      -2.106   2.660  -0.135  0.00  0.00    -0.259 OA
BRANCH  20  22
ATOM     22  O   UNL d   1      -0.005   3.607  -0.142  0.00  0.00    -0.318 OA
BRANCH  22  23
ATOM     23  C   UNL d   1      -0.517   4.831  -0.690  0.00  0.00     0.174 C 
ATOM     24  C   UNL d   1      -0.372   4.769  -2.200  0.00  0.00     0.034 C 
ENDBRANCH  22  23
ENDBRANCH  20  22
ENDBRANCH   1  20
TORSDOF 7
