REMARK  5 active torsions:
REMARK  status: ('A' for Active; 'I' for Inactive)
REMARK       I    between atoms: N_2  and  C_1 
REMARK    1  A    between atoms: C_7  and  C_1 
REMARK    2  A    between atoms: C_5  and  N_2 
REMARK    3  A    between atoms: C_10  and  N_2 
REMARK    4  A    between atoms: C_9  and  C_5 
REMARK    5  A    between atoms: C_8  and  C_10 
ROOT
ATOM      1  N   UNL d   1       1.098  -6.081  -0.414  0.00  0.00    -0.197 NA
ATOM      2  C   UNL d   1       0.526  -5.078  -0.274  0.00  0.00     0.060 C 
ATOM      3  C   UNL d   1      -0.187  -3.807  -0.090  0.00  0.00     0.143 C 
ENDROOT
BRANCH   3   4
ATOM      4  C   UNL d   1       0.775  -2.629  -0.274  0.00  0.00     0.140 C 
BRANCH   4   5
ATOM      5  N   UNL d   1       0.261  -1.272  -0.002  0.00  0.00    -0.343 N 
ATOM      6  C   UNL d   1       1.089  -0.166   0.264  0.00  0.00     0.254 C 
ATOM      7  O   UNL d   1       0.642   0.916   0.647  0.00  0.00    -0.267 OA
BRANCH   6   8
ATOM      8  C   UNL d   1       2.568  -0.246   0.121  0.00  0.00     0.032 A 
ATOM      9  C   UNL d   1       3.191  -0.776  -1.013  0.00  0.00     0.017 A 
ATOM     10  C   UNL d   1       4.585  -0.754  -1.121  0.00  0.00     0.001 A 
ATOM     11  C   UNL d   1       5.358  -0.166  -0.120  0.00  0.00     0.000 A 
ATOM     12  C   UNL d   1       4.742   0.401   0.994  0.00  0.00     0.001 A 
ATOM     13  C   UNL d   1       3.352   0.361   1.114  0.00  0.00     0.017 A 
ENDBRANCH   6   8
BRANCH   5  14
ATOM     14  C   UNL d   1      -1.187  -1.034   0.092  0.00  0.00     0.164 C 
BRANCH  14  15
ATOM     15  C   UNL d   1      -1.936  -1.010  -1.222  0.00  0.00    -0.040 A 
ATOM     16  C   UNL d   1      -3.256  -1.492  -1.264  0.00  0.00     0.009 A 
ATOM     17  C   UNL d   1      -4.037  -1.351  -2.412  0.00  0.00     0.001 A 
ATOM     18  C   UNL d   1      -3.512  -0.723  -3.537  0.00  0.00     0.000 A 
ATOM     19  C   UNL d   1      -2.204  -0.240  -3.515  0.00  0.00     0.001 A 
ATOM     20  C   UNL d   1      -1.422  -0.378  -2.363  0.00  0.00     0.009 A 
ENDBRANCH  14  15
ENDBRANCH   5  14
ENDBRANCH   4   5
ENDBRANCH   3   4
TORSDOF 5
