REMARK  5 active torsions:
REMARK  status: ('A' for Active; 'I' for Inactive)
REMARK    1  A    between atoms: C_7  and  N_1 
REMARK    2  A    between atoms: S_9  and  C_2 
REMARK    3  A    between atoms: O_12  and  C_13 
REMARK    4  A    between atoms: C_14  and  O_12 
REMARK    5  A    between atoms: C_17  and  C_14 
ROOT
ATOM      1  C   UNL d   1       2.085  -1.466  -0.021  0.00  0.00     0.046 A 
ATOM      2  C   UNL d   1       2.261  -2.401  -1.045  0.00  0.00     0.033 A 
ATOM      3  C   UNL d   1       3.045  -1.376   0.993  0.00  0.00     0.033 A 
ATOM      4  C   UNL d   1       4.367  -3.100  -0.067  0.00  0.00     0.069 A 
ATOM      5  C   UNL d   1       4.179  -2.190   0.973  0.00  0.00     0.039 A 
ATOM      6  C   UNL d   1       3.414  -3.189  -1.083  0.00  0.00     0.039 A 
ENDROOT
BRANCH   1   7
ATOM      7  N   UNL d   1       0.962  -0.626  -0.021  0.00  0.00    -0.241 N 
ATOM      8  C   UNL d   1       0.878   0.725   0.140  0.00  0.00     0.170 A 
ATOM      9  N   UNL d   1      -0.336   1.200   0.146  0.00  0.00    -0.275 N 
ATOM     10  N   UNL d   1      -1.121   0.094  -0.032  0.00  0.00    -0.249 N 
ATOM     11  HN  UNL d   1      -0.631   2.169   0.257  1.00  0.00     0.189 HD
ATOM     12  C   UNL d   1      -0.342  -1.058  -0.149  0.00  0.00     0.347 A 
ATOM     13  H   UNL d   1      -2.132   0.128  -0.038  0.00  0.00     0.192 HD
ATOM     14  O   UNL d   1      -0.779  -2.186  -0.284  0.00  0.00    -0.245 OA
BRANCH   8  15
ATOM     15  S   UNL d   1       2.298   1.720   0.235  0.00  0.00    -0.096 SA
ATOM     16  C   UNL d   1       1.593   3.364   0.038  0.00  0.00     0.099 C 
ENDBRANCH   8  15
ENDBRANCH   1   7
BRANCH   4  17
ATOM     17  O   UNL d   1       5.437  -3.942  -0.195  0.00  0.00    -0.347 OA
BRANCH  17  18
ATOM     18  C   UNL d   1       6.184  -4.177   0.998  0.00  0.00     0.214 C 
BRANCH  18  19
ATOM     19  C   UNL d   1       7.045  -5.395   0.794  0.00  0.00    -0.034 A 
ATOM     20  C   UNL d   1       8.395  -5.271   0.443  0.00  0.00     0.009 A 
ATOM     21  C   UNL d   1       9.183  -6.410   0.271  0.00  0.00     0.001 A 
ATOM     22  C   UNL d   1       8.628  -7.677   0.437  0.00  0.00     0.000 A 
ATOM     23  C   UNL d   1       7.281  -7.811   0.767  0.00  0.00     0.001 A 
ATOM     24  C   UNL d   1       6.490  -6.674   0.940  0.00  0.00     0.009 A 
ENDBRANCH  18  19
ENDBRANCH  17  18
ENDBRANCH   4  17
TORSDOF 5
