REMARK  3 active torsions:
REMARK  status: ('A' for Active; 'I' for Inactive)
REMARK    1  A    between atoms: C_9  and  N_3 
REMARK    2  A    between atoms: C_14  and  N_4 
REMARK    3  A    between atoms: C_19  and  C_14 
ROOT
ATOM      1  C   UNL d   1      -0.283  -0.568   0.052  0.00  0.00     0.171 A 
ATOM      2  C   UNL d   1       2.161   0.762   0.046  0.00  0.00     0.337 A 
ATOM      3  N   UNL d   1       0.941   1.473   0.025  0.00  0.00    -0.261 N 
ATOM      4  N   UNL d   1       2.073  -0.652   0.045  0.00  0.00    -0.263 N 
ATOM      5  C   UNL d   1      -0.272   0.798   0.036  0.00  0.00     0.086 A 
ATOM      6  C   UNL d   1       0.881  -1.398   0.056  0.00  0.00     0.287 A 
ATOM      7  O   UNL d   1      -1.552  -1.052   0.046  0.00  0.00    -0.307 OA
ATOM      8  C   UNL d   1      -1.627   1.201  -0.014  0.00  0.00     0.065 A 
ATOM      9  C   UNL d   1      -2.374   0.038   0.009  0.00  0.00     0.052 A 
ATOM     10  O   UNL d   1       3.257   1.325   0.087  0.00  0.00    -0.246 OA
ATOM     11  O   UNL d   1       0.849  -2.625   0.062  0.00  0.00    -0.265 OA
ATOM     12  C   UNL d   1      -3.828  -0.225  -0.004  0.00  0.00     0.077 C 
ENDROOT
BRANCH   3  13
ATOM     13  C   UNL d   1       0.911   2.893  -0.023  0.00  0.00     0.050 A 
ATOM     14  C   UNL d   1       1.515   3.614  -1.073  0.00  0.00    -0.035 A 
ATOM     15  C   UNL d   1       2.153   2.965  -2.272  0.00  0.00     0.050 C 
ATOM     16  C   UNL d   1       1.498   5.020  -1.033  0.00  0.00     0.009 A 
ATOM     17  C   UNL d   1       0.880   5.704   0.013  0.00  0.00     0.001 A 
ATOM     18  C   UNL d   1       0.265   4.993   1.038  0.00  0.00     0.002 A 
ATOM     19  C   UNL d   1       0.281   3.598   1.020  0.00  0.00     0.031 A 
ENDBRANCH   3  13
BRANCH   4  20
ATOM     20  C   UNL d   1       3.330  -1.399   0.074  0.00  0.00     0.137 C 
BRANCH  20  21
ATOM     21  C   UNL d   1       3.973  -1.582  -1.307  0.00  0.00     0.016 C 
ATOM     22  C   UNL d   1       3.148  -2.431  -2.263  0.00  0.00     0.006 C 
ENDBRANCH  20  21
ENDBRANCH   4  20
TORSDOF 3
