REMARK  7 active torsions:
REMARK  status: ('A' for Active; 'I' for Inactive)
REMARK    1  A    between atoms: S_16  and  C_2 
REMARK    2  A    between atoms: C_18  and  C_3 
REMARK    3  A    between atoms: C_10  and  C_11 
REMARK    4  A    between atoms: C_12  and  S_17 
REMARK    5  A    between atoms: C_25  and  S_16 
REMARK    6  A    between atoms: S_17  and  C_18 
REMARK    7  A    between atoms: C_23  and  C_25 
ROOT
ATOM      1  N   UNL d   1       3.178  -7.081  -0.771  0.00  0.00    -0.352 N 
ATOM      2  HN  UNL d   1       3.363  -8.067  -0.956  1.00  0.00     0.166 HD
ATOM      3  C   UNL d   1       3.459  -6.144  -1.713  0.00  0.00     0.118 A 
ATOM      4  C   UNL d   1       2.622  -4.388  -0.289  0.00  0.00     0.015 A 
ATOM      5  C   UNL d   1       3.188  -4.797  -1.503  0.00  0.00     0.053 A 
ATOM      6  C   UNL d   1       2.656  -6.701   0.402  0.00  0.00     0.044 A 
ATOM      7  C   UNL d   1       2.353  -5.355   0.715  0.00  0.00     0.007 A 
ATOM      8  C   UNL d   1       1.841  -5.071   2.006  0.00  0.00     0.015 A 
ATOM      9  C   UNL d   1       2.432  -7.689   1.349  0.00  0.00     0.030 A 
ATOM     10  C   UNL d   1       1.619  -6.085   2.939  0.00  0.00     0.001 A 
ATOM     11  C   UNL d   1       1.915  -7.398   2.610  0.00  0.00     0.002 A 
ENDROOT
BRANCH   4  12
ATOM     12  S   UNL d   1       2.448  -2.609  -0.055  0.00  0.00    -0.121 SA
BRANCH  12  13
ATOM     13  C   UNL d   1       0.629  -2.387  -0.092  0.00  0.00     0.157 C 
BRANCH  13  14
ATOM     14  C   UNL d   1       0.254  -0.937  -0.024  0.00  0.00     0.109 A 
ATOM     15  N   UNL d   1       0.357  -0.026  -1.058  0.00  0.00    -0.319 N 
ATOM     16  C   UNL d   1      -0.153   1.147  -0.571  0.00  0.00     0.162 A 
ATOM     17  C   UNL d   1       0.896  -0.283  -2.368  0.00  0.00     0.159 C 
ATOM     18  N   UNL d   1      -0.528   0.985   0.676  0.00  0.00    -0.278 N 
ATOM     19  N   UNL d   1      -0.279  -0.325   1.019  0.00  0.00    -0.286 N 
ATOM     20  HN  UNL d   1      -0.931   1.699   1.281  1.00  0.00     0.189 HD
ATOM     21  HN  UNL d   1      -0.472  -0.750   1.926  1.00  0.00     0.188 HD
BRANCH  16  22
ATOM     22  S   UNL d   1      -0.333   2.595  -1.499  0.00  0.00    -0.085 SA
BRANCH  22  23
ATOM     23  C   UNL d   1       0.433   3.807  -0.390  0.00  0.00     0.160 C 
BRANCH  23  24
ATOM     24  C   UNL d   1       1.941   3.643  -0.286  0.00  0.00     0.132 C 
ATOM     25  O   UNL d   1       2.585   2.771  -0.867  0.00  0.00    -0.298 OA
ATOM     26  C   UNL d   1       2.647   4.670   0.569  0.00  0.00     0.091 C 
ENDBRANCH  23  24
ENDBRANCH  22  23
ENDBRANCH  16  22
ENDBRANCH  13  14
ENDBRANCH  12  13
ENDBRANCH   4  12
BRANCH   3  27
ATOM     27  C   UNL d   1       4.111  -6.580  -3.020  0.00  0.00     0.432 C 
ATOM     28  F   UNL d   1       4.364  -7.918  -3.108  0.00  0.00    -0.165 F 
ATOM     29  F   UNL d   1       3.342  -6.276  -4.107  0.00  0.00    -0.165 F 
ATOM     30  F   UNL d   1       5.308  -5.961  -3.237  0.00  0.00    -0.165 F 
ENDBRANCH   3  27
TORSDOF 7
