REMARK  2 active torsions:
REMARK  status: ('A' for Active; 'I' for Inactive)
REMARK    1  A    between atoms: N_2  and  C_3 
REMARK    2  A    between atoms: C_5  and  N_2 
ROOT
ATOM      1  C   UNL d   1      -1.037  -0.797  -0.099  0.00  0.00     0.017 A 
ATOM      2  C   UNL d   1      -2.396  -1.200  -0.085  0.00  0.00     0.046 A 
ATOM      3  C   UNL d   1      -0.763   0.589  -0.026  0.00  0.00     0.046 A 
ATOM      4  C   UNL d   1       0.557   1.013  -0.016  0.00  0.00     0.054 A 
ATOM      5  C   UNL d   1       0.040  -1.706  -0.196  0.00  0.00     0.018 A 
ATOM      6  N   UNL d   1      -1.730   1.516   0.044  0.00  0.00    -0.365 N 
ATOM      7  HN  UNL d   1      -1.501   2.509   0.086  1.00  0.00     0.165 HD
ATOM      8  C   UNL d   1       1.610   0.105  -0.093  0.00  0.00     0.036 A 
ATOM      9  C   UNL d   1      -3.391  -0.227   0.010  0.00  0.00     0.047 A 
ATOM     10  C   UNL d   1       1.360  -1.256  -0.196  0.00  0.00     0.025 A 
ATOM     11  C   UNL d   1      -3.012   1.099   0.057  0.00  0.00     0.090 A 
ATOM     12 CL   UNL d   1       3.235   0.673  -0.063  0.00  0.00    -0.084 Cl
ENDROOT
BRANCH   2  13
ATOM     13  N   UNL d   1      -2.725  -2.582   0.013  0.00  0.00    -0.354 N 
ATOM     14  H   UNL d   1      -2.574  -2.885   0.980  0.00  0.00     0.166 HD
BRANCH  13  15
ATOM     15  C   UNL d   1      -3.882  -3.225  -0.504  0.00  0.00     0.054 A 
ATOM     16  C   UNL d   1      -4.500  -4.279   0.196  0.00  0.00     0.060 A 
ATOM     17 CL   UNL d   1      -3.954  -4.723   1.776  0.00  0.00    -0.082 Cl
ATOM     18  C   UNL d   1      -5.578  -4.977  -0.354  0.00  0.00     0.026 A 
ATOM     19  C   UNL d   1      -6.047  -4.642  -1.624  0.00  0.00     0.002 A 
ATOM     20  C   UNL d   1      -5.443  -3.606  -2.334  0.00  0.00     0.002 A 
ATOM     21  C   UNL d   1      -4.367  -2.906  -1.781  0.00  0.00     0.031 A 
ENDBRANCH  13  15
ENDBRANCH   2  13
TORSDOF 2
