REMARK  3 active torsions:
REMARK  status: ('A' for Active; 'I' for Inactive)
REMARK    1  A    between atoms: N_9  and  C_3 
REMARK    2  A    between atoms: C_5  and  C_4 
REMARK    3  A    between atoms: C_13  and  N_9 
ROOT
ATOM      1  N   UNL d   1      -1.179   1.377   0.058  0.00  0.00    -0.352 N 
ATOM      2  HN  UNL d   1      -1.202   2.396   0.099  1.00  0.00     0.166 HD
ATOM      3  C   UNL d   1      -1.126  -1.418  -0.057  0.00  0.00     0.047 A 
ATOM      4  C   UNL d   1      -2.337   0.662   0.052  0.00  0.00     0.119 A 
ATOM      5  C   UNL d   1      -2.340  -0.729   0.018  0.00  0.00     0.064 A 
ATOM      6  C   UNL d   1       0.083  -0.681  -0.057  0.00  0.00     0.017 A 
ATOM      7  C   UNL d   1      -0.007   0.725   0.010  0.00  0.00     0.045 A 
ATOM      8  C   UNL d   1       1.361  -1.282  -0.142  0.00  0.00     0.016 A 
ATOM      9  C   UNL d   1       1.163   1.471   0.022  0.00  0.00     0.030 A 
ATOM     10  C   UNL d   1       2.522  -0.509  -0.142  0.00  0.00     0.001 A 
ATOM     11  C   UNL d   1       2.422   0.872  -0.051  0.00  0.00     0.002 A 
ENDROOT
BRANCH   3  12
ATOM     12  N   UNL d   1      -1.097  -2.838  -0.017  0.00  0.00    -0.355 N 
ATOM     13  H   UNL d   1      -0.751  -3.147   0.890  0.00  0.00     0.166 HD
BRANCH  12  14
ATOM     14  C   UNL d   1      -2.017  -3.749  -0.580  0.00  0.00     0.032 A 
ATOM     15  C   UNL d   1      -2.721  -3.460  -1.758  0.00  0.00     0.031 A 
ATOM     16  C   UNL d   1      -3.563  -4.409  -2.346  0.00  0.00     0.026 A 
ATOM     17  C   UNL d   1      -3.690  -5.669  -1.771  0.00  0.00     0.034 A 
ATOM     18  C   UNL d   1      -2.985  -5.987  -0.613  0.00  0.00     0.026 A 
ATOM     19 CL   UNL d   1      -4.702  -6.849  -2.507  0.00  0.00    -0.084 Cl
ATOM     20  C   UNL d   1      -2.145  -5.033  -0.028  0.00  0.00     0.031 A 
ENDBRANCH  12  14
ENDBRANCH   3  12
BRANCH   4  21
ATOM     21  C   UNL d   1      -3.671   1.392   0.074  0.00  0.00     0.432 C 
ATOM     22  F   UNL d   1      -3.572   2.751   0.120  0.00  0.00    -0.165 F 
ATOM     23  F   UNL d   1      -4.431   1.113  -1.027  0.00  0.00    -0.165 F 
ATOM     24  F   UNL d   1      -4.442   1.039   1.145  0.00  0.00    -0.165 F 
ENDBRANCH   4  21
TORSDOF 3
