REMARK  9 active torsions:
REMARK  status: ('A' for Active; 'I' for Inactive)
REMARK    1  A    between atoms: C_10  and  N_1 
REMARK    2  A    between atoms: S_9  and  C_2 
REMARK    3  A    between atoms: C_7  and  C_11 
REMARK    4  A    between atoms: C_14  and  S_9 
REMARK    5  A    between atoms: C_12  and  C_14 
REMARK    6  A    between atoms: C_13  and  C_12 
REMARK    7  A    between atoms: O_25  and  C_26 
REMARK    8  A    between atoms: C_27  and  O_25 
REMARK    9  A    between atoms: C_30  and  C_27 
ROOT
ATOM      1  N   UNL d   1      -0.208   1.139  -0.034  0.00  0.00    -0.286 N 
ATOM      2  C   UNL d   1       1.075   0.643  -0.263  0.00  0.00     0.167 A 
ATOM      3  N   UNL d   1       1.065  -0.674  -0.269  0.00  0.00    -0.279 N 
ATOM      4  HN  UNL d   1       1.871  -1.278  -0.429  1.00  0.00     0.189 HD
ATOM      5  N   UNL d   1      -0.211  -1.090  -0.024  0.00  0.00    -0.294 N 
ATOM      6  HN  UNL d   1      -0.529  -2.057   0.044  1.00  0.00     0.187 HD
ATOM      7  C   UNL d   1      -0.952  -0.016   0.109  0.00  0.00     0.207 A 
ENDROOT
BRANCH   1   8
ATOM      8  C   UNL d   1      -0.733   2.477  -0.001  0.00  0.00     0.042 A 
ATOM      9  C   UNL d   1       0.088   3.612  -0.037  0.00  0.00     0.033 A 
ATOM     10  C   UNL d   1      -0.448   4.897  -0.132  0.00  0.00     0.039 A 
ATOM     11  C   UNL d   1      -1.822   5.085  -0.165  0.00  0.00     0.069 A 
ATOM     12  C   UNL d   1      -2.658   3.982  -0.029  0.00  0.00     0.039 A 
ATOM     13  C   UNL d   1      -2.122   2.687   0.042  0.00  0.00     0.033 A 
BRANCH  11  14
ATOM     14  O   UNL d   1      -2.229   6.378  -0.330  0.00  0.00    -0.347 OA
BRANCH  14  15
ATOM     15  C   UNL d   1      -3.533   6.531  -0.892  0.00  0.00     0.214 C 
BRANCH  15  16
ATOM     16  C   UNL d   1      -3.694   7.897  -1.513  0.00  0.00    -0.034 A 
ATOM     17  C   UNL d   1      -4.507   8.041  -2.648  0.00  0.00     0.009 A 
ATOM     18  C   UNL d   1      -4.723   9.298  -3.214  0.00  0.00     0.001 A 
ATOM     19  C   UNL d   1      -4.132  10.425  -2.647  0.00  0.00     0.000 A 
ATOM     20  C   UNL d   1      -3.324  10.296  -1.519  0.00  0.00     0.001 A 
ATOM     21  C   UNL d   1      -3.109   9.039  -0.951  0.00  0.00     0.009 A 
ENDBRANCH  15  16
ENDBRANCH  14  15
ENDBRANCH  11  14
ENDBRANCH   1   8
BRANCH   2  22
ATOM     22  S   UNL d   1       2.490   1.579  -0.613  0.00  0.00    -0.084 SA
BRANCH  22  23
ATOM     23  C   UNL d   1       3.807   0.362  -0.595  0.00  0.00     0.166 C 
BRANCH  23  24
ATOM     24  C   UNL d   1       3.955  -0.377   0.719  0.00  0.00     0.169 C 
ATOM     25  O   UNL d   1       3.559   0.042   1.807  0.00  0.00    -0.291 OA
BRANCH  24  26
ATOM     26  C   UNL d   1       4.696  -1.668   0.667  0.00  0.00     0.011 A 
ATOM     27  C   UNL d   1       5.666  -1.902  -0.314  0.00  0.00     0.016 A 
ATOM     28  C   UNL d   1       6.360  -3.111  -0.339  0.00  0.00     0.017 A 
ATOM     29  C   UNL d   1       6.099  -4.102   0.619  0.00  0.00     0.048 A 
ATOM     30  C   UNL d   1       5.120  -3.863   1.596  0.00  0.00     0.017 A 
ATOM     31  C   UNL d   1       4.424  -2.650   1.623  0.00  0.00     0.016 A 
BRANCH  29  32
ATOM     32  C   UNL d   1       6.885  -5.392   0.586  0.00  0.00     0.417 C 
ATOM     33  F   UNL d   1       6.554  -6.261   1.578  0.00  0.00    -0.166 F 
ATOM     34  F   UNL d   1       6.716  -6.070  -0.583  0.00  0.00    -0.166 F 
ATOM     35  F   UNL d   1       8.224  -5.179   0.703  0.00  0.00    -0.166 F 
ENDBRANCH  29  32
ENDBRANCH  24  26
ENDBRANCH  23  24
ENDBRANCH  22  23
ENDBRANCH   2  22
TORSDOF 9
