REMARK  14 active torsions:
REMARK  status: ('A' for Active; 'I' for Inactive)
REMARK    1  A    between atoms: N_2  and  C_1 
REMARK    2  A    between atoms: S_4  and  C_1 
REMARK    3  A    between atoms: C_5  and  N_2 
REMARK    4  A    between atoms: C_12  and  S_4 
REMARK    5  A    between atoms: C_13  and  C_12 
REMARK    6  A    between atoms: C_21  and  C_13 
REMARK    7  A    between atoms: C_14  and  C_15 
REMARK    8  A    between atoms: C_15  and  C_20 
REMARK    9  A    between atoms: C_16  and  C_22 
REMARK   10  A    between atoms: C_17  and  C_16 
REMARK   11  A    between atoms: C_18  and  C_17 
REMARK   12  A    between atoms: C_19  and  C_18 
REMARK   13  A    between atoms: C_20  and  C_19 
REMARK   14  A    between atoms: C_22  and  C_21 
ROOT
ATOM      1  S   UNL d   1       2.719   0.092   0.240  0.00  0.00    -0.101 SA
ENDROOT
BRANCH   1   2
ATOM      2  C   UNL d   1       0.988   0.387   0.061  0.00  0.00     0.139 C 
ATOM      3  S   UNL d   1       0.059   0.776   1.405  0.00  0.00    -0.053 SA
BRANCH   2   4
ATOM      4  N   UNL d   1       0.397   0.462  -1.182  0.00  0.00    -0.342 N 
ATOM      5  H   UNL d   1      -0.455   1.023  -1.169  0.00  0.00     0.167 HD
BRANCH   4   6
ATOM      6  C   UNL d   1       0.478  -0.408  -2.296  0.00  0.00     0.033 A 
ATOM      7  C   UNL d   1       0.956  -1.701  -2.222  0.00  0.00     0.032 A 
ATOM      8  C   UNL d   1       0.811  -2.587  -3.313  0.00  0.00     0.044 A 
ATOM      9  C   UNL d   1       0.162  -2.136  -4.463  0.00  0.00     0.116 A 
ATOM     10  C   UNL d   1      -0.268  -0.834  -4.580  0.00  0.00     0.044 A 
ATOM     11  F   UNL d   1      -0.079  -3.009  -5.456  0.00  0.00    -0.206 F 
ATOM     12  C   UNL d   1      -0.111   0.051  -3.496  0.00  0.00     0.032 A 
ENDBRANCH   4   6
ENDBRANCH   2   4
ENDBRANCH   1   2
BRANCH   1  13
ATOM     13  C   UNL d   1       3.462   0.814  -1.244  0.00  0.00     0.082 C 
BRANCH  13  14
ATOM     14  C   UNL d   1       4.997   0.831  -1.267  0.00  0.00     0.010 C 
BRANCH  14  15
ATOM     15  C   UNL d   1       5.444   1.447  -2.602  0.00  0.00     0.001 C 
BRANCH  15  16
ATOM     16  C   UNL d   1       6.956   1.457  -2.729  0.00  0.00     0.000 C 
BRANCH  16  17
ATOM     17  C   UNL d   1       7.398   2.067  -4.055  0.00  0.00     0.000 C 
BRANCH  17  18
ATOM     18  C   UNL d   1       8.918   2.048  -4.121  0.00  0.00     0.000 C 
BRANCH  18  19
ATOM     19  C   UNL d   1       9.422   2.646  -5.422  0.00  0.00     0.000 C 
BRANCH  19  20
ATOM     20  C   UNL d   1      10.944   2.607  -5.449  0.00  0.00     0.000 C 
BRANCH  20  21
ATOM     21  C   UNL d   1      11.469   3.203  -6.745  0.00  0.00     0.000 C 
BRANCH  21  22
ATOM     22  C   UNL d   1      12.991   3.163  -6.772  0.00  0.00    -0.000 C 
BRANCH  22  23
ATOM     23  C   UNL d   1      13.525   3.764  -8.067  0.00  0.00    -0.005 C 
ATOM     24  C   UNL d   1      15.042   3.727  -8.096  0.00  0.00     0.005 C 
ENDBRANCH  22  23
ENDBRANCH  21  22
ENDBRANCH  20  21
ENDBRANCH  19  20
ENDBRANCH  18  19
ENDBRANCH  17  18
ENDBRANCH  16  17
ENDBRANCH  15  16
ENDBRANCH  14  15
ENDBRANCH  13  14
ENDBRANCH   1  13
TORSDOF 14
