REMARK  6 active torsions:
REMARK  status: ('A' for Active; 'I' for Inactive)
REMARK       I    between atoms: N_3  and  C_1 
REMARK       I    between atoms: N_4  and  C_1 
REMARK    1  A    between atoms: C_2  and  C_6 
REMARK    2  A    between atoms: C_10  and  N_3 
REMARK    3  A    between atoms: C_21  and  N_3 
REMARK    4  A    between atoms: C_12  and  N_4 
REMARK    5  A    between atoms: C_7  and  C_10 
REMARK    6  A    between atoms: C_20  and  C_21 
ROOT
ATOM      1  N   UNL d   1      -0.233   1.661   4.417  0.00  0.00    -0.197 NA
ATOM      2  C   UNL d   1       0.484   1.865   3.540  0.00  0.00     0.060 C 
ATOM      3  C   UNL d   1       1.381   2.137   2.411  0.00  0.00     0.144 C 
ENDROOT
BRANCH   3   4
ATOM      4  C   UNL d   1       0.609   2.285   1.083  0.00  0.00     0.142 C 
BRANCH   4   5
ATOM      5  N   UNL d   1       0.112   1.037   0.461  0.00  0.00    -0.328 N 
ATOM      6  C   UNL d   1       1.114   0.211  -0.043  0.00  0.00     0.323 C 
ATOM      7  N   UNL d   1       0.712  -0.891  -0.773  0.00  0.00    -0.309 N 
ATOM      8  O   UNL d   1       2.301   0.495   0.131  0.00  0.00    -0.247 OA
ATOM      9  H   UNL d   1      -0.071  -0.693  -1.387  0.00  0.00     0.170 HD
BRANCH   7  10
ATOM     10  C   UNL d   1       1.713  -1.768  -1.285  0.00  0.00     0.037 A 
ATOM     11  C   UNL d   1       2.726  -2.255  -0.447  0.00  0.00     0.045 A 
ATOM     12  C   UNL d   1       3.815  -2.980  -0.959  0.00  0.00     0.050 A 
ATOM     13  C   UNL d   1       3.878  -3.210  -2.340  0.00  0.00     0.016 A 
ATOM     14  C   UNL d   1       2.840  -2.783  -3.172  0.00  0.00     0.003 A 
ATOM     15  C   UNL d   1       1.743  -2.087  -2.643  0.00  0.00     0.029 A 
BRANCH  12  16
ATOM     16  C   UNL d   1       4.923  -3.452  -0.051  0.00  0.00     0.417 C 
ATOM     17  F   UNL d   1       4.578  -3.471   1.267  0.00  0.00    -0.166 F 
ATOM     18  F   UNL d   1       5.332  -4.720  -0.340  0.00  0.00    -0.166 F 
ATOM     19  F   UNL d   1       6.039  -2.676  -0.136  0.00  0.00    -0.166 F 
ENDBRANCH  12  16
ENDBRANCH   7  10
BRANCH   5  20
ATOM     20  C   UNL d   1      -1.220   0.552   0.856  0.00  0.00     0.173 C 
BRANCH  20  21
ATOM     21  C   UNL d   1      -2.384   0.867  -0.060  0.00  0.00     0.000 A 
ATOM     22  S   UNL d   1      -2.353   0.609  -1.754  0.00  0.00    -0.105 SA
ATOM     23  C   UNL d   1      -4.046   0.859  -1.904  0.00  0.00     0.050 A 
ATOM     24  C   UNL d   1      -4.627   1.185  -0.702  0.00  0.00     0.008 A 
ATOM     25  C   UNL d   1      -3.664   1.222   0.351  0.00  0.00     0.017 A 
ENDBRANCH  20  21
ENDBRANCH   5  20
ENDBRANCH   4   5
ENDBRANCH   3   4
TORSDOF 6
