REMARK  5 active torsions:
REMARK  status: ('A' for Active; 'I' for Inactive)
REMARK    1  A    between atoms: C_12  and  N_1 
REMARK    2  A    between atoms: S_7  and  C_2 
REMARK    3  A    between atoms: C_17  and  S_7 
REMARK    4  A    between atoms: C_8  and  N_13 
REMARK    5  A    between atoms: C_9  and  C_17 
REMARK       I    between atoms: N_13  and  C_9 
ROOT
ATOM      1  C   UNL d   1       2.526  -3.170   0.298  0.00  0.00     0.185 C 
ENDROOT
BRANCH   1   2
ATOM      2  C   UNL d   1       3.869  -3.865   0.106  0.00  0.00     0.227 C 
ATOM      3  N   UNL d   1       4.894  -2.996  -0.208  0.00  0.00    -0.355 N 
ATOM      4  H   UNL d   1       4.677  -2.013  -0.325  0.00  0.00     0.162 HD
ATOM      5  O   UNL d   1       4.053  -5.071   0.239  0.00  0.00    -0.273 OA
BRANCH   3   6
ATOM      6  C   UNL d   1       6.284  -3.377  -0.344  0.00  0.00     0.092 C 
ATOM      7  C   UNL d   1       6.633  -4.347  -1.495  0.00  0.00     0.064 C 
ATOM      8  C   UNL d   1       8.037  -4.698  -1.092  0.00  0.00    -0.050 A 
ATOM      9  C   UNL d   1       9.079  -5.134  -1.890  0.00  0.00     0.007 A 
ATOM     10  C   UNL d   1       8.215  -4.497   0.286  0.00  0.00    -0.050 A 
ATOM     11  C   UNL d   1      10.323  -5.347  -1.290  0.00  0.00     0.001 A 
ATOM     12  C   UNL d   1      10.499  -5.151   0.091  0.00  0.00     0.001 A 
ATOM     13  C   UNL d   1       9.435  -4.735   0.894  0.00  0.00     0.007 A 
ATOM     14  C   UNL d   1       6.949  -3.987   0.910  0.00  0.00     0.064 C 
ENDBRANCH   3   6
ENDBRANCH   1   2
BRANCH   1  15
ATOM     15  S   UNL d   1       1.124  -4.174  -0.243  0.00  0.00    -0.082 SA
BRANCH  15  16
ATOM     16  C   UNL d   1       1.255  -5.523   0.838  0.00  0.00     0.177 A 
ATOM     17  N   UNL d   1       1.285  -6.858   0.464  0.00  0.00    -0.219 N 
ATOM     18  N   UNL d   1       1.050  -7.589   1.589  0.00  0.00     0.001 NA
ATOM     19  N   UNL d   1       1.025  -6.724   2.594  0.00  0.00    -0.006 NA
ATOM     20  N   UNL d   1       1.138  -5.436   2.144  0.00  0.00    -0.264 N 
ATOM     21  HN  UNL d   1       1.132  -4.585   2.707  1.00  0.00     0.186 HD
BRANCH  17  22
ATOM     22  C   UNL d   1       1.444  -7.482  -0.802  0.00  0.00     0.056 A 
ATOM     23  C   UNL d   1       2.115  -6.846  -1.855  0.00  0.00     0.031 A 
ATOM     24  C   UNL d   1       2.191  -7.445  -3.113  0.00  0.00     0.002 A 
ATOM     25  C   UNL d   1       1.607  -8.690  -3.326  0.00  0.00     0.000 A 
ATOM     26  C   UNL d   1       0.982  -9.354  -2.272  0.00  0.00     0.002 A 
ATOM     27  C   UNL d   1       0.913  -8.763  -1.008  0.00  0.00     0.031 A 
ENDBRANCH  17  22
ENDBRANCH  15  16
ENDBRANCH   1  15
TORSDOF 5
