REMARK  4 active torsions:
REMARK  status: ('A' for Active; 'I' for Inactive)
REMARK    1  A    between atoms: C_4  and  C_1 
REMARK    2  A    between atoms: C_3  and  C_7 
REMARK    3  A    between atoms: O_9  and  C_3 
REMARK    4  A    between atoms: N_5  and  O_9 
ROOT
ATOM      1  O   UNL d   1      -2.856   3.890  -3.053  0.00  0.00    -0.195 OA
ENDROOT
BRANCH   1   2
ATOM      2  N   UNL d   1      -2.098   5.044  -2.759  0.00  0.00    -0.266 N 
ATOM      3  C   UNL d   1      -2.618   6.150  -3.187  0.00  0.00     0.011 C 
ATOM      4  C   UNL d   1      -1.855   7.436  -2.924  0.00  0.00     0.060 C 
ATOM      5  C   UNL d   1      -3.914   6.296  -3.952  0.00  0.00     0.060 C 
ATOM      6  C   UNL d   1      -2.767   8.441  -2.229  0.00  0.00     0.074 C 
ATOM      7  C   UNL d   1      -4.079   8.650  -2.994  0.00  0.00     0.164 C 
ATOM      8  C   UNL d   1      -4.797   7.311  -3.228  0.00  0.00     0.074 C 
ATOM      9  O   UNL d   1      -3.794   9.271  -4.257  0.00  0.00    -0.353 OA
ATOM     10  O   UNL d   1      -4.950   9.499  -2.231  0.00  0.00    -0.353 OA
ATOM     11  C   UNL d   1      -4.799  10.275  -4.400  0.00  0.00     0.197 C 
ATOM     12  C   UNL d   1      -5.058  10.708  -2.983  0.00  0.00     0.197 C 
ATOM     13  HN  UNL d   1      -1.214   5.009  -2.252  1.00  0.00     0.194 HD
ENDBRANCH   1   2
BRANCH   1  14
ATOM     14  C   UNL d   1      -2.193   2.795  -2.559  0.00  0.00     0.315 C 
ATOM     15  O   UNL d   1      -1.119   2.793  -1.965  0.00  0.00    -0.257 OA
BRANCH  14  16
ATOM     16  C   UNL d   1      -2.929   1.521  -2.814  0.00  0.00     0.042 A 
ATOM     17  C   UNL d   1      -4.157   1.448  -3.488  0.00  0.00     0.034 A 
ATOM     18  C   UNL d   1      -4.791   0.203  -3.685  0.00  0.00     0.048 A 
ATOM     19  C   UNL d   1      -4.176  -0.966  -3.202  0.00  0.00     0.016 A 
ATOM     20  C   UNL d   1      -2.957  -0.900  -2.534  0.00  0.00     0.002 A 
ATOM     21  C   UNL d   1      -2.339   0.335  -2.343  0.00  0.00     0.018 A 
BRANCH  18  22
ATOM     22  C   UNL d   1      -6.115   0.092  -4.402  0.00  0.00     0.417 C 
ATOM     23  F   UNL d   1      -6.623   1.293  -4.794  0.00  0.00    -0.166 F 
ATOM     24  F   UNL d   1      -7.077  -0.488  -3.631  0.00  0.00    -0.166 F 
ATOM     25  F   UNL d   1      -6.033  -0.667  -5.530  0.00  0.00    -0.166 F 
ENDBRANCH  18  22
ENDBRANCH  14  16
ENDBRANCH   1  14
TORSDOF 4
