REMARK  2 active torsions:
REMARK  status: ('A' for Active; 'I' for Inactive)
REMARK    1  A    between atoms: N_4  and  C_1 
REMARK       I    between atoms: C_2  and  N_3 
REMARK    2  A    between atoms: C_17  and  C_2 
ROOT
ATOM      1  C   UNL d   1       0.175  -1.229   0.076  0.00  0.00     0.120 A 
ATOM      2  C   UNL d   1       1.530  -0.986   0.391  0.00  0.00     0.152 A 
ATOM      3  C   UNL d   1       2.518  -2.030   0.320  0.00  0.00     0.121 C 
ATOM      4  N   UNL d   1       3.290  -2.896   0.284  0.00  0.00    -0.190 NA
ATOM      5  N   UNL d   1      -0.701  -0.193   0.070  0.00  0.00    -0.353 N 
ATOM      6  HN  UNL d   1      -1.683  -0.327  -0.170  1.00  0.00     0.166 HD
ATOM      7  N   UNL d   1       2.019   0.241   0.732  0.00  0.00    -0.353 N 
ATOM      8  HN  UNL d   1       2.999   0.392   0.974  1.00  0.00     0.166 HD
ATOM      9  C   UNL d   1      -0.211   1.028   0.399  0.00  0.00     0.106 A 
ATOM     10  C   UNL d   1       1.114   1.238   0.727  0.00  0.00     0.106 A 
ENDROOT
BRANCH   1  11
ATOM     11  N   UNL d   1      -0.282  -2.501  -0.279  0.00  0.00    -0.264 NA
ATOM     12  C   UNL d   1      -1.526  -2.564  -1.072  0.00  0.00     0.117 C 
ATOM     13  C   UNL d   1      -1.610  -3.964  -1.717  0.00  0.00     0.141 C 
ATOM     14  N   UNL d   1      -1.487  -5.053  -0.727  0.00  0.00    -0.346 N 
ATOM     15  C   UNL d   1      -2.309  -6.170  -0.873  0.00  0.00     0.253 C 
ATOM     16  C   UNL d   1      -0.385  -4.894   0.238  0.00  0.00     0.141 C 
ATOM     17  O   UNL d   1      -3.260  -6.181  -1.655  0.00  0.00    -0.267 OA
ATOM     18  C   UNL d   1      -0.315  -3.475   0.829  0.00  0.00     0.117 C 
BRANCH  15  19
ATOM     19  C   UNL d   1      -2.095  -7.397  -0.053  0.00  0.00     0.032 A 
ATOM     20  C   UNL d   1      -3.229  -8.088   0.399  0.00  0.00     0.017 A 
ATOM     21  C   UNL d   1      -3.092  -9.242   1.173  0.00  0.00     0.001 A 
ATOM     22  C   UNL d   1      -1.822  -9.709   1.507  0.00  0.00     0.000 A 
ATOM     23  C   UNL d   1      -0.690  -9.051   1.030  0.00  0.00     0.001 A 
ATOM     24  C   UNL d   1      -0.827  -7.920   0.221  0.00  0.00     0.017 A 
ENDBRANCH  15  19
ENDBRANCH   1  11
TORSDOF 2
