REMARK  4 active torsions:
REMARK  status: ('A' for Active; 'I' for Inactive)
REMARK    1  A    between atoms: C_11  and  C_3 
REMARK    2  A    between atoms: C_13  and  C_10 
REMARK    3  A    between atoms: O_12  and  C_11 
REMARK    4  A    between atoms: C_17  and  O_12 
ROOT
ATOM      1  C   UNL d   1       0.480   0.591   0.205  0.00  0.00     0.172 A 
ATOM      2  N   UNL d   1       0.077  -0.646  -0.198  0.00  0.00    -0.235 N 
ATOM      3  C   UNL d   1      -1.956   0.324  -0.037  0.00  0.00     0.108 A 
ATOM      4  N   UNL d   1       1.775   0.675   0.313  0.00  0.00    -0.319 N 
ATOM      5  HN  UNL d   1       2.349   1.469   0.597  1.00  0.00     0.169 HD
ATOM      6  N   UNL d   1       1.145  -1.431  -0.375  0.00  0.00    -0.276 N 
ATOM      7  HN  UNL d   1       1.180  -2.407  -0.672  1.00  0.00     0.189 HD
ATOM      8  C   UNL d   1      -1.292  -0.817  -0.341  0.00  0.00     0.056 A 
ATOM      9  S   UNL d   1      -0.862   1.651   0.442  0.00  0.00    -0.044 SA
ATOM     10  C   UNL d   1       2.166  -0.602  -0.061  0.00  0.00     0.132 A 
ATOM     11  C   UNL d   1      -1.799  -2.145  -0.789  0.00  0.00     0.072 C 
ENDROOT
BRANCH   3  12
ATOM     12  C   UNL d   1      -3.429   0.526  -0.075  0.00  0.00     0.307 C 
ATOM     13  O   UNL d   1      -4.222  -0.300  -0.501  0.00  0.00    -0.258 OA
BRANCH  12  14
ATOM     14  O   UNL d   1      -3.754   1.771   0.455  0.00  0.00    -0.275 OA
BRANCH  14  15
ATOM     15  C   UNL d   1      -5.036   2.369   0.433  0.00  0.00     0.079 A 
ATOM     16  C   UNL d   1      -5.206   3.425   1.331  0.00  0.00     0.039 A 
ATOM     17  C   UNL d   1      -6.385   4.171   1.311  0.00  0.00     0.026 A 
ATOM     18  C   UNL d   1      -7.385   3.855   0.391  0.00  0.00     0.034 A 
ATOM     19  C   UNL d   1      -7.221   2.787  -0.493  0.00  0.00     0.026 A 
ATOM     20 CL   UNL d   1      -8.818   4.805   0.330  0.00  0.00    -0.084 Cl
ATOM     21  C   UNL d   1      -6.038   2.039  -0.477  0.00  0.00     0.039 A 
ENDBRANCH  14  15
ENDBRANCH  12  14
ENDBRANCH   3  12
BRANCH  10  22
ATOM     22  C   UNL d   1       3.561  -1.035  -0.117  0.00  0.00     0.009 A 
ATOM     23  C   UNL d   1       4.600  -0.205   0.327  0.00  0.00     0.017 A 
ATOM     24  C   UNL d   1       5.929  -0.647   0.275  0.00  0.00     0.025 A 
ATOM     25  C   UNL d   1       6.224  -1.915  -0.225  0.00  0.00     0.034 A 
ATOM     26  C   UNL d   1       5.205  -2.748  -0.674  0.00  0.00     0.025 A 
ATOM     27 CL   UNL d   1       7.856  -2.457  -0.287  0.00  0.00    -0.084 Cl
ATOM     28  C   UNL d   1       3.882  -2.308  -0.619  0.00  0.00     0.017 A 
ENDBRANCH  10  22
TORSDOF 4
