REMARK  3 active torsions:
REMARK  status: ('A' for Active; 'I' for Inactive)
REMARK    1  A    between atoms: C_3  and  C_1 
REMARK    2  A    between atoms: C_4  and  C_2 
REMARK       I    between atoms: N_7  and  C_3 
REMARK    3  A    between atoms: O_8  and  C_4 
ROOT
ATOM      1  C   UNL d   1      -1.382   0.241  -0.236  0.00  0.00     0.092 C 
ATOM      2  C   UNL d   1      -0.397   1.340   0.228  0.00  0.00     0.096 C 
ATOM      3  C   UNL d   1       1.060   1.021  -0.134  0.00  0.00     0.016 C 
ATOM      4  C   UNL d   1      -0.911  -1.170   0.156  0.00  0.00     0.015 C 
ATOM      5  C   UNL d   1       0.527  -1.448  -0.265  0.00  0.00     0.001 C 
ATOM      6  C   UNL d   1       1.484  -0.389   0.267  0.00  0.00     0.001 C 
ENDROOT
BRANCH   1   7
ATOM      7  C   UNL d   1      -1.634   0.368  -1.741  0.00  0.00     0.220 C 
ATOM      8  O   UNL d   1      -1.153   1.249  -2.444  0.00  0.00    -0.273 OA
ATOM      9  N   UNL d   1      -2.483  -0.546  -2.287  0.00  0.00    -0.370 N 
ATOM     10  H   UNL d   1      -2.962  -1.257  -1.755  0.00  0.00     0.159 HD
ATOM     11  H   UNL d   1      -2.672  -0.474  -3.278  0.00  0.00     0.159 HD
ENDBRANCH   1   7
BRANCH   2  12
ATOM     12  C   UNL d   1      -0.537   1.620   1.717  0.00  0.00     0.144 C 
ATOM     13  O   UNL d   1      -1.018   0.854   2.536  0.00  0.00    -0.650 OA
BRANCH  12  14
ATOM     14  O   UNL d   1      -0.061   2.837   2.072  0.00  0.00    -0.776 OA
ATOM     15  H   UNL d   1       0.287   3.363   1.326  0.00  0.00     0.167 HD
ENDBRANCH  12  14
ENDBRANCH   2  12
TORSDOF 3
