REMARK  7 active torsions:
REMARK  status: ('A' for Active; 'I' for Inactive)
REMARK       I    between atoms: N_7  and  C_1 
REMARK    1  A    between atoms: C_15  and  C_1 
REMARK    2  A    between atoms: N_2  and  N_7 
REMARK    3  A    between atoms: C_4  and  C_16 
REMARK       I    between atoms: N_6  and  C_4 
REMARK    4  A    between atoms: C_5  and  C_10 
REMARK    5  A    between atoms: C_14  and  N_6 
REMARK    6  A    between atoms: S_12  and  C_15 
REMARK    7  A    between atoms: C_16  and  S_12 
ROOT
ATOM      1  C   UNL d   1       0.817   0.148  -0.690  0.00  0.00     0.245 C 
ATOM      2  N   UNL d   1       0.186  -0.137  -1.899  0.00  0.00    -0.270 N 
ATOM      3  O   UNL d   1       0.244   0.404   0.366  0.00  0.00    -0.271 OA
ATOM      4  H   UNL d   1       0.747  -0.280  -2.733  0.00  0.00     0.190 HD
ENDROOT
BRANCH   1   5
ATOM      5  C   UNL d   1       2.344   0.102  -0.779  0.00  0.00     0.178 C 
BRANCH   5   6
ATOM      6  S   UNL d   1       3.095   1.783  -0.807  0.00  0.00    -0.150 SA
BRANCH   6   7
ATOM      7  C   UNL d   1       2.894   2.196   0.951  0.00  0.00     0.177 C 
BRANCH   7   8
ATOM      8  C   UNL d   1       3.585   3.460   1.460  0.00  0.00     0.231 C 
ATOM      9  N   UNL d   1       4.092   4.346   0.527  0.00  0.00    -0.327 N 
ATOM     10  H   UNL d   1       4.102   4.027  -0.438  0.00  0.00     0.169 HD
ATOM     11  O   UNL d   1       3.638   3.626   2.678  0.00  0.00    -0.272 OA
BRANCH   9  12
ATOM     12  C   UNL d   1       4.705   5.602   0.801  0.00  0.00     0.034 A 
ATOM     13  C   UNL d   1       4.686   6.218   2.058  0.00  0.00     0.029 A 
ATOM     14  C   UNL d   1       5.327   7.444   2.279  0.00  0.00     0.002 A 
ATOM     15  C   UNL d   1       5.998   8.079   1.241  0.00  0.00     0.000 A 
ATOM     16  C   UNL d   1       6.009   7.494  -0.024  0.00  0.00     0.002 A 
ATOM     17  C   UNL d   1       5.359   6.268  -0.243  0.00  0.00     0.029 A 
ENDBRANCH   9  12
ENDBRANCH   7   8
ENDBRANCH   6   7
ENDBRANCH   5   6
ENDBRANCH   1   5
BRANCH   2  18
ATOM     18  N   UNL d   1      -1.188  -0.054  -2.039  0.00  0.00    -0.308 N 
ATOM     19  C   UNL d   1      -1.600  -0.258  -3.254  0.00  0.00     0.120 C 
ATOM     20  HN  UNL d   1      -1.817   0.148  -1.263  1.00  0.00     0.186 HD
BRANCH  19  21
ATOM     21  C   UNL d   1      -3.009  -0.130  -3.709  0.00  0.00     0.002 A 
ATOM     22  C   UNL d   1      -3.313  -0.154  -5.083  0.00  0.00     0.045 A 
ATOM     23 CL   UNL d   1      -2.132  -0.476  -6.308  0.00  0.00    -0.083 Cl
ATOM     24  C   UNL d   1      -4.620   0.091  -5.527  0.00  0.00     0.024 A 
ATOM     25  C   UNL d   1      -5.642   0.325  -4.608  0.00  0.00     0.002 A 
ATOM     26  C   UNL d   1      -5.359   0.291  -3.242  0.00  0.00     0.001 A 
ATOM     27  C   UNL d   1      -4.048   0.071  -2.790  0.00  0.00     0.014 A 
ENDBRANCH  19  21
ENDBRANCH   2  18
TORSDOF 7
