REMARK  5 active torsions:
REMARK  status: ('A' for Active; 'I' for Inactive)
REMARK    1  A    between atoms: C_5  and  C_1 
REMARK    2  A    between atoms: C_6  and  C_1 
REMARK    3  A    between atoms: O_18  and  C_5 
REMARK    4  A    between atoms: N_7  and  C_6 
REMARK    5  A    between atoms: C_19  and  O_18 
ROOT
ATOM      1  C   UNL d   1       0.939  -0.025   0.075  0.00  0.00     0.104 C 
ATOM      2  C   UNL d   1       0.252  -0.633  -0.926  0.00  0.00    -0.046 C 
ATOM      3  C   UNL d   1      -1.276  -0.720  -1.054  0.00  0.00     0.017 C 
ATOM      4  C   UNL d   1       0.926  -1.341  -2.113  0.00  0.00     0.017 C 
ATOM      5  C   UNL d   1      -1.043  -2.914  -2.286  0.00  0.00    -0.013 C 
ATOM      6  C   UNL d   1      -1.047  -0.741  -3.573  0.00  0.00    -0.013 C 
ATOM      7  C   UNL d   1       0.485  -2.817  -2.140  0.00  0.00     0.013 C 
ATOM      8  C   UNL d   1      -1.700  -0.036  -2.369  0.00  0.00     0.013 C 
ATOM      9  C   UNL d   1      -1.694  -2.203  -1.089  0.00  0.00     0.013 C 
ATOM     10  C   UNL d   1       0.481  -0.659  -3.421  0.00  0.00     0.013 C 
ATOM     11  C   UNL d   1      -1.483  -2.218  -3.586  0.00  0.00     0.009 C 
ENDROOT
BRANCH   1  12
ATOM     12  C   UNL d   1       0.296   0.705   1.225  0.00  0.00     0.303 C 
ATOM     13  O   UNL d   1      -0.851   1.118   1.239  0.00  0.00    -0.259 OA
BRANCH  12  14
ATOM     14  O   UNL d   1       1.172   0.851   2.259  0.00  0.00    -0.317 OA
BRANCH  14  15
ATOM     15  C   UNL d   1       0.668   1.500   3.446  0.00  0.00     0.174 C 
ATOM     16  C   UNL d   1       0.731   3.013   3.318  0.00  0.00     0.034 C 
ENDBRANCH  14  15
ENDBRANCH  12  14
ENDBRANCH   1  12
BRANCH   1  17
ATOM     17  C   UNL d   1       2.459  -0.025   0.075  0.00  0.00    -0.030 C 
BRANCH  17  18
ATOM     18  N   UNL d   1       3.720  -0.025   0.075  0.00  0.00    -0.365 N 
ATOM     19  HN2 UNL d   1       2.700  -0.025   0.075  1.00  0.00     0.165 HD
ATOM     20  HN1 UNL d   1       4.740  -0.025   0.075  1.00  0.00     0.165 HD
ENDBRANCH  17  18
ENDBRANCH   1  17
TORSDOF 5
