REMARK  6 active torsions:
REMARK  status: ('A' for Active; 'I' for Inactive)
REMARK    1  A    between atoms: C_5  and  N_1 
REMARK    2  A    between atoms: N_2  and  C_4 
REMARK       I    between atoms: C_3  and  N_15 
REMARK       I    between atoms: N_14  and  C_3 
REMARK    3  A    between atoms: N_15  and  N_6 
REMARK    4  A    between atoms: N_8  and  N_14 
REMARK    5  A    between atoms: C_21  and  C_19 
REMARK    6  A    between atoms: C_20  and  C_22 
ROOT
ATOM      1  C   UNL d   1       2.745   6.125  -2.895  0.00  0.00     0.353 C 
ATOM      2  N   UNL d   1       3.448   4.931  -3.048  0.00  0.00    -0.251 N 
ATOM      3  N   UNL d   1       1.712   6.003  -1.958  0.00  0.00    -0.251 N 
ATOM      4  O   UNL d   1       3.032   7.163  -3.489  0.00  0.00    -0.244 OA
ATOM      5  H   UNL d   1       3.207   4.106  -2.516  0.00  0.00     0.191 HD
ATOM      6  H   UNL d   1       1.293   5.086  -1.872  0.00  0.00     0.191 HD
ENDROOT
BRANCH   3   7
ATOM      7  N   UNL d   1       0.837   7.021  -1.641  0.00  0.00    -0.307 N 
ATOM      8  C   UNL d   1       1.327   8.220  -1.581  0.00  0.00     0.118 C 
ATOM      9  HN  UNL d   1      -0.151   6.839  -1.461  1.00  0.00     0.186 HD
BRANCH   8  10
ATOM     10  C   UNL d   1       0.488   9.407  -1.317  0.00  0.00    -0.017 A 
ATOM     11  C   UNL d   1      -0.882   9.287  -1.074  0.00  0.00     0.048 A 
ATOM     12  C   UNL d   1      -1.624  10.444  -0.804  0.00  0.00     0.103 A 
ATOM     13  C   UNL d   1      -1.014  11.708  -0.808  0.00  0.00     0.036 A 
ATOM     14  C   UNL d   1       0.355  11.812  -1.058  0.00  0.00     0.003 A 
ATOM     15  C   UNL d   1       1.107  10.663  -1.305  0.00  0.00     0.013 A 
BRANCH  12  16
ATOM     16  N   UNL d   1      -3.051  10.332  -0.479  0.00  0.00    -0.116 N 
ATOM     17  O   UNL d   1      -3.541   9.196  -0.408  0.00  0.00    -0.532 OA
ATOM     18  O   UNL d   1      -3.680  11.381  -0.278  0.00  0.00    -0.532 OA
ENDBRANCH  12  16
ENDBRANCH   8  10
ENDBRANCH   3   7
BRANCH   2  19
ATOM     19  N   UNL d   1       4.568   4.944  -3.820  0.00  0.00    -0.307 N 
ATOM     20  C   UNL d   1       5.232   3.844  -3.943  0.00  0.00     0.118 C 
ATOM     21  HN  UNL d   1       4.875   5.798  -4.286  1.00  0.00     0.186 HD
BRANCH  20  22
ATOM     22  C   UNL d   1       6.479   3.826  -4.740  0.00  0.00    -0.017 A 
ATOM     23  C   UNL d   1       7.173   2.628  -4.910  0.00  0.00     0.048 A 
ATOM     24  C   UNL d   1       8.368   2.637  -5.648  0.00  0.00     0.103 A 
ATOM     25  C   UNL d   1       8.859   3.822  -6.214  0.00  0.00     0.036 A 
ATOM     26  C   UNL d   1       8.152   5.012  -6.040  0.00  0.00     0.003 A 
ATOM     27  C   UNL d   1       6.965   5.013  -5.306  0.00  0.00     0.013 A 
BRANCH  24  28
ATOM     28  N   UNL d   1       9.120   1.388  -5.822  0.00  0.00    -0.116 N 
ATOM     29  O   UNL d   1       8.691   0.377  -5.250  0.00  0.00    -0.532 OA
ATOM     30  O   UNL d   1      10.140   1.420  -6.527  0.00  0.00    -0.532 OA
ENDBRANCH  24  28
ENDBRANCH  20  22
ENDBRANCH   2  19
TORSDOF 6
