REMARK  2 active torsions:
REMARK  status: ('A' for Active; 'I' for Inactive)
REMARK    1  A    between atoms: C_2  and  C_1 
REMARK       I    between atoms: N_3  and  C_1 
REMARK    2  A    between atoms: S_7  and  C_4 
ROOT
ATOM      1  C   UNL d   1       0.151   0.921  -0.812  0.00  0.00     0.049 A 
ATOM      2  C   UNL d   1       0.848   1.191  -2.007  0.00  0.00     0.015 A 
ATOM      3  C   UNL d   1      -1.215   1.252  -0.724  0.00  0.00     0.018 A 
ATOM      4  C   UNL d   1       0.116   1.680  -3.109  0.00  0.00     0.019 A 
ATOM      5  C   UNL d   1      -1.922   1.723  -1.830  0.00  0.00     0.001 A 
ATOM      6  C   UNL d   1      -1.256   1.922  -3.030  0.00  0.00     0.001 A 
ENDROOT
BRANCH   1   7
ATOM      7  C   UNL d   1       0.812   0.445   0.426  0.00  0.00     0.255 C 
ATOM      8  N   UNL d   1       0.359  -0.713   1.085  0.00  0.00    -0.346 N 
ATOM      9  C   UNL d   1       1.002  -1.076   2.348  0.00  0.00     0.136 C 
ATOM     10  C   UNL d   1      -0.870  -1.474   0.800  0.00  0.00     0.136 C 
ATOM     11  C   UNL d   1       0.147  -0.674   3.549  0.00  0.00     0.093 C 
ATOM     12  S   UNL d   1      -1.455  -1.563   3.547  0.00  0.00    -0.166 SA
ATOM     13  C   UNL d   1      -1.972  -1.188   1.833  0.00  0.00     0.093 C 
ATOM     14  O   UNL d   1       1.752   1.110   0.862  0.00  0.00    -0.267 OA
ENDBRANCH   1   7
BRANCH   2  15
ATOM     15  S   UNL d   1       2.622   1.141  -2.293  0.00  0.00    -0.133 SA
ATOM     16  C   UNL d   1       3.081  -0.512  -1.730  0.00  0.00     0.095 C 
ENDBRANCH   2  15
TORSDOF 2
