REMARK  3 active torsions:
REMARK  status: ('A' for Active; 'I' for Inactive)
REMARK    1  A    between atoms: C_2  and  C_1 
REMARK    2  A    between atoms: C_13  and  N_3 
REMARK    3  A    between atoms: C_15  and  C_8 
ROOT
ATOM      1  C   UNL d   1      -0.568  -2.791   0.046  0.00  0.00     0.038 A 
ATOM      2  C   UNL d   1      -1.111  -3.430  -1.099  0.00  0.00     0.002 A 
ATOM      3  C   UNL d   1      -0.311  -3.585   1.161  0.00  0.00     0.104 A 
ATOM      4  N   UNL d   1      -0.447  -4.922   1.213  0.00  0.00    -0.364 N 
ATOM      5  HN  UNL d   1      -0.213  -5.443   2.058  1.00  0.00     0.165 HD
ATOM      6  C   UNL d   1      -1.245  -4.869  -1.070  0.00  0.00     0.003 A 
ATOM      7  C   UNL d   1      -0.898  -5.546   0.124  0.00  0.00     0.043 A 
ATOM      8  C   UNL d   1      -1.695  -5.676  -2.152  0.00  0.00     0.014 A 
ATOM      9  C   UNL d   1      -1.029  -6.924   0.211  0.00  0.00     0.030 A 
ATOM     10  C   UNL d   1      -1.840  -7.061  -2.038  0.00  0.00     0.001 A 
ATOM     11  C   UNL d   1      -1.507  -7.688  -0.850  0.00  0.00     0.002 A 
ENDROOT
BRANCH   1  12
ATOM     12  C   UNL d   1      -0.310  -1.351   0.161  0.00  0.00     0.151 A 
ATOM     13  N   UNL d   1       0.825  -0.734   0.697  0.00  0.00    -0.224 N 
ATOM     14  N   UNL d   1       0.546   0.584   0.855  0.00  0.00     0.001 NA
ATOM     15  N   UNL d   1      -0.647   0.777   0.319  0.00  0.00    -0.007 NA
ATOM     16  N   UNL d   1      -1.191  -0.401  -0.100  0.00  0.00    -0.269 N 
ATOM     17  HN  UNL d   1      -2.106  -0.525  -0.533  1.00  0.00     0.185 HD
BRANCH  13  18
ATOM     18  C   UNL d   1       2.086  -1.252   1.100  0.00  0.00     0.056 A 
ATOM     19  C   UNL d   1       2.605  -2.445   0.573  0.00  0.00     0.033 A 
ATOM     20  C   UNL d   1       3.808  -2.963   1.061  0.00  0.00     0.026 A 
ATOM     21  C   UNL d   1       4.505  -2.292   2.065  0.00  0.00     0.034 A 
ATOM     22  C   UNL d   1       4.023  -1.086   2.565  0.00  0.00     0.026 A 
ATOM     23 CL   UNL d   1       5.963  -2.957   2.690  0.00  0.00    -0.084 Cl
ATOM     24  C   UNL d   1       2.825  -0.558   2.076  0.00  0.00     0.033 A 
ENDBRANCH  13  18
ENDBRANCH   1  12
BRANCH   2  25
ATOM     25  C   UNL d   1      -1.581  -2.647  -2.285  0.00  0.00    -0.024 A 
ATOM     26  C   UNL d   1      -0.760  -1.719  -2.951  0.00  0.00     0.012 A 
ATOM     27  C   UNL d   1      -1.240  -0.969  -4.033  0.00  0.00     0.001 A 
ATOM     28  C   UNL d   1      -2.534  -1.163  -4.506  0.00  0.00     0.000 A 
ATOM     29  C   UNL d   1      -3.360  -2.088  -3.881  0.00  0.00     0.001 A 
ATOM     30  C   UNL d   1      -2.897  -2.799  -2.767  0.00  0.00     0.012 A 
ENDBRANCH   2  25
TORSDOF 3
