REMARK  10 active torsions:
REMARK  status: ('A' for Active; 'I' for Inactive)
REMARK    1  A    between atoms: N_2  and  C_1 
REMARK    2  A    between atoms: N_4  and  C_1 
REMARK       I    between atoms: C_8  and  N_2 
REMARK    3  A    between atoms: C_3  and  N_4 
REMARK    4  A    between atoms: C_12  and  C_8 
REMARK    5  A    between atoms: C_20  and  C_18 
REMARK    6  A    between atoms: C_21  and  C_20 
REMARK    7  A    between atoms: C_25  and  C_21 
REMARK    8  A    between atoms: C_22  and  C_23 
REMARK    9  A    between atoms: C_23  and  C_24 
REMARK   10  A    between atoms: C_24  and  C_25 
ROOT
ATOM      1  N   UNL d   1       0.465   2.593   1.336  0.00  0.00    -0.299 N 
ATOM      2  C   UNL d   1       0.930   2.647   0.025  0.00  0.00     0.257 C 
ATOM      3  O   UNL d   1       0.265   2.484  -0.991  0.00  0.00    -0.267 OA
ATOM      4  H   UNL d   1       1.186   2.529   2.047  0.00  0.00     0.171 HD
ENDROOT
BRANCH   2   5
ATOM      5  C   UNL d   1       2.406   2.784  -0.092  0.00  0.00     0.032 A 
ATOM      6  C   UNL d   1       3.077   2.005  -1.040  0.00  0.00     0.017 A 
ATOM      7  C   UNL d   1       4.471   2.036  -1.110  0.00  0.00     0.008 A 
ATOM      8  C   UNL d   1       5.207   2.856  -0.243  0.00  0.00    -0.058 A 
ATOM      9  C   UNL d   1       4.521   3.686   0.656  0.00  0.00     0.008 A 
ATOM     10  C   UNL d   1       3.128   3.646   0.740  0.00  0.00     0.017 A 
BRANCH   8  11
ATOM     11  C   UNL d   1       6.717   2.808  -0.249  0.00  0.00     0.038 C 
BRANCH  11  12
ATOM     12  C   UNL d   1       7.317   2.385   1.099  0.00  0.00     0.005 C 
BRANCH  12  13
ATOM     13  C   UNL d   1       6.873   0.986   1.539  0.00  0.00     0.000 C 
BRANCH  13  14
ATOM     14  C   UNL d   1       7.471   0.617   2.897  0.00  0.00     0.000 C 
BRANCH  14  15
ATOM     15  C   UNL d   1       7.006  -0.770   3.341  0.00  0.00    -0.000 C 
BRANCH  15  16
ATOM     16  C   UNL d   1       7.593  -1.144   4.700  0.00  0.00    -0.005 C 
ATOM     17  C   UNL d   1       7.134  -2.525   5.136  0.00  0.00     0.005 C 
ENDBRANCH  15  16
ENDBRANCH  14  15
ENDBRANCH  13  14
ENDBRANCH  12  13
ENDBRANCH  11  12
ENDBRANCH   8  11
ENDBRANCH   2   5
BRANCH   1  18
ATOM     18  C   UNL d   1      -0.820   2.511   1.841  0.00  0.00     0.180 C 
ATOM     19  S   UNL d   1      -2.246   2.754   1.003  0.00  0.00    -0.040 SA
BRANCH  18  20
ATOM     20  N   UNL d   1      -0.932   2.182   3.173  0.00  0.00    -0.318 N 
ATOM     21  H   UNL d   1      -1.881   2.073   3.508  0.00  0.00     0.170 HD
BRANCH  20  22
ATOM     22  C   UNL d   1       0.086   1.941   4.077  0.00  0.00     0.130 A 
ATOM     23  N   UNL d   1       1.389   2.073   3.800  0.00  0.00    -0.245 N 
ATOM     24  O   UNL d   1       2.066   1.750   4.956  0.00  0.00    -0.241 OA
ATOM     25  HN  UNL d   1       1.799   2.356   2.910  1.00  0.00     0.196 HD
ATOM     26  C   UNL d   1       1.172   1.429   5.926  0.00  0.00     0.076 A 
ATOM     27  C   UNL d   1      -0.101   1.532   5.418  0.00  0.00     0.084 A 
ATOM     28  C   UNL d   1       1.742   1.069   7.235  0.00  0.00     0.079 C 
ENDBRANCH  20  22
ENDBRANCH  18  20
ENDBRANCH   1  18
TORSDOF 10
