REMARK  4 active torsions:
REMARK  status: ('A' for Active; 'I' for Inactive)
REMARK    1  A    between atoms: C_4  and  C_1 
REMARK    2  A    between atoms: C_15  and  N_2 
REMARK    3  A    between atoms: C_14  and  C_3 
REMARK    4  A    between atoms: O_17  and  C_14 
ROOT
ATOM      1  C   UNL d   1      -0.329  -1.215   0.065  0.00  0.00     0.096 C 
ATOM      2  N   UNL d   1       0.953  -0.650   0.082  0.00  0.00    -0.254 N 
ATOM      3  C   UNL d   1      -1.213  -0.135   0.048  0.00  0.00     0.091 C 
ATOM      4  N   UNL d   1       0.895   0.691   0.267  0.00  0.00    -0.297 N 
ATOM      5  HN  UNL d   1       1.670   1.319   0.480  1.00  0.00     0.187 HD
ATOM      6  C   UNL d   1      -0.388   1.016   0.114  0.00  0.00     0.042 C 
ATOM      7  C   UNL d   1      -0.768   2.454   0.109  0.00  0.00     0.071 C 
ENDROOT
BRANCH   1   8
ATOM      8  C   UNL d   1      -0.611  -2.629   0.118  0.00  0.00     0.076 A 
ATOM      9  C   UNL d   1      -1.497  -3.427  -0.603  0.00  0.00     0.043 A 
ATOM     10  N   UNL d   1      -1.486  -4.773  -0.244  0.00  0.00    -0.298 N 
ATOM     11  C   UNL d   1      -2.453  -3.047  -1.676  0.00  0.00     0.071 C 
ATOM     12  N   UNL d   1      -0.655  -5.022   0.749  0.00  0.00    -0.269 N 
ATOM     13  HN  UNL d   1      -2.057  -5.486  -0.698  1.00  0.00     0.187 HD
ATOM     14  S   UNL d   1       0.112  -3.657   1.310  0.00  0.00     0.006 SA
ATOM     15  HN  UNL d   1      -0.500  -5.954   1.133  1.00  0.00     0.195 HD
ENDBRANCH   1   8
BRANCH   2  16
ATOM     16  C   UNL d   1       2.237  -1.253  -0.058  0.00  0.00     0.057 A 
ATOM     17  C   UNL d   1       2.433  -2.407  -0.826  0.00  0.00     0.031 A 
ATOM     18  C   UNL d   1       3.707  -2.977  -0.913  0.00  0.00     0.002 A 
ATOM     19  C   UNL d   1       4.785  -2.400  -0.243  0.00  0.00     0.000 A 
ATOM     20  C   UNL d   1       4.602  -1.234   0.497  0.00  0.00     0.002 A 
ATOM     21  C   UNL d   1       3.337  -0.651   0.577  0.00  0.00     0.031 A 
ENDBRANCH   2  16
BRANCH   3  22
ATOM     22  C   UNL d   1      -2.663  -0.130  -0.011  0.00  0.00     0.180 C 
ATOM     23  O   UNL d   1      -3.302   0.665  -0.680  0.00  0.00    -0.646 OA
BRANCH  22  24
ATOM     24  O   UNL d   1      -3.275  -1.068   0.754  0.00  0.00    -0.773 OA
ATOM     25  H   UNL d   1      -2.664  -1.565   1.331  0.00  0.00     0.167 HD
ENDBRANCH  22  24
ENDBRANCH   3  22
TORSDOF 4
