REMARK  3 active torsions:
REMARK  status: ('A' for Active; 'I' for Inactive)
REMARK    1  A    between atoms: C_14  and  N_3 
REMARK    2  A    between atoms: N_15  and  C_8 
REMARK    3  A    between atoms: C_13  and  C_9 
ROOT
ATOM      1  C   UNL d   1       0.175  -0.613   0.021  0.00  0.00     0.180 A 
ATOM      2  C   UNL d   1       0.167   0.762  -0.027  0.00  0.00     0.033 A 
ATOM      3  N   UNL d   1       1.495  -1.024   0.054  0.00  0.00    -0.233 N 
ATOM      4  N   UNL d   1       2.322   0.062   0.104  0.00  0.00    -0.296 N 
ATOM      5  HN  UNL d   1       3.338   0.057   0.194  1.00  0.00     0.187 HD
ATOM      6  C   UNL d   1      -2.310   0.548  -0.011  0.00  0.00     0.080 A 
ATOM      7  O   UNL d   1      -0.892  -1.409   0.040  0.00  0.00    -0.278 OA
ATOM      8  C   UNL d   1      -2.157  -0.802   0.043  0.00  0.00     0.140 A 
ATOM      9  C   UNL d   1      -1.125   1.505  -0.111  0.00  0.00     0.105 A 
ATOM     10  C   UNL d   1       1.527   1.133   0.011  0.00  0.00     0.034 A 
ATOM     11  C   UNL d   1      -3.611   1.128  -0.008  0.00  0.00     0.100 C 
ATOM     12  N   UNL d   1      -4.673   1.597   0.014  0.00  0.00    -0.191 NA
ATOM     13  C   UNL d   1       2.145   2.482  -0.012  0.00  0.00     0.070 C 
ENDROOT
BRANCH   8  14
ATOM     14  N   UNL d   1      -3.181  -1.720   0.108  0.00  0.00    -0.282 NA
ATOM     15  H   UNL d   1      -4.059  -1.377   0.493  0.00  0.00     0.126 HD
ATOM     16  H   UNL d   1      -2.885  -2.602   0.518  0.00  0.00     0.126 HD
ENDBRANCH   8  14
BRANCH   9  17
ATOM     17  C   UNL d   1      -1.087   2.552   0.992  0.00  0.00    -0.044 A 
ATOM     18  C   UNL d   1      -1.183   3.914   0.650  0.00  0.00     0.009 A 
ATOM     19  C   UNL d   1      -1.103   4.904   1.631  0.00  0.00     0.019 A 
ATOM     20  C   UNL d   1      -0.942   4.541   2.966  0.00  0.00     0.011 A 
ATOM     21  C   UNL d   1      -0.874   3.199   3.330  0.00  0.00     0.019 A 
ATOM     22 BR   UNL d   1      -0.807   5.882   4.290  0.00  0.00    -0.051 Br
ATOM     23  C   UNL d   1      -0.952   2.208   2.350  0.00  0.00     0.009 A 
ENDBRANCH   9  17
BRANCH   3  24
ATOM     24  C   UNL d   1       2.054  -2.335   0.013  0.00  0.00     0.059 A 
ATOM     25  C   UNL d   1       1.265  -3.475  -0.187  0.00  0.00     0.031 A 
ATOM     26  C   UNL d   1       1.863  -4.736  -0.279  0.00  0.00     0.002 A 
ATOM     27  C   UNL d   1       3.245  -4.871  -0.165  0.00  0.00     0.000 A 
ATOM     28  C   UNL d   1       4.037  -3.747   0.048  0.00  0.00     0.002 A 
ATOM     29  C   UNL d   1       3.446  -2.485   0.137  0.00  0.00     0.031 A 
ENDBRANCH   3  24
TORSDOF 3
