REMARK  5 active torsions:
REMARK  status: ('A' for Active; 'I' for Inactive)
REMARK    1  A    between atoms: C_7  and  C_1 
REMARK    2  A    between atoms: C_8  and  C_2 
REMARK    3  A    between atoms: O_11  and  C_7 
REMARK    4  A    between atoms: O_10  and  C_8 
REMARK    5  A    between atoms: C_12  and  O_10 
ROOT
ATOM      1  C   UNL d   1      -0.171  -0.894  -0.765  0.00  0.00     0.095 A 
ATOM      2  C   UNL d   1      -1.254  -0.964   0.087  0.00  0.00     0.119 A 
ATOM      3  N   UNL d   1       0.261   0.317   1.120  0.00  0.00    -0.264 N 
ATOM      4  HN  UNL d   1       0.724   0.902   1.816  1.00  0.00     0.194 HD
ATOM      5  O   UNL d   1      -0.990  -0.252   1.214  0.00  0.00    -0.239 OA
ATOM      6  C   UNL d   1       0.745  -0.054  -0.071  0.00  0.00     0.048 A 
ATOM      7  C   UNL d   1       2.092   0.394  -0.500  0.00  0.00     0.071 C 
ENDROOT
BRANCH   2   8
ATOM      8  C   UNL d   1      -2.589  -1.603   0.032  0.00  0.00     0.244 C 
BRANCH   8   9
ATOM      9  O   UNL d   1      -2.338  -3.009   0.097  0.00  0.00    -0.345 OA
BRANCH   9  10
ATOM     10  C   UNL d   1      -3.422  -3.794   0.389  0.00  0.00     0.069 A 
ATOM     11  C   UNL d   1      -4.754  -3.452   0.146  0.00  0.00     0.037 A 
ATOM     12  C   UNL d   1      -5.775  -4.357   0.450  0.00  0.00     0.003 A 
ATOM     13  C   UNL d   1      -5.471  -5.604   0.994  0.00  0.00     0.000 A 
ATOM     14  C   UNL d   1      -4.144  -5.947   1.238  0.00  0.00     0.003 A 
ATOM     15  C   UNL d   1      -3.123  -5.046   0.932  0.00  0.00     0.037 A 
ENDBRANCH   9  10
ENDBRANCH   8   9
ENDBRANCH   2   8
BRANCH   1  16
ATOM     16  C   UNL d   1      -0.010  -1.486  -2.073  0.00  0.00     0.180 C 
ATOM     17  O   UNL d   1       0.733  -1.024  -2.925  0.00  0.00    -0.646 OA
BRANCH  16  18
ATOM     18  O   UNL d   1      -0.730  -2.615  -2.301  0.00  0.00    -0.773 OA
ATOM     19  H   UNL d   1      -1.148  -2.994  -1.501  0.00  0.00     0.167 HD
ENDBRANCH  16  18
ENDBRANCH   1  16
TORSDOF 5
