REMARK  6 active torsions:
REMARK  status: ('A' for Active; 'I' for Inactive)
REMARK       I    between atoms: C_3  and  N_4 
REMARK    1  A    between atoms: C_16  and  C_3 
REMARK    2  A    between atoms: N_4  and  C_10 
REMARK    3  A    between atoms: C_5  and  C_17 
REMARK    4  A    between atoms: O_11  and  C_5 
REMARK    5  A    between atoms: S_8  and  C_16 
REMARK    6  A    between atoms: C_17  and  S_8 
ROOT
ATOM      1  N   UNL d   1      -3.035  -0.226  -0.417  0.00  0.00    -0.191 NA
ATOM      2  C   UNL d   1      -1.883  -0.150  -0.314  0.00  0.00     0.099 C 
ATOM      3  C   UNL d   1      -0.458  -0.044  -0.188  0.00  0.00     0.044 A 
ATOM      4  C   UNL d   1       2.341   0.193   0.070  0.00  0.00     0.034 A 
ATOM      5  C   UNL d   1       0.309  -1.145   0.201  0.00  0.00     0.025 A 
ATOM      6  C   UNL d   1       0.177   1.168  -0.460  0.00  0.00     0.025 A 
ATOM      7  C   UNL d   1       1.703  -1.029   0.318  0.00  0.00     0.031 A 
ATOM      8  C   UNL d   1       1.564   1.283  -0.330  0.00  0.00     0.031 A 
ENDROOT
BRANCH   4   9
ATOM      9  N   UNL d   1       3.744   0.257   0.221  0.00  0.00    -0.327 N 
ATOM     10  C   UNL d   1       4.515   1.407   0.234  0.00  0.00     0.231 C 
ATOM     11  O   UNL d   1       4.098   2.568   0.179  0.00  0.00    -0.272 OA
ATOM     12  H   UNL d   1       4.220  -0.626   0.372  0.00  0.00     0.169 HD
BRANCH  10  13
ATOM     13  C   UNL d   1       6.014   1.166   0.269  0.00  0.00     0.177 C 
BRANCH  13  14
ATOM     14  S   UNL d   1       6.700   1.192  -1.421  0.00  0.00    -0.149 SA
BRANCH  14  15
ATOM     15  C   UNL d   1       6.139   2.825  -2.024  0.00  0.00     0.184 C 
BRANCH  15  16
ATOM     16  C   UNL d   1       6.695   3.976  -1.215  0.00  0.00     0.149 C 
ATOM     17  O   UNL d   1       7.791   4.481  -1.413  0.00  0.00    -0.649 OA
BRANCH  16  18
ATOM     18  O   UNL d   1       5.880   4.410  -0.225  0.00  0.00    -0.776 OA
ATOM     19  H   UNL d   1       5.034   3.908  -0.129  0.00  0.00     0.167 HD
ENDBRANCH  16  18
ENDBRANCH  15  16
ENDBRANCH  14  15
ENDBRANCH  13  14
ENDBRANCH  10  13
ENDBRANCH   4   9
TORSDOF 6
