REMARK  8 active torsions:
REMARK  status: ('A' for Active; 'I' for Inactive)
REMARK    1  A    between atoms: C_7  and  C_1 
REMARK    2  A    between atoms: C_10  and  N_2 
REMARK    3  A    between atoms: C_11  and  C_6 
REMARK       I    between atoms: N_9  and  C_7 
REMARK    4  A    between atoms: C_8  and  N_12 
REMARK    5  A    between atoms: N_13  and  C_8 
REMARK    6  A    between atoms: N_12  and  N_9 
REMARK    7  A    between atoms: C_16  and  C_10 
REMARK    8  A    between atoms: C_18  and  N_13 
ROOT
ATOM      1  C   UNL d   1      -0.172  -1.079   0.469  0.00  0.00     0.122 A 
ATOM      2  N   UNL d   1       1.041  -0.504   0.186  0.00  0.00    -0.282 N 
ATOM      3  N   UNL d   1       0.982   0.844   0.078  0.00  0.00    -0.301 N 
ATOM      4  HN  UNL d   1       1.761   1.491  -0.038  1.00  0.00     0.187 HD
ATOM      5  C   UNL d   1      -1.072  -0.025   0.386  0.00  0.00     0.064 A 
ATOM      6  C   UNL d   1      -0.319   1.143   0.155  0.00  0.00     0.036 A 
ENDROOT
BRANCH   1   7
ATOM      7  C   UNL d   1      -0.541  -2.457   0.711  0.00  0.00     0.288 C 
ATOM      8  N   UNL d   1       0.306  -3.238   1.482  0.00  0.00    -0.262 N 
ATOM      9  H   UNL d   1       1.074  -2.834   2.021  0.00  0.00     0.190 HD
ATOM     10  O   UNL d   1      -1.626  -2.909   0.344  0.00  0.00    -0.264 OA
BRANCH   8  11
ATOM     11  N   UNL d   1      -0.291  -4.416   2.031  0.00  0.00    -0.274 N 
ATOM     12  H   UNL d   1      -1.285  -4.497   1.824  0.00  0.00     0.189 HD
BRANCH  11  13
ATOM     13  C   UNL d   1       0.275  -5.133   3.048  0.00  0.00     0.186 C 
ATOM     14  S   UNL d   1       1.851  -4.959   3.576  0.00  0.00    -0.040 SA
BRANCH  13  15
ATOM     15  N   UNL d   1      -0.500  -6.077   3.659  0.00  0.00    -0.361 N 
ATOM     16  H   UNL d   1      -0.028  -6.540   4.429  0.00  0.00     0.162 HD
BRANCH  15  17
ATOM     17  C   UNL d   1      -1.880  -6.494   3.381  0.00  0.00     0.083 C 
ATOM     18  C   UNL d   1      -2.909  -5.613   4.108  0.00  0.00     0.025 C 
ATOM     19  C   UNL d   1      -3.081  -5.944   5.592  0.00  0.00     0.002 C 
ATOM     20  C   UNL d   1      -3.322  -7.431   5.826  0.00  0.00     0.000 C 
ATOM     21  C   UNL d   1      -2.208  -8.265   5.209  0.00  0.00     0.002 C 
ATOM     22  C   UNL d   1      -2.073  -7.984   3.712  0.00  0.00     0.025 C 
ENDBRANCH  15  17
ENDBRANCH  13  15
ENDBRANCH  11  13
ENDBRANCH   8  11
ENDBRANCH   1   7
BRANCH   2  23
ATOM     23  C   UNL d   1       2.265  -1.152  -0.283  0.00  0.00     0.188 C 
BRANCH  23  24
ATOM     24  C   UNL d   1       3.273  -1.421   0.805  0.00  0.00    -0.038 A 
ATOM     25  C   UNL d   1       3.753  -0.398   1.643  0.00  0.00     0.015 A 
ATOM     26  C   UNL d   1       4.752  -0.655   2.595  0.00  0.00    -0.061 A 
ATOM     27  C   UNL d   1       5.274   0.429   3.491  0.00  0.00     0.048 C 
ATOM     28  C   UNL d   1       5.266  -1.951   2.709  0.00  0.00     0.007 A 
ATOM     29  C   UNL d   1       4.810  -2.967   1.873  0.00  0.00     0.001 A 
ATOM     30  C   UNL d   1       3.826  -2.703   0.923  0.00  0.00     0.009 A 
ENDBRANCH  23  24
ENDBRANCH   2  23
BRANCH   6  31
ATOM     31  C   UNL d   1      -0.797   2.584   0.058  0.00  0.00    -0.007 C 
ATOM     32  C   UNL d   1      -0.819   3.199   1.469  0.00  0.00     0.021 C 
ATOM     33  C   UNL d   1       0.130   3.431  -0.840  0.00  0.00     0.021 C 
ATOM     34  C   UNL d   1      -2.218   2.672  -0.542  0.00  0.00     0.021 C 
ENDBRANCH   6  31
TORSDOF 8
