REMARK  7 active torsions:
REMARK  status: ('A' for Active; 'I' for Inactive)
REMARK    1  A    between atoms: N_5  and  C_1 
REMARK    2  A    between atoms: C_8  and  C_2 
REMARK    3  A    between atoms: C_7  and  N_5 
REMARK    4  A    between atoms: N_9  and  C_7 
REMARK    5  A    between atoms: O_12  and  C_8 
REMARK    6  A    between atoms: C_13  and  N_9 
REMARK    7  A    between atoms: C_16  and  O_12 
ROOT
ATOM      1  C   UNL d   1      -1.912  -0.940   0.312  0.00  0.00     0.093 C 
ATOM      2  C   UNL d   1      -0.877  -1.852   0.125  0.00  0.00     0.080 C 
ATOM      3  S   UNL d   1      -1.343   0.591   0.801  0.00  0.00    -0.075 SA
ATOM      4  C   UNL d   1       0.407  -1.169   0.173  0.00  0.00    -0.026 C 
ATOM      5  C   UNL d   1       0.249   0.184   0.419  0.00  0.00    -0.008 C 
ATOM      6  C   UNL d   1       1.780  -1.744  -0.054  0.00  0.00     0.041 C 
ATOM      7  C   UNL d   1       1.328   1.215   0.431  0.00  0.00     0.047 C 
ATOM      8  C   UNL d   1       2.888  -0.784   0.408  0.00  0.00     0.005 C 
ATOM      9  C   UNL d   1       2.644   0.640  -0.102  0.00  0.00     0.005 C 
ENDROOT
BRANCH   1  10
ATOM     10  N   UNL d   1      -3.281  -1.162   0.302  0.00  0.00    -0.327 N 
ATOM     11  H   UNL d   1      -3.567  -2.139   0.246  0.00  0.00     0.169 HD
BRANCH  10  12
ATOM     12  C   UNL d   1      -4.249  -0.266  -0.094  0.00  0.00     0.177 C 
ATOM     13  S   UNL d   1      -4.079   1.019  -1.169  0.00  0.00    -0.040 SA
BRANCH  12  14
ATOM     14  N   UNL d   1      -5.532  -0.503   0.311  0.00  0.00    -0.333 N 
ATOM     15  H   UNL d   1      -6.193   0.086  -0.183  0.00  0.00     0.168 HD
BRANCH  14  16
ATOM     16  C   UNL d   1      -6.085  -1.336   1.300  0.00  0.00     0.034 A 
ATOM     17  C   UNL d   1      -5.354  -1.979   2.299  0.00  0.00     0.029 A 
ATOM     18  C   UNL d   1      -6.002  -2.796   3.231  0.00  0.00     0.002 A 
ATOM     19  C   UNL d   1      -7.385  -2.962   3.181  0.00  0.00     0.000 A 
ATOM     20  C   UNL d   1      -8.126  -2.294   2.211  0.00  0.00     0.002 A 
ATOM     21  C   UNL d   1      -7.479  -1.478   1.283  0.00  0.00     0.029 A 
ENDBRANCH  14  16
ENDBRANCH  12  14
ENDBRANCH  10  12
ENDBRANCH   1  10
BRANCH   2  22
ATOM     22  C   UNL d   1      -1.126  -3.276  -0.094  0.00  0.00     0.296 C 
ATOM     23  O   UNL d   1      -2.239  -3.783  -0.012  0.00  0.00    -0.259 OA
BRANCH  22  24
ATOM     24  O   UNL d   1       0.025  -3.982  -0.303  0.00  0.00    -0.318 OA
BRANCH  24  25
ATOM     25  C   UNL d   1      -0.032  -5.381  -0.001  0.00  0.00     0.174 C 
ATOM     26  C   UNL d   1       0.160  -5.553   1.495  0.00  0.00     0.034 C 
ENDBRANCH  24  25
ENDBRANCH  22  24
ENDBRANCH   2  22
TORSDOF 7
