REMARK  3 active torsions:
REMARK  status: ('A' for Active; 'I' for Inactive)
REMARK    1  A    between atoms: N_7  and  C_1 
REMARK    2  A    between atoms: C_12  and  C_6 
REMARK       I    between atoms: C_8  and  N_7 
REMARK       I    between atoms: N_10  and  C_8 
REMARK    3  A    between atoms: C_9  and  N_10 
ROOT
ATOM      1  N   UNL d   1      -0.282  -2.410   0.177  0.00  0.00    -0.293 N 
ATOM      2  C   UNL d   1      -0.098  -3.436  -0.798  0.00  0.00     0.326 C 
ATOM      3  N   UNL d   1       0.899  -3.262  -1.714  0.00  0.00    -0.308 N 
ATOM      4  O   UNL d   1      -0.906  -4.339  -0.717  0.00  0.00    -0.247 OA
ATOM      5  H   UNL d   1      -1.129  -2.583   0.706  0.00  0.00     0.172 HD
ATOM      6  H   UNL d   1       1.503  -2.475  -1.600  0.00  0.00     0.170 HD
ENDROOT
BRANCH   1   7
ATOM      7  C   UNL d   1       0.385  -1.216   0.404  0.00  0.00     0.127 C 
ATOM      8  C   UNL d   1       1.660  -0.825   0.060  0.00  0.00     0.077 C 
ATOM      9  C   UNL d   1       1.741   0.554   0.375  0.00  0.00     0.037 C 
ATOM     10  N   UNL d   1       0.642   0.956   1.022  0.00  0.00    -0.301 N 
ATOM     11  N   UNL d   1      -0.129  -0.139   1.091  0.00  0.00    -0.281 N 
ATOM     12  HN  UNL d   1       0.436   1.887   1.383  1.00  0.00     0.187 HD
ATOM     13  C   UNL d   1      -1.404  -0.041   1.763  0.00  0.00     0.179 C 
BRANCH   9  14
ATOM     14  C   UNL d   1       2.833   1.559   0.041  0.00  0.00    -0.007 C 
ATOM     15  C   UNL d   1       4.005   0.905  -0.720  0.00  0.00     0.021 C 
ATOM     16  C   UNL d   1       2.245   2.664  -0.863  0.00  0.00     0.021 C 
ATOM     17  C   UNL d   1       3.391   2.195   1.328  0.00  0.00     0.021 C 
ENDBRANCH   9  14
ENDBRANCH   1   7
BRANCH   3  18
ATOM     18  C   UNL d   1       1.091  -3.975  -2.922  0.00  0.00     0.045 A 
ATOM     19  C   UNL d   1       0.095  -4.801  -3.455  0.00  0.00     0.072 A 
ATOM     20  C   UNL d   1       0.226  -5.316  -4.742  0.00  0.00     0.118 A 
ATOM     21  F   UNL d   1      -0.764  -6.057  -5.255  0.00  0.00    -0.206 F 
ATOM     22  C   UNL d   1       1.342  -5.044  -5.516  0.00  0.00     0.043 A 
ATOM     23  C   UNL d   1       2.373  -4.286  -4.973  0.00  0.00     0.012 A 
ATOM     24  C   UNL d   1       2.276  -3.765  -3.667  0.00  0.00    -0.035 A 
ATOM     25  C   UNL d   1       3.487  -3.031  -3.149  0.00  0.00     0.050 C 
ENDBRANCH   3  18
TORSDOF 3
