REMARK  5 active torsions:
REMARK  status: ('A' for Active; 'I' for Inactive)
REMARK    1  A    between atoms: C_4  and  N_1 
REMARK       I    between atoms: C_5  and  N_1 
REMARK    2  A    between atoms: C_2  and  C_6 
REMARK    3  A    between atoms: C_3  and  C_9 
REMARK    4  A    between atoms: C_11  and  C_4 
REMARK    5  A    between atoms: C_10  and  C_5 
ROOT
ATOM      1  C   UNL d   1       0.378  -0.204   1.379  0.00  0.00     0.129 C 
ATOM      2  N   UNL d   1       0.937  -0.612   2.472  0.00  0.00    -0.384 N 
ATOM      3  HN  UNL d   1       0.462  -0.790   3.357  1.00  0.00     0.157 HD
ATOM      4  H   UNL d   1       1.953  -0.728   2.292  0.00  0.00     0.157 HD
ENDROOT
BRANCH   1   5
ATOM      5  N   UNL d   1       1.095   0.019   0.215  0.00  0.00    -0.307 N 
ATOM      6  C   UNL d   1       2.455  -0.209   0.065  0.00  0.00     0.257 C 
ATOM      7  O   UNL d   1       3.172  -0.618   0.978  0.00  0.00    -0.267 OA
ATOM      8  H   UNL d   1       0.530   0.297  -0.579  0.00  0.00     0.170 HD
BRANCH   6   9
ATOM      9  C   UNL d   1       3.070   0.024  -1.271  0.00  0.00     0.033 A 
ATOM     10  C   UNL d   1       2.575   0.951  -2.195  0.00  0.00     0.033 A 
ATOM     11  C   UNL d   1       3.234   1.147  -3.426  0.00  0.00     0.048 A 
ATOM     12  C   UNL d   1       4.395   0.407  -3.712  0.00  0.00     0.016 A 
ATOM     13  C   UNL d   1       4.895  -0.508  -2.790  0.00  0.00     0.002 A 
ATOM     14  C   UNL d   1       4.237  -0.696  -1.575  0.00  0.00     0.017 A 
BRANCH  11  15
ATOM     15  C   UNL d   1       2.728   2.144  -4.441  0.00  0.00     0.417 C 
ATOM     16  F   UNL d   1       1.594   2.787  -4.047  0.00  0.00    -0.166 F 
ATOM     17  F   UNL d   1       3.637   3.119  -4.715  0.00  0.00    -0.166 F 
ATOM     18  F   UNL d   1       2.431   1.561  -5.635  0.00  0.00    -0.166 F 
ENDBRANCH  11  15
ENDBRANCH   6   9
ENDBRANCH   1   5
BRANCH   1  19
ATOM     19  C   UNL d   1      -1.094   0.028   1.303  0.00  0.00     0.076 A 
ATOM     20  N   UNL d   1      -1.582   0.473   0.113  0.00  0.00    -0.362 N 
ATOM     21  C   UNL d   1      -2.932   0.609   0.040  0.00  0.00     0.104 A 
ATOM     22  HN  UNL d   1      -0.972   0.692  -0.675  1.00  0.00     0.165 HD
ATOM     23  C   UNL d   1      -3.813   0.310   1.077  0.00  0.00     0.063 A 
ATOM     24  C   UNL d   1      -3.266  -0.122   2.288  0.00  0.00     0.020 A 
ATOM     25  C   UNL d   1      -1.888  -0.262   2.407  0.00  0.00     0.034 A 
BRANCH  23  26
ATOM     26  C   UNL d   1      -5.298   0.416   0.895  0.00  0.00     0.418 C 
ATOM     27  F   UNL d   1      -5.665   0.853  -0.341  0.00  0.00    -0.166 F 
ATOM     28  F   UNL d   1      -5.925  -0.781   1.067  0.00  0.00    -0.166 F 
ATOM     29  F   UNL d   1      -5.876   1.271   1.782  0.00  0.00    -0.166 F 
ENDBRANCH  23  26
ENDBRANCH   1  19
TORSDOF 5
