REMARK  5 active torsions:
REMARK  status: ('A' for Active; 'I' for Inactive)
REMARK    1  A    between atoms: C_8  and  S_1 
REMARK    2  A    between atoms: N_9  and  S_1 
REMARK    3  A    between atoms: C_2  and  C_10 
REMARK    4  A    between atoms: C_16  and  C_5 
REMARK    5  A    between atoms: C_10  and  N_9 
ROOT
ATOM      1  N   UNL d   1       0.519  -0.028   1.487  0.00  0.00    -0.311 N 
ATOM      2  H   UNL d   1      -0.403   0.379   1.626  0.00  0.00     0.172 HD
ENDROOT
BRANCH   1   3
ATOM      3  S   UNL d   1       1.031  -0.036  -0.104  0.00  0.00     0.259 S 
ATOM      4  O   UNL d   1       0.274   1.006  -0.772  0.00  0.00    -0.201 OA
ATOM      5  O   UNL d   1       2.468  -0.087  -0.159  0.00  0.00    -0.201 OA
BRANCH   3   6
ATOM      6  C   UNL d   1       0.395  -1.581  -0.690  0.00  0.00     0.082 A 
ATOM      7  C   UNL d   1       1.269  -2.611  -1.036  0.00  0.00     0.065 A 
ATOM      8  C   UNL d   1       0.757  -3.807  -1.540  0.00  0.00     0.103 A 
ATOM      9  O   UNL d   1       1.704  -4.738  -1.885  0.00  0.00    -0.348 OA
ATOM     10  C   UNL d   1      -0.631  -3.982  -1.662  0.00  0.00     0.102 A 
ATOM     11  C   UNL d   1       1.390  -5.411  -3.106  0.00  0.00     0.178 C 
ATOM     12  C   UNL d   1       0.510  -6.622  -2.847  0.00  0.00     0.053 C 
ATOM     13  C   UNL d   1      -0.581  -6.328  -1.832  0.00  0.00     0.178 C 
ATOM     14  O   UNL d   1      -1.259  -5.109  -2.127  0.00  0.00    -0.348 OA
ATOM     15  C   UNL d   1      -1.493  -2.933  -1.329  0.00  0.00     0.041 A 
ATOM     16  C   UNL d   1      -0.986  -1.730  -0.843  0.00  0.00     0.028 A 
ENDBRANCH   3   6
ENDBRANCH   1   3
BRANCH   1  17
ATOM     17  C   UNL d   1       1.007  -1.004   2.450  0.00  0.00     0.176 C 
BRANCH  17  18
ATOM     18  C   UNL d   1       2.439  -0.787   2.761  0.00  0.00     0.021 A 
ATOM     19  C   UNL d   1       3.115   0.393   3.224  0.00  0.00     0.075 A 
ATOM     20  N   UNL d   1       4.437   0.164   3.312  0.00  0.00    -0.260 N 
ATOM     21  O   UNL d   1       4.638  -1.144   2.937  0.00  0.00    -0.242 OA
ATOM     22  HN  UNL d   1       5.153   0.831   3.601  1.00  0.00     0.195 HD
ATOM     23  C   UNL d   1       3.450  -1.717   2.629  0.00  0.00     0.083 A 
ATOM     24  C   UNL d   1       3.489  -3.135   2.225  0.00  0.00     0.079 C 
BRANCH  19  25
ATOM     25  C   UNL d   1       2.562   1.707   3.576  0.00  0.00    -0.007 A 
ATOM     26  C   UNL d   1       3.306   2.877   3.360  0.00  0.00     0.014 A 
ATOM     27  C   UNL d   1       2.781   4.130   3.694  0.00  0.00     0.001 A 
ATOM     28  C   UNL d   1       1.502   4.231   4.237  0.00  0.00     0.000 A 
ATOM     29  C   UNL d   1       0.755   3.080   4.466  0.00  0.00     0.001 A 
ATOM     30  C   UNL d   1       1.290   1.828   4.154  0.00  0.00     0.014 A 
ENDBRANCH  19  25
ENDBRANCH  17  18
ENDBRANCH   1  17
TORSDOF 5
