REMARK  5 active torsions:
REMARK  status: ('A' for Active; 'I' for Inactive)
REMARK    1  A    between atoms: N_2  and  C_1 
REMARK    2  A    between atoms: C_3  and  N_2 
REMARK    3  A    between atoms: C_13  and  N_11 
REMARK    4  A    between atoms: O_12  and  C_14 
REMARK    5  A    between atoms: C_14  and  C_13 
ROOT
ATOM      1  N   UNL d   1       1.001   0.037   1.408  0.00  0.00    -0.362 N 
ATOM      2  H   UNL d   1       1.703   0.173   0.679  0.00  0.00     0.162 HD
ENDROOT
BRANCH   1   3
ATOM      3  C   UNL d   1       0.512  -1.232   1.481  0.00  0.00     0.168 C 
ATOM      4  S   UNL d   1      -0.086  -1.992   2.841  0.00  0.00    -0.041 SA
ATOM      5  N   UNL d   1       0.457  -1.914   0.302  0.00  0.00    -0.365 N 
ATOM      6  H   UNL d   1       0.061  -2.845   0.392  0.00  0.00     0.161 HD
BRANCH   5   7
ATOM      7  C   UNL d   1       0.558  -1.361  -1.043  0.00  0.00     0.148 C 
BRANCH   7   8
ATOM      8  C   UNL d   1       1.980  -1.415  -1.596  0.00  0.00     0.183 C 
BRANCH   8   9
ATOM      9  O   UNL d   1       2.819  -0.488  -0.910  0.00  0.00    -0.399 OA
ATOM     10  H   UNL d   1       3.728  -0.650  -1.224  0.00  0.00     0.209 HD
ENDBRANCH   8   9
ENDBRANCH   7   8
ENDBRANCH   5   7
ENDBRANCH   1   3
BRANCH   1  11
ATOM     11  C   UNL d   1       0.940   1.048   2.458  0.00  0.00     0.092 C 
ATOM     12  C   UNL d   1       2.014   0.948   3.576  0.00  0.00     0.031 C 
ATOM     13  C   UNL d   1       3.401   1.096   2.985  0.00  0.00    -0.024 C 
ATOM     14  C   UNL d   1       1.878   2.350   4.190  0.00  0.00     0.019 C 
ATOM     15  C   UNL d   1       3.524   2.366   2.570  0.00  0.00    -0.026 C 
ATOM     16  C   UNL d   1       2.220   3.064   2.879  0.00  0.00     0.010 C 
ATOM     17  C   UNL d   1       1.147   2.498   1.923  0.00  0.00     0.034 C 
ENDBRANCH   1  11
TORSDOF 5
