REMARK  3 active torsions:
REMARK  status: ('A' for Active; 'I' for Inactive)
REMARK    1  A    between atoms: N_2  and  S_1 
REMARK    2  A    between atoms: C_4  and  S_1 
REMARK       I    between atoms: C_3  and  N_2 
REMARK       I    between atoms: N_8  and  C_3 
REMARK    3  A    between atoms: C_14  and  N_8 
ROOT
ATOM      1  N   UNL d   1       3.410  -9.782  -1.425  0.00  0.00    -0.191 NA
ATOM      2  C   UNL d   1       2.854  -8.768  -1.304  0.00  0.00     0.099 C 
ATOM      3  C   UNL d   1       2.191  -7.513  -1.128  0.00  0.00     0.044 A 
ATOM      4  C   UNL d   1       1.005  -5.012  -0.602  0.00  0.00     0.036 A 
ATOM      5  C   UNL d   1       2.813  -6.337  -1.549  0.00  0.00     0.025 A 
ATOM      6  C   UNL d   1       0.947  -7.443  -0.497  0.00  0.00     0.025 A 
ATOM      7  C   UNL d   1       2.218  -5.099  -1.293  0.00  0.00     0.031 A 
ATOM      8  C   UNL d   1       0.356  -6.198  -0.237  0.00  0.00     0.031 A 
ENDROOT
BRANCH   4   9
ATOM      9  N   UNL d   1       0.436  -3.787  -0.183  0.00  0.00    -0.308 N 
ATOM     10  C   UNL d   1       0.951  -2.533  -0.416  0.00  0.00     0.334 C 
ATOM     11  N   UNL d   1       0.323  -1.540   0.325  0.00  0.00    -0.232 N 
ATOM     12  O   UNL d   1       1.854  -2.268  -1.190  0.00  0.00    -0.246 OA
ATOM     13  H   UNL d   1      -0.456  -1.707   0.946  0.00  0.00     0.183 HD
ATOM     14  H   UNL d   1      -0.376  -3.843   0.411  0.00  0.00     0.170 HD
BRANCH  11  15
ATOM     15  S   UNL d   1       0.793   0.065   0.275  0.00  0.00     0.266 S 
ATOM     16  O   UNL d   1       2.191   0.157   0.630  0.00  0.00    -0.200 OA
ATOM     17  O   UNL d   1      -0.214   0.781   1.028  0.00  0.00    -0.200 OA
BRANCH  15  18
ATOM     18  C   UNL d   1       0.573   0.489  -1.433  0.00  0.00     0.080 A 
ATOM     19  C   UNL d   1      -0.720   0.507  -1.962  0.00  0.00     0.026 A 
ATOM     20  C   UNL d   1      -0.898   0.725  -3.326  0.00  0.00     0.008 A 
ATOM     21  C   UNL d   1       0.207   0.936  -4.163  0.00  0.00    -0.062 A 
ATOM     22  C   UNL d   1       1.494   0.968  -3.609  0.00  0.00     0.008 A 
ATOM     23  C   UNL d   1      -0.000   1.086  -5.642  0.00  0.00     0.048 C 
ATOM     24  C   UNL d   1       1.681   0.748  -2.243  0.00  0.00     0.026 A 
ENDBRANCH  15  18
ENDBRANCH  11  15
ENDBRANCH   4   9
TORSDOF 3
