REMARK  2 active torsions:
REMARK  status: ('A' for Active; 'I' for Inactive)
REMARK    1  A    between atoms: C_3  and  C_1 
REMARK    2  A    between atoms: O_7  and  C_3 
ROOT
ATOM      1  C   UNL d   1       1.285   1.540  -0.102  0.00  0.00     0.051 A 
ATOM      2  C   UNL d   1       1.184   0.104  -0.096  0.00  0.00     0.007 A 
ATOM      3  C   UNL d   1       0.025  -0.740  -0.230  0.00  0.00     0.018 A 
ATOM      4  C   UNL d   1       2.426  -0.583   0.046  0.00  0.00    -0.024 A 
ATOM      5  I   UNL d   1      -1.918  -0.088  -0.767  0.00  0.00    -0.044 I 
ATOM      6  C   UNL d   1       2.523   2.211  -0.058  0.00  0.00     0.018 A 
ATOM      7  C   UNL d   1       3.704   1.495   0.031  0.00  0.00     0.002 A 
ATOM      8  C   UNL d   1       1.334  -2.759   0.064  0.00  0.00     0.002 A 
ATOM      9  C   UNL d   1       0.110  -2.141  -0.125  0.00  0.00     0.019 A 
ATOM     10  C   UNL d   1       2.482  -1.983   0.127  0.00  0.00     0.012 A 
ATOM     11  C   UNL d   1       3.649   0.110   0.097  0.00  0.00     0.012 A 
ENDROOT
BRANCH   1  12
ATOM     12  C   UNL d   1       0.138   2.464  -0.119  0.00  0.00     0.293 C 
ATOM     13  O   UNL d   1      -0.056   3.272  -1.013  0.00  0.00    -0.259 OA
BRANCH  12  14
ATOM     14  O   UNL d   1      -0.523   2.365   1.059  0.00  0.00    -0.322 OA
ATOM     15  C   UNL d   1      -1.643   3.244   1.212  0.00  0.00     0.213 C 
ENDBRANCH  12  14
ENDBRANCH   1  12
TORSDOF 2
