REMARK  8 active torsions:
REMARK  status: ('A' for Active; 'I' for Inactive)
REMARK    1  A    between atoms: N_8  and  S_1 
REMARK    2  A    between atoms: C_10  and  S_1 
REMARK    3  A    between atoms: S_2  and  C_11 
REMARK    4  A    between atoms: N_9  and  S_2 
REMARK    5  A    between atoms: C_20  and  N_8 
REMARK    6  A    between atoms: C_21  and  N_9 
REMARK    7  A    between atoms: C_25  and  C_20 
REMARK    8  A    between atoms: C_26  and  C_21 
ROOT
ATOM      1  C   UNL d   1      -1.426   3.273  -0.260  0.00  0.00     0.027 A 
ATOM      2  C   UNL d   1      -2.603   5.300  -0.407  0.00  0.00     0.027 A 
ATOM      3  C   UNL d   1      -2.765   3.841  -0.460  0.00  0.00     0.194 A 
ATOM      4  C   UNL d   1      -1.240   5.582  -0.199  0.00  0.00    -0.011 A 
ATOM      5  C   UNL d   1      -0.520   4.330  -0.061  0.00  0.00    -0.011 A 
ATOM      6  C   UNL d   1       0.264   1.652  -0.092  0.00  0.00     0.080 A 
ATOM      7  C   UNL d   1      -3.158   7.575  -0.597  0.00  0.00     0.080 A 
ATOM      8  C   UNL d   1      -1.075   1.947  -0.311  0.00  0.00     0.041 A 
ATOM      9  C   UNL d   1      -3.582   6.252  -0.563  0.00  0.00     0.041 A 
ATOM     10  C   UNL d   1      -0.827   6.903  -0.192  0.00  0.00     0.015 A 
ATOM     11  C   UNL d   1       0.810   4.032   0.182  0.00  0.00     0.015 A 
ATOM     12  O   UNL d   1      -3.789   3.224  -0.645  0.00  0.00    -0.287 OA
ATOM     13  C   UNL d   1      -1.794   7.904  -0.400  0.00  0.00     0.026 A 
ATOM     14  C   UNL d   1       1.200   2.679   0.177  0.00  0.00     0.026 A 
ENDROOT
BRANCH   6  15
ATOM     15  S   UNL d   1       0.830  -0.017  -0.329  0.00  0.00     0.259 S 
ATOM     16  O   UNL d   1       0.598  -0.310  -1.721  0.00  0.00    -0.201 OA
ATOM     17  O   UNL d   1       2.148  -0.083   0.260  0.00  0.00    -0.201 OA
BRANCH  15  18
ATOM     18  N   UNL d   1      -0.158  -0.952   0.683  0.00  0.00    -0.307 N 
ATOM     19  H   UNL d   1      -0.192  -0.567   1.625  0.00  0.00     0.173 HD
BRANCH  18  20
ATOM     20  C   UNL d   1      -1.447  -1.507   0.204  0.00  0.00     0.122 C 
ATOM     21  C   UNL d   1      -2.108  -2.273   1.353  0.00  0.00     0.038 C 
BRANCH  20  22
ATOM     22  C   UNL d   1      -1.341  -2.404  -1.013  0.00  0.00    -0.035 A 
ATOM     23  C   UNL d   1      -0.230  -3.237  -1.218  0.00  0.00     0.009 A 
ATOM     24  C   UNL d   1      -0.090  -3.953  -2.407  0.00  0.00     0.001 A 
ATOM     25  C   UNL d   1      -1.079  -3.881  -3.385  0.00  0.00     0.000 A 
ATOM     26  C   UNL d   1      -2.216  -3.105  -3.171  0.00  0.00     0.001 A 
ATOM     27  C   UNL d   1      -2.348  -2.370  -1.992  0.00  0.00     0.009 A 
ENDBRANCH  20  22
ENDBRANCH  18  20
ENDBRANCH  15  18
ENDBRANCH   6  15
BRANCH   7  28
ATOM     28  S   UNL d   1      -4.370   8.869  -0.781  0.00  0.00     0.259 S 
ATOM     29  O   UNL d   1      -5.645   8.352  -0.340  0.00  0.00    -0.201 OA
ATOM     30  O   UNL d   1      -3.783  10.056  -0.199  0.00  0.00    -0.201 OA
BRANCH  28  31
ATOM     31  N   UNL d   1      -4.415   9.106  -2.432  0.00  0.00    -0.307 N 
ATOM     32  H   UNL d   1      -3.556   9.436  -2.863  0.00  0.00     0.173 HD
BRANCH  31  33
ATOM     33  C   UNL d   1      -5.426   8.470  -3.290  0.00  0.00     0.122 C 
ATOM     34  C   UNL d   1      -5.229   6.962  -3.398  0.00  0.00     0.038 C 
BRANCH  33  35
ATOM     35  C   UNL d   1      -5.403   9.078  -4.687  0.00  0.00    -0.035 A 
ATOM     36  C   UNL d   1      -4.257   9.000  -5.498  0.00  0.00     0.009 A 
ATOM     37  C   UNL d   1      -4.260   9.530  -6.789  0.00  0.00     0.001 A 
ATOM     38  C   UNL d   1      -5.406  10.141  -7.289  0.00  0.00     0.000 A 
ATOM     39  C   UNL d   1      -6.551  10.224  -6.500  0.00  0.00     0.001 A 
ATOM     40  C   UNL d   1      -6.550   9.698  -5.206  0.00  0.00     0.009 A 
ENDBRANCH  33  35
ENDBRANCH  31  33
ENDBRANCH  28  31
ENDBRANCH   7  28
TORSDOF 8
