REMARK  6 active torsions:
REMARK  status: ('A' for Active; 'I' for Inactive)
REMARK    1  A    between atoms: C_3  and  C_1 
REMARK       I    between atoms: N_2  and  C_3 
REMARK       I    between atoms: C_4  and  N_2 
REMARK    2  A    between atoms: O_12  and  C_4 
REMARK    3  A    between atoms: N_8  and  C_5 
REMARK    4  A    between atoms: C_11  and  N_8 
REMARK    5  A    between atoms: C_19  and  O_12 
REMARK    6  A    between atoms: O_18  and  C_13 
ROOT
ATOM      1  C   UNL d   1       1.032   0.049   0.093  0.00  0.00     0.128 C 
ATOM      2  C   UNL d   1       0.217  -0.298  -0.918  0.00  0.00     0.116 C 
ATOM      3  C   UNL d   1       0.542   0.462   1.356  0.00  0.00     0.106 C 
ATOM      4  N   UNL d   1       0.183   0.797   2.406  0.00  0.00    -0.191 NA
ENDROOT
BRANCH   1   5
ATOM      5  C   UNL d   1       2.508  -0.001  -0.200  0.00  0.00     0.271 C 
ATOM      6  N   UNL d   1       3.344   0.169   0.885  0.00  0.00    -0.268 N 
ATOM      7  C   UNL d   1       4.699   0.403   0.859  0.00  0.00     0.367 C 
ATOM      8  H   UNL d   1       2.980   0.231   1.824  0.00  0.00     0.174 HD
ATOM      9  O   UNL d   1       5.323   0.553   1.903  0.00  0.00    -0.238 OA
ATOM     10  O   UNL d   1       2.903  -0.243  -1.338  0.00  0.00    -0.266 OA
BRANCH   7  11
ATOM     11  O   UNL d   1       5.227   0.511  -0.383  0.00  0.00    -0.304 OA
BRANCH  11  12
ATOM     12  C   UNL d   1       6.588   0.957  -0.469  0.00  0.00     0.176 C 
ATOM     13  C   UNL d   1       6.611   2.474  -0.504  0.00  0.00     0.034 C 
ENDBRANCH  11  12
ENDBRANCH   7  11
ENDBRANCH   1   5
BRANCH   2  14
ATOM     14  N   UNL d   1      -1.159  -0.335  -1.021  0.00  0.00    -0.364 N 
ATOM     15  H   UNL d   1      -1.712   0.051  -0.261  0.00  0.00     0.165 HD
BRANCH  14  16
ATOM     16  C   UNL d   1      -1.876  -0.706  -2.176  0.00  0.00     0.032 A 
ATOM     17  C   UNL d   1      -1.340  -1.569  -3.143  0.00  0.00     0.032 A 
ATOM     18  C   UNL d   1      -1.997  -1.812  -4.354  0.00  0.00     0.039 A 
ATOM     19  C   UNL d   1      -3.208  -1.185  -4.624  0.00  0.00     0.068 A 
ATOM     20  C   UNL d   1      -3.780  -0.363  -3.654  0.00  0.00     0.039 A 
ATOM     21  C   UNL d   1      -3.118  -0.118  -2.443  0.00  0.00     0.032 A 
BRANCH  19  22
ATOM     22  O   UNL d   1      -3.924  -1.332  -5.781  0.00  0.00    -0.356 OA
ATOM     23  C   UNL d   1      -3.149  -1.614  -6.943  0.00  0.00     0.210 C 
ENDBRANCH  19  22
ENDBRANCH  14  16
ENDBRANCH   2  14
TORSDOF 6
