REMARK  0 active torsions:
REMARK  status: ('A' for Active; 'I' for Inactive)
ROOT
ATOM      1  C   UNL d   1       0.231   0.734   0.001  0.00  0.00     0.069 A 
ATOM      2  C   UNL d   1       0.241  -0.677  -0.001  0.00  0.00     0.021 A 
ATOM      3  C   UNL d   1       1.544   1.164   0.001  0.00  0.00     0.022 A 
ATOM      4  N   UNL d   1       2.336   0.033   0.000  0.00  0.00    -0.362 N 
ATOM      5  C   UNL d   1       1.552  -1.103  -0.000  0.00  0.00     0.018 A 
ATOM      6  C   UNL d   1      -1.025   1.456   0.000  0.00  0.00     0.273 A 
ATOM      7  N   UNL d   1      -2.135  -0.777  -0.002  0.00  0.00    -0.308 N 
ATOM      8  HN  UNL d   1      -3.014  -1.294  -0.003  1.00  0.00     0.186 HD
ATOM      9  N   UNL d   1      -2.133   0.615  -0.001  0.00  0.00    -0.266 N 
ATOM     10  C   UNL d   1      -0.996  -1.410  -0.002  0.00  0.00     0.121 A 
ATOM     11  O   UNL d   1      -1.127   2.679   0.001  0.00  0.00    -0.266 OA
ATOM     12  C   UNL d   1       2.124   2.531  -0.000  0.00  0.00     0.069 C 
ATOM     13  C   UNL d   1       2.145  -2.464  -0.003  0.00  0.00     0.069 C 
ATOM     14  H   UNL d   1       3.350   0.041  -0.000  0.00  0.00     0.165 HD
ATOM     15  H   UNL d   1      -3.042   1.063  -0.002  0.00  0.00     0.190 HD
ENDROOT
TORSDOF 0
