REMARK  4 active torsions:
REMARK  status: ('A' for Active; 'I' for Inactive)
REMARK    1  A    between atoms: C_15  and  N_1 
REMARK    2  A    between atoms: N_16  and  C_7 
REMARK    3  A    between atoms: N_13  and  N_16 
REMARK    4  A    between atoms: C_20  and  C_19 
ROOT
ATOM      1  N   UNL d   1      -1.506  -1.072  -0.057  0.00  0.00    -0.239 N 
ATOM      2  C   UNL d   1      -0.185  -0.623  -0.004  0.00  0.00     0.143 A 
ATOM      3  N   UNL d   1      -2.379  -0.019  -0.160  0.00  0.00    -0.302 N 
ATOM      4  HN  UNL d   1      -3.396  -0.056  -0.221  1.00  0.00     0.186 HD
ATOM      5  C   UNL d   1      -0.234   0.761  -0.084  0.00  0.00     0.072 A 
ATOM      6  C   UNL d   1      -1.601   1.062  -0.165  0.00  0.00     0.127 A 
ATOM      7  C   UNL d   1       0.978   1.472  -0.047  0.00  0.00     0.136 A 
ATOM      8  N   UNL d   1       0.945  -1.354   0.098  0.00  0.00    -0.336 N 
ATOM      9  HN  UNL d   1       0.958  -2.373   0.145  1.00  0.00     0.168 HD
ATOM     10  N   UNL d   1       2.122   0.745   0.067  0.00  0.00    -0.337 N 
ATOM     11  HN  UNL d   1       3.028   1.211   0.105  1.00  0.00     0.168 HD
ATOM     12  C   UNL d   1       2.045  -0.592   0.129  0.00  0.00     0.183 A 
ENDROOT
BRANCH   7  13
ATOM     13  N   UNL d   1       1.027   2.876  -0.147  0.00  0.00    -0.285 N 
ATOM     14  H   UNL d   1       0.117   3.324  -0.179  0.00  0.00     0.188 HD
BRANCH  13  15
ATOM     15  N   UNL d   1       2.063   3.513   0.465  0.00  0.00    -0.309 N 
ATOM     16  C   UNL d   1       2.016   4.805   0.410  0.00  0.00     0.119 C 
ATOM     17  HN  UNL d   1       2.818   3.010   0.931  1.00  0.00     0.186 HD
BRANCH  16  18
ATOM     18  C   UNL d   1       3.032   5.648   1.056  0.00  0.00    -0.004 A 
ATOM     19  C   UNL d   1       4.081   5.099   1.780  0.00  0.00     0.100 A 
ATOM     20  N   UNL d   1       5.027   5.844   2.405  0.00  0.00    -0.374 N 
ATOM     21  C   UNL d   1       4.916   7.187   2.297  0.00  0.00     0.087 A 
ATOM     22  HN  UNL d   1       5.786   5.412   2.932  1.00  0.00     0.164 HD
ATOM     23  C   UNL d   1       3.903   7.822   1.595  0.00  0.00     0.018 A 
ATOM     24  C   UNL d   1       2.942   7.037   0.963  0.00  0.00     0.015 A 
ENDBRANCH  16  18
ENDBRANCH  13  15
ENDBRANCH   7  13
BRANCH   1  25
ATOM     25  C   UNL d   1      -2.013  -2.408  -0.018  0.00  0.00     0.058 A 
ATOM     26  C   UNL d   1      -1.168  -3.517   0.130  0.00  0.00     0.031 A 
ATOM     27  C   UNL d   1      -1.699  -4.811   0.161  0.00  0.00     0.002 A 
ATOM     28  C   UNL d   1      -3.071  -5.012   0.044  0.00  0.00     0.000 A 
ATOM     29  C   UNL d   1      -3.921  -3.918  -0.102  0.00  0.00     0.002 A 
ATOM     30  C   UNL d   1      -3.398  -2.623  -0.132  0.00  0.00     0.031 A 
ENDBRANCH   1  25
TORSDOF 4
