REMARK  1 active torsions:
REMARK  status: ('A' for Active; 'I' for Inactive)
REMARK    1  A    between atoms: C_6  and  C_1 
REMARK       I    between atoms: N_11  and  C_6 
ROOT
ATOM      1  C   UNL d   1       1.683  -1.129  -0.004  0.00  0.00     0.118 A 
ATOM      2  N   UNL d   1       2.598  -0.147  -0.002  0.00  0.00    -0.321 N 
ATOM      3  HN  UNL d   1       3.609  -0.282  -0.003  1.00  0.00     0.174 HD
ATOM      4  C   UNL d   1       0.296  -0.696  -0.002  0.00  0.00     0.016 A 
ATOM      5  S   UNL d   1       1.831   1.313   0.000  0.00  0.00    -0.013 SA
ATOM      6  C   UNL d   1       0.230   0.699  -0.001  0.00  0.00     0.034 A 
ATOM      7  C   UNL d   1      -0.931  -1.410  -0.000  0.00  0.00     0.022 A 
ATOM      8  C   UNL d   1      -0.989   1.397  -0.000  0.00  0.00     0.021 A 
ATOM      9  C   UNL d   1      -2.161  -0.733   0.002  0.00  0.00    -0.061 A 
ATOM     10  C   UNL d   1      -2.177   0.662   0.000  0.00  0.00     0.008 A 
ATOM     11  C   UNL d   1      -3.454  -1.495   0.007  0.00  0.00     0.048 C 
ENDROOT
BRANCH   1  12
ATOM     12  C   UNL d   1       2.135  -2.532  -0.007  0.00  0.00     0.267 C 
ATOM     13  O   UNL d   1       1.385  -3.504  -0.010  0.00  0.00    -0.266 OA
ATOM     14  N   UNL d   1       3.493  -2.707  -0.006  0.00  0.00    -0.365 N 
ATOM     15  H   UNL d   1       4.104  -1.900  -0.001  0.00  0.00     0.159 HD
ATOM     16  H   UNL d   1       3.867  -3.644  -0.004  0.00  0.00     0.159 HD
ENDBRANCH   1  12
TORSDOF 1
