REMARK  6 active torsions:
REMARK  status: ('A' for Active; 'I' for Inactive)
REMARK    1  A    between atoms: C_4  and  C_1 
REMARK    2  A    between atoms: C_2  and  N_5 
REMARK    3  A    between atoms: N_3  and  C_2 
REMARK    4  A    between atoms: C_6  and  N_3 
REMARK    5  A    between atoms: N_5  and  C_9 
REMARK    6  A    between atoms: N_14  and  C_10 
ROOT
ATOM      1  C   UNL d   1       0.831  -4.919  -0.320  0.00  0.00     0.176 C 
ATOM      2  S   UNL d   1       0.742  -6.511  -0.836  0.00  0.00    -0.041 SA
ENDROOT
BRANCH   1   3
ATOM      3  N   UNL d   1       0.535  -4.423   0.921  0.00  0.00    -0.333 N 
ATOM      4  H   UNL d   1       0.120  -3.499   0.878  0.00  0.00     0.168 HD
BRANCH   3   5
ATOM      5  C   UNL d   1       0.512  -5.040   2.193  0.00  0.00     0.035 A 
ATOM      6  C   UNL d   1       1.139  -6.252   2.485  0.00  0.00     0.045 A 
ATOM      7  C   UNL d   1       1.058  -6.821   3.770  0.00  0.00     0.050 A 
ATOM      8  C   UNL d   1       0.392  -6.118   4.784  0.00  0.00     0.016 A 
ATOM      9  C   UNL d   1      -0.188  -4.885   4.516  0.00  0.00     0.003 A 
ATOM     10  C   UNL d   1      -0.131  -4.348   3.226  0.00  0.00     0.029 A 
BRANCH   7  11
ATOM     11  C   UNL d   1       1.655  -8.176   4.056  0.00  0.00     0.417 C 
ATOM     12  F   UNL d   1       2.264  -8.748   2.981  0.00  0.00    -0.166 F 
ATOM     13  F   UNL d   1       0.719  -9.073   4.474  0.00  0.00    -0.166 F 
ATOM     14  F   UNL d   1       2.599  -8.133   5.038  0.00  0.00    -0.166 F 
ENDBRANCH   7  11
ENDBRANCH   3   5
ENDBRANCH   1   3
BRANCH   1  15
ATOM     15  N   UNL d   1       1.142  -4.005  -1.292  0.00  0.00    -0.332 N 
ATOM     16  H   UNL d   1       1.151  -4.432  -2.206  0.00  0.00     0.168 HD
BRANCH  15  17
ATOM     17  C   UNL d   1       1.635  -2.678  -1.250  0.00  0.00     0.055 A 
ATOM     18  C   UNL d   1       1.805  -1.993  -2.479  0.00  0.00     0.033 A 
ATOM     19  C   UNL d   1       2.312  -0.683  -2.464  0.00  0.00     0.025 A 
ATOM     20  C   UNL d   1       2.713  -0.078  -1.275  0.00  0.00     0.002 A 
ATOM     21  C   UNL d   1       2.594  -0.770  -0.078  0.00  0.00     0.002 A 
ATOM     22  C   UNL d   1       2.065  -2.063  -0.066  0.00  0.00     0.031 A 
BRANCH  18  23
ATOM     23  N   UNL d   1       1.306  -2.477  -3.703  0.00  0.00    -0.301 NA
ATOM     24  H   UNL d   1       1.080  -3.458  -3.766  0.00  0.00     0.124 HD
ATOM     25  H   UNL d   1       1.841  -2.158  -4.506  0.00  0.00     0.124 HD
ENDBRANCH  18  23
ENDBRANCH  15  17
ENDBRANCH   1  15
TORSDOF 6
