REMARK  7 active torsions:
REMARK  status: ('A' for Active; 'I' for Inactive)
REMARK    1  A    between atoms: C_8  and  C_1 
REMARK    2  A    between atoms: C_7  and  C_2 
REMARK    3  A    between atoms: C_9  and  C_3 
REMARK    4  A    between atoms: O_16  and  C_7 
REMARK    5  A    between atoms: O_17  and  C_8 
REMARK    6  A    between atoms: C_21  and  O_16 
REMARK    7  A    between atoms: C_20  and  O_17 
ROOT
ATOM      1  C   UNL d   1      -1.274  -1.036   0.122  0.00  0.00     0.054 C 
ATOM      2  C   UNL d   1       1.284  -0.990   0.095  0.00  0.00     0.054 C 
ATOM      3  C   UNL d   1       0.018  -1.830  -0.125  0.00  0.00     0.125 C 
ATOM      4  C   UNL d   1      -1.249   0.318   0.093  0.00  0.00     0.018 C 
ATOM      5  C   UNL d   1       1.207   0.360   0.078  0.00  0.00     0.018 C 
ATOM      6  N   UNL d   1      -0.031   0.972  -0.045  0.00  0.00    -0.362 N 
ATOM      7  C   UNL d   1      -2.434   1.246   0.204  0.00  0.00     0.069 C 
ATOM      8  C   UNL d   1       2.393   1.289   0.167  0.00  0.00     0.069 C 
ATOM      9  H   UNL d   1      -0.051   1.989  -0.006  0.00  0.00     0.165 HD
ENDROOT
BRANCH   1  10
ATOM     10  C   UNL d   1      -2.522  -1.827   0.304  0.00  0.00     0.292 C 
ATOM     11  O   UNL d   1      -3.642  -1.450   0.001  0.00  0.00    -0.259 OA
BRANCH  10  12
ATOM     12  O   UNL d   1      -2.236  -3.021   0.885  0.00  0.00    -0.318 OA
BRANCH  12  13
ATOM     13  C   UNL d   1      -3.358  -3.871   1.171  0.00  0.00     0.174 C 
ATOM     14  C   UNL d   1      -3.836  -4.594  -0.076  0.00  0.00     0.034 C 
ENDBRANCH  12  13
ENDBRANCH  10  12
ENDBRANCH   1  10
BRANCH   3  15
ATOM     15  C   UNL d   1       0.001  -2.410  -1.523  0.00  0.00     0.066 A 
ATOM     16  O   UNL d   1      -0.072  -3.767  -1.644  0.00  0.00    -0.326 OA
ATOM     17  C   UNL d   1      -0.069  -4.041  -2.975  0.00  0.00     0.142 A 
ATOM     18  C   UNL d   1      -0.003  -2.882  -3.711  0.00  0.00     0.027 A 
ATOM     19  C   UNL d   1       0.041  -1.824  -2.774  0.00  0.00     0.035 A 
ENDBRANCH   3  15
BRANCH   2  20
ATOM     20  C   UNL d   1       2.586  -1.699   0.248  0.00  0.00     0.292 C 
ATOM     21  O   UNL d   1       3.678  -1.153   0.303  0.00  0.00    -0.259 OA
BRANCH  20  22
ATOM     22  O   UNL d   1       2.399  -3.042   0.278  0.00  0.00    -0.318 OA
BRANCH  22  23
ATOM     23  C   UNL d   1       3.583  -3.837   0.116  0.00  0.00     0.174 C 
ATOM     24  C   UNL d   1       3.834  -4.041  -1.367  0.00  0.00     0.034 C 
ENDBRANCH  22  23
ENDBRANCH  20  22
ENDBRANCH   2  20
TORSDOF 7
