REMARK  5 active torsions:
REMARK  status: ('A' for Active; 'I' for Inactive)
REMARK    1  A    between atoms: C_2  and  N_1 
REMARK       I    between atoms: C_3  and  N_1 
REMARK    2  A    between atoms: C_4  and  C_2 
REMARK    3  A    between atoms: O_9  and  C_3 
REMARK    4  A    between atoms: C_14  and  O_9 
REMARK    5  A    between atoms: O_13  and  C_10 
ROOT
ATOM      1  C   UNL d   1       0.204   0.842   0.903  0.00  0.00     0.115 C 
ATOM      2  S   UNL d   1      -0.323   0.994  -0.690  0.00  0.00    -0.059 SA
ENDROOT
BRANCH   1   3
ATOM      3  N   UNL d   1      -0.082  -0.367   1.531  0.00  0.00    -0.292 N 
ATOM      4  C   UNL d   1       0.467  -0.991   2.630  0.00  0.00     0.365 C 
ATOM      5  O   UNL d   1       1.357  -0.573   3.346  0.00  0.00    -0.238 OA
ATOM      6  H   UNL d   1      -0.661  -0.992   0.986  0.00  0.00     0.172 HD
BRANCH   4   7
ATOM      7  O   UNL d   1      -0.111  -2.217   2.743  0.00  0.00    -0.304 OA
BRANCH   7   8
ATOM      8  C   UNL d   1       0.527  -3.155   3.623  0.00  0.00     0.176 C 
ATOM      9  C   UNL d   1      -0.232  -3.282   4.929  0.00  0.00     0.034 C 
ENDBRANCH   7   8
ENDBRANCH   4   7
ENDBRANCH   1   3
BRANCH   1  10
ATOM     10  C   UNL d   1       0.890   1.939   1.645  0.00  0.00     0.002 A 
ATOM     11  C   UNL d   1       1.837   2.761   1.012  0.00  0.00     0.017 A 
ATOM     12  C   UNL d   1       2.435   3.826   1.700  0.00  0.00     0.037 A 
ATOM     13  C   UNL d   1       2.105   4.076   3.032  0.00  0.00     0.068 A 
ATOM     14  C   UNL d   1       1.146   3.275   3.655  0.00  0.00     0.037 A 
ATOM     15  C   UNL d   1       0.531   2.225   2.965  0.00  0.00     0.017 A 
BRANCH  13  16
ATOM     16  O   UNL d   1       2.631   5.055   3.826  0.00  0.00    -0.356 OA
ATOM     17  C   UNL d   1       3.667   5.852   3.262  0.00  0.00     0.210 C 
ENDBRANCH  13  16
ENDBRANCH   1  10
TORSDOF 5
