REMARK  2 active torsions:
REMARK  status: ('A' for Active; 'I' for Inactive)
REMARK    1  A    between atoms: C_12  and  C_1 
REMARK    2  A    between atoms: O_14  and  N_10 
ROOT
ATOM      1  C   UNL d   1      -0.220   1.459   0.003  0.00  0.00     0.001 A 
ATOM      2  C   UNL d   1       0.271  -0.936   0.001  0.00  0.00     0.059 A 
ATOM      3  C   UNL d   1       1.611  -0.613   0.026  0.00  0.00     0.106 A 
ATOM      4  C   UNL d   1       2.041   0.691   0.035  0.00  0.00     0.105 A 
ATOM      5  C   UNL d   1      -0.658   0.114  -0.007  0.00  0.00     0.025 A 
ATOM      6  C   UNL d   1       1.156   1.746   0.020  0.00  0.00     0.054 A 
ATOM      7  O   UNL d   1       2.643  -1.498   0.050  0.00  0.00    -0.323 OA
ATOM      8  O   UNL d   1       3.396   0.791   0.065  0.00  0.00    -0.323 OA
ATOM      9  C   UNL d   1       3.771  -0.601   0.122  0.00  0.00     0.352 A 
ATOM     10 BR   UNL d   1      -2.493  -0.384  -0.024  0.00  0.00    -0.050 Br
ENDROOT
BRANCH   1  11
ATOM     11  C   UNL d   1      -1.167   2.597   0.004  0.00  0.00     0.126 C 
ATOM     12  N   UNL d   1      -0.753   3.827   0.016  0.00  0.00    -0.280 N 
ATOM     13  HN  UNL d   1       0.223   4.123   0.024  1.00  0.00     0.193 HD
BRANCH  12  14
ATOM     14  O   UNL d   1      -1.860   4.683   0.017  0.00  0.00    -0.290 OA
ATOM     15  H   UNL d   1      -1.442   5.564   0.029  0.00  0.00     0.244 HD
ENDBRANCH  12  14
ENDBRANCH   1  11
TORSDOF 2
