REMARK  5 active torsions:
REMARK  status: ('A' for Active; 'I' for Inactive)
REMARK    1  A    between atoms: C_2  and  C_1 
REMARK       I    between atoms: N_3  and  C_1 
REMARK    2  A    between atoms: N_5  and  C_2 
REMARK    3  A    between atoms: C_4  and  N_3 
REMARK    4  A    between atoms: C_13  and  N_5 
REMARK    5  A    between atoms: C_16  and  C_13 
ROOT
ATOM      1  C   UNL d   1       0.742   0.206   0.227  0.00  0.00     0.283 C 
ATOM      2  N   UNL d   1       1.736  -0.602   0.757  0.00  0.00    -0.321 N 
ATOM      3  O   UNL d   1       0.124   1.071   0.827  0.00  0.00    -0.265 OA
ATOM      4  H   UNL d   1       2.252  -1.170   0.090  0.00  0.00     0.169 HD
ENDROOT
BRANCH   1   5
ATOM      5  C   UNL d   1       0.421   0.002  -1.259  0.00  0.00     0.165 C 
ATOM      6  S   UNL d   1       1.661  -0.414  -2.297  0.00  0.00    -0.055 SA
BRANCH   5   7
ATOM      7  N   UNL d   1      -0.860   0.209  -1.729  0.00  0.00    -0.372 N 
ATOM      8  H   UNL d   1      -0.975   0.147  -2.734  0.00  0.00     0.161 HD
BRANCH   7   9
ATOM      9  C   UNL d   1      -2.075   0.170  -0.933  0.00  0.00     0.159 C 
BRANCH   9  10
ATOM     10  C   UNL d   1      -2.773   1.488  -0.692  0.00  0.00    -0.041 A 
ATOM     11  C   UNL d   1      -4.167   1.487  -0.497  0.00  0.00     0.009 A 
ATOM     12  C   UNL d   1      -4.842   2.641  -0.095  0.00  0.00     0.001 A 
ATOM     13  C   UNL d   1      -4.135   3.818   0.126  0.00  0.00     0.000 A 
ATOM     14  C   UNL d   1      -2.758   3.846  -0.082  0.00  0.00     0.001 A 
ATOM     15  C   UNL d   1      -2.084   2.692  -0.496  0.00  0.00     0.009 A 
ENDBRANCH   9  10
ENDBRANCH   7   9
ENDBRANCH   5   7
ENDBRANCH   1   5
BRANCH   2  16
ATOM     16  C   UNL d   1       2.170  -0.602   2.104  0.00  0.00     0.038 A 
ATOM     17  C   UNL d   1       1.506   0.085   3.127  0.00  0.00     0.053 A 
ATOM     18  C   UNL d   1       1.977   0.032   4.441  0.00  0.00     0.037 A 
ATOM     19 CL   UNL d   1       1.134   0.877   5.681  0.00  0.00    -0.084 Cl
ATOM     20  C   UNL d   1       3.112  -0.703   4.758  0.00  0.00     0.048 A 
ATOM     21  C   UNL d   1       3.776  -1.386   3.745  0.00  0.00     0.037 A 
ATOM     22  C   UNL d   1       3.313  -1.344   2.425  0.00  0.00     0.053 A 
ATOM     23 CL   UNL d   1       5.187  -2.296   4.125  0.00  0.00    -0.084 Cl
ENDBRANCH   2  16
TORSDOF 5
