REMARK  11 active torsions:
REMARK  status: ('A' for Active; 'I' for Inactive)
REMARK    1  A    between atoms: O_8  and  C_1 
REMARK    2  A    between atoms: N_4  and  C_2 
REMARK    3  A    between atoms: N_5  and  C_3 
REMARK    4  A    between atoms: C_6  and  C_18 
REMARK    5  A    between atoms: C_7  and  C_6 
REMARK    6  A    between atoms: N_9  and  C_6 
REMARK    7  A    between atoms: O_22  and  C_7 
REMARK    8  A    between atoms: C_21  and  O_8 
REMARK       I    between atoms: C_15  and  N_9 
REMARK    9  A    between atoms: C_18  and  C_12 
REMARK   10  A    between atoms: C_30  and  O_22 
REMARK   11  A    between atoms: O_28  and  C_23 
ROOT
ATOM      1  C   UNL d   1       1.478  -0.365  -0.112  0.00  0.00     0.142 A 
ATOM      2  C   UNL d   1       0.528  -1.391  -0.180  0.00  0.00     0.139 A 
ATOM      3  C   UNL d   1       0.959   0.941  -0.112  0.00  0.00     0.139 A 
ATOM      4  C   UNL d   1      -0.853  -1.131  -0.303  0.00  0.00     0.046 A 
ATOM      5  C   UNL d   1      -0.422   1.225  -0.163  0.00  0.00     0.046 A 
ATOM      6  C   UNL d   1      -1.343   0.179  -0.275  0.00  0.00    -0.051 A 
ENDROOT
BRANCH   6   7
ATOM      7  C   UNL d   1      -2.838   0.407  -0.258  0.00  0.00     0.074 C 
BRANCH   7   8
ATOM      8  C   UNL d   1      -3.402   1.411  -1.269  0.00  0.00     0.188 C 
BRANCH   8   9
ATOM      9  C   UNL d   1      -3.172   0.953  -2.717  0.00  0.00     0.282 C 
ATOM     10  O   UNL d   1      -2.071   0.777  -3.220  0.00  0.00    -0.263 OA
BRANCH   9  11
ATOM     11  O   UNL d   1      -4.362   0.847  -3.385  0.00  0.00    -0.320 OA
BRANCH  11  12
ATOM     12  C   UNL d   1      -4.274   0.953  -4.813  0.00  0.00     0.174 C 
ATOM     13  C   UNL d   1      -4.385   2.424  -5.170  0.00  0.00     0.034 C 
ENDBRANCH  11  12
ENDBRANCH   9  11
ENDBRANCH   8   9
BRANCH   8  14
ATOM     14  N   UNL d   1      -4.835   1.624  -1.016  0.00  0.00    -0.347 N 
ATOM     15  C   UNL d   1      -5.279   2.578  -0.138  0.00  0.00     0.214 C 
ATOM     16  O   UNL d   1      -4.520   3.264   0.538  0.00  0.00    -0.274 OA
ATOM     17  C   UNL d   1      -6.774   2.730  -0.082  0.00  0.00     0.117 C 
ATOM     18  H   UNL d   1      -5.489   1.186  -1.657  0.00  0.00     0.163 HD
ENDBRANCH   8  14
ENDBRANCH   7   8
ENDBRANCH   6   7
BRANCH   3  19
ATOM     19  N   UNL d   1       1.865   2.073  -0.035  0.00  0.00    -0.113 N 
ATOM     20  O   UNL d   1       2.664   2.222  -0.969  0.00  0.00    -0.532 OA
ATOM     21  O   UNL d   1       1.736   2.829   0.936  0.00  0.00    -0.532 OA
ENDBRANCH   3  19
BRANCH   2  22
ATOM     22  N   UNL d   1       0.857  -2.794  -0.015  0.00  0.00    -0.113 N 
ATOM     23  O   UNL d   1       1.308  -3.134   1.090  0.00  0.00    -0.532 OA
ATOM     24  O   UNL d   1       0.573  -3.553  -0.946  0.00  0.00    -0.532 OA
ENDBRANCH   2  22
BRANCH   1  25
ATOM     25  O   UNL d   1       2.838  -0.473   0.069  0.00  0.00    -0.306 OA
BRANCH  25  26
ATOM     26  C   UNL d   1       3.550  -1.537  -0.421  0.00  0.00     0.076 C 
ATOM     27  C   UNL d   1       3.299  -2.146  -1.650  0.00  0.00     0.040 C 
ATOM     28  C   UNL d   1       3.954  -3.337  -1.978  0.00  0.00     0.039 C 
ATOM     29  C   UNL d   1       4.921  -3.865  -1.121  0.00  0.00     0.068 C 
ATOM     30  C   UNL d   1       5.283  -3.162   0.027  0.00  0.00     0.039 C 
ATOM     31  C   UNL d   1       4.592  -2.003   0.383  0.00  0.00     0.040 C 
BRANCH  29  32
ATOM     32  O   UNL d   1       5.595  -5.034  -1.349  0.00  0.00    -0.356 OA
ATOM     33  C   UNL d   1       4.788  -6.077  -1.893  0.00  0.00     0.210 C 
ENDBRANCH  29  32
ENDBRANCH  25  26
ENDBRANCH   1  25
TORSDOF 11
