REMARK  5 active torsions:
REMARK  status: ('A' for Active; 'I' for Inactive)
REMARK    1  A    between atoms: C_4  and  S_1 
REMARK    2  A    between atoms: N_11  and  S_1 
REMARK    3  A    between atoms: C_2  and  C_10 
REMARK       I    between atoms: C_10  and  N_13 
REMARK    4  A    between atoms: N_13  and  N_11 
REMARK    5  A    between atoms: C_20  and  C_12 
ROOT
ATOM      1  N   UNL d   1       0.770   0.524   1.583  0.00  0.00    -0.220 N 
ATOM      2  H   UNL d   1       0.059   1.255   1.694  0.00  0.00     0.200 HD
ENDROOT
BRANCH   1   3
ATOM      3  S   UNL d   1       1.274   0.089   0.040  0.00  0.00     0.282 S 
ATOM      4  O   UNL d   1       2.703   0.308  -0.034  0.00  0.00    -0.198 OA
ATOM      5  O   UNL d   1       0.696  -1.201  -0.265  0.00  0.00    -0.198 OA
BRANCH   3   6
ATOM      6  C   UNL d   1       0.570   1.210  -1.141  0.00  0.00     0.122 A 
ATOM      7  S   UNL d   1      -0.447   2.427  -0.512  0.00  0.00    -0.074 SA
ATOM      8  C   UNL d   1      -0.740   3.113  -2.057  0.00  0.00     0.033 A 
ATOM      9  C   UNL d   1      -0.094   2.383  -3.041  0.00  0.00     0.023 A 
ATOM     10  C   UNL d   1       0.673   1.301  -2.515  0.00  0.00     0.034 A 
BRANCH   8  11
ATOM     11  C   UNL d   1      -1.599   4.296  -2.204  0.00  0.00     0.049 A 
ATOM     12  N   UNL d   1      -2.256   4.366  -3.388  0.00  0.00    -0.365 N 
ATOM     13  C   UNL d   1      -3.062   5.433  -3.586  0.00  0.00     0.088 A 
ATOM     14  HN  UNL d   1      -2.146   3.645  -4.100  1.00  0.00     0.165 HD
ATOM     15  C   UNL d   1      -3.238   6.451  -2.663  0.00  0.00     0.017 A 
ATOM     16  C   UNL d   1      -2.550   6.371  -1.461  0.00  0.00     0.004 A 
ATOM     17  C   UNL d   1      -1.719   5.279  -1.223  0.00  0.00     0.031 A 
ENDBRANCH   8  11
ENDBRANCH   3   6
ENDBRANCH   1   3
BRANCH   1  18
ATOM     18  N   UNL d   1       1.152  -0.245   2.743  0.00  0.00    -0.255 N 
ATOM     19  C   UNL d   1       0.585   0.087   3.962  0.00  0.00     0.289 C 
ATOM     20  O   UNL d   1      -0.228   1.010   4.037  0.00  0.00    -0.264 OA
ATOM     21  H   UNL d   1       1.750  -1.054   2.604  0.00  0.00     0.191 HD
BRANCH  19  22
ATOM     22  C   UNL d   1       0.978  -0.735   5.078  0.00  0.00     0.132 A 
ATOM     23  N   UNL d   1       0.194  -0.962   6.203  0.00  0.00    -0.302 N 
ATOM     24  C   UNL d   1       0.909  -1.832   7.023  0.00  0.00     0.112 A 
ATOM     25  C   UNL d   1      -1.075  -0.484   6.547  0.00  0.00     0.099 A 
ATOM     26  C   UNL d   1       0.299  -2.246   8.241  0.00  0.00     0.049 A 
ATOM     27  N   UNL d   1       2.084  -2.120   6.515  0.00  0.00    -0.344 N 
ATOM     28  C   UNL d   1      -0.918  -1.779   8.574  0.00  0.00     0.005 A 
ATOM     29  C   UNL d   1      -1.639  -0.863   7.707  0.00  0.00     0.018 A 
ATOM     30  C   UNL d   1       2.161  -1.422   5.335  0.00  0.00     0.040 A 
ATOM     31  HN  UNL d   1       2.794  -2.736   6.914  1.00  0.00     0.167 HD
ATOM     32  C   UNL d   1       3.434  -1.465   4.573  0.00  0.00     0.071 C 
ENDBRANCH  19  22
ENDBRANCH   1  18
TORSDOF 5
