REMARK  4 active torsions:
REMARK  status: ('A' for Active; 'I' for Inactive)
REMARK    1  A    between atoms: C_2  and  S_1 
REMARK    2  A    between atoms: N_3  and  S_1 
REMARK    3  A    between atoms: C_5  and  N_3 
REMARK    4  A    between atoms: O_17  and  C_8 
ROOT
ATOM      1  S   UNL d   1       0.560   0.125  -0.059  0.00  0.00     0.244 S 
ATOM      2  O   UNL d   1       0.041  -0.241  -1.357  0.00  0.00    -0.206 OA
ATOM      3  O   UNL d   1       1.975   0.121   0.239  0.00  0.00    -0.206 OA
ENDROOT
BRANCH   1   4
ATOM      4  C   UNL d   1      -0.289  -0.876   1.129  0.00  0.00     0.109 A 
ATOM      5  C   UNL d   1      -1.376  -0.333   1.828  0.00  0.00     0.051 A 
ATOM      6  C   UNL d   1      -1.901  -1.007   2.927  0.00  0.00     0.035 A 
ATOM      7 CL   UNL d   1      -3.136  -0.268   3.868  0.00  0.00    -0.084 Cl
ATOM      8  C   UNL d   1      -1.393  -2.246   3.302  0.00  0.00     0.026 A 
ATOM      9  C   UNL d   1      -0.362  -2.822   2.557  0.00  0.00     0.040 A 
ATOM     10  C   UNL d   1       0.187  -2.150   1.458  0.00  0.00     0.091 A 
BRANCH  10  11
ATOM     11  O   UNL d   1       1.228  -2.794   0.851  0.00  0.00    -0.354 OA
ATOM     12  C   UNL d   1       1.009  -3.082  -0.531  0.00  0.00     0.210 C 
ENDBRANCH  10  11
ENDBRANCH   1   4
BRANCH   1  13
ATOM     13  N   UNL d   1       0.002   1.697   0.195  0.00  0.00    -0.210 NA
ATOM     14  H   UNL d   1      -0.329   2.077  -0.695  0.00  0.00     0.140 HD
BRANCH  13  15
ATOM     15  C   UNL d   1       0.792   2.629   1.040  0.00  0.00     0.080 C 
ATOM     16  C   UNL d   1       0.867   2.200   2.521  0.00  0.00     0.059 C 
ATOM     17  C   UNL d   1       0.662   3.482   3.262  0.00  0.00    -0.050 A 
ATOM     18  C   UNL d   1       0.759   3.683   4.630  0.00  0.00     0.007 A 
ATOM     19  C   UNL d   1       0.255   4.507   2.410  0.00  0.00    -0.050 A 
ATOM     20  C   UNL d   1       0.459   4.947   5.138  0.00  0.00     0.001 A 
ATOM     21  C   UNL d   1       0.066   5.986   4.279  0.00  0.00     0.001 A 
ATOM     22  C   UNL d   1      -0.042   5.767   2.905  0.00  0.00     0.007 A 
ATOM     23  C   UNL d   1       0.124   4.027   1.004  0.00  0.00     0.059 C 
ENDBRANCH  13  15
ENDBRANCH   1  13
TORSDOF 4
