REMARK  3 active torsions:
REMARK  status: ('A' for Active; 'I' for Inactive)
REMARK    1  A    between atoms: C_3  and  C_1 
REMARK    2  A    between atoms: N_7  and  C_2 
REMARK       I    between atoms: C_6  and  N_7 
REMARK       I    between atoms: N_10  and  C_6 
REMARK    3  A    between atoms: C_13  and  N_10 
ROOT
ATOM      1  C   UNL d   1       1.051  -3.012  -0.016  0.00  0.00     0.325 C 
ATOM      2  N   UNL d   1       1.285  -4.372  -0.137  0.00  0.00    -0.306 N 
ATOM      3  N   UNL d   1       2.247  -2.308  -0.035  0.00  0.00    -0.309 N 
ATOM      4  O   UNL d   1      -0.075  -2.528   0.038  0.00  0.00    -0.247 OA
ATOM      5  H   UNL d   1       2.111  -4.620  -0.663  0.00  0.00     0.171 HD
ATOM      6  H   UNL d   1       3.090  -2.864   0.003  0.00  0.00     0.170 HD
ENDROOT
BRANCH   2   7
ATOM      7  C   UNL d   1       0.302  -5.351  -0.078  0.00  0.00     0.077 A 
ATOM      8  C   UNL d   1      -0.904  -5.399   0.605  0.00  0.00     0.186 A 
ATOM      9  O   UNL d   1      -1.530  -6.592   0.323  0.00  0.00    -0.308 OA
ATOM     10  C   UNL d   1      -0.724  -7.310  -0.497  0.00  0.00     0.052 A 
ATOM     11  C   UNL d   1      -1.217  -8.638  -0.911  0.00  0.00     0.077 C 
ATOM     12  C   UNL d   1       0.425  -6.601  -0.754  0.00  0.00     0.064 A 
BRANCH   8  13
ATOM     13  C   UNL d   1      -1.630  -4.553   1.589  0.00  0.00     0.441 C 
ATOM     14  F   UNL d   1      -0.862  -3.615   2.198  0.00  0.00    -0.164 F 
ATOM     15  F   UNL d   1      -2.705  -3.927   1.046  0.00  0.00    -0.164 F 
ATOM     16  F   UNL d   1      -2.122  -5.318   2.611  0.00  0.00    -0.164 F 
ENDBRANCH   8  13
ENDBRANCH   2   7
BRANCH   3  17
ATOM     17  C   UNL d   1       2.428  -0.906  -0.083  0.00  0.00     0.039 A 
ATOM     18  C   UNL d   1       1.379   0.010  -0.044  0.00  0.00     0.069 A 
ATOM     19  C   UNL d   1       1.634   1.375  -0.194  0.00  0.00     0.104 A 
ATOM     20  O   UNL d   1       0.540   2.206  -0.192  0.00  0.00    -0.346 OA
ATOM     21  C   UNL d   1       2.940   1.844  -0.345  0.00  0.00     0.102 A 
ATOM     22  C   UNL d   1       0.848   3.443  -0.839  0.00  0.00     0.202 C 
ATOM     23  C   UNL d   1       2.136   4.028  -0.284  0.00  0.00     0.202 C 
ATOM     24  O   UNL d   1       3.255   3.166  -0.522  0.00  0.00    -0.346 OA
ATOM     25  C   UNL d   1       3.997   0.938  -0.353  0.00  0.00     0.042 A 
ATOM     26  C   UNL d   1       3.742  -0.431  -0.218  0.00  0.00     0.032 A 
ENDBRANCH   3  17
TORSDOF 3
