REMARK  1 active torsions:
REMARK  status: ('A' for Active; 'I' for Inactive)
REMARK    1  A    between atoms: C_8  and  C_3 
ROOT
ATOM      1  N   UNL d   1       2.343  -0.783   0.095  0.00  0.00    -0.256 N 
ATOM      2  HN  UNL d   1       3.220  -1.303   0.062  1.00  0.00     0.195 HD
ATOM      3  C   UNL d   1       1.210  -1.416   0.059  0.00  0.00     0.076 C 
ATOM      4  C   UNL d   1      -0.085  -0.720   0.098  0.00  0.00     0.010 A 
ATOM      5  O   UNL d   1       2.359   0.623   0.178  0.00  0.00    -0.194 OA
ATOM      6  C   UNL d   1       1.249   1.347  -0.121  0.00  0.00     0.316 C 
ATOM      7  C   UNL d   1      -0.041   0.655  -0.058  0.00  0.00     0.053 A 
ATOM      8  O   UNL d   1       1.293   2.555  -0.327  0.00  0.00    -0.257 OA
ATOM      9  C   UNL d   1      -1.324  -1.349   0.287  0.00  0.00     0.015 A 
ATOM     10  C   UNL d   1      -1.228   1.403  -0.104  0.00  0.00     0.018 A 
ATOM     11  C   UNL d   1      -2.507  -0.607   0.237  0.00  0.00     0.001 A 
ATOM     12  C   UNL d   1      -2.462   0.769   0.029  0.00  0.00     0.001 A 
ENDROOT
BRANCH   3  13
ATOM     13  C   UNL d   1       1.300  -2.907  -0.038  0.00  0.00    -0.007 A 
ATOM     14  C   UNL d   1       2.283  -3.564   0.716  0.00  0.00     0.014 A 
ATOM     15  C   UNL d   1       2.419  -4.951   0.641  0.00  0.00     0.001 A 
ATOM     16  C   UNL d   1       1.576  -5.689  -0.187  0.00  0.00     0.000 A 
ATOM     17  C   UNL d   1       0.615  -5.040  -0.962  0.00  0.00     0.001 A 
ATOM     18  C   UNL d   1       0.489  -3.649  -0.905  0.00  0.00     0.014 A 
ENDBRANCH   3  13
TORSDOF 1
