REMARK  7 active torsions:
REMARK  status: ('A' for Active; 'I' for Inactive)
REMARK    1  A    between atoms: C_10  and  C_1 
REMARK    2  A    between atoms: N_3  and  C_10 
REMARK    3  A    between atoms: S_16  and  C_4 
REMARK    4  A    between atoms: C_11  and  C_15 
REMARK    5  A    between atoms: C_21  and  S_16 
REMARK    6  A    between atoms: C_19  and  C_21 
REMARK    7  A    between atoms: C_28  and  C_19 
ROOT
ATOM      1  C   UNL d   1      -0.052   0.936  -0.209  0.00  0.00     0.118 A 
ATOM      2  N   UNL d   1       0.777  -0.144   0.015  0.00  0.00    -0.318 N 
ATOM      3  C   UNL d   1      -0.020  -1.250  -0.123  0.00  0.00     0.162 A 
ATOM      4  N   UNL d   1      -1.267   0.480  -0.458  0.00  0.00    -0.285 N 
ATOM      5  HN  UNL d   1      -2.086   1.054  -0.661  1.00  0.00     0.188 HD
ATOM      6  N   UNL d   1      -1.247  -0.885  -0.399  0.00  0.00    -0.278 N 
ATOM      7  HN  UNL d   1      -2.043  -1.506  -0.543  1.00  0.00     0.189 HD
ATOM      8  C   UNL d   1       2.181  -0.131   0.340  0.00  0.00     0.160 C 
ENDROOT
BRANCH   1   9
ATOM      9  C   UNL d   1       0.325   2.379  -0.095  0.00  0.00     0.210 C 
BRANCH   9  10
ATOM     10  N   UNL d   1       0.036   3.124  -1.323  0.00  0.00    -0.309 N 
ATOM     11  C   UNL d   1      -1.208   3.834  -1.461  0.00  0.00     0.055 A 
ATOM     12  C   UNL d   1      -2.344   3.457  -0.722  0.00  0.00     0.047 A 
ATOM     13  C   UNL d   1      -1.326   4.940  -2.322  0.00  0.00     0.028 A 
ATOM     14  C   UNL d   1      -3.573   4.128  -0.847  0.00  0.00     0.050 A 
ATOM     15  C   UNL d   1      -3.649   5.246  -1.682  0.00  0.00     0.017 A 
ATOM     16  C   UNL d   1      -2.531   5.653  -2.407  0.00  0.00     0.021 A 
ATOM     17  S   UNL d   1       0.044   5.521  -3.297  0.00  0.00    -0.118 SA
ATOM     18  C   UNL d   1       0.792   3.908  -3.571  0.00  0.00     0.182 C 
ATOM     19  C   UNL d   1       1.066   3.197  -2.264  0.00  0.00     0.234 C 
ATOM     20  O   UNL d   1       2.146   2.619  -2.091  0.00  0.00    -0.272 OA
BRANCH  14  21
ATOM     21  C   UNL d   1      -4.799   3.648  -0.106  0.00  0.00     0.417 C 
ATOM     22  F   UNL d   1      -4.603   2.500   0.599  0.00  0.00    -0.166 F 
ATOM     23  F   UNL d   1      -5.249   4.565   0.794  0.00  0.00    -0.166 F 
ATOM     24  F   UNL d   1      -5.845   3.399  -0.942  0.00  0.00    -0.166 F 
ENDBRANCH  14  21
ENDBRANCH   9  10
ENDBRANCH   1   9
BRANCH   3  25
ATOM     25  S   UNL d   1       0.532  -2.879   0.046  0.00  0.00    -0.085 SA
BRANCH  25  26
ATOM     26  C   UNL d   1      -1.037  -3.775  -0.201  0.00  0.00     0.166 C 
BRANCH  26  27
ATOM     27  C   UNL d   1      -0.842  -5.281  -0.183  0.00  0.00     0.169 C 
ATOM     28  O   UNL d   1       0.252  -5.829  -0.052  0.00  0.00    -0.291 OA
BRANCH  27  29
ATOM     29  C   UNL d   1      -2.054  -6.150  -0.344  0.00  0.00     0.010 A 
ATOM     30  C   UNL d   1      -3.350  -5.631  -0.446  0.00  0.00     0.015 A 
ATOM     31  C   UNL d   1      -4.442  -6.494  -0.589  0.00  0.00     0.001 A 
ATOM     32  C   UNL d   1      -4.250  -7.873  -0.634  0.00  0.00     0.000 A 
ATOM     33  C   UNL d   1      -2.963  -8.399  -0.536  0.00  0.00     0.001 A 
ATOM     34  C   UNL d   1      -1.870  -7.542  -0.390  0.00  0.00     0.015 A 
ENDBRANCH  27  29
ENDBRANCH  26  27
ENDBRANCH  25  26
ENDBRANCH   3  25
TORSDOF 7
