REMARK  5 active torsions:
REMARK  status: ('A' for Active; 'I' for Inactive)
REMARK    1  A    between atoms: N_2  and  S_1 
REMARK    2  A    between atoms: C_14  and  S_1 
REMARK    3  A    between atoms: C_6  and  C_5 
REMARK    4  A    between atoms: C_10  and  C_11 
REMARK    5  A    between atoms: C_20  and  C_12 
ROOT
ATOM      1  N   UNL d   1       0.686   1.987   0.868  0.00  0.00    -0.188 N 
ATOM      2  N   UNL d   1       1.121   3.225   0.476  0.00  0.00    -0.284 N 
ATOM      3  HN  UNL d   1       1.724   3.454  -0.314  1.00  0.00     0.188 HD
ATOM      4  C   UNL d   1       0.578   4.064   1.361  0.00  0.00     0.067 A 
ATOM      5  C   UNL d   1      -0.088   2.043   2.001  0.00  0.00     0.132 A 
ATOM      6  C   UNL d   1      -0.166   3.373   2.355  0.00  0.00     0.052 A 
ENDROOT
BRANCH   4   7
ATOM      7  C   UNL d   1       0.741   5.569   1.291  0.00  0.00     0.034 A 
ATOM      8  S   UNL d   1       0.199   6.684   2.483  0.00  0.00    -0.079 SA
ATOM      9  C   UNL d   1       0.797   8.041   1.621  0.00  0.00     0.059 A 
ATOM     10  C   UNL d   1       1.366   7.638   0.429  0.00  0.00     0.029 A 
ATOM     11  C   UNL d   1       1.344   6.226   0.238  0.00  0.00     0.023 A 
BRANCH   9  12
ATOM     12  C   UNL d   1       0.803   9.396   2.086  0.00  0.00    -0.054 C 
ATOM     13  C   UNL d   1       1.049  10.527   2.465  0.00  0.00    -0.061 C 
BRANCH  13  14
ATOM     14  C   UNL d   1       1.685  11.701   2.978  0.00  0.00     0.018 C 
ATOM     15  C   UNL d   1       1.017  12.861   3.404  0.00  0.00     0.020 C 
ATOM     16  C   UNL d   1       1.743  13.919   3.974  0.00  0.00     0.001 C 
ATOM     17  C   UNL d   1       3.091  13.750   4.287  0.00  0.00     0.000 C 
ATOM     18  C   UNL d   1       3.705  12.540   3.995  0.00  0.00     0.001 C 
ATOM     19  C   UNL d   1       3.058  11.606   3.198  0.00  0.00     0.020 C 
ENDBRANCH  13  14
ENDBRANCH   9  12
ENDBRANCH   4   7
BRANCH   1  20
ATOM     20  S   UNL d   1       1.032   0.475   0.077  0.00  0.00     0.282 S 
ATOM     21  O   UNL d   1       0.744   0.675  -1.326  0.00  0.00    -0.198 OA
ATOM     22  O   UNL d   1       0.331  -0.546   0.848  0.00  0.00    -0.198 OA
BRANCH  20  23
ATOM     23  C   UNL d   1       2.774   0.204   0.267  0.00  0.00     0.081 A 
ATOM     24  C   UNL d   1       3.249  -0.912   0.974  0.00  0.00     0.027 A 
ATOM     25  C   UNL d   1       4.628  -1.141   1.058  0.00  0.00     0.025 A 
ATOM     26  C   UNL d   1       5.516  -0.268   0.429  0.00  0.00     0.034 A 
ATOM     27  C   UNL d   1       5.039   0.825  -0.294  0.00  0.00     0.025 A 
ATOM     28 CL   UNL d   1       7.211  -0.548   0.534  0.00  0.00    -0.084 Cl
ATOM     29  C   UNL d   1       3.665   1.060  -0.381  0.00  0.00     0.027 A 
ENDBRANCH  20  23
ENDBRANCH   1  20
TORSDOF 5
