REMARK  5 active torsions:
REMARK  status: ('A' for Active; 'I' for Inactive)
REMARK    1  A    between atoms: N_2  and  S_1 
REMARK    2  A    between atoms: C_12  and  S_1 
REMARK    3  A    between atoms: C_13  and  C_5 
REMARK    4  A    between atoms: C_8  and  C_14 
REMARK    5  A    between atoms: C_17  and  C_9 
ROOT
ATOM      1  N   UNL d   1       0.699  -0.804  -1.597  0.00  0.00    -0.188 N 
ATOM      2  N   UNL d   1       0.242  -0.180  -2.719  0.00  0.00    -0.284 N 
ATOM      3  HN  UNL d   1       0.351   0.801  -2.977  1.00  0.00     0.188 HD
ATOM      4  C   UNL d   1      -0.384  -1.147  -3.409  0.00  0.00     0.060 A 
ATOM      5  C   UNL d   1       0.357  -2.134  -1.559  0.00  0.00     0.131 A 
ATOM      6  C   UNL d   1      -0.302  -2.392  -2.734  0.00  0.00     0.052 A 
ENDROOT
BRANCH   4   7
ATOM      7  C   UNL d   1      -1.041  -0.902  -4.689  0.00  0.00    -0.008 A 
ATOM      8  C   UNL d   1      -0.559   0.085  -5.558  0.00  0.00     0.015 A 
ATOM      9  C   UNL d   1      -1.137   0.258  -6.819  0.00  0.00     0.021 A 
ATOM     10  C   UNL d   1      -2.216  -0.538  -7.208  0.00  0.00     0.018 A 
ATOM     11  C   UNL d   1      -2.723  -1.502  -6.336  0.00  0.00     0.021 A 
ATOM     12  C   UNL d   1      -2.138  -1.685  -5.082  0.00  0.00     0.015 A 
BRANCH  10  13
ATOM     13  C   UNL d   1      -2.803  -0.383  -8.500  0.00  0.00    -0.061 C 
ATOM     14  C   UNL d   1      -3.310  -0.295  -9.590  0.00  0.00    -0.061 C 
BRANCH  14  15
ATOM     15  C   UNL d   1      -3.910  -0.231 -10.884  0.00  0.00     0.018 A 
ATOM     16  C   UNL d   1      -3.390   0.627 -11.856  0.00  0.00     0.020 A 
ATOM     17  C   UNL d   1      -3.962   0.668 -13.130  0.00  0.00     0.001 A 
ATOM     18  C   UNL d   1      -5.054  -0.145 -13.432  0.00  0.00     0.000 A 
ATOM     19  C   UNL d   1      -5.580  -0.996 -12.461  0.00  0.00     0.001 A 
ATOM     20  C   UNL d   1      -5.010  -1.039 -11.187  0.00  0.00     0.020 A 
ENDBRANCH  14  15
ENDBRANCH  10  13
ENDBRANCH   4   7
BRANCH   1  21
ATOM     21  S   UNL d   1       1.555  -0.046  -0.293  0.00  0.00     0.282 S 
ATOM     22  O   UNL d   1       2.331   1.022  -0.894  0.00  0.00    -0.198 OA
ATOM     23  O   UNL d   1       2.187  -1.129   0.442  0.00  0.00    -0.198 OA
BRANCH  21  24
ATOM     24  C   UNL d   1       0.318   0.697   0.743  0.00  0.00     0.081 A 
ATOM     25  C   UNL d   1       0.201   0.289   2.078  0.00  0.00     0.025 A 
ATOM     26  C   UNL d   1      -0.667   0.970   2.935  0.00  0.00     0.002 A 
ATOM     27  C   UNL d   1      -1.408   2.055   2.465  0.00  0.00     0.000 A 
ATOM     28  C   UNL d   1      -1.286   2.462   1.136  0.00  0.00     0.002 A 
ATOM     29  C   UNL d   1      -0.422   1.786   0.271  0.00  0.00     0.025 A 
ENDBRANCH  21  24
ENDBRANCH   1  21
TORSDOF 5
