REMARK  1 active torsions:
REMARK  status: ('A' for Active; 'I' for Inactive)
REMARK    1  A    between atoms: C_6  and  C_1 
ROOT
ATOM      1  C   UNL d   1      -1.621  -1.478  -0.830  0.00  0.00     0.096 C 
ATOM      2  S   UNL d   1      -0.404  -1.822   0.494  0.00  0.00    -0.117 SA
ATOM      3  N   UNL d   1      -0.681   1.357   0.515  0.00  0.00    -0.326 N 
ATOM      4  C   UNL d   1      -1.886   0.923   0.028  0.00  0.00     0.223 C 
ATOM      5  C   UNL d   1      -1.862  -0.006  -1.158  0.00  0.00     0.123 C 
ATOM      6  C   UNL d   1       0.831  -0.577   0.162  0.00  0.00     0.028 A 
ATOM      7  C   UNL d   1       0.593   0.804   0.271  0.00  0.00     0.051 A 
ATOM      8  O   UNL d   1      -2.936   1.404   0.453  0.00  0.00    -0.273 OA
ATOM      9  C   UNL d   1       2.140  -1.036  -0.038  0.00  0.00     0.021 A 
ATOM     10  C   UNL d   1       1.669   1.697   0.203  0.00  0.00     0.031 A 
ATOM     11  C   UNL d   1       3.198  -0.137  -0.152  0.00  0.00     0.002 A 
ATOM     12  C   UNL d   1       2.963   1.229  -0.031  0.00  0.00     0.002 A 
ATOM     13  H   UNL d   1      -0.739   2.216   1.046  0.00  0.00     0.169 HD
ENDROOT
BRANCH   1  14
ATOM     14  C   UNL d   1      -1.297  -2.312  -2.072  0.00  0.00    -0.022 A 
ATOM     15  C   UNL d   1      -1.870  -3.578  -2.298  0.00  0.00     0.041 A 
ATOM     16 CL   UNL d   1      -2.941  -4.330  -1.167  0.00  0.00    -0.084 Cl
ATOM     17  C   UNL d   1      -1.582  -4.299  -3.465  0.00  0.00     0.024 A 
ATOM     18  C   UNL d   1      -0.711  -3.781  -4.420  0.00  0.00     0.002 A 
ATOM     19  C   UNL d   1      -0.099  -2.555  -4.199  0.00  0.00     0.001 A 
ATOM     20  C   UNL d   1      -0.376  -1.837  -3.032  0.00  0.00     0.010 A 
ENDBRANCH   1  14
TORSDOF 1
