REMARK  10 active torsions:
REMARK  status: ('A' for Active; 'I' for Inactive)
REMARK    1  A    between atoms: N_2  and  S_1 
REMARK    2  A    between atoms: C_3  and  S_1 
REMARK    3  A    between atoms: C_4  and  N_2 
REMARK    4  A    between atoms: C_12  and  N_2 
REMARK    5  A    between atoms: C_5  and  C_4 
REMARK    6  A    between atoms: C_8  and  C_9 
REMARK       I    between atoms: N_14  and  C_8 
REMARK    7  A    between atoms: C_9  and  C_12 
REMARK    8  A    between atoms: N_10  and  N_14 
REMARK    9  A    between atoms: C_23  and  C_21 
REMARK   10  A    between atoms: O_32  and  C_24 
ROOT
ATOM      1  N   UNL d   1       0.405   1.346   0.792  0.00  0.00    -0.200 NA
ENDROOT
BRANCH   1   2
ATOM      2  S   UNL d   1       0.928   2.852   0.153  0.00  0.00     0.244 S 
ATOM      3  O   UNL d   1       2.370   2.868   0.241  0.00  0.00    -0.206 OA
ATOM      4  O   UNL d   1       0.128   3.884   0.791  0.00  0.00    -0.206 OA
BRANCH   2   5
ATOM      5  C   UNL d   1       0.485   2.904  -1.564  0.00  0.00     0.074 A 
ATOM      6  C   UNL d   1      -0.862   2.895  -1.933  0.00  0.00     0.026 A 
ATOM      7  C   UNL d   1      -1.208   3.128  -3.267  0.00  0.00     0.025 A 
ATOM      8  C   UNL d   1      -0.211   3.377  -4.213  0.00  0.00     0.034 A 
ATOM      9  C   UNL d   1       1.134   3.373  -3.845  0.00  0.00     0.025 A 
ATOM     10 CL   UNL d   1      -0.644   3.726  -5.841  0.00  0.00    -0.084 Cl
ATOM     11  C   UNL d   1       1.487   3.134  -2.516  0.00  0.00     0.026 A 
ENDBRANCH   2   5
ENDBRANCH   1   2
BRANCH   1  12
ATOM     12  C   UNL d   1       0.811   0.167  -0.052  0.00  0.00     0.172 C 
BRANCH  12  13
ATOM     13  C   UNL d   1       0.266  -1.116   0.490  0.00  0.00     0.066 A 
ATOM     14  O   UNL d   1       1.188  -2.062   0.837  0.00  0.00    -0.326 OA
ATOM     15  C   UNL d   1       0.507  -3.124   1.340  0.00  0.00     0.142 A 
ATOM     16  C   UNL d   1      -0.846  -2.879   1.319  0.00  0.00     0.027 A 
ATOM     17  C   UNL d   1      -1.005  -1.586   0.763  0.00  0.00     0.036 A 
ENDBRANCH  12  13
ENDBRANCH   1  12
BRANCH   1  18
ATOM     18  C   UNL d   1       0.882   1.140   2.228  0.00  0.00     0.117 C 
BRANCH  18  19
ATOM     19  C   UNL d   1       0.531   2.239   3.221  0.00  0.00     0.120 C 
BRANCH  19  20
ATOM     20  C   UNL d   1      -0.938   2.232   3.561  0.00  0.00     0.237 C 
ATOM     21  N   UNL d   1      -1.700   3.145   2.846  0.00  0.00    -0.270 N 
ATOM     22  H   UNL d   1      -1.274   3.721   2.120  0.00  0.00     0.190 HD
ATOM     23  O   UNL d   1      -1.376   1.455   4.411  0.00  0.00    -0.272 OA
BRANCH  21  24
ATOM     24  N   UNL d   1      -3.030   3.229   3.118  0.00  0.00    -0.309 N 
ATOM     25  C   UNL d   1      -3.728   4.099   2.462  0.00  0.00     0.118 C 
ATOM     26  HN  UNL d   1      -3.464   2.625   3.817  1.00  0.00     0.186 HD
BRANCH  25  27
ATOM     27  C   UNL d   1      -5.184   4.223   2.711  0.00  0.00    -0.019 A 
ATOM     28  C   UNL d   1      -5.795   3.461   3.713  0.00  0.00     0.015 A 
ATOM     29  C   UNL d   1      -7.177   3.536   3.921  0.00  0.00     0.037 A 
ATOM     30  C   UNL d   1      -7.958   4.372   3.124  0.00  0.00     0.068 A 
ATOM     31  C   UNL d   1      -7.340   5.150   2.138  0.00  0.00     0.037 A 
ATOM     32  C   UNL d   1      -5.956   5.083   1.929  0.00  0.00     0.015 A 
BRANCH  30  33
ATOM     33  O   UNL d   1      -9.317   4.513   3.201  0.00  0.00    -0.356 OA
ATOM     34  C   UNL d   1      -9.996   3.702   4.154  0.00  0.00     0.210 C 
ENDBRANCH  30  33
ENDBRANCH  25  27
ENDBRANCH  21  24
ENDBRANCH  19  20
ENDBRANCH  18  19
ENDBRANCH   1  18
TORSDOF 10
