REMARK  10 active torsions:
REMARK  status: ('A' for Active; 'I' for Inactive)
REMARK    1  A    between atoms: C_7  and  C_1 
REMARK    2  A    between atoms: C_13  and  C_2 
REMARK    3  A    between atoms: C_5  and  C_11 
REMARK    4  A    between atoms: S_15  and  C_6 
REMARK    5  A    between atoms: O_25  and  C_7 
REMARK    6  A    between atoms: C_12  and  C_23 
REMARK       I    between atoms: N_14  and  C_12 
REMARK    7  A    between atoms: O_28  and  C_13 
REMARK    8  A    between atoms: O_29  and  C_13 
REMARK    9  A    between atoms: C_24  and  N_14 
REMARK   10  A    between atoms: C_23  and  S_15 
ROOT
ATOM      1  C   UNL d   1      -0.171  -1.598  -0.085  0.00  0.00     0.080 A 
ATOM      2  C   UNL d   1       1.039  -0.917  -0.003  0.00  0.00     0.085 A 
ATOM      3  N   UNL d   1       1.067   0.428   0.261  0.00  0.00    -0.335 N 
ATOM      4  HN  UNL d   1       1.957   0.916   0.355  1.00  0.00     0.168 HD
ATOM      5  C   UNL d   1      -0.085   1.094   0.393  0.00  0.00     0.144 A 
ATOM      6  N   UNL d   1      -1.287   0.547   0.251  0.00  0.00    -0.346 N 
ATOM      7  HN  UNL d   1      -2.145   1.096   0.314  1.00  0.00     0.167 HD
ATOM      8  C   UNL d   1      -1.297  -0.784   0.017  0.00  0.00     0.110 A 
ENDROOT
BRANCH   5   9
ATOM      9  S   UNL d   1       0.023   2.714   1.095  0.00  0.00    -0.085 SA
BRANCH   9  10
ATOM     10  C   UNL d   1      -0.747   2.319   2.697  0.00  0.00     0.185 C 
BRANCH  10  11
ATOM     11  C   UNL d   1      -0.148   1.083   3.364  0.00  0.00     0.231 C 
ATOM     12  N   UNL d   1       1.237   1.059   3.391  0.00  0.00    -0.327 N 
ATOM     13  H   UNL d   1       1.705   1.844   2.949  0.00  0.00     0.169 HD
ATOM     14  O   UNL d   1      -0.886   0.235   3.863  0.00  0.00    -0.272 OA
BRANCH  12  15
ATOM     15  C   UNL d   1       2.070   0.013   3.841  0.00  0.00     0.034 A 
ATOM     16  C   UNL d   1       1.596  -1.206   4.331  0.00  0.00     0.030 A 
ATOM     17  C   UNL d   1       2.486  -2.210   4.733  0.00  0.00     0.018 A 
ATOM     18  C   UNL d   1       3.870  -2.013   4.660  0.00  0.00     0.048 A 
ATOM     19  C   UNL d   1       4.345  -0.788   4.172  0.00  0.00     0.018 A 
ATOM     20  C   UNL d   1       3.453   0.211   3.762  0.00  0.00     0.030 A 
BRANCH  18  21
ATOM     21  C   UNL d   1       4.837  -3.088   5.091  0.00  0.00     0.417 C 
ATOM     22  F   UNL d   1       4.232  -4.231   5.519  0.00  0.00    -0.166 F 
ATOM     23  F   UNL d   1       5.670  -3.466   4.080  0.00  0.00    -0.166 F 
ATOM     24  F   UNL d   1       5.646  -2.687   6.111  0.00  0.00    -0.166 F 
ENDBRANCH  18  21
ENDBRANCH  12  15
ENDBRANCH  10  11
ENDBRANCH   9  10
ENDBRANCH   5   9
BRANCH   2  25
ATOM     25  C   UNL d   1       2.442  -1.521  -0.106  0.00  0.00     0.310 C 
BRANCH  25  26
ATOM     26  O   UNL d   1       2.494  -2.758  -0.828  0.00  0.00    -0.360 OA
ATOM     27  C   UNL d   1       3.768  -3.398  -0.675  0.00  0.00     0.205 C 
ENDBRANCH  25  26
BRANCH  25  28
ATOM     28  O   UNL d   1       3.398  -0.590  -0.640  0.00  0.00    -0.360 OA
ATOM     29  C   UNL d   1       3.195  -0.277  -2.015  0.00  0.00     0.205 C 
ENDBRANCH  25  28
ENDBRANCH   2  25
BRANCH   1  30
ATOM     30  C   UNL d   1      -0.484  -3.047  -0.196  0.00  0.00     0.179 C 
ATOM     31  O   UNL d   1      -1.631  -3.435  -0.358  0.00  0.00    -0.646 OA
BRANCH  30  32
ATOM     32  O   UNL d   1       0.506  -3.923   0.027  0.00  0.00    -0.773 OA
ATOM     33  H   UNL d   1       1.365  -3.641  -0.347  0.00  0.00     0.167 HD
ENDBRANCH  30  32
ENDBRANCH   1  30
TORSDOF 10
