REMARK  5 active torsions:
REMARK  status: ('A' for Active; 'I' for Inactive)
REMARK    1  A    between atoms: C_2  and  C_1 
REMARK       I    between atoms: N_3  and  C_1 
REMARK    2  A    between atoms: C_4  and  N_3 
REMARK    3  A    between atoms: S_7  and  C_5 
REMARK    4  A    between atoms: C_12  and  S_7 
REMARK    5  A    between atoms: C_17  and  C_12 
ROOT
ATOM      1  C   UNL d   1      -1.062   1.139  -0.323  0.00  0.00     0.052 A 
ATOM      2  C   UNL d   1      -1.617   1.856  -1.400  0.00  0.00     0.029 A 
ATOM      3  C   UNL d   1      -3.014   1.929  -1.522  0.00  0.00     0.044 A 
ATOM      4  C   UNL d   1      -1.908   0.516   0.607  0.00  0.00     0.032 A 
ATOM      5  C   UNL d   1      -3.841   1.308  -0.581  0.00  0.00     0.035 A 
ATOM      6  C   UNL d   1      -3.293   0.610   0.486  0.00  0.00     0.026 A 
ATOM      7 CL   UNL d   1      -5.552   1.420  -0.733  0.00  0.00    -0.084 Cl
ENDROOT
BRANCH   1   8
ATOM      8  N   UNL d   1       0.337   1.101  -0.137  0.00  0.00    -0.322 N 
ATOM      9  C   UNL d   1       1.024   0.035   0.408  0.00  0.00     0.257 C 
ATOM     10  O   UNL d   1       0.527  -1.045   0.727  0.00  0.00    -0.267 OA
ATOM     11  H   UNL d   1       0.864   1.853  -0.568  0.00  0.00     0.169 HD
BRANCH   9  12
ATOM     12  C   UNL d   1       2.495   0.170   0.493  0.00  0.00     0.054 A 
ATOM     13  C   UNL d   1       3.151   1.296   0.998  0.00  0.00     0.049 A 
ATOM     14 CL   UNL d   1       2.320   2.707   1.546  0.00  0.00    -0.083 Cl
ATOM     15  C   UNL d   1       4.546   1.294   1.112  0.00  0.00     0.025 A 
ATOM     16  C   UNL d   1       5.288   0.177   0.723  0.00  0.00     0.002 A 
ATOM     17  C   UNL d   1       4.642  -0.944   0.208  0.00  0.00     0.001 A 
ATOM     18  C   UNL d   1       3.252  -0.950   0.096  0.00  0.00     0.019 A 
ENDBRANCH   9  12
ENDBRANCH   1   8
BRANCH   2  19
ATOM     19  S   UNL d   1      -0.648   2.719  -2.648  0.00  0.00    -0.123 SA
BRANCH  19  20
ATOM     20  C   UNL d   1       0.479   1.405  -3.244  0.00  0.00     0.118 C 
BRANCH  20  21
ATOM     21  C   UNL d   1       1.224   1.809  -4.496  0.00  0.00    -0.049 A 
ATOM     22  C   UNL d   1       2.183   2.834  -4.462  0.00  0.00     0.008 A 
ATOM     23  C   UNL d   1       2.905   3.170  -5.609  0.00  0.00     0.001 A 
ATOM     24  C   UNL d   1       2.682   2.483  -6.800  0.00  0.00     0.000 A 
ATOM     25  C   UNL d   1       1.733   1.463  -6.846  0.00  0.00     0.001 A 
ATOM     26  C   UNL d   1       1.006   1.129  -5.701  0.00  0.00     0.008 A 
ENDBRANCH  20  21
ENDBRANCH  19  20
ENDBRANCH   2  19
TORSDOF 5
