REMARK  3 active torsions:
REMARK  status: ('A' for Active; 'I' for Inactive)
REMARK    1  A    between atoms: C_13  and  N_2 
REMARK    2  A    between atoms: C_20  and  C_10 
REMARK    3  A    between atoms: C_21  and  C_16 
ROOT
ATOM      1  C   UNL d   1      -1.261   0.891   0.146  0.00  0.00     0.103 A 
ATOM      2  N   UNL d   1      -3.536   0.144   0.134  0.00  0.00    -0.229 N 
ATOM      3  C   UNL d   1      -0.811  -0.399   0.243  0.00  0.00     0.073 A 
ATOM      4  C   UNL d   1      -2.662   1.259   0.132  0.00  0.00     0.275 C 
ATOM      5  C   UNL d   1       0.617  -0.527   0.098  0.00  0.00     0.041 A 
ATOM      6  C   UNL d   1      -3.099  -1.174   0.327  0.00  0.00     0.334 C 
ATOM      7  N   UNL d   1      -1.752  -1.387   0.419  0.00  0.00    -0.306 N 
ATOM      8  S   UNL d   1       0.011   2.003   0.029  0.00  0.00    -0.062 SA
ATOM      9  C   UNL d   1       1.165   0.746   0.011  0.00  0.00     0.103 A 
ATOM     10  C   UNL d   1       1.532  -1.621   0.001  0.00  0.00     0.018 A 
ATOM     11  N   UNL d   1       3.318   0.017  -0.166  0.00  0.00    -0.298 N 
ATOM     12  HN  UNL d   1       4.316   0.212  -0.235  1.00  0.00     0.187 HD
ATOM     13  N   UNL d   1       2.473   1.026  -0.099  0.00  0.00    -0.292 N 
ATOM     14  HN  UNL d   1       2.803   1.991  -0.130  1.00  0.00     0.187 HD
ATOM     15  C   UNL d   1       2.899  -1.278  -0.145  0.00  0.00     0.070 A 
ATOM     16  O   UNL d   1      -3.036   2.429   0.069  0.00  0.00    -0.266 OA
ATOM     17  O   UNL d   1      -3.839  -2.158   0.450  0.00  0.00    -0.246 OA
ATOM     18  H   UNL d   1      -1.472  -2.347   0.596  0.00  0.00     0.171 HD
ENDROOT
BRANCH   2  19
ATOM     19  C   UNL d   1      -4.948   0.360  -0.003  0.00  0.00     0.049 A 
ATOM     20  C   UNL d   1      -5.701  -0.422  -0.892  0.00  0.00     0.054 A 
ATOM     21  C   UNL d   1      -7.079  -0.231  -1.008  0.00  0.00     0.036 A 
ATOM     22 CL   UNL d   1      -7.982  -1.168  -2.135  0.00  0.00    -0.084 Cl
ATOM     23  C   UNL d   1      -7.729   0.715  -0.221  0.00  0.00     0.024 A 
ATOM     24  C   UNL d   1      -6.993   1.491   0.673  0.00  0.00     0.004 A 
ATOM     25  C   UNL d   1      -5.607   1.327   0.768  0.00  0.00     0.030 A 
ENDBRANCH   2  19
BRANCH  10  26
ATOM     26  C   UNL d   1       1.015  -3.006   0.034  0.00  0.00    -0.023 A 
ATOM     27  C   UNL d   1       0.040  -3.435  -0.885  0.00  0.00     0.012 A 
ATOM     28  C   UNL d   1      -0.495  -4.724  -0.829  0.00  0.00     0.001 A 
ATOM     29  C   UNL d   1       0.005  -5.641   0.088  0.00  0.00     0.000 A 
ATOM     30  C   UNL d   1       1.019  -5.263   0.962  0.00  0.00     0.001 A 
ATOM     31  C   UNL d   1       1.498  -3.950   0.956  0.00  0.00     0.012 A 
ENDBRANCH  10  26
BRANCH  15  32
ATOM     32  C   UNL d   1       4.014  -2.252  -0.279  0.00  0.00    -0.007 A 
ATOM     33  C   UNL d   1       3.916  -3.415  -1.064  0.00  0.00     0.014 A 
ATOM     34  C   UNL d   1       4.936  -4.371  -1.090  0.00  0.00     0.001 A 
ATOM     35  C   UNL d   1       6.111  -4.156  -0.378  0.00  0.00     0.000 A 
ATOM     36  C   UNL d   1       6.269  -2.979   0.347  0.00  0.00     0.001 A 
ATOM     37  C   UNL d   1       5.232  -2.041   0.397  0.00  0.00     0.014 A 
ENDBRANCH  15  32
TORSDOF 3
