REMARK  7 active torsions:
REMARK  status: ('A' for Active; 'I' for Inactive)
REMARK    1  A    between atoms: C_2  and  S_1 
REMARK    2  A    between atoms: N_3  and  S_1 
REMARK    3  A    between atoms: C_11  and  N_3 
REMARK    4  A    between atoms: O_9  and  C_4 
REMARK    5  A    between atoms: C_6  and  C_11 
REMARK    6  A    between atoms: C_18  and  O_9 
REMARK    7  A    between atoms: O_19  and  C_12 
ROOT
ATOM      1  C   UNL d   1       0.507   1.596   0.150  0.00  0.00     0.077 A 
ATOM      2  C   UNL d   1      -1.105   3.026   1.296  0.00  0.00     0.104 A 
ATOM      3  C   UNL d   1      -0.603   1.753   0.987  0.00  0.00     0.064 A 
ATOM      4  C   UNL d   1      -0.468   4.155   0.751  0.00  0.00     0.101 A 
ATOM      5  C   UNL d   1       1.156   2.714  -0.368  0.00  0.00     0.028 A 
ATOM      6  C   UNL d   1       0.656   3.980  -0.079  0.00  0.00     0.041 A 
ENDROOT
BRANCH   1   7
ATOM      7  S   UNL d   1       1.141  -0.044  -0.142  0.00  0.00     0.241 S 
ATOM      8  O   UNL d   1       0.229  -0.967   0.497  0.00  0.00    -0.206 OA
ATOM      9  O   UNL d   1       2.554  -0.026   0.171  0.00  0.00    -0.206 OA
BRANCH   7  10
ATOM     10  N   UNL d   1       0.953  -0.277  -1.797  0.00  0.00    -0.209 NA
ATOM     11  H   UNL d   1       0.052   0.045  -2.153  0.00  0.00     0.140 HD
BRANCH  10  12
ATOM     12  C   UNL d   1       2.084   0.122  -2.643  0.00  0.00     0.169 C 
BRANCH  12  13
ATOM     13  C   UNL d   1       1.724  -0.105  -4.066  0.00  0.00     0.066 A 
ATOM     14  O   UNL d   1       0.653   0.593  -4.547  0.00  0.00    -0.326 OA
ATOM     15  C   UNL d   1       0.535   0.275  -5.862  0.00  0.00     0.142 A 
ATOM     16  C   UNL d   1       1.514  -0.616  -6.234  0.00  0.00     0.027 A 
ATOM     17  C   UNL d   1       2.280  -0.869  -5.072  0.00  0.00     0.036 A 
ENDBRANCH  12  13
ENDBRANCH  10  12
ENDBRANCH   7  10
ENDBRANCH   1   7
BRANCH   2  18
ATOM     18  O   UNL d   1      -2.155   3.203   2.159  0.00  0.00    -0.343 OA
BRANCH  18  19
ATOM     19  C   UNL d   1      -3.111   2.153   2.313  0.00  0.00     0.129 C 
ATOM     20  C   UNL d   1      -3.946   1.943   1.052  0.00  0.00     0.032 C 
ATOM     21  C   UNL d   1      -5.339   1.540   1.518  0.00  0.00     0.002 C 
ATOM     22  C   UNL d   1      -5.402   1.810   3.016  0.00  0.00     0.002 C 
ATOM     23  C   UNL d   1      -4.134   2.571   3.367  0.00  0.00     0.032 C 
ENDBRANCH  18  19
ENDBRANCH   2  18
BRANCH   4  24
ATOM     24  O   UNL d   1      -0.784   5.479   0.905  0.00  0.00    -0.353 OA
ATOM     25  C   UNL d   1      -1.873   5.833   1.742  0.00  0.00     0.210 C 
ENDBRANCH   4  24
TORSDOF 7
