REMARK  4 active torsions:
REMARK  status: ('A' for Active; 'I' for Inactive)
REMARK    1  A    between atoms: N_2  and  C_1 
REMARK    2  A    between atoms: S_9  and  C_3 
REMARK    3  A    between atoms: N_13  and  C_6 
REMARK    4  A    between atoms: C_14  and  S_9 
ROOT
ATOM      1  C   UNL d   1      -0.239  -1.490   0.379  0.00  0.00     0.174 A 
ATOM      2  C   UNL d   1       1.020  -0.954   0.176  0.00  0.00     0.107 A 
ATOM      3  N   UNL d   1       1.173   0.342  -0.177  0.00  0.00    -0.345 N 
ATOM      4  HN  UNL d   1       2.094   0.749  -0.334  1.00  0.00     0.167 HD
ATOM      5  C   UNL d   1      -1.355  -0.684   0.203  0.00  0.00     0.117 A 
ATOM      6  N   UNL d   1      -1.192   0.605  -0.161  0.00  0.00    -0.341 N 
ATOM      7  HN  UNL d   1      -1.996   1.212  -0.318  1.00  0.00     0.167 HD
ATOM      8  C   UNL d   1       0.058   1.062  -0.311  0.00  0.00     0.182 A 
ENDROOT
BRANCH   2   9
ATOM      9  S   UNL d   1       2.545  -1.892   0.305  0.00  0.00    -0.106 SA
BRANCH   9  10
ATOM     10  C   UNL d   1       3.763  -0.566   0.698  0.00  0.00     0.045 C 
ATOM     11  C   UNL d   1       3.504   0.006   2.090  0.00  0.00     0.021 C 
ATOM     12  C   UNL d   1       5.178  -1.144   0.632  0.00  0.00     0.021 C 
ENDBRANCH   9  10
ENDBRANCH   2   9
BRANCH   1  13
ATOM     13  N   UNL d   1      -0.388  -2.828   0.853  0.00  0.00    -0.109 N 
ATOM     14  O   UNL d   1      -0.074  -3.038   2.038  0.00  0.00    -0.532 OA
ATOM     15  O   UNL d   1      -0.859  -3.670   0.083  0.00  0.00    -0.532 OA
ENDBRANCH   1  13
BRANCH   5  16
ATOM     16  N   UNL d   1      -2.666  -1.154   0.351  0.00  0.00    -0.281 NA
ATOM     17  C   UNL d   1      -3.751  -0.222   0.076  0.00  0.00     0.114 C 
ATOM     18  H   UNL d   1      -2.812  -1.678   1.211  0.00  0.00     0.128 HD
ENDBRANCH   5  16
TORSDOF 4
