REMARK  6 active torsions:
REMARK  status: ('A' for Active; 'I' for Inactive)
REMARK    1  A    between atoms: N_2  and  S_1 
REMARK    2  A    between atoms: C_3  and  S_1 
REMARK    3  A    between atoms: C_6  and  N_2 
REMARK    4  A    between atoms: C_9  and  N_2 
REMARK    5  A    between atoms: C_14  and  C_6 
REMARK    6  A    between atoms: N_8  and  C_7 
ROOT
ATOM      1  N   UNL d   1       0.414  -0.837   1.099  0.00  0.00    -0.298 N 
ENDROOT
BRANCH   1   2
ATOM      2  S   UNL d   1       1.021  -0.011  -0.299  0.00  0.00     0.261 S 
ATOM      3  O   UNL d   1       2.404   0.326  -0.026  0.00  0.00    -0.200 OA
ATOM      4  O   UNL d   1       0.108   1.004  -0.770  0.00  0.00    -0.200 OA
BRANCH   2   5
ATOM      5  C   UNL d   1       1.031  -1.243  -1.588  0.00  0.00     0.079 A 
ATOM      6  C   UNL d   1      -0.170  -1.813  -2.014  0.00  0.00     0.028 A 
ATOM      7  C   UNL d   1      -0.148  -2.790  -3.013  0.00  0.00     0.044 A 
ATOM      8  C   UNL d   1       1.069  -3.164  -3.584  0.00  0.00     0.116 A 
ATOM      9  C   UNL d   1       2.265  -2.572  -3.187  0.00  0.00     0.044 A 
ATOM     10  F   UNL d   1       1.087  -4.104  -4.535  0.00  0.00    -0.206 F 
ATOM     11  C   UNL d   1       2.246  -1.603  -2.188  0.00  0.00     0.028 A 
ENDBRANCH   2   5
ENDBRANCH   1   2
BRANCH   1  12
ATOM     12  C   UNL d   1      -1.052  -0.715   1.391  0.00  0.00     0.174 C 
BRANCH  12  13
ATOM     13  C   UNL d   1      -1.681   0.662   1.369  0.00  0.00    -0.040 A 
ATOM     14  C   UNL d   1      -2.977   0.834   0.867  0.00  0.00     0.011 A 
ATOM     15  C   UNL d   1      -3.544   2.113   0.756  0.00  0.00     0.030 A 
ATOM     16  C   UNL d   1      -2.840   3.263   1.135  0.00  0.00     0.029 A 
ATOM     17  C   UNL d   1      -1.583   3.061   1.731  0.00  0.00     0.030 A 
ATOM     18  C   UNL d   1      -1.016   1.786   1.864  0.00  0.00     0.011 A 
BRANCH  16  19
ATOM     19  N   UNL d   1      -3.338   4.566   0.982  0.00  0.00    -0.390 N 
ATOM     20  C   UNL d   1      -2.458   5.473   0.231  0.00  0.00     0.149 C 
ATOM     21  C   UNL d   1      -4.756   4.744   0.673  0.00  0.00     0.149 C 
ENDBRANCH  16  19
ENDBRANCH  12  13
ENDBRANCH   1  12
BRANCH   1  22
ATOM     22  C   UNL d   1       0.989  -2.221   1.378  0.00  0.00     0.088 C 
ATOM     23  C   UNL d   1       2.518  -2.239   1.426  0.00  0.00     0.032 C 
ATOM     24  C   UNL d   1       0.498  -2.819   2.704  0.00  0.00     0.032 C 
ENDBRANCH   1  22
TORSDOF 6
