REMARK  5 active torsions:
REMARK  status: ('A' for Active; 'I' for Inactive)
REMARK       I    between atoms: C_2  and  N_1 
REMARK    1  A    between atoms: C_8  and  C_2 
REMARK    2  A    between atoms: C_5  and  C_3 
REMARK    3  A    between atoms: C_6  and  C_5 
REMARK       I    between atoms: N_9  and  C_6 
REMARK    4  A    between atoms: C_20  and  N_9 
REMARK    5  A    between atoms: C_11  and  C_12 
ROOT
ATOM      1  N   UNL d   1      -1.398  -1.158   0.303  0.00  0.00    -0.333 N 
ATOM      2  C   UNL d   1      -2.180  -2.091   0.992  0.00  0.00     0.254 C 
ATOM      3  C   UNL d   1       0.096  -1.179   0.367  0.00  0.00     0.188 C 
ATOM      4  C   UNL d   1       0.643   0.091   1.079  0.00  0.00     0.241 C 
ATOM      5  N   UNL d   1      -0.035   1.270   0.858  0.00  0.00    -0.358 N 
ATOM      6  O   UNL d   1      -1.701  -3.002   1.669  0.00  0.00    -0.267 OA
ATOM      7  O   UNL d   1       1.722   0.144   1.661  0.00  0.00    -0.271 OA
ATOM      8  C   UNL d   1      -1.901   0.101  -0.278  0.00  0.00     0.147 C 
ATOM      9  C   UNL d   1      -1.444   1.300   0.549  0.00  0.00     0.142 C 
ATOM     10  H   UNL d   1       0.373   2.059   1.348  0.00  0.00     0.162 HD
ENDROOT
BRANCH   2  11
ATOM     11  C   UNL d   1      -3.669  -2.030   0.971  0.00  0.00     0.032 A 
ATOM     12  C   UNL d   1      -4.418  -1.727  -0.165  0.00  0.00     0.017 A 
ATOM     13  C   UNL d   1      -5.808  -1.589  -0.075  0.00  0.00     0.009 A 
ATOM     14  C   UNL d   1      -6.500  -1.850   1.123  0.00  0.00    -0.051 A 
ATOM     15  C   UNL d   1      -5.740  -2.276   2.223  0.00  0.00     0.009 A 
ATOM     16  C   UNL d   1      -4.345  -2.356   2.151  0.00  0.00     0.017 A 
BRANCH  14  17
ATOM     17  C   UNL d   1      -8.025  -1.659   1.200  0.00  0.00    -0.024 C 
ATOM     18  C   UNL d   1      -8.640  -2.131   2.537  0.00  0.00     0.019 C 
ATOM     19  C   UNL d   1      -8.355  -0.159   1.044  0.00  0.00     0.019 C 
ATOM     20  C   UNL d   1      -8.724  -2.450   0.074  0.00  0.00     0.019 C 
ENDBRANCH  14  17
ENDBRANCH   2  11
BRANCH   3  21
ATOM     21  C   UNL d   1       0.821  -2.413   0.922  0.00  0.00     0.138 C 
BRANCH  21  22
ATOM     22  C   UNL d   1       0.734  -3.581  -0.033  0.00  0.00     0.224 C 
ATOM     23  N   UNL d   1       0.242  -4.738   0.545  0.00  0.00    -0.327 N 
ATOM     24  H   UNL d   1      -0.303  -4.595   1.393  0.00  0.00     0.169 HD
ATOM     25  O   UNL d   1       1.109  -3.454  -1.199  0.00  0.00    -0.273 OA
BRANCH  23  26
ATOM     26  C   UNL d   1       0.145  -6.002  -0.074  0.00  0.00     0.034 A 
ATOM     27  C   UNL d   1       0.829  -6.331  -1.249  0.00  0.00     0.032 A 
ATOM     28  C   UNL d   1       0.630  -7.569  -1.867  0.00  0.00     0.044 A 
ATOM     29  C   UNL d   1      -0.240  -8.486  -1.296  0.00  0.00     0.116 A 
ATOM     30  C   UNL d   1      -0.885  -8.204  -0.098  0.00  0.00     0.044 A 
ATOM     31  F   UNL d   1      -0.460  -9.657  -1.907  0.00  0.00    -0.206 F 
ATOM     32  C   UNL d   1      -0.685  -6.964   0.520  0.00  0.00     0.032 A 
ENDBRANCH  23  26
ENDBRANCH  21  22
ENDBRANCH   3  21
TORSDOF 5
