REMARK  4 active torsions:
REMARK  status: ('A' for Active; 'I' for Inactive)
REMARK    1  A    between atoms: C_11  and  C_2 
REMARK    2  A    between atoms: C_13  and  C_9 
REMARK    3  A    between atoms: C_15  and  C_12 
REMARK    4  A    between atoms: O_27  and  C_24 
ROOT
ATOM      1  N   UNL d   1       0.322   0.640   0.073  0.00  0.00    -0.235 N 
ATOM      2  C   UNL d   1      -0.801   1.459   0.066  0.00  0.00     0.144 A 
ATOM      3  C   UNL d   1       0.176  -0.751   0.011  0.00  0.00     0.130 A 
ATOM      4  N   UNL d   1       1.630   0.985   0.116  0.00  0.00    -0.291 N 
ATOM      5  HN  UNL d   1       2.017   1.924   0.212  1.00  0.00     0.187 HD
ATOM      6  N   UNL d   1      -1.043  -1.365   0.010  0.00  0.00    -0.340 N 
ATOM      7  HN  UNL d   1      -1.128  -2.381  -0.018  1.00  0.00     0.167 HD
ATOM      8  C   UNL d   1       1.447  -1.271  -0.058  0.00  0.00     0.082 A 
ATOM      9  C   UNL d   1       2.308  -0.162   0.007  0.00  0.00     0.069 A 
ATOM     10  C   UNL d   1      -2.028   0.902   0.037  0.00  0.00     0.067 A 
ATOM     11  C   UNL d   1      -2.093  -0.595   0.045  0.00  0.00     0.046 A 
ENDROOT
BRANCH  11  12
ATOM     12  C   UNL d   1      -3.451  -1.212   0.070  0.00  0.00    -0.009 A 
ATOM     13  C   UNL d   1      -4.539  -0.600   0.705  0.00  0.00     0.016 A 
ATOM     14  C   UNL d   1      -5.800  -1.212   0.704  0.00  0.00     0.037 A 
ATOM     15  C   UNL d   1      -5.979  -2.447   0.081  0.00  0.00     0.068 A 
ATOM     16  C   UNL d   1      -4.896  -3.061  -0.548  0.00  0.00     0.037 A 
ATOM     17  C   UNL d   1      -3.635  -2.458  -0.544  0.00  0.00     0.016 A 
BRANCH  15  18
ATOM     18  O   UNL d   1      -7.163  -3.123  -0.006  0.00  0.00    -0.356 OA
ATOM     19  C   UNL d   1      -8.096  -2.878   1.041  0.00  0.00     0.210 C 
ENDBRANCH  15  18
ENDBRANCH  11  12
BRANCH   2  20
ATOM     20  C   UNL d   1      -0.627   2.932   0.055  0.00  0.00     0.434 C 
ATOM     21  F   UNL d   1       0.639   3.402   0.004  0.00  0.00    -0.165 F 
ATOM     22  F   UNL d   1      -1.279   3.479  -1.010  0.00  0.00    -0.165 F 
ATOM     23  F   UNL d   1      -1.201   3.488   1.158  0.00  0.00    -0.165 F 
ENDBRANCH   2  20
BRANCH   9  24
ATOM     24  C   UNL d   1       3.807  -0.188  -0.042  0.00  0.00     0.033 A 
ATOM     25  S   UNL d   1       4.743  -1.595  -0.287  0.00  0.00    -0.100 SA
ATOM     26  C   UNL d   1       6.206  -0.709  -0.239  0.00  0.00     0.050 A 
ATOM     27  C   UNL d   1       5.989   0.632  -0.016  0.00  0.00     0.008 A 
ATOM     28  C   UNL d   1       4.600   0.935   0.096  0.00  0.00     0.021 A 
ENDBRANCH   9  24
TORSDOF 4
