REMARK  7 active torsions:
REMARK  status: ('A' for Active; 'I' for Inactive)
REMARK       I    between atoms: C_3  and  N_6 
REMARK    1  A    between atoms: C_9  and  C_3 
REMARK    2  A    between atoms: C_5  and  C_9 
REMARK    3  A    between atoms: C_10  and  C_5 
REMARK    4  A    between atoms: C_15  and  C_5 
REMARK    5  A    between atoms: N_6  and  C_11 
REMARK    6  A    between atoms: C_7  and  C_10 
REMARK    7  A    between atoms: O_20  and  C_7 
ROOT
ATOM      1  C   UNL d   1       5.109  -0.003   0.632  0.00  0.00     0.222 C 
ATOM      2  N   UNL d   1       6.170   0.895   0.573  0.00  0.00    -0.327 N 
ATOM      3  O   UNL d   1       4.017   0.248   1.130  0.00  0.00    -0.273 OA
ATOM      4  H   UNL d   1       7.032   0.585   0.139  0.00  0.00     0.169 HD
ENDROOT
BRANCH   1   5
ATOM      5  C   UNL d   1       5.356  -1.397   0.044  0.00  0.00     0.113 C 
BRANCH   5   6
ATOM      6  C   UNL d   1       3.982  -2.044  -0.310  0.00  0.00     0.037 C 
BRANCH   6   7
ATOM      7  C   UNL d   1       3.277  -1.415  -1.532  0.00  0.00     0.119 C 
BRANCH   7   8
ATOM      8  C   UNL d   1       4.061  -1.380  -2.822  0.00  0.00     0.140 C 
ATOM      9  O   UNL d   1       5.203  -1.776  -2.985  0.00  0.00    -0.650 OA
BRANCH   8  10
ATOM     10  O   UNL d   1       3.355  -0.799  -3.824  0.00  0.00    -0.776 OA
ATOM     11  H   UNL d   1       2.458  -0.515  -3.560  0.00  0.00     0.167 HD
ENDBRANCH   8  10
ENDBRANCH   7   8
ENDBRANCH   6   7
BRANCH   6  12
ATOM     12  C   UNL d   1       3.872  -3.563  -0.309  0.00  0.00    -0.053 A 
ATOM     13  C   UNL d   1       2.762  -4.138   0.351  0.00  0.00     0.007 A 
ATOM     14  C   UNL d   1       2.563  -5.518   0.381  0.00  0.00     0.001 A 
ATOM     15  C   UNL d   1       3.470  -6.353  -0.258  0.00  0.00     0.000 A 
ATOM     16  C   UNL d   1       4.566  -5.804  -0.926  0.00  0.00     0.001 A 
ATOM     17  C   UNL d   1       4.768  -4.416  -0.956  0.00  0.00     0.007 A 
ENDBRANCH   6  12
ENDBRANCH   5   6
ENDBRANCH   1   5
BRANCH   2  18
ATOM     18  C   UNL d   1       6.120   2.247   1.028  0.00  0.00     0.035 A 
ATOM     19  C   UNL d   1       4.981   2.806   1.617  0.00  0.00     0.032 A 
ATOM     20  C   UNL d   1       4.939   4.146   2.003  0.00  0.00     0.033 A 
ATOM     21  C   UNL d   1       6.021   4.980   1.845  0.00  0.00     0.042 A 
ATOM     22  N   UNL d   1       5.881   6.254   2.234  0.00  0.00    -0.359 N 
ATOM     23  C   UNL d   1       7.202   4.448   1.294  0.00  0.00    -0.007 A 
ATOM     24  C   UNL d   1       6.930   7.093   2.107  0.00  0.00     0.005 A 
ATOM     25  HN  UNL d   1       4.996   6.585   2.619  1.00  0.00     0.166 HD
ATOM     26  C   UNL d   1       8.155   6.667   1.610  0.00  0.00     0.025 A 
ATOM     27  C   UNL d   1       6.714   8.502   2.567  0.00  0.00     0.068 C 
ATOM     28  C   UNL d   1       8.287   5.338   1.194  0.00  0.00     0.015 A 
ATOM     29  C   UNL d   1       7.239   3.082   0.880  0.00  0.00     0.043 A 
ENDBRANCH   2  18
TORSDOF 7
