REMARK  4 active torsions:
REMARK  status: ('A' for Active; 'I' for Inactive)
REMARK    1  A    between atoms: C_2  and  C_1 
REMARK       I    between atoms: N_3  and  C_1 
REMARK    2  A    between atoms: C_7  and  N_3 
REMARK    3  A    between atoms: C_4  and  C_6 
REMARK    4  A    between atoms: O_14  and  C_4 
ROOT
ATOM      1  C   UNL d   1      -3.354  -0.637   0.753  0.00  0.00     0.039 A 
ATOM      2  C   UNL d   1      -1.237   0.522   1.031  0.00  0.00     0.036 A 
ATOM      3  C   UNL d   1      -1.956  -0.650   0.783  0.00  0.00     0.048 A 
ATOM      4  C   UNL d   1      -4.043   0.539   1.058  0.00  0.00     0.018 A 
ATOM      5  C   UNL d   1      -3.333   1.696   1.380  0.00  0.00     0.003 A 
ATOM      6  C   UNL d   1      -1.934   1.687   1.369  0.00  0.00     0.029 A 
ENDROOT
BRANCH   2   7
ATOM      7  N   UNL d   1       0.170   0.587   0.935  0.00  0.00    -0.322 N 
ATOM      8  C   UNL d   1       0.980  -0.325   0.269  0.00  0.00     0.263 C 
ATOM      9  O   UNL d   1       0.543  -1.313  -0.322  0.00  0.00    -0.267 OA
ATOM     10  H   UNL d   1       0.623   1.438   1.248  0.00  0.00     0.169 HD
BRANCH   8  11
ATOM     11  C   UNL d   1       2.407  -0.026   0.257  0.00  0.00     0.072 A 
ATOM     12  S   UNL d   1       3.086   1.346   1.024  0.00  0.00    -0.097 SA
ATOM     13  C   UNL d   1       4.668   0.929   0.520  0.00  0.00     0.050 A 
ATOM     14  C   UNL d   1       4.688  -0.234  -0.215  0.00  0.00     0.009 A 
ATOM     15  C   UNL d   1       3.384  -0.784  -0.365  0.00  0.00     0.025 A 
ENDBRANCH   8  11
ENDBRANCH   2   7
BRANCH   1  16
ATOM     16  C   UNL d   1      -4.130  -1.857   0.423  0.00  0.00     0.176 C 
ATOM     17  O   UNL d   1      -5.243  -2.068   0.873  0.00  0.00    -0.646 OA
BRANCH  16  18
ATOM     18  O   UNL d   1      -3.521  -2.679  -0.457  0.00  0.00    -0.773 OA
ATOM     19  H   UNL d   1      -2.692  -2.345  -0.852  0.00  0.00     0.167 HD
ENDBRANCH  16  18
ENDBRANCH   1  16
TORSDOF 4
