REMARK  5 active torsions:
REMARK  status: ('A' for Active; 'I' for Inactive)
REMARK    1  A    between atoms: O_17  and  C_2 
REMARK       I    between atoms: C_3  and  N_10 
REMARK    2  A    between atoms: C_5  and  C_3 
REMARK    3  A    between atoms: C_8  and  C_20 
REMARK       I    between atoms: N_15  and  C_8 
REMARK    4  A    between atoms: N_10  and  N_15 
REMARK    5  A    between atoms: C_20  and  O_17 
ROOT
ATOM      1  C   UNL d   1       2.182   4.915   0.091  0.00  0.00     0.260 C 
ATOM      2  N   UNL d   1       0.937   5.503   0.237  0.00  0.00    -0.265 N 
ATOM      3  O   UNL d   1       2.316   3.763  -0.325  0.00  0.00    -0.269 OA
ATOM      4  H   UNL d   1       0.774   6.357   0.769  0.00  0.00     0.190 HD
ENDROOT
BRANCH   1   5
ATOM      5  C   UNL d   1       3.365   5.814   0.431  0.00  0.00     0.281 C 
BRANCH   5   6
ATOM      6  O   UNL d   1       3.721   5.637   1.796  0.00  0.00    -0.326 OA
BRANCH   6   7
ATOM      7  C   UNL d   1       4.873   6.322   2.161  0.00  0.00     0.156 A 
ATOM      8  C   UNL d   1       5.329   6.151   3.472  0.00  0.00     0.042 A 
ATOM      9  C   UNL d   1       6.472   6.892   3.798  0.00  0.00     0.049 A 
ATOM     10  C   UNL d   1       4.726   5.313   4.436  0.00  0.00     0.020 A 
ATOM     11  N   UNL d   1       7.088   7.688   2.916  0.00  0.00    -0.351 N 
ATOM     12  C   UNL d   1       6.981   6.795   5.088  0.00  0.00     0.054 A 
ATOM     13  C   UNL d   1       6.559   7.756   1.686  0.00  0.00     0.182 A 
ATOM     14  HN  UNL d   1       7.922   8.219   3.169  1.00  0.00     0.166 HD
ATOM     15  N   UNL d   1       5.466   7.118   1.255  0.00  0.00    -0.332 N 
ATOM     16  HN  UNL d   1       5.107   7.227   0.306  1.00  0.00     0.168 HD
ATOM     17  C   UNL d   1       6.380   5.974   6.042  0.00  0.00     0.036 A 
ATOM     18  C   UNL d   1       5.254   5.226   5.722  0.00  0.00     0.025 A 
ATOM     19 CL   UNL d   1       7.037   5.888   7.630  0.00  0.00    -0.084 Cl
ENDBRANCH   6   7
ENDBRANCH   5   6
ENDBRANCH   1   5
BRANCH   2  20
ATOM     20  N   UNL d   1      -0.192   4.728  -0.074  0.00  0.00    -0.263 N 
ATOM     21  C   UNL d   1      -1.375   4.932   0.620  0.00  0.00     0.271 C 
ATOM     22  O   UNL d   1      -1.482   5.828   1.453  0.00  0.00    -0.266 OA
ATOM     23  H   UNL d   1      -0.035   3.965  -0.727  0.00  0.00     0.190 HD
BRANCH  21  24
ATOM     24  C   UNL d   1      -2.508   3.997   0.282  0.00  0.00     0.044 A 
ATOM     25  C   UNL d   1      -3.881   4.400   0.352  0.00  0.00    -0.010 A 
ATOM     26  C   UNL d   1      -4.878   3.447   0.006  0.00  0.00    -0.025 A 
ATOM     27  C   UNL d   1      -4.343   5.686   0.735  0.00  0.00     0.013 A 
ATOM     28  C   UNL d   1      -6.243   3.779   0.070  0.00  0.00     0.012 A 
ATOM     29  C   UNL d   1      -4.515   2.157  -0.402  0.00  0.00     0.012 A 
ATOM     30  C   UNL d   1      -6.656   5.044   0.474  0.00  0.00     0.001 A 
ATOM     31  C   UNL d   1      -5.706   5.999   0.802  0.00  0.00     0.001 A 
ATOM     32  C   UNL d   1      -3.180   1.771  -0.449  0.00  0.00     0.002 A 
ATOM     33  C   UNL d   1      -2.185   2.678  -0.095  0.00  0.00     0.018 A 
ENDBRANCH  21  24
ENDBRANCH   2  20
TORSDOF 5
