REMARK  6 active torsions:
REMARK  status: ('A' for Active; 'I' for Inactive)
REMARK    1  A    between atoms: N_4  and  C_1 
REMARK    2  A    between atoms: C_3  and  N_4 
REMARK    3  A    between atoms: C_14  and  N_7 
REMARK    4  A    between atoms: C_10  and  C_14 
REMARK    5  A    between atoms: C_16  and  C_10 
REMARK    6  A    between atoms: O_13  and  C_16 
ROOT
ATOM      1  N   UNL d   1       0.496  -0.571   1.306  0.00  0.00    -0.333 N 
ATOM      2  H   UNL d   1      -0.445  -0.926   1.174  0.00  0.00     0.168 HD
ENDROOT
BRANCH   1   3
ATOM      3  C   UNL d   1       0.754  -0.112   2.624  0.00  0.00     0.041 A 
ATOM      4  C   UNL d   1       0.235  -0.830   3.720  0.00  0.00    -0.013 A 
ATOM      5  C   UNL d   1       0.388  -0.283   5.011  0.00  0.00     0.042 A 
ATOM      6  C   UNL d   1      -0.414  -2.180   3.548  0.00  0.00     0.052 C 
ATOM      7 CL   UNL d   1      -0.240  -1.078   6.414  0.00  0.00    -0.084 Cl
ATOM      8  C   UNL d   1       1.056   0.928   5.207  0.00  0.00     0.024 A 
ATOM      9  C   UNL d   1       1.594   1.611   4.123  0.00  0.00     0.004 A 
ATOM     10  C   UNL d   1       1.446   1.091   2.837  0.00  0.00     0.030 A 
ENDBRANCH   1   3
BRANCH   1  11
ATOM     11  C   UNL d   1       1.110  -0.198   0.160  0.00  0.00     0.172 C 
ATOM     12  S   UNL d   1       0.215   0.095  -1.216  0.00  0.00    -0.041 SA
ATOM     13  N   UNL d   1       2.467  -0.157   0.087  0.00  0.00    -0.367 N 
ATOM     14  H   UNL d   1       2.802   0.100  -0.833  0.00  0.00     0.161 HD
BRANCH  13  15
ATOM     15  C   UNL d   1       3.388  -0.966   0.884  0.00  0.00     0.124 C 
BRANCH  15  16
ATOM     16  C   UNL d   1       3.631  -2.336   0.248  0.00  0.00     0.046 C 
BRANCH  16  17
ATOM     17  C   UNL d   1       4.612  -3.166   1.071  0.00  0.00     0.168 C 
BRANCH  17  18
ATOM     18  O   UNL d   1       4.061  -3.396   2.366  0.00  0.00    -0.396 OA
ATOM     19  C   UNL d   1       4.958  -4.109   3.206  0.00  0.00     0.201 C 
ENDBRANCH  17  18
ENDBRANCH  16  17
ENDBRANCH  15  16
ENDBRANCH  13  15
ENDBRANCH   1  11
TORSDOF 6
