REMARK  2 active torsions:
REMARK  status: ('A' for Active; 'I' for Inactive)
REMARK    1  A    between atoms: C_2  and  C_1 
REMARK       I    between atoms: N_5  and  C_2 
REMARK    2  A    between atoms: O_9  and  N_5 
ROOT
ATOM      1  C   UNL d   1       0.009   1.316   0.533  0.00  0.00     0.043 C 
ATOM      2  C   UNL d   1       0.024   0.091   1.451  0.00  0.00     0.024 C 
ATOM      3  C   UNL d   1       1.279   1.319  -0.342  0.00  0.00     0.019 C 
ATOM      4  C   UNL d   1      -1.293   1.325  -0.297  0.00  0.00     0.019 C 
ATOM      5  C   UNL d   1      -0.002  -1.182   0.618  0.00  0.00    -0.013 C 
ATOM      6  C   UNL d   1      -1.792  -0.008  -0.850  0.00  0.00     0.002 C 
ATOM      7  C   UNL d   1       1.731  -0.015  -0.932  0.00  0.00     0.002 C 
ATOM      8  C   UNL d   1      -1.306  -1.284  -0.172  0.00  0.00     0.005 C 
ATOM      9  C   UNL d   1       1.248  -1.293  -0.257  0.00  0.00     0.005 C 
ENDROOT
BRANCH   1  10
ATOM     10  C   UNL d   1       0.025   2.598   1.396  0.00  0.00     0.249 C 
ATOM     11  O   UNL d   1       0.032   2.605   2.617  0.00  0.00    -0.271 OA
ATOM     12  N   UNL d   1       0.039   3.775   0.676  0.00  0.00    -0.237 N 
ATOM     13  H   UNL d   1      -0.207   3.850  -0.302  0.00  0.00     0.197 HD
BRANCH  12  14
ATOM     14  O   UNL d   1      -0.026   4.965   1.435  0.00  0.00    -0.287 OA
ATOM     15  H   UNL d   1      -0.059   4.622   2.354  0.00  0.00     0.244 HD
ENDBRANCH  12  14
ENDBRANCH   1  10
TORSDOF 2
