REMARK  4 active torsions:
REMARK  status: ('A' for Active; 'I' for Inactive)
REMARK    1  A    between atoms: C_2  and  C_1 
REMARK       I    between atoms: N_3  and  C_1 
REMARK    2  A    between atoms: C_5  and  N_3 
REMARK    3  A    between atoms: C_10  and  C_5 
REMARK    4  A    between atoms: C_11  and  C_10 
ROOT
ATOM      1  C   UNL d   1       1.226   1.562  -0.181  0.00  0.00     0.259 C 
ATOM      2  N   UNL d   1       0.247   0.829   0.462  0.00  0.00    -0.348 N 
ATOM      3  O   UNL d   1       0.964   2.507  -0.913  0.00  0.00    -0.267 OA
ATOM      4  H   UNL d   1       0.578   0.059   1.031  0.00  0.00     0.163 HD
ENDROOT
BRANCH   2   5
ATOM      5  C   UNL d   1      -1.202   1.074   0.409  0.00  0.00     0.026 C 
ATOM      6  C   UNL d   1      -1.884   0.054   1.340  0.00  0.00     0.038 C 
ATOM      7  C   UNL d   1      -1.498   2.468   1.019  0.00  0.00     0.038 C 
BRANCH   5   8
ATOM      8  C   UNL d   1      -1.801   1.041  -1.040  0.00  0.00     0.038 C 
BRANCH   8   9
ATOM      9  C   UNL d   1      -1.675  -0.199  -1.987  0.00  0.00    -0.049 C 
ATOM     10  C   UNL d   1      -2.471  -1.421  -1.501  0.00  0.00     0.014 C 
ATOM     11  C   UNL d   1      -2.281   0.196  -3.358  0.00  0.00     0.014 C 
ATOM     12  C   UNL d   1      -0.217  -0.607  -2.234  0.00  0.00     0.014 C 
ENDBRANCH   8   9
ENDBRANCH   5   8
ENDBRANCH   2   5
BRANCH   1  13
ATOM     13  C   UNL d   1       2.599   1.121   0.057  0.00  0.00     0.072 A 
ATOM     14  S   UNL d   1       2.993  -0.089   1.209  0.00  0.00    -0.097 SA
ATOM     15  C   UNL d   1       4.668   0.052   0.892  0.00  0.00     0.050 A 
ATOM     16  C   UNL d   1       4.930   0.983  -0.087  0.00  0.00     0.009 A 
ATOM     17  C   UNL d   1       3.738   1.596  -0.569  0.00  0.00     0.025 A 
ENDBRANCH   1  13
TORSDOF 4
