REMARK  2 active torsions:
REMARK  status: ('A' for Active; 'I' for Inactive)
REMARK    1  A    between atoms: C_12  and  C_2 
REMARK    2  A    between atoms: C_16  and  C_11 
ROOT
ATOM      1  N   UNL d   1       2.483  -0.512  -0.038  0.00  0.00    -0.234 N 
ATOM      2  C   UNL d   1       1.529  -1.534  -0.026  0.00  0.00     0.150 A 
ATOM      3  C   UNL d   1       2.087   0.839  -0.033  0.00  0.00     0.130 A 
ATOM      4  C   UNL d   1       0.226  -1.191  -0.009  0.00  0.00     0.007 A 
ATOM      5  C   UNL d   1      -0.076   0.270  -0.011  0.00  0.00     0.053 A 
ATOM      6  N   UNL d   1       0.777   1.239  -0.022  0.00  0.00    -0.340 N 
ATOM      7  HN  UNL d   1       0.499   2.220  -0.023  1.00  0.00     0.167 HD
ATOM      8  N   UNL d   1       3.835  -0.607  -0.052  0.00  0.00    -0.291 N 
ATOM      9  HN  UNL d   1       4.386  -1.465  -0.071  1.00  0.00     0.187 HD
ATOM     10  C   UNL d   1       3.242   1.578  -0.033  0.00  0.00     0.082 A 
ATOM     11  C   UNL d   1       4.307   0.649  -0.036  0.00  0.00     0.062 A 
ATOM     12  C   UNL d   1      -1.060  -1.964   0.005  0.00  0.00     0.082 A 
ATOM     13  C   UNL d   1      -1.527   0.399  -0.002  0.00  0.00    -0.002 A 
ATOM     14  C   UNL d   1      -2.100  -0.878   0.004  0.00  0.00    -0.041 A 
ATOM     15  C   UNL d   1      -2.280   1.559  -0.004  0.00  0.00     0.014 A 
ATOM     16  C   UNL d   1      -3.478  -1.014   0.008  0.00  0.00     0.008 A 
ATOM     17  C   UNL d   1      -3.668   1.423   0.000  0.00  0.00     0.001 A 
ATOM     18  C   UNL d   1      -4.261   0.147   0.006  0.00  0.00     0.001 A 
ENDROOT
BRANCH  11  19
ATOM     19  C   UNL d   1       5.749   0.934  -0.014  0.00  0.00    -0.008 A 
ATOM     20  C   UNL d   1       6.688  -0.111  -0.014  0.00  0.00     0.015 A 
ATOM     21  C   UNL d   1       8.061   0.157   0.029  0.00  0.00     0.024 A 
ATOM     22  C   UNL d   1       8.509   1.474   0.072  0.00  0.00     0.034 A 
ATOM     23  C   UNL d   1       7.597   2.525   0.064  0.00  0.00     0.024 A 
ATOM     24 CL   UNL d   1      10.195   1.807   0.138  0.00  0.00    -0.084 Cl
ATOM     25  C   UNL d   1       6.224   2.256   0.021  0.00  0.00     0.015 A 
ENDBRANCH  11  19
BRANCH   2  26
ATOM     26  C   UNL d   1       1.964  -2.948  -0.030  0.00  0.00     0.435 C 
ATOM     27  F   UNL d   1       3.295  -3.179   0.022  0.00  0.00    -0.165 F 
ATOM     28  F   UNL d   1       1.421  -3.618   1.026  0.00  0.00    -0.165 F 
ATOM     29  F   UNL d   1       1.505  -3.588  -1.141  0.00  0.00    -0.165 F 
ENDBRANCH   2  26
TORSDOF 2
