REMARK  5 active torsions:
REMARK  status: ('A' for Active; 'I' for Inactive)
REMARK    1  A    between atoms: C_3  and  C_1 
REMARK    2  A    between atoms: N_7  and  C_2 
REMARK       I    between atoms: C_6  and  N_7 
REMARK       I    between atoms: N_10  and  C_6 
REMARK    3  A    between atoms: C_15  and  N_9 
REMARK    4  A    between atoms: C_18  and  N_10 
REMARK    5  A    between atoms: C_21  and  C_15 
ROOT
ATOM      1  C   UNL d   1       0.879  -2.708   1.027  0.00  0.00     0.321 C 
ATOM      2  N   UNL d   1       0.693  -4.004   1.350  0.00  0.00    -0.306 N 
ATOM      3  N   UNL d   1       2.104  -2.255   0.694  0.00  0.00    -0.338 N 
ATOM      4  O   UNL d   1      -0.128  -2.004   1.007  0.00  0.00    -0.247 OA
ATOM      5  H   UNL d   1      -0.307  -4.140   1.451  0.00  0.00     0.170 HD
ATOM      6  H   UNL d   1       2.851  -2.926   0.616  0.00  0.00     0.164 HD
ENDROOT
BRANCH   3   7
ATOM      7  C   UNL d   1       2.377  -0.934   0.128  0.00  0.00     0.089 C 
ATOM      8  C   UNL d   1       1.923  -0.842  -1.328  0.00  0.00     0.055 C 
ATOM      9  C   UNL d   1       2.277   0.518  -1.931  0.00  0.00     0.275 C 
ATOM     10  N   UNL d   1       1.831   1.655  -1.124  0.00  0.00     0.092 N 
ATOM     11  C   UNL d   1       2.197   1.567   0.293  0.00  0.00     0.275 C 
ATOM     12  C   UNL d   1       1.799   0.235   0.927  0.00  0.00     0.055 C 
BRANCH  10  13
ATOM     13  C   UNL d   1       2.184   2.958  -1.726  0.00  0.00     0.311 C 
BRANCH  13  14
ATOM     14  C   UNL d   1       3.635   3.393  -1.609  0.00  0.00    -0.030 A 
ATOM     15  C   UNL d   1       4.610   2.933  -2.506  0.00  0.00     0.009 A 
ATOM     16  C   UNL d   1       5.950   3.298  -2.354  0.00  0.00     0.001 A 
ATOM     17  C   UNL d   1       6.330   4.143  -1.313  0.00  0.00     0.000 A 
ATOM     18  C   UNL d   1       5.371   4.628  -0.428  0.00  0.00     0.001 A 
ATOM     19  C   UNL d   1       4.033   4.255  -0.574  0.00  0.00     0.009 A 
ENDBRANCH  13  14
ENDBRANCH  10  13
ENDBRANCH   3   7
BRANCH   2  20
ATOM     20  C   UNL d   1       1.429  -5.170   1.458  0.00  0.00     0.077 A 
ATOM     21  C   UNL d   1       2.771  -5.516   1.567  0.00  0.00     0.186 A 
ATOM     22  O   UNL d   1       2.877  -6.893   1.596  0.00  0.00    -0.308 OA
ATOM     23  C   UNL d   1       1.635  -7.424   1.547  0.00  0.00     0.052 A 
ATOM     24  C   UNL d   1       1.523  -8.894   1.545  0.00  0.00     0.077 C 
ATOM     25  C   UNL d   1       0.713  -6.411   1.501  0.00  0.00     0.064 A 
BRANCH  21  26
ATOM     26  C   UNL d   1       4.090  -4.856   1.718  0.00  0.00     0.441 C 
ATOM     27  F   UNL d   1       4.064  -3.521   1.491  0.00  0.00    -0.164 F 
ATOM     28  F   UNL d   1       4.604  -5.024   2.965  0.00  0.00    -0.164 F 
ATOM     29  F   UNL d   1       5.008  -5.358   0.848  0.00  0.00    -0.164 F 
ENDBRANCH  21  26
ENDBRANCH   2  20
TORSDOF 5
