REMARK  0 active torsions:
REMARK  status: ('A' for Active; 'I' for Inactive)
ROOT
ATOM      1  C   UNL d   1       0.017  -0.855   0.034  0.00  0.00     0.007 A 
ATOM      2  C   UNL d   1      -1.294  -1.470   0.087  0.00  0.00     0.018 A 
ATOM      3  C   UNL d   1       1.355  -1.417   0.002  0.00  0.00     0.018 A 
ATOM      4  C   UNL d   1      -0.012   0.577   0.004  0.00  0.00    -0.023 A 
ATOM      5  I   UNL d   1      -1.728  -3.515   0.440  0.00  0.00    -0.044 I 
ATOM      6  I   UNL d   1       1.871  -3.460  -0.239  0.00  0.00    -0.044 I 
ATOM      7  C   UNL d   1      -2.443   0.663  -0.075  0.00  0.00     0.002 A 
ATOM      8  C   UNL d   1       2.416   0.766   0.054  0.00  0.00     0.002 A 
ATOM      9  C   UNL d   1       2.513  -0.612   0.025  0.00  0.00     0.019 A 
ATOM     10  C   UNL d   1      -2.485  -0.715   0.009  0.00  0.00     0.019 A 
ATOM     11  C   UNL d   1      -1.215   1.298  -0.054  0.00  0.00     0.012 A 
ATOM     12  C   UNL d   1       1.161   1.349   0.029  0.00  0.00     0.012 A 
ENDROOT
TORSDOF 0
