REMARK  1 active torsions:
REMARK  status: ('A' for Active; 'I' for Inactive)
REMARK    1  A    between atoms: C_8  and  N_5 
ROOT
ATOM      1  C   UNL d   1      -2.008  -0.654  -1.173  0.00  0.00     0.146 C 
ATOM      2  N   UNL d   1      -2.404   0.352  -0.335  0.00  0.00    -0.356 N 
ATOM      3  S   UNL d   1      -0.767  -0.057  -2.277  0.00  0.00    -0.057 SA
ATOM      4  C   UNL d   1      -0.692   1.492  -1.476  0.00  0.00     0.005 C 
ATOM      5  N   UNL d   1      -2.509  -1.848  -1.117  0.00  0.00    -0.336 N 
ATOM      6  HN  UNL d   1      -3.238  -2.045  -0.430  1.00  0.00     0.168 HD
ATOM      7  C   UNL d   1      -1.874   1.700  -0.524  0.00  0.00     0.065 C 
ATOM      8  C   UNL d   1       0.342   2.317  -1.696  0.00  0.00     0.029 C 
ATOM      9  C   UNL d   1      -2.929   2.584  -1.217  0.00  0.00     0.036 C 
ATOM     10  C   UNL d   1      -1.448   2.273   0.846  0.00  0.00     0.036 C 
ATOM     11  C   UNL d   1      -2.628   2.699   1.723  0.00  0.00     0.003 C 
ATOM     12  C   UNL d   1      -4.081   2.995  -0.301  0.00  0.00     0.003 C 
ATOM     13  C   UNL d   1      -3.566   3.641   0.978  0.00  0.00     0.000 C 
ATOM     14  H   UNL d   1      -3.214   0.184   0.243  0.00  0.00     0.162 HD
ENDROOT
BRANCH   5  15
ATOM     15  C   UNL d   1      -2.082  -2.886  -1.970  0.00  0.00     0.040 A 
ATOM     16  C   UNL d   1      -3.013  -3.605  -2.743  0.00  0.00    -0.035 A 
ATOM     17  C   UNL d   1      -2.564  -4.638  -3.592  0.00  0.00     0.015 A 
ATOM     18  C   UNL d   1      -4.494  -3.370  -2.640  0.00  0.00     0.050 C 
ATOM     19  C   UNL d   1      -1.206  -4.966  -3.685  0.00  0.00    -0.061 A 
ATOM     20  C   UNL d   1      -0.297  -4.290  -2.873  0.00  0.00     0.009 A 
ATOM     21  C   UNL d   1      -0.752  -6.060  -4.604  0.00  0.00     0.048 C 
ATOM     22  C   UNL d   1      -0.738  -3.283  -2.011  0.00  0.00     0.030 A 
ENDBRANCH   5  15
TORSDOF 1
