REMARK  6 active torsions:
REMARK  status: ('A' for Active; 'I' for Inactive)
REMARK    1  A    between atoms: C_4  and  S_1 
REMARK    2  A    between atoms: N_9  and  S_1 
REMARK    3  A    between atoms: S_2  and  N_3 
REMARK    4  A    between atoms: C_5  and  S_2 
REMARK    5  A    between atoms: N_3  and  C_6 
REMARK    6  A    between atoms: N_10  and  C_11 
REMARK       I    between atoms: C_17  and  N_10 
ROOT
ATOM      1  S   UNL d   1       1.612   4.863  -3.855  0.00  0.00     0.263 S 
ATOM      2  O   UNL d   1       1.623   4.445  -5.239  0.00  0.00    -0.200 OA
ATOM      3  O   UNL d   1       1.656   6.264  -3.493  0.00  0.00    -0.200 OA
ENDROOT
BRANCH   1   4
ATOM      4  N   UNL d   1       0.231   4.241  -3.110  0.00  0.00    -0.280 N 
ATOM      5  H   UNL d   1      -0.157   4.865  -2.405  0.00  0.00     0.179 HD
BRANCH   4   6
ATOM      6  C   UNL d   1       0.021   2.841  -2.969  0.00  0.00     0.050 A 
ATOM      7  C   UNL d   1       0.467   2.229  -1.796  0.00  0.00     0.055 A 
ATOM      8  C   UNL d   1       0.270   0.861  -1.595  0.00  0.00     0.081 A 
ATOM      9  C   UNL d   1      -0.362   0.090  -2.567  0.00  0.00     0.026 A 
ATOM     10  C   UNL d   1      -0.845   0.710  -3.722  0.00  0.00     0.010 A 
ATOM     11  C   UNL d   1      -0.662   2.090  -3.938  0.00  0.00    -0.035 A 
ATOM     12  C   UNL d   1      -1.309   2.720  -5.142  0.00  0.00     0.050 C 
BRANCH   8  13
ATOM     13  S   UNL d   1       0.951   0.096  -0.137  0.00  0.00     0.260 S 
ATOM     14  O   UNL d   1       1.999   0.973   0.345  0.00  0.00    -0.200 OA
ATOM     15  O   UNL d   1       1.228  -1.287  -0.466  0.00  0.00    -0.200 OA
BRANCH  13  16
ATOM     16  N   UNL d   1      -0.325   0.137   0.982  0.00  0.00    -0.315 N 
ATOM     17  C   UNL d   1      -0.745   1.453   1.485  0.00  0.00     0.162 C 
ATOM     18  C   UNL d   1      -1.430  -0.814   0.787  0.00  0.00     0.162 C 
ENDBRANCH  13  16
ENDBRANCH   8  13
ENDBRANCH   4   6
ENDBRANCH   1   4
BRANCH   1  19
ATOM     19  C   UNL d   1       2.988   4.086  -3.041  0.00  0.00     0.081 A 
ATOM     20  C   UNL d   1       3.206   4.293  -1.677  0.00  0.00     0.051 A 
ATOM     21  C   UNL d   1       4.251   3.612  -1.042  0.00  0.00     0.062 A 
ATOM     22 CL   UNL d   1       4.443   3.839   0.665  0.00  0.00    -0.082 Cl
ATOM     23  C   UNL d   1       5.116   2.760  -1.761  0.00  0.00     0.056 A 
ATOM     24  C   UNL d   1       4.924   2.638  -3.141  0.00  0.00     0.033 A 
ATOM     25  C   UNL d   1       3.863   3.289  -3.779  0.00  0.00     0.027 A 
BRANCH  23  26
ATOM     26  N   UNL d   1       6.121   2.047  -1.059  0.00  0.00    -0.326 N 
ATOM     27  C   UNL d   1       7.052   1.169  -1.582  0.00  0.00     0.218 C 
ATOM     28  O   UNL d   1       7.212   0.893  -2.764  0.00  0.00    -0.274 OA
ATOM     29  C   UNL d   1       7.920   0.518  -0.534  0.00  0.00     0.117 C 
ATOM     30  H   UNL d   1       6.109   2.180  -0.052  0.00  0.00     0.169 HD
ENDBRANCH  23  26
ENDBRANCH   1  19
TORSDOF 6
