REMARK  4 active torsions:
REMARK  status: ('A' for Active; 'I' for Inactive)
REMARK    1  A    between atoms: C_9  and  N_1 
REMARK    2  A    between atoms: C_12  and  N_2 
REMARK    3  A    between atoms: C_16  and  C_12 
REMARK    4  A    between atoms: C_25  and  C_17 
ROOT
ATOM      1  N   UNL d   1       0.908  -1.390   0.095  0.00  0.00    -0.246 N 
ATOM      2  N   UNL d   1       2.076   0.706   0.015  0.00  0.00    -0.260 N 
ATOM      3  C   UNL d   1       2.133  -0.704   0.124  0.00  0.00     0.338 A 
ATOM      4  C   UNL d   1      -0.277  -0.690  -0.010  0.00  0.00     0.150 A 
ATOM      5  C   UNL d   1      -0.269   0.671  -0.069  0.00  0.00     0.147 A 
ATOM      6  C   UNL d   1       0.906   1.461  -0.084  0.00  0.00     0.282 A 
ATOM      7  N   UNL d   1      -1.557  -1.171  -0.024  0.00  0.00    -0.336 N 
ATOM      8  HN  UNL d   1      -1.854  -2.146  -0.003  1.00  0.00     0.168 HD
ATOM      9  N   UNL d   1      -1.579   1.051  -0.099  0.00  0.00    -0.345 N 
ATOM     10  C   UNL d   1      -2.322  -0.098  -0.071  0.00  0.00     0.182 A 
ATOM     11  O   UNL d   1       3.220  -1.287   0.200  0.00  0.00    -0.246 OA
ATOM     12  O   UNL d   1       0.861   2.684  -0.194  0.00  0.00    -0.265 OA
ATOM     13  H   UNL d   1      -1.926   2.002  -0.119  0.00  0.00     0.167 HD
ENDROOT
BRANCH   2  14
ATOM     14  C   UNL d   1       3.341   1.432  -0.010  0.00  0.00     0.175 C 
BRANCH  14  15
ATOM     15  C   UNL d   1       3.770   1.870   1.374  0.00  0.00    -0.040 A 
ATOM     16  C   UNL d   1       4.608   1.060   2.151  0.00  0.00     0.009 A 
ATOM     17  C   UNL d   1       4.916   1.415   3.467  0.00  0.00     0.007 A 
ATOM     18  C   UNL d   1       4.392   2.584   4.030  0.00  0.00    -0.059 A 
ATOM     19  C   UNL d   1       3.586   3.413   3.243  0.00  0.00     0.007 A 
ATOM     20  C   UNL d   1       3.283   3.063   1.926  0.00  0.00     0.009 A 
BRANCH  18  21
ATOM     21  C   UNL d   1       4.643   2.919   5.478  0.00  0.00     0.034 C 
ATOM     22  C   UNL d   1       3.583   2.314   6.388  0.00  0.00     0.010 C 
ENDBRANCH  18  21
ENDBRANCH  14  15
ENDBRANCH   2  14
BRANCH   1  23
ATOM     23  C   UNL d   1       0.845  -2.807   0.137  0.00  0.00     0.051 A 
ATOM     24  C   UNL d   1       1.319  -3.538   1.244  0.00  0.00    -0.035 A 
ATOM     25  C   UNL d   1       1.744  -2.897   2.537  0.00  0.00     0.050 C 
ATOM     26  C   UNL d   1       1.369  -4.942   1.165  0.00  0.00     0.009 A 
ATOM     27  C   UNL d   1       0.949  -5.611   0.016  0.00  0.00     0.001 A 
ATOM     28  C   UNL d   1       0.448  -4.890  -1.063  0.00  0.00     0.002 A 
ATOM     29  C   UNL d   1       0.385  -3.496  -0.999  0.00  0.00     0.031 A 
ENDBRANCH   1  23
TORSDOF 4
