REMARK  4 active torsions:
REMARK  status: ('A' for Active; 'I' for Inactive)
REMARK    1  A    between atoms: S_12  and  C_1 
REMARK    2  A    between atoms: C_7  and  N_11 
REMARK    3  A    between atoms: C_10  and  C_16 
REMARK       I    between atoms: N_11  and  C_10 
REMARK    4  A    between atoms: C_16  and  S_12 
ROOT
ATOM      1  C   UNL d   1      -6.014  -1.471  -0.171  0.00  0.00     0.227 C 
ATOM      2  N   UNL d   1      -6.712  -0.286  -0.102  0.00  0.00    -0.355 N 
ATOM      3  O   UNL d   1      -4.805  -1.560   0.013  0.00  0.00    -0.273 OA
ATOM      4  H   UNL d   1      -7.707  -0.387   0.098  0.00  0.00     0.162 HD
ENDROOT
BRANCH   1   5
ATOM      5  C   UNL d   1      -6.881  -2.659  -0.573  0.00  0.00     0.185 C 
BRANCH   5   6
ATOM      6  S   UNL d   1      -7.433  -3.660   0.826  0.00  0.00    -0.077 SA
BRANCH   6   7
ATOM      7  C   UNL d   1      -8.373  -2.524   1.746  0.00  0.00     0.188 C 
ATOM      8  N   UNL d   1      -8.710  -1.322   1.308  0.00  0.00    -0.329 N 
ATOM      9  C   UNL d   1      -9.178  -0.689   2.431  0.00  0.00     0.068 A 
ATOM     10  HN  UNL d   1      -8.639  -0.954   0.360  1.00  0.00     0.168 HD
ATOM     11  C   UNL d   1      -9.540   0.646   2.647  0.00  0.00     0.032 A 
ATOM     12  C   UNL d   1      -9.218  -1.580   3.488  0.00  0.00     0.105 A 
ATOM     13  C   UNL d   1      -9.911   1.021   3.947  0.00  0.00     0.002 A 
ATOM     14  C   UNL d   1      -9.959   0.083   4.987  0.00  0.00     0.003 A 
ATOM     15  C   UNL d   1      -9.626  -1.261   4.777  0.00  0.00     0.040 A 
ATOM     16  O   UNL d   1      -8.737  -2.774   3.044  0.00  0.00    -0.285 OA
ENDBRANCH   6   7
ENDBRANCH   5   6
ENDBRANCH   1   5
BRANCH   2  17
ATOM     17  C   UNL d   1      -6.147   1.030   0.118  0.00  0.00     0.092 C 
ATOM     18  C   UNL d   1      -5.214   1.518  -1.006  0.00  0.00     0.064 C 
ATOM     19  C   UNL d   1      -4.567   2.680  -0.314  0.00  0.00    -0.050 A 
ATOM     20  C   UNL d   1      -3.941   3.771  -0.892  0.00  0.00     0.007 A 
ATOM     21  C   UNL d   1      -4.654   2.540   1.078  0.00  0.00    -0.050 A 
ATOM     22  C   UNL d   1      -3.412   4.746  -0.051  0.00  0.00     0.001 A 
ATOM     23  C   UNL d   1      -3.494   4.610   1.347  0.00  0.00     0.001 A 
ATOM     24  C   UNL d   1      -4.111   3.495   1.922  0.00  0.00     0.007 A 
ATOM     25  C   UNL d   1      -5.379   1.270   1.437  0.00  0.00     0.064 C 
ENDBRANCH   2  17
TORSDOF 4
