REMARK  6 active torsions:
REMARK  status: ('A' for Active; 'I' for Inactive)
REMARK    1  A    between atoms: N_11  and  C_3 
REMARK    2  A    between atoms: C_18  and  C_10 
REMARK       I    between atoms: C_13  and  N_11 
REMARK    3  A    between atoms: C_12  and  C_14 
REMARK    4  A    between atoms: O_21  and  C_13 
REMARK    5  A    between atoms: N_26  and  C_14 
REMARK    6  A    between atoms: N_16  and  O_21 
ROOT
ATOM      1  N   UNL d   1      -3.324   0.551   0.191  0.00  0.00    -0.293 N 
ATOM      2  C   UNL d   1      -4.068   0.279  -0.944  0.00  0.00     0.387 C 
ATOM      3  O   UNL d   1      -3.588  -0.164  -1.984  0.00  0.00    -0.236 OA
ATOM      4  H   UNL d   1      -3.664   1.312   0.760  0.00  0.00     0.172 HD
ENDROOT
BRANCH   1   5
ATOM      5  C   UNL d   1      -2.011   0.182   0.300  0.00  0.00     0.106 A 
ATOM      6  S   UNL d   1      -0.837   1.373   0.872  0.00  0.00    -0.032 SA
ATOM      7  C   UNL d   1       0.415   0.225   0.548  0.00  0.00     0.174 A 
ATOM      8  N   UNL d   1      -0.085  -0.974   0.124  0.00  0.00    -0.234 N 
ATOM      9  N   UNL d   1       1.719   0.220   0.600  0.00  0.00    -0.319 N 
ATOM     10  N   UNL d   1       0.927  -1.836  -0.081  0.00  0.00    -0.276 N 
ATOM     11  C   UNL d   1      -1.463  -1.014   0.005  0.00  0.00     0.067 A 
ATOM     12  C   UNL d   1       2.009  -1.074   0.182  0.00  0.00     0.132 A 
ATOM     13  HN  UNL d   1       0.887  -2.816  -0.364  1.00  0.00     0.189 HD
ATOM     14  C   UNL d   1      -2.159  -2.298  -0.316  0.00  0.00     0.073 C 
ATOM     15  HN  UNL d   1       2.356   0.967   0.874  1.00  0.00     0.169 HD
BRANCH  12  16
ATOM     16  C   UNL d   1       3.383  -1.556   0.034  0.00  0.00     0.009 A 
ATOM     17  C   UNL d   1       4.468  -0.736   0.378  0.00  0.00     0.017 A 
ATOM     18  C   UNL d   1       5.783  -1.191   0.234  0.00  0.00     0.025 A 
ATOM     19  C   UNL d   1       6.024  -2.472  -0.259  0.00  0.00     0.034 A 
ATOM     20  C   UNL d   1       4.962  -3.301  -0.608  0.00  0.00     0.025 A 
ATOM     21 CL   UNL d   1       7.641  -3.032  -0.438  0.00  0.00    -0.084 Cl
ATOM     22  C   UNL d   1       3.647  -2.844  -0.462  0.00  0.00     0.017 A 
ENDBRANCH  12  16
ENDBRANCH   1   5
BRANCH   2  23
ATOM     23  O   UNL d   1      -5.401   0.591  -0.780  0.00  0.00    -0.179 OA
BRANCH  23  24
ATOM     24  N   UNL d   1      -6.134  -0.322  -1.561  0.00  0.00    -0.244 N 
ATOM     25  C   UNL d   1      -7.349   0.015  -1.903  0.00  0.00     0.111 C 
ATOM     26  HN  UNL d   1      -5.732  -1.214  -1.850  1.00  0.00     0.196 HD
BRANCH  25  27
ATOM     27  C   UNL d   1      -8.078   1.270  -1.531  0.00  0.00     0.025 A 
ATOM     28  C   UNL d   1      -8.959   1.931  -2.410  0.00  0.00     0.049 A 
ATOM     29  C   UNL d   1      -9.617   3.103  -2.011  0.00  0.00     0.048 A 
ATOM     30 CL   UNL d   1      -9.290   1.395  -4.024  0.00  0.00    -0.083 Cl
ATOM     31  C   UNL d   1      -9.399   3.623  -0.740  0.00  0.00     0.035 A 
ATOM     32  C   UNL d   1      -8.561   2.964   0.153  0.00  0.00     0.025 A 
ATOM     33 CL   UNL d   1     -10.173   5.084  -0.270  0.00  0.00    -0.084 Cl
ATOM     34  C   UNL d   1      -7.920   1.784  -0.234  0.00  0.00     0.018 A 
ENDBRANCH  25  27
BRANCH  25  35
ATOM     35  N   UNL d   1      -7.975  -0.926  -2.683  0.00  0.00    -0.286 NA
ATOM     36  H   UNL d   1      -8.618  -0.577  -3.387  0.00  0.00     0.125 HD
ATOM     37  H   UNL d   1      -7.302  -1.577  -3.082  0.00  0.00     0.125 HD
ENDBRANCH  25  35
ENDBRANCH  23  24
ENDBRANCH   2  23
TORSDOF 6
