REMARK  6 active torsions:
REMARK  status: ('A' for Active; 'I' for Inactive)
REMARK    1  A    between atoms: C_13  and  C_1 
REMARK    2  A    between atoms: C_2  and  N_12 
REMARK    3  A    between atoms: N_8  and  C_2 
REMARK    4  A    between atoms: O_15  and  C_4 
REMARK    5  A    between atoms: N_12  and  N_6 
REMARK    6  A    between atoms: C_17  and  N_8 
ROOT
ATOM      1  N   UNL d   1       0.747   4.250   0.398  0.00  0.00    -0.309 N 
ATOM      2  HN  UNL d   1       1.634   3.807   0.159  1.00  0.00     0.186 HD
ATOM      3  C   UNL d   1      -0.234   3.570   0.896  0.00  0.00     0.121 C 
ENDROOT
BRANCH   1   4
ATOM      4  N   UNL d   1       0.542   5.585   0.207  0.00  0.00    -0.277 N 
ATOM      5  H   UNL d   1      -0.403   5.936   0.148  0.00  0.00     0.189 HD
BRANCH   4   6
ATOM      6  C   UNL d   1       1.596   6.468   0.198  0.00  0.00     0.186 C 
ATOM      7  S   UNL d   1       3.109   6.198   0.864  0.00  0.00    -0.040 SA
BRANCH   6   8
ATOM      8  N   UNL d   1       1.381   7.674  -0.412  0.00  0.00    -0.362 N 
ATOM      9  H   UNL d   1       2.197   8.275  -0.336  0.00  0.00     0.162 HD
BRANCH   8  10
ATOM     10  C   UNL d   1       0.535   7.901  -1.584  0.00  0.00     0.076 C 
ATOM     11  C   UNL d   1      -0.820   8.474  -1.186  0.00  0.00     0.032 C 
ATOM     12  C   UNL d   1       1.239   8.854  -2.554  0.00  0.00     0.032 C 
ENDBRANCH   8  10
ENDBRANCH   6   8
ENDBRANCH   4   6
ENDBRANCH   1   4
BRANCH   3  13
ATOM     13  C   UNL d   1      -0.146   2.095   0.982  0.00  0.00     0.017 A 
ATOM     14  C   UNL d   1      -1.077   1.347   1.710  0.00  0.00     0.099 A 
ATOM     15  C   UNL d   1      -0.998  -0.051   1.705  0.00  0.00     0.069 A 
ATOM     16 CL   UNL d   1      -2.136  -0.993   2.596  0.00  0.00    -0.081 Cl
ATOM     17  C   UNL d   1      -0.006  -0.706   0.974  0.00  0.00     0.050 A 
ATOM     18  C   UNL d   1       0.921   0.045   0.255  0.00  0.00     0.036 A 
ATOM     19  C   UNL d   1       0.862   1.438   0.264  0.00  0.00     0.039 A 
ATOM     20 CL   UNL d   1       2.131  -0.753  -0.669  0.00  0.00    -0.084 Cl
BRANCH  14  21
ATOM     21  O   UNL d   1      -2.060   1.988   2.419  0.00  0.00    -0.358 OA
ATOM     22  H   UNL d   1      -2.574   1.303   2.895  0.00  0.00     0.217 HD
ENDBRANCH  14  21
ENDBRANCH   3  13
TORSDOF 6
