REMARK  4 active torsions:
REMARK  status: ('A' for Active; 'I' for Inactive)
REMARK    1  A    between atoms: C_7  and  C_1 
REMARK    2  A    between atoms: N_15  and  C_3 
REMARK    3  A    between atoms: C_13  and  C_6 
REMARK       I    between atoms: N_12  and  C_7 
REMARK    4  A    between atoms: C_16  and  N_12 
ROOT
ATOM      1  C   UNL d   1      -3.342   0.578  -0.054  0.00  0.00     0.102 A 
ATOM      2  C   UNL d   1      -1.199  -0.476  -0.075  0.00  0.00     0.037 A 
ATOM      3  C   UNL d   1      -2.641  -0.610  -0.220  0.00  0.00     0.062 A 
ATOM      4  C   UNL d   1      -0.903   0.885   0.045  0.00  0.00     0.088 A 
ATOM      5  S   UNL d   1      -2.267   1.890   0.144  0.00  0.00    -0.064 SA
ATOM      6  C   UNL d   1      -0.079  -1.385  -0.053  0.00  0.00    -0.001 A 
ATOM      7  N   UNL d   1       0.309   1.468   0.106  0.00  0.00    -0.353 N 
ATOM      8  HN  UNL d   1       0.444   2.476   0.183  1.00  0.00     0.166 HD
ATOM      9  C   UNL d   1       1.195  -0.783  -0.009  0.00  0.00    -0.023 A 
ATOM     10  C   UNL d   1       1.315   0.595   0.055  0.00  0.00     0.017 A 
ATOM     11  C   UNL d   1       2.550  -1.422   0.002  0.00  0.00     0.042 A 
ATOM     12  C   UNL d   1       2.740   1.056   0.067  0.00  0.00     0.058 A 
ATOM     13  C   UNL d   1       3.532  -0.248   0.113  0.00  0.00     0.011 A 
ENDROOT
BRANCH   1  14
ATOM     14  C   UNL d   1      -4.800   0.790  -0.068  0.00  0.00     0.265 C 
ATOM     15  N   UNL d   1      -5.197   2.113   0.032  0.00  0.00    -0.322 N 
ATOM     16  H   UNL d   1      -4.447   2.795   0.015  0.00  0.00     0.169 HD
ATOM     17  O   UNL d   1      -5.575  -0.155  -0.209  0.00  0.00    -0.267 OA
BRANCH  15  18
ATOM     18  C   UNL d   1      -6.511   2.619   0.007  0.00  0.00     0.036 A 
ATOM     19  C   UNL d   1      -7.649   1.828   0.171  0.00  0.00     0.053 A 
ATOM     20  C   UNL d   1      -8.918   2.400   0.072  0.00  0.00     0.036 A 
ATOM     21 CL   UNL d   1     -10.316   1.415   0.267  0.00  0.00    -0.084 Cl
ATOM     22  C   UNL d   1      -9.067   3.761  -0.186  0.00  0.00     0.024 A 
ATOM     23  C   UNL d   1      -7.937   4.563  -0.314  0.00  0.00     0.004 A 
ATOM     24  C   UNL d   1      -6.664   3.997  -0.203  0.00  0.00     0.029 A 
ENDBRANCH  15  18
ENDBRANCH   1  14
BRANCH   3  25
ATOM     25  N   UNL d   1      -3.278  -1.772  -0.502  0.00  0.00    -0.397 N 
ATOM     26  H   UNL d   1      -2.802  -2.558  -0.938  0.00  0.00     0.156 HD
ATOM     27  H   UNL d   1      -4.285  -1.765  -0.696  0.00  0.00     0.156 HD
ENDBRANCH   3  25
BRANCH   6  28
ATOM     28  C   UNL d   1      -0.261  -2.854  -0.013  0.00  0.00    -0.009 A 
ATOM     29  C   UNL d   1       0.483  -3.730  -0.808  0.00  0.00     0.100 A 
ATOM     30  N   UNL d   1       0.409  -5.086  -0.777  0.00  0.00    -0.374 N 
ATOM     31  C   UNL d   1      -0.480  -5.624   0.079  0.00  0.00     0.087 A 
ATOM     32  HN  UNL d   1       0.999  -5.669  -1.372  1.00  0.00     0.164 HD
ATOM     33  C   UNL d   1      -1.293  -4.867   0.900  0.00  0.00     0.018 A 
ATOM     34  C   UNL d   1      -1.160  -3.477   0.866  0.00  0.00     0.015 A 
ENDBRANCH   6  28
TORSDOF 4
