REMARK  5 active torsions:
REMARK  status: ('A' for Active; 'I' for Inactive)
REMARK    1  A    between atoms: C_9  and  C_1 
REMARK    2  A    between atoms: C_2  and  C_18 
REMARK       I    between atoms: N_3  and  C_2 
REMARK    3  A    between atoms: C_8  and  N_3 
REMARK    4  A    between atoms: S_7  and  C_9 
REMARK    5  A    between atoms: C_18  and  S_7 
ROOT
ATOM      1  C   UNL d   1      -2.865   5.145  -0.167  0.00  0.00     0.231 C 
ATOM      2  N   UNL d   1      -3.916   4.264  -0.345  0.00  0.00    -0.327 N 
ATOM      3  O   UNL d   1      -2.962   6.362  -0.026  0.00  0.00    -0.272 OA
ATOM      4  H   UNL d   1      -3.660   3.281  -0.386  0.00  0.00     0.169 HD
ENDROOT
BRANCH   1   5
ATOM      5  C   UNL d   1      -1.495   4.480  -0.023  0.00  0.00     0.177 C 
BRANCH   5   6
ATOM      6  S   UNL d   1      -1.297   3.076  -1.167  0.00  0.00    -0.155 SA
BRANCH   6   7
ATOM      7  C   UNL d   1       0.463   2.681  -0.911  0.00  0.00     0.116 C 
BRANCH   7   8
ATOM      8  C   UNL d   1       0.955   2.445   0.505  0.00  0.00    -0.005 A 
ATOM      9  C   UNL d   1       0.317   1.574   1.414  0.00  0.00     0.042 A 
ATOM     10 CL   UNL d   1      -1.066   0.617   1.006  0.00  0.00    -0.084 Cl
ATOM     11  C   UNL d   1       0.811   1.386   2.715  0.00  0.00     0.024 A 
ATOM     12  C   UNL d   1       1.982   2.007   3.127  0.00  0.00     0.003 A 
ATOM     13  C   UNL d   1       2.674   2.808   2.231  0.00  0.00     0.024 A 
ATOM     14  C   UNL d   1       2.174   3.021   0.937  0.00  0.00     0.042 A 
ATOM     15 CL   UNL d   1       3.168   3.990  -0.100  0.00  0.00    -0.084 Cl
ENDBRANCH   7   8
ENDBRANCH   6   7
ENDBRANCH   5   6
ENDBRANCH   1   5
BRANCH   2  16
ATOM     16  C   UNL d   1      -5.279   4.574  -0.530  0.00  0.00     0.034 A 
ATOM     17  C   UNL d   1      -5.763   5.877  -0.680  0.00  0.00     0.032 A 
ATOM     18  C   UNL d   1      -7.130   6.112  -0.873  0.00  0.00     0.044 A 
ATOM     19  C   UNL d   1      -8.011   5.041  -0.909  0.00  0.00     0.116 A 
ATOM     20  C   UNL d   1      -7.553   3.740  -0.765  0.00  0.00     0.044 A 
ATOM     21  F   UNL d   1      -9.318   5.268  -1.089  0.00  0.00    -0.206 F 
ATOM     22  C   UNL d   1      -6.187   3.504  -0.583  0.00  0.00     0.032 A 
ENDBRANCH   2  16
TORSDOF 5
