REMARK  4 active torsions:
REMARK  status: ('A' for Active; 'I' for Inactive)
REMARK    1  A    between atoms: C_6  and  C_1 
REMARK       I    between atoms: N_7  and  C_1 
REMARK    2  A    between atoms: O_2  and  C_6 
REMARK    3  A    between atoms: C_3  and  O_2 
REMARK    4  A    between atoms: O_8  and  C_5 
ROOT
ATOM      1  C   UNL d   1      -1.982   1.486   1.418  0.00  0.00     0.102 A 
ATOM      2  C   UNL d   1      -1.885   2.883   1.555  0.00  0.00     0.101 A 
ATOM      3  C   UNL d   1      -3.159   0.850   1.856  0.00  0.00     0.039 A 
ATOM      4  C   UNL d   1      -2.936   3.590   2.163  0.00  0.00     0.039 A 
ATOM      5  C   UNL d   1      -4.197   1.570   2.453  0.00  0.00     0.003 A 
ATOM      6  C   UNL d   1      -4.083   2.942   2.614  0.00  0.00     0.003 A 
ENDROOT
BRANCH   1   7
ATOM      7  O   UNL d   1      -0.939   0.789   0.855  0.00  0.00    -0.339 OA
BRANCH   7   8
ATOM      8  C   UNL d   1      -0.885  -0.608   1.144  0.00  0.00     0.278 C 
BRANCH   8   9
ATOM      9  C   UNL d   1       0.401  -1.276   0.662  0.00  0.00     0.239 C 
ATOM     10  O   UNL d   1       0.719  -2.419   0.982  0.00  0.00    -0.271 OA
ATOM     11  N   UNL d   1       1.174  -0.555  -0.196  0.00  0.00    -0.368 N 
ATOM     12  H   UNL d   1       2.033  -0.963  -0.538  0.00  0.00     0.159 HD
ATOM     13  H   UNL d   1       0.929   0.394  -0.448  0.00  0.00     0.159 HD
ENDBRANCH   8   9
ENDBRANCH   7   8
ENDBRANCH   1   7
BRANCH   2  14
ATOM     14  O   UNL d   1      -0.859   3.717   1.197  0.00  0.00    -0.353 OA
ATOM     15  C   UNL d   1       0.180   3.216   0.375  0.00  0.00     0.210 C 
ENDBRANCH   2  14
TORSDOF 4
