REMARK  7 active torsions:
REMARK  status: ('A' for Active; 'I' for Inactive)
REMARK    1  A    between atoms: S_2  and  C_1 
REMARK    2  A    between atoms: C_7  and  S_2 
REMARK    3  A    between atoms: C_5  and  C_4 
REMARK       I    between atoms: N_15  and  C_5 
REMARK    4  A    between atoms: C_6  and  O_9 
REMARK    5  A    between atoms: C_10  and  C_6 
REMARK    6  A    between atoms: C_11  and  C_8 
REMARK    7  A    between atoms: O_9  and  C_11 
ROOT
ATOM      1  C   UNL d   1       3.241  -3.815  -0.243  0.00  0.00     0.014 A 
ATOM      2  C   UNL d   1       3.878  -3.546   0.993  0.00  0.00    -0.017 A 
ATOM      3  C   UNL d   1       5.111  -4.179   1.267  0.00  0.00     0.011 A 
ATOM      4  C   UNL d   1       3.846  -4.718  -1.137  0.00  0.00     0.019 A 
ATOM      5  C   UNL d   1       5.682  -5.084   0.375  0.00  0.00     0.001 A 
ATOM      6  C   UNL d   1       5.047  -5.357  -0.826  0.00  0.00     0.001 A 
ENDROOT
BRANCH   1   7
ATOM      7  S   UNL d   1       1.731  -2.962  -0.736  0.00  0.00    -0.089 SA
BRANCH   7   8
ATOM      8  C   UNL d   1       0.927  -4.104  -1.882  0.00  0.00     0.017 A 
ATOM      9  C   UNL d   1       0.324  -5.361  -1.523  0.00  0.00     0.007 A 
ATOM     10  C   UNL d   1       0.023  -5.869  -0.214  0.00  0.00     0.044 A 
ATOM     11  C   UNL d   1      -0.008  -6.230  -2.608  0.00  0.00    -0.024 A 
ATOM     12  C   UNL d   1      -0.479  -7.173  -0.020  0.00  0.00     0.018 A 
ATOM     13  C   UNL d   1      -0.711  -8.008  -1.099  0.00  0.00     0.002 A 
ATOM     14  C   UNL d   1      -0.494  -7.528  -2.383  0.00  0.00     0.012 A 
ATOM     15  C   UNL d   1       0.135  -5.819  -3.940  0.00  0.00     0.012 A 
ATOM     16  C   UNL d   1       0.621  -4.558  -4.256  0.00  0.00     0.002 A 
ATOM     17  C   UNL d   1       1.027  -3.712  -3.234  0.00  0.00     0.020 A 
BRANCH  10  18
ATOM     18  C   UNL d   1       0.034  -5.030   1.014  0.00  0.00     0.252 C 
ATOM     19  O   UNL d   1      -0.579  -3.971   1.055  0.00  0.00    -0.268 OA
ATOM     20  N   UNL d   1       0.682  -5.582   2.101  0.00  0.00    -0.361 N 
ATOM     21  C   UNL d   1       0.662  -4.926   3.382  0.00  0.00     0.149 C 
ATOM     22  H   UNL d   1       1.141  -6.479   2.014  0.00  0.00     0.162 HD
ENDBRANCH  10  18
ENDBRANCH   7   8
ENDBRANCH   1   7
BRANCH   2  23
ATOM     23  C   UNL d   1       3.360  -2.535   2.003  0.00  0.00     0.219 C 
BRANCH  23  24
ATOM     24  O   UNL d   1       3.645  -2.972   3.355  0.00  0.00    -0.313 OA
BRANCH  24  25
ATOM     25  C   UNL d   1       4.367  -2.129   4.131  0.00  0.00     0.293 C 
ATOM     26  O   UNL d   1       4.800  -1.039   3.798  0.00  0.00    -0.259 OA
BRANCH  25  27
ATOM     27  C   UNL d   1       4.612  -2.712   5.486  0.00  0.00     0.039 A 
ATOM     28  C   UNL d   1       5.398  -1.981   6.391  0.00  0.00     0.018 A 
ATOM     29  C   UNL d   1       5.665  -2.484   7.669  0.00  0.00     0.007 A 
ATOM     30  C   UNL d   1       5.148  -3.720   8.071  0.00  0.00    -0.062 A 
ATOM     31  C   UNL d   1       4.368  -4.454   7.170  0.00  0.00     0.007 A 
ATOM     32  C   UNL d   1       5.456  -4.253   9.441  0.00  0.00     0.048 C 
ATOM     33  C   UNL d   1       4.100  -3.952   5.885  0.00  0.00     0.018 A 
ENDBRANCH  25  27
ENDBRANCH  24  25
ENDBRANCH  23  24
ENDBRANCH   2  23
TORSDOF 7
