REMARK  7 active torsions:
REMARK  status: ('A' for Active; 'I' for Inactive)
REMARK    1  A    between atoms: N_3  and  C_1 
REMARK    2  A    between atoms: C_2  and  N_3 
REMARK    3  A    between atoms: N_10  and  C_2 
REMARK    4  A    between atoms: C_16  and  N_10 
REMARK    5  A    between atoms: C_11  and  C_16 
REMARK    6  A    between atoms: C_17  and  C_11 
REMARK    7  A    between atoms: O_12  and  C_17 
ROOT
ATOM      1  N   UNL d   1       2.389  -1.865  -0.130  0.00  0.00    -0.333 N 
ATOM      2  H   UNL d   1       2.038  -2.806  -0.153  0.00  0.00     0.168 HD
ENDROOT
BRANCH   1   3
ATOM      3  C   UNL d   1       3.760  -1.850  -0.117  0.00  0.00     0.172 C 
ATOM      4  S   UNL d   1       4.802  -0.745   0.566  0.00  0.00    -0.041 SA
BRANCH   3   5
ATOM      5  N   UNL d   1       4.331  -2.933  -0.747  0.00  0.00    -0.367 N 
ATOM      6  H   UNL d   1       5.346  -2.908  -0.733  0.00  0.00     0.161 HD
BRANCH   5   7
ATOM      7  C   UNL d   1       3.709  -3.789  -1.752  0.00  0.00     0.124 C 
BRANCH   7   8
ATOM      8  C   UNL d   1       3.378  -3.043  -3.043  0.00  0.00     0.046 C 
BRANCH   8   9
ATOM      9  C   UNL d   1       4.633  -2.574  -3.767  0.00  0.00     0.168 C 
BRANCH   9  10
ATOM     10  O   UNL d   1       4.250  -1.963  -4.998  0.00  0.00    -0.396 OA
ATOM     11  C   UNL d   1       5.386  -1.497  -5.717  0.00  0.00     0.201 C 
ENDBRANCH   9  10
ENDBRANCH   8   9
ENDBRANCH   7   8
ENDBRANCH   5   7
ENDBRANCH   3   5
ENDBRANCH   1   3
BRANCH   1  12
ATOM     12  C   UNL d   1       1.395  -0.864  -0.043  0.00  0.00     0.040 A 
ATOM     13  C   UNL d   1       1.692   0.505  -0.113  0.00  0.00     0.037 A 
ATOM     14  C   UNL d   1       0.684   1.491  -0.097  0.00  0.00    -0.054 A 
ATOM     15  C   UNL d   1       1.069   2.942  -0.194  0.00  0.00     0.049 C 
ATOM     16  C   UNL d   1      -0.659   1.101  -0.015  0.00  0.00    -0.056 A 
ATOM     17  C   UNL d   1      -0.961  -0.263   0.047  0.00  0.00     0.016 A 
ATOM     18  C   UNL d   1      -1.781   2.101  -0.017  0.00  0.00     0.049 C 
ATOM     19  C   UNL d   1       0.039  -1.253   0.017  0.00  0.00    -0.035 A 
ATOM     20  C   UNL d   1      -0.461  -2.675   0.050  0.00  0.00     0.050 C 
ENDBRANCH   1  12
TORSDOF 7
