REMARK  2 active torsions:
REMARK  status: ('A' for Active; 'I' for Inactive)
REMARK    1  A    between atoms: C_2  and  C_1 
REMARK       I    between atoms: N_4  and  C_2 
REMARK    2  A    between atoms: C_10  and  N_4 
ROOT
ATOM      1  C   UNL d   1      -1.405   2.858  -0.271  0.00  0.00     0.258 C 
ATOM      2  N   UNL d   1      -2.631   3.448  -0.051  0.00  0.00    -0.322 N 
ATOM      3  O   UNL d   1      -0.383   3.466  -0.579  0.00  0.00    -0.267 OA
ATOM      4  H   UNL d   1      -3.370   2.870   0.334  0.00  0.00     0.169 HD
ENDROOT
BRANCH   1   5
ATOM      5  C   UNL d   1      -1.325   1.363  -0.180  0.00  0.00     0.055 A 
ATOM      6  C   UNL d   1      -2.171   0.524   0.568  0.00  0.00     0.071 A 
ATOM      7  C   UNL d   1      -1.988  -0.872   0.500  0.00  0.00     0.056 A 
ATOM      8 CL   UNL d   1      -3.412   1.162   1.605  0.00  0.00    -0.081 Cl
ATOM      9 CL   UNL d   1      -2.998  -1.987   1.361  0.00  0.00    -0.083 Cl
ATOM     10  C   UNL d   1      -0.971  -1.427  -0.283  0.00  0.00     0.026 A 
ATOM     11  C   UNL d   1      -0.119  -0.601  -1.002  0.00  0.00     0.003 A 
ATOM     12  C   UNL d   1      -0.295   0.780  -0.950  0.00  0.00     0.019 A 
ENDBRANCH   1   5
BRANCH   2  13
ATOM     13  C   UNL d   1      -2.965   4.801  -0.284  0.00  0.00     0.050 A 
ATOM     14  C   UNL d   1      -2.150   5.728  -0.929  0.00  0.00     0.117 A 
ATOM     15  N   UNL d   1      -2.512   7.011  -1.194  0.00  0.00    -0.373 N 
ATOM     16  C   UNL d   1      -3.740   7.392  -0.789  0.00  0.00     0.088 A 
ATOM     17  HN  UNL d   1      -1.885   7.654  -1.676  1.00  0.00     0.164 HD
ATOM     18  C   UNL d   1      -4.623   6.554  -0.132  0.00  0.00     0.019 A 
ATOM     19  C   UNL d   1      -4.228   5.239   0.119  0.00  0.00     0.032 A 
ENDBRANCH   2  13
TORSDOF 2
