REMARK  1 active torsions:
REMARK  status: ('A' for Active; 'I' for Inactive)
REMARK    1  A    between atoms: C_8  and  C_2 
ROOT
ATOM      1  C   UNL d   1      -1.369  -0.857  -0.111  0.00  0.00     0.172 C 
ATOM      2  C   UNL d   1      -2.340   0.293  -0.302  0.00  0.00     0.118 C 
ATOM      3  C   UNL d   1       0.064  -0.498  -0.053  0.00  0.00     0.044 A 
ATOM      4  O   UNL d   1      -0.458   1.875  -0.221  0.00  0.00    -0.349 OA
ATOM      5  C   UNL d   1      -1.740   1.552   0.326  0.00  0.00     0.193 C 
ATOM      6  C   UNL d   1       0.435   0.845  -0.105  0.00  0.00     0.082 A 
ATOM      7  O   UNL d   1      -1.699  -2.039  -0.074  0.00  0.00    -0.291 OA
ATOM      8  C   UNL d   1       1.041  -1.496   0.024  0.00  0.00     0.018 A 
ATOM      9  C   UNL d   1       1.786   1.193  -0.086  0.00  0.00     0.038 A 
ATOM     10  C   UNL d   1       2.392  -1.145   0.049  0.00  0.00     0.001 A 
ATOM     11  C   UNL d   1       2.763   0.200  -0.002  0.00  0.00     0.003 A 
ENDROOT
BRANCH   2  12
ATOM     12  C   UNL d   1      -3.724   0.026   0.266  0.00  0.00    -0.044 A 
ATOM     13  C   UNL d   1      -3.913  -0.241   1.632  0.00  0.00     0.008 A 
ATOM     14  C   UNL d   1      -5.196  -0.424   2.152  0.00  0.00     0.001 A 
ATOM     15  C   UNL d   1      -6.304  -0.354   1.312  0.00  0.00     0.000 A 
ATOM     16  C   UNL d   1      -6.131  -0.108  -0.048  0.00  0.00     0.001 A 
ATOM     17  C   UNL d   1      -4.849   0.081  -0.570  0.00  0.00     0.008 A 
ENDBRANCH   2  12
TORSDOF 1
