REMARK  3 active torsions:
REMARK  status: ('A' for Active; 'I' for Inactive)
REMARK    1  A    between atoms: C_2  and  C_1 
REMARK    2  A    between atoms: O_9  and  C_2 
REMARK    3  A    between atoms: C_12  and  O_9 
ROOT
ATOM      1  C   UNL d   1       2.354   1.300  -0.060  0.00  0.00     0.056 A 
ATOM      2  N   UNL d   1       2.383  -1.124  -0.078  0.00  0.00    -0.373 N 
ATOM      3  HN  UNL d   1       2.901  -2.003  -0.086  1.00  0.00     0.164 HD
ATOM      4  C   UNL d   1       0.957   1.295  -0.077  0.00  0.00     0.039 A 
ATOM      5  C   UNL d   1       3.017   0.078  -0.066  0.00  0.00     0.105 A 
ATOM      6  C   UNL d   1       0.285   0.076  -0.081  0.00  0.00     0.027 A 
ATOM      7 BR   UNL d   1      -1.599   0.021  -0.065  0.00  0.00    -0.050 Br
ATOM      8  C   UNL d   1       1.029  -1.095  -0.078  0.00  0.00     0.106 A 
ENDROOT
BRANCH   1   9
ATOM      9  C   UNL d   1       3.163   2.531   0.046  0.00  0.00     0.294 C 
ATOM     10  O   UNL d   1       4.381   2.531   0.129  0.00  0.00    -0.259 OA
BRANCH   9  11
ATOM     11  O   UNL d   1       2.350   3.611   0.138  0.00  0.00    -0.318 OA
BRANCH  11  12
ATOM     12  C   UNL d   1       2.967   4.812   0.622  0.00  0.00     0.174 C 
ATOM     13  C   UNL d   1       2.858   4.822   2.136  0.00  0.00     0.034 C 
ENDBRANCH  11  12
ENDBRANCH   9  11
ENDBRANCH   1   9
TORSDOF 3
