REMARK  3 active torsions:
REMARK  status: ('A' for Active; 'I' for Inactive)
REMARK    1  A    between atoms: C_3  and  C_1 
REMARK    2  A    between atoms: C_6  and  C_2 
REMARK       I    between atoms: N_7  and  C_3 
REMARK    3  A    between atoms: C_10  and  N_7 
ROOT
ATOM      1  C   UNL d   1      -0.396  -1.016   0.328  0.00  0.00     0.093 A 
ATOM      2  C   UNL d   1      -1.687  -0.419   0.522  0.00  0.00     0.085 A 
ATOM      3  N   UNL d   1      -1.575   0.906   0.696  0.00  0.00    -0.259 N 
ATOM      4  HN  UNL d   1      -2.334   1.566   0.867  1.00  0.00     0.195 HD
ATOM      5  O   UNL d   1      -0.238   1.198   0.599  0.00  0.00    -0.241 OA
ATOM      6  C   UNL d   1       0.464   0.066   0.349  0.00  0.00     0.090 A 
ATOM      7  C   UNL d   1       1.908   0.280   0.109  0.00  0.00     0.080 C 
ENDROOT
BRANCH   1   8
ATOM      8  C   UNL d   1      -0.110  -2.417   0.051  0.00  0.00     0.261 C 
ATOM      9  N   UNL d   1       1.187  -2.825   0.324  0.00  0.00    -0.321 N 
ATOM     10  H   UNL d   1       1.846  -2.134   0.651  0.00  0.00     0.169 HD
ATOM     11  O   UNL d   1      -0.970  -3.142  -0.431  0.00  0.00    -0.267 OA
BRANCH   9  12
ATOM     12  C   UNL d   1       1.757  -4.073  -0.030  0.00  0.00     0.058 A 
ATOM     13  C   UNL d   1       0.991  -5.218  -0.277  0.00  0.00     0.057 A 
ATOM     14  C   UNL d   1       1.596  -6.396  -0.731  0.00  0.00     0.058 A 
ATOM     15 CL   UNL d   1       0.580  -7.765  -1.014  0.00  0.00    -0.082 Cl
ATOM     16  C   UNL d   1       2.977  -6.436  -0.946  0.00  0.00     0.057 A 
ATOM     17  C   UNL d   1       3.759  -5.317  -0.654  0.00  0.00     0.051 A 
ATOM     18 CL   UNL d   1       3.778  -7.829  -1.581  0.00  0.00    -0.082 Cl
ATOM     19  C   UNL d   1       3.153  -4.154  -0.176  0.00  0.00     0.062 A 
ATOM     20 CL   UNL d   1       4.165  -2.790   0.159  0.00  0.00    -0.082 Cl
ENDBRANCH   9  12
ENDBRANCH   1   8
BRANCH   2  21
ATOM     21  C   UNL d   1      -3.008  -1.040   0.486  0.00  0.00     0.015 A 
ATOM     22  C   UNL d   1      -3.406  -2.053   1.371  0.00  0.00     0.046 A 
ATOM     23 CL   UNL d   1      -2.396  -2.616   2.660  0.00  0.00    -0.083 Cl
ATOM     24  C   UNL d   1      -4.678  -2.627   1.255  0.00  0.00     0.025 A 
ATOM     25  C   UNL d   1      -5.565  -2.188   0.270  0.00  0.00     0.002 A 
ATOM     26  C   UNL d   1      -5.188  -1.168  -0.598  0.00  0.00     0.001 A 
ATOM     27  C   UNL d   1      -3.918  -0.598  -0.492  0.00  0.00     0.015 A 
ENDBRANCH   2  21
TORSDOF 3
