REMARK  4 active torsions:
REMARK  status: ('A' for Active; 'I' for Inactive)
REMARK    1  A    between atoms: C_3  and  C_1 
REMARK    2  A    between atoms: C_8  and  C_1 
REMARK    3  A    between atoms: C_7  and  C_2 
REMARK    4  A    between atoms: N_4  and  C_3 
ROOT
ATOM      1  C   UNL d   1       0.995   0.054  -0.084  0.00  0.00     0.039 C 
ATOM      2  C   UNL d   1       0.341   1.237  -0.053  0.00  0.00     0.059 C 
ENDROOT
BRANCH   1   3
ATOM      3  C   UNL d   1       2.515   0.054  -0.084  0.00  0.00    -0.036 C 
BRANCH   3   4
ATOM      4  N   UNL d   1       3.776   0.054  -0.084  0.00  0.00    -0.365 N 
ATOM      5  HN2 UNL d   1       2.756   0.054  -0.084  1.00  0.00     0.165 HD
ATOM      6  HN1 UNL d   1       4.796   0.054  -0.084  1.00  0.00     0.165 HD
ENDBRANCH   3   4
ENDBRANCH   1   3
BRANCH   1   7
ATOM      7  C   UNL d   1       0.264  -1.239  -0.058  0.00  0.00    -0.017 A 
ATOM      8  C   UNL d   1      -0.992  -1.382  -0.678  0.00  0.00     0.014 A 
ATOM      9  C   UNL d   1      -1.670  -2.605  -0.668  0.00  0.00     0.024 A 
ATOM     10  C   UNL d   1      -1.093  -3.711  -0.052  0.00  0.00     0.034 A 
ATOM     11  C   UNL d   1       0.155  -3.601   0.553  0.00  0.00     0.024 A 
ATOM     12 CL   UNL d   1      -1.923  -5.216  -0.046  0.00  0.00    -0.084 Cl
ATOM     13  C   UNL d   1       0.829  -2.374   0.551  0.00  0.00     0.014 A 
ENDBRANCH   1   7
BRANCH   2  14
ATOM     14  C   UNL d   1       1.002   2.499  -0.152  0.00  0.00     0.076 A 
ATOM     15  O   UNL d   1       2.164   2.700  -0.863  0.00  0.00    -0.323 OA
ATOM     16  C   UNL d   1       2.534   3.994  -0.744  0.00  0.00     0.142 A 
ATOM     17  C   UNL d   1       1.619   4.678   0.012  0.00  0.00     0.027 A 
ATOM     18  C   UNL d   1       0.630   3.730   0.375  0.00  0.00     0.039 A 
ENDBRANCH   2  14
TORSDOF 4
