REMARK  5 active torsions:
REMARK  status: ('A' for Active; 'I' for Inactive)
REMARK    1  A    between atoms: N_5  and  S_1 
REMARK    2  A    between atoms: N_2  and  C_4 
REMARK    3  A    between atoms: C_9  and  N_5 
REMARK    4  A    between atoms: C_13  and  C_10 
REMARK    5  A    between atoms: O_21  and  C_16 
ROOT
ATOM      1  C   UNL d   1       0.249   0.981  -4.905  0.00  0.00     0.039 A 
ATOM      2  C   UNL d   1      -0.110   0.243  -3.767  0.00  0.00     0.054 A 
ATOM      3  C   UNL d   1       0.856  -0.178  -2.852  0.00  0.00     0.024 A 
ATOM      4  C   UNL d   1       1.601   1.343  -5.085  0.00  0.00    -0.035 A 
ATOM      5  C   UNL d   1       2.565   0.895  -4.165  0.00  0.00     0.011 A 
ATOM      6  C   UNL d   1       2.194   0.144  -3.050  0.00  0.00     0.025 A 
ATOM      7  C   UNL d   1       2.058   2.193  -6.239  0.00  0.00     0.050 C 
ENDROOT
BRANCH   1   8
ATOM      8  N   UNL d   1      -0.796   1.378  -5.766  0.00  0.00    -0.365 N 
ATOM      9  C   UNL d   1      -0.722   1.032  -7.010  0.00  0.00     0.099 C 
ATOM     10  HN  UNL d   1      -1.586   1.922  -5.417  1.00  0.00     0.165 HD
BRANCH   9  11
ATOM     11  C   UNL d   1      -1.761   1.395  -7.994  0.00  0.00    -0.021 A 
ATOM     12  C   UNL d   1      -3.076   1.649  -7.600  0.00  0.00     0.015 A 
ATOM     13  C   UNL d   1      -4.050   1.937  -8.565  0.00  0.00     0.037 A 
ATOM     14  C   UNL d   1      -3.703   1.986  -9.917  0.00  0.00     0.068 A 
ATOM     15  C   UNL d   1      -2.376   1.774 -10.297  0.00  0.00     0.037 A 
ATOM     16  C   UNL d   1      -1.406   1.459  -9.343  0.00  0.00     0.015 A 
BRANCH  14  17
ATOM     17  O   UNL d   1      -4.561   2.275 -10.942  0.00  0.00    -0.356 OA
ATOM     18  C   UNL d   1      -5.906   1.848 -10.753  0.00  0.00     0.210 C 
ENDBRANCH  14  17
ENDBRANCH   9  11
ENDBRANCH   1   8
BRANCH   3  19
ATOM     19  N   UNL d   1       0.477  -0.886  -1.671  0.00  0.00    -0.186 NA
ATOM     20  H   UNL d   1      -0.295  -1.545  -1.798  0.00  0.00     0.145 HD
BRANCH  19  21
ATOM     21  S   UNL d   1       0.167   0.033  -0.281  0.00  0.00     0.210 S 
ATOM     22  O   UNL d   1      -0.748  -0.768   0.505  0.00  0.00    -0.211 OA
ATOM     23  O   UNL d   1      -0.147   1.396  -0.638  0.00  0.00    -0.211 OA
ATOM     24  C   UNL d   1       1.747  -0.005   0.540  0.00  0.00     0.180 C 
ENDBRANCH  19  21
ENDBRANCH   3  19
TORSDOF 5
