REMARK  7 active torsions:
REMARK  status: ('A' for Active; 'I' for Inactive)
REMARK    1  A    between atoms: C_21  and  N_1 
REMARK    2  A    between atoms: S_4  and  N_15 
REMARK    3  A    between atoms: C_8  and  S_4 
REMARK    4  A    between atoms: C_28  and  N_6 
REMARK    5  A    between atoms: C_14  and  C_9 
REMARK       I    between atoms: N_17  and  C_14 
REMARK    6  A    between atoms: N_15  and  N_17 
REMARK    7  A    between atoms: C_30  and  C_21 
ROOT
ATOM      1  N   UNL d   1      -0.697   1.197  -0.017  0.00  0.00    -0.261 N 
ATOM      2  C   UNL d   1      -1.395  -0.004  -0.166  0.00  0.00     0.332 C 
ATOM      3  C   UNL d   1       1.425   0.018   0.044  0.00  0.00     0.082 C 
ATOM      4  C   UNL d   1       0.683   1.295   0.067  0.00  0.00     0.266 C 
ATOM      5  N   UNL d   1      -0.635  -1.175  -0.000  0.00  0.00    -0.304 N 
ATOM      6  C   UNL d   1       2.844   0.009   0.013  0.00  0.00     0.091 A 
ATOM      7  C   UNL d   1       4.991  -0.093   0.630  0.00  0.00     0.110 A 
ATOM      8  N   UNL d   1       3.657  -0.147   1.044  0.00  0.00    -0.345 N 
ATOM      9  HN  UNL d   1       3.353  -0.289   2.007  1.00  0.00     0.167 HD
ATOM     10  C   UNL d   1       0.744  -1.131   0.042  0.00  0.00     0.116 C 
ATOM     11  S   UNL d   1       3.650   0.148  -1.516  0.00  0.00    -0.081 SA
ATOM     12  C   UNL d   1       5.164   0.045  -0.733  0.00  0.00     0.087 A 
ATOM     13  O   UNL d   1      -2.596  -0.042  -0.441  0.00  0.00    -0.246 OA
ATOM     14  O   UNL d   1       1.293   2.363   0.127  0.00  0.00    -0.267 OA
ENDROOT
BRANCH   7  15
ATOM     15  C   UNL d   1       6.093  -0.216   1.580  0.00  0.00     0.287 C 
ATOM     16  N   UNL d   1       5.681  -0.294   2.894  0.00  0.00    -0.255 N 
ATOM     17  H   UNL d   1       4.689  -0.251   3.136  0.00  0.00     0.191 HD
ATOM     18  O   UNL d   1       7.278  -0.299   1.244  0.00  0.00    -0.264 OA
BRANCH  16  19
ATOM     19  N   UNL d   1       6.663  -0.578   3.919  0.00  0.00    -0.220 N 
ATOM     20  H   UNL d   1       7.641  -0.710   3.640  0.00  0.00     0.200 HD
BRANCH  19  21
ATOM     21  S   UNL d   1       6.198  -1.204   5.409  0.00  0.00     0.282 S 
ATOM     22  O   UNL d   1       7.378  -1.249   6.246  0.00  0.00    -0.198 OA
ATOM     23  O   UNL d   1       4.974  -0.554   5.826  0.00  0.00    -0.198 OA
BRANCH  21  24
ATOM     24  C   UNL d   1       5.769  -2.915   5.160  0.00  0.00     0.123 A 
ATOM     25  S   UNL d   1       4.449  -3.227   4.110  0.00  0.00    -0.064 SA
ATOM     26  C   UNL d   1       4.614  -4.896   4.317  0.00  0.00     0.075 A 
ATOM     27 CL   UNL d   1       3.553  -5.964   3.490  0.00  0.00    -0.076 Cl
ATOM     28  C   UNL d   1       5.632  -5.247   5.165  0.00  0.00     0.033 A 
ATOM     29  C   UNL d   1       6.306  -4.090   5.659  0.00  0.00     0.035 A 
ENDBRANCH  21  24
ENDBRANCH  19  21
ENDBRANCH  16  19
ENDBRANCH   7  15
BRANCH   1  30
ATOM     30  C   UNL d   1      -1.463   2.443   0.006  0.00  0.00     0.175 C 
BRANCH  30  31
ATOM     31  C   UNL d   1      -2.021   2.735   1.386  0.00  0.00    -0.040 A 
ATOM     32  C   UNL d   1      -1.282   3.472   2.323  0.00  0.00     0.009 A 
ATOM     33  C   UNL d   1      -1.753   3.631   3.629  0.00  0.00     0.001 A 
ATOM     34  C   UNL d   1      -2.970   3.066   4.009  0.00  0.00     0.000 A 
ATOM     35  C   UNL d   1      -3.733   2.371   3.075  0.00  0.00     0.001 A 
ATOM     36  C   UNL d   1      -3.264   2.209   1.771  0.00  0.00     0.009 A 
ENDBRANCH  30  31
ENDBRANCH   1  30
BRANCH   5  37
ATOM     37  C   UNL d   1      -1.339  -2.482  -0.031  0.00  0.00     0.086 C 
ATOM     38  C   UNL d   1      -1.366  -3.069  -1.444  0.00  0.00     0.032 C 
ATOM     39  C   UNL d   1      -0.795  -3.518   0.964  0.00  0.00     0.032 C 
ENDBRANCH   5  37
TORSDOF 7
