REMARK  7 active torsions:
REMARK  status: ('A' for Active; 'I' for Inactive)
REMARK    1  A    between atoms: C_2  and  C_1 
REMARK       I    between atoms: N_8  and  C_2 
REMARK       I    between atoms: C_4  and  N_11 
REMARK       I    between atoms: N_12  and  C_4 
REMARK    2  A    between atoms: C_7  and  C_5 
REMARK    3  A    between atoms: N_11  and  N_8 
REMARK    4  A    between atoms: C_22  and  C_9 
REMARK    5  A    between atoms: C_15  and  N_12 
REMARK    6  A    between atoms: C_23  and  C_22 
REMARK    7  A    between atoms: C_24  and  C_23 
ROOT
ATOM      1  C   UNL d   1      -0.646  -2.530   0.114  0.00  0.00     0.293 C 
ATOM      2  N   UNL d   1       0.419  -3.421   0.085  0.00  0.00    -0.260 N 
ATOM      3  O   UNL d   1      -1.809  -2.943   0.211  0.00  0.00    -0.264 OA
ATOM      4  H   UNL d   1       1.384  -3.091   0.046  0.00  0.00     0.190 HD
ENDROOT
BRANCH   2   5
ATOM      5  N   UNL d   1       0.224  -4.819   0.333  0.00  0.00    -0.248 N 
ATOM      6  C   UNL d   1       1.339  -5.654   0.365  0.00  0.00     0.339 C 
ATOM      7  N   UNL d   1       1.030  -6.979   0.657  0.00  0.00    -0.308 N 
ATOM      8  O   UNL d   1       2.467  -5.194   0.197  0.00  0.00    -0.245 OA
ATOM      9  H   UNL d   1       0.053  -7.189   0.808  0.00  0.00     0.170 HD
ATOM     10  H   UNL d   1      -0.739  -5.148   0.315  0.00  0.00     0.192 HD
BRANCH   7  11
ATOM     11  C   UNL d   1       1.944  -8.037   0.938  0.00  0.00     0.036 A 
ATOM     12  C   UNL d   1       3.331  -7.936   0.783  0.00  0.00     0.031 A 
ATOM     13  C   UNL d   1       4.185  -8.976   1.191  0.00  0.00     0.026 A 
ATOM     14  C   UNL d   1       3.660 -10.123   1.775  0.00  0.00     0.034 A 
ATOM     15  C   UNL d   1       2.282 -10.263   1.902  0.00  0.00     0.026 A 
ATOM     16 CL   UNL d   1       4.711 -11.355   2.358  0.00  0.00    -0.084 Cl
ATOM     17  C   UNL d   1       1.429  -9.238   1.457  0.00  0.00     0.031 A 
ENDBRANCH   7  11
ENDBRANCH   2   5
BRANCH   1  18
ATOM     18  C   UNL d   1      -0.307  -1.106   0.030  0.00  0.00     0.146 A 
ATOM     19  O   UNL d   1       1.010  -0.673   0.001  0.00  0.00    -0.296 OA
ATOM     20  C   UNL d   1       0.984   0.696  -0.021  0.00  0.00     0.129 A 
ATOM     21  C   UNL d   1      -0.312   1.157  -0.018  0.00  0.00     0.050 A 
ATOM     22  C   UNL d   1      -1.137   0.004  -0.001  0.00  0.00     0.046 A 
BRANCH  20  23
ATOM     23  C   UNL d   1       2.211   1.435  -0.024  0.00  0.00    -0.041 C 
ATOM     24  C   UNL d   1       3.178   2.147  -0.015  0.00  0.00    -0.099 C 
BRANCH  24  25
ATOM     25  C   UNL d   1       4.356   3.050   0.015  0.00  0.00     0.094 C 
BRANCH  25  26
ATOM     26  C   UNL d   1       3.996   4.535   0.158  0.00  0.00     0.012 C 
BRANCH  26  27
ATOM     27  C   UNL d   1       3.272   4.862   1.466  0.00  0.00    -0.004 C 
ATOM     28  C   UNL d   1       2.952   6.347   1.572  0.00  0.00     0.005 C 
ENDBRANCH  26  27
ENDBRANCH  25  26
ENDBRANCH  24  25
ENDBRANCH  20  23
ENDBRANCH   1  18
TORSDOF 7
