REMARK  4 active torsions:
REMARK  status: ('A' for Active; 'I' for Inactive)
REMARK    1  A    between atoms: C_7  and  C_1 
REMARK    2  A    between atoms: C_6  and  N_2 
REMARK    3  A    between atoms: O_19  and  C_5 
REMARK    4  A    between atoms: C_12  and  C_8 
ROOT
ATOM      1  N   UNL d   1       0.707   4.305  -0.101  0.00  0.00    -0.364 N 
ATOM      2  HN  UNL d   1      -0.077   3.654  -0.143  1.00  0.00     0.165 HD
ATOM      3  C   UNL d   1       1.935   3.885  -0.113  0.00  0.00     0.102 C 
ENDROOT
BRANCH   1   4
ATOM      4  C   UNL d   1       0.500   5.703  -0.029  0.00  0.00     0.054 A 
ATOM      5  C   UNL d   1       1.145   6.553  -0.945  0.00  0.00     0.046 A 
ATOM      6  C   UNL d   1       0.984   7.939  -0.889  0.00  0.00     0.011 A 
ATOM      7  C   UNL d   1       0.108   8.480   0.062  0.00  0.00     0.017 A 
ATOM      8  C   UNL d   1      -0.578   7.649   0.951  0.00  0.00     0.027 A 
ATOM      9  C   UNL d   1      -0.379   6.266   0.911  0.00  0.00     0.060 A 
ATOM     10 CL   UNL d   1      -1.240   5.285   2.042  0.00  0.00    -0.082 Cl
BRANCH   6  11
ATOM     11  C   UNL d   1       1.711   8.878  -1.799  0.00  0.00     0.155 C 
ATOM     12  O   UNL d   1       1.415  10.073  -1.775  0.00  0.00    -0.293 OA
ATOM     13  C   UNL d   1       2.806   8.391  -2.715  0.00  0.00     0.096 C 
ENDBRANCH   6  11
ENDBRANCH   1   4
BRANCH   3  14
ATOM     14  C   UNL d   1       2.276   2.456  -0.237  0.00  0.00     0.016 A 
ATOM     15  C   UNL d   1       3.583   2.082  -0.565  0.00  0.00     0.099 A 
ATOM     16  C   UNL d   1       3.904   0.725  -0.683  0.00  0.00     0.069 A 
ATOM     17 CL   UNL d   1       5.510   0.248  -1.096  0.00  0.00    -0.081 Cl
ATOM     18  C   UNL d   1       2.935  -0.251  -0.476  0.00  0.00     0.050 A 
ATOM     19  C   UNL d   1       1.632   0.133  -0.155  0.00  0.00     0.036 A 
ATOM     20  C   UNL d   1       1.294   1.480  -0.038  0.00  0.00     0.039 A 
ATOM     21 CL   UNL d   1       0.433  -1.073   0.100  0.00  0.00    -0.084 Cl
BRANCH  15  22
ATOM     22  O   UNL d   1       4.531   3.048  -0.789  0.00  0.00    -0.358 OA
ATOM     23  H   UNL d   1       5.365   2.596  -1.024  0.00  0.00     0.217 HD
ENDBRANCH  15  22
ENDBRANCH   3  14
TORSDOF 4
