REMARK  7 active torsions:
REMARK  status: ('A' for Active; 'I' for Inactive)
REMARK    1  A    between atoms: C_10  and  C_1 
REMARK    2  A    between atoms: C_14  and  C_4 
REMARK    3  A    between atoms: C_8  and  C_17 
REMARK    4  A    between atoms: O_15  and  C_9 
REMARK    5  A    between atoms: O_20  and  C_10 
REMARK    6  A    between atoms: C_17  and  O_15 
REMARK    7  A    between atoms: O_24  and  C_21 
ROOT
ATOM      1  N   UNL d   1       5.515   4.973   0.222  0.00  0.00    -0.277 N 
ATOM      2  HN  UNL d   1       6.004   5.865   0.301  1.00  0.00     0.189 HD
ATOM      3  C   UNL d   1       6.066   3.778   0.140  0.00  0.00     0.174 A 
ATOM      4  O   UNL d   1       5.133   2.774   0.042  0.00  0.00    -0.275 OA
ATOM      5  N   UNL d   1       4.150   4.784   0.179  0.00  0.00    -0.279 N 
ATOM      6  HN  UNL d   1       3.431   5.506   0.232  1.00  0.00     0.189 HD
ATOM      7  C   UNL d   1       3.957   3.486   0.054  0.00  0.00     0.165 A 
ENDROOT
BRANCH   7   8
ATOM      8  C   UNL d   1       2.694   2.749  -0.216  0.00  0.00     0.261 C 
BRANCH   8   9
ATOM      9  O   UNL d   1       2.161   2.309   1.026  0.00  0.00    -0.342 OA
BRANCH   9  10
ATOM     10  C   UNL d   1       0.939   1.698   1.031  0.00  0.00     0.092 A 
ATOM     11  C   UNL d   1       0.011   1.468   0.015  0.00  0.00     0.113 A 
ATOM     12  S   UNL d   1      -1.383   0.645   0.653  0.00  0.00    -0.093 SA
ATOM     13  C   UNL d   1      -0.775   0.644   2.236  0.00  0.00     0.053 A 
ATOM     14  C   UNL d   1       0.463   1.230   2.297  0.00  0.00     0.045 A 
BRANCH  11  15
ATOM     15  C   UNL d   1       0.013   1.726  -1.421  0.00  0.00     0.302 C 
ATOM     16  O   UNL d   1       0.999   1.771  -2.146  0.00  0.00    -0.259 OA
BRANCH  15  17
ATOM     17  O   UNL d   1      -1.258   1.939  -1.881  0.00  0.00    -0.322 OA
ATOM     18  C   UNL d   1      -1.360   2.164  -3.288  0.00  0.00     0.213 C 
ENDBRANCH  15  17
ENDBRANCH  11  15
ENDBRANCH   9  10
ENDBRANCH   8   9
ENDBRANCH   7   8
BRANCH   3  19
ATOM     19  C   UNL d   1       7.472   3.407   0.068  0.00  0.00     0.017 A 
ATOM     20  C   UNL d   1       8.409   4.335  -0.412  0.00  0.00     0.018 A 
ATOM     21  C   UNL d   1       9.774   4.022  -0.474  0.00  0.00     0.037 A 
ATOM     22  C   UNL d   1      10.225   2.776  -0.045  0.00  0.00     0.068 A 
ATOM     23  C   UNL d   1       9.295   1.843   0.424  0.00  0.00     0.037 A 
ATOM     24  C   UNL d   1       7.931   2.150   0.477  0.00  0.00     0.018 A 
BRANCH  22  25
ATOM     25  O   UNL d   1      11.524   2.350  -0.034  0.00  0.00    -0.356 OA
ATOM     26  C   UNL d   1      12.513   3.288  -0.441  0.00  0.00     0.210 C 
ENDBRANCH  22  25
ENDBRANCH   3  19
TORSDOF 7
