REMARK  5 active torsions:
REMARK  status: ('A' for Active; 'I' for Inactive)
REMARK       I    between atoms: C_2  and  N_7 
REMARK    1  A    between atoms: C_12  and  C_2 
REMARK    2  A    between atoms: N_7  and  C_15 
REMARK    3  A    between atoms: S_9  and  C_12 
REMARK    4  A    between atoms: C_14  and  S_9 
REMARK    5  A    between atoms: C_15  and  C_13 
ROOT
ATOM      1  C   UNL d   1       6.021  -1.125  -0.042  0.00  0.00     0.227 C 
ATOM      2  N   UNL d   1       4.752  -0.598  -0.109  0.00  0.00    -0.356 N 
ATOM      3  O   UNL d   1       6.243  -2.334  -0.056  0.00  0.00    -0.273 OA
ATOM      4  H   UNL d   1       4.655   0.409  -0.048  0.00  0.00     0.162 HD
ENDROOT
BRANCH   2   5
ATOM      5  C   UNL d   1       3.559  -1.405  -0.037  0.00  0.00     0.161 C 
BRANCH   5   6
ATOM      6  C   UNL d   1       2.979  -1.673  -1.400  0.00  0.00    -0.038 A 
ATOM      7  C   UNL d   1       2.053  -0.783  -1.969  0.00  0.00     0.048 A 
ATOM      8  C   UNL d   1       1.544  -1.083  -3.216  0.00  0.00     0.105 A 
ATOM      9  C   UNL d   1       1.921  -2.214  -3.901  0.00  0.00     0.105 A 
ATOM     10  O   UNL d   1       0.639  -0.337  -3.904  0.00  0.00    -0.323 OA
ATOM     11  O   UNL d   1       1.300  -2.322  -5.106  0.00  0.00    -0.323 OA
ATOM     12  C   UNL d   1       2.834  -3.105  -3.382  0.00  0.00     0.040 A 
ATOM     13  C   UNL d   1       0.521  -1.108  -5.118  0.00  0.00     0.352 A 
ATOM     14  C   UNL d   1       3.372  -2.824  -2.122  0.00  0.00     0.012 A 
ENDBRANCH   5   6
ENDBRANCH   2   5
BRANCH   1  15
ATOM     15  C   UNL d   1       7.161  -0.105  -0.025  0.00  0.00     0.182 C 
BRANCH  15  16
ATOM     16  S   UNL d   1       6.678   1.396   0.907  0.00  0.00    -0.121 SA
BRANCH  16  17
ATOM     17  C   UNL d   1       8.111   2.460   0.837  0.00  0.00     0.001 A 
ATOM     18  C   UNL d   1       9.325   2.159   0.210  0.00  0.00     0.021 A 
ATOM     19  C   UNL d   1      10.379   3.084   0.232  0.00  0.00     0.043 A 
ATOM     20  C   UNL d   1      10.218   4.304   0.879  0.00  0.00     0.116 A 
ATOM     21  C   UNL d   1       9.024   4.622   1.506  0.00  0.00     0.043 A 
ATOM     22  F   UNL d   1      11.230   5.182   0.898  0.00  0.00    -0.206 F 
ATOM     23  C   UNL d   1       7.975   3.702   1.484  0.00  0.00     0.021 A 
ENDBRANCH  16  17
ENDBRANCH  15  16
ENDBRANCH   1  15
TORSDOF 5
