REMARK  3 active torsions:
REMARK  status: ('A' for Active; 'I' for Inactive)
REMARK    1  A    between atoms: S_10  and  C_2 
REMARK    2  A    between atoms: C_11  and  S_10 
REMARK    3  A    between atoms: C_13  and  C_11 
ROOT
ATOM      1  C   UNL d   1       2.414  -0.784   0.020  0.00  0.00     0.085 A 
ATOM      2  C   UNL d   1       2.355   0.611   0.061  0.00  0.00     0.092 A 
ATOM      3  N   UNL d   1       1.183   1.288   0.058  0.00  0.00    -0.349 N 
ATOM      4  HN  UNL d   1       1.178   2.307   0.081  1.00  0.00     0.166 HD
ATOM      5  C   UNL d   1       1.202  -1.511   0.004  0.00  0.00    -0.026 A 
ATOM      6  C   UNL d   1      -0.030  -0.800   0.010  0.00  0.00    -0.002 A 
ATOM      7  C   UNL d   1       3.682  -1.456  -0.006  0.00  0.00     0.103 C 
ATOM      8  C   UNL d   1       0.028   0.609   0.025  0.00  0.00     0.043 A 
ATOM      9  N   UNL d   1       4.687  -2.036  -0.027  0.00  0.00    -0.191 NA
ATOM     10  C   UNL d   1       1.188  -3.024  -0.020  0.00  0.00     0.050 C 
ATOM     11  C   UNL d   1      -1.306  -1.418  -0.005  0.00  0.00     0.014 A 
ATOM     12  C   UNL d   1      -1.152   1.339   0.000  0.00  0.00     0.030 A 
ATOM     13  C   UNL d   1      -2.479  -0.664  -0.027  0.00  0.00     0.001 A 
ATOM     14  C   UNL d   1      -2.402   0.720  -0.030  0.00  0.00     0.002 A 
ENDROOT
BRANCH   2  15
ATOM     15  S   UNL d   1       3.825   1.641   0.075  0.00  0.00    -0.106 SA
BRANCH  15  16
ATOM     16  C   UNL d   1       3.167   3.130   0.895  0.00  0.00     0.119 C 
BRANCH  16  17
ATOM     17  C   UNL d   1       4.216   4.208   1.042  0.00  0.00    -0.048 A 
ATOM     18  C   UNL d   1       4.305   5.244   0.097  0.00  0.00     0.009 A 
ATOM     19  C   UNL d   1       5.257   6.256   0.241  0.00  0.00     0.024 A 
ATOM     20  C   UNL d   1       6.132   6.236   1.324  0.00  0.00     0.034 A 
ATOM     21  C   UNL d   1       6.065   5.209   2.264  0.00  0.00     0.024 A 
ATOM     22 CL   UNL d   1       7.299   7.488   1.505  0.00  0.00    -0.084 Cl
ATOM     23  C   UNL d   1       5.112   4.197   2.122  0.00  0.00     0.009 A 
ENDBRANCH  16  17
ENDBRANCH  15  16
ENDBRANCH   2  15
TORSDOF 3
