REMARK  3 active torsions:
REMARK  status: ('A' for Active; 'I' for Inactive)
REMARK    1  A    between atoms: C_4  and  C_1 
REMARK       I    between atoms: N_7  and  C_4 
REMARK    2  A    between atoms: N_9  and  N_7 
REMARK    3  A    between atoms: C_10  and  N_9 
ROOT
ATOM      1  C   UNL d   1      -1.851   0.753  -0.927  0.00  0.00     0.284 C 
ATOM      2  N   UNL d   1      -3.221   0.581  -1.048  0.00  0.00    -0.281 N 
ATOM      3  O   UNL d   1      -1.297   0.972   0.148  0.00  0.00    -0.265 OA
ATOM      4  H   UNL d   1      -3.616   0.202  -1.905  0.00  0.00     0.184 HD
ENDROOT
BRANCH   2   5
ATOM      5  N   UNL d   1      -3.993   0.457   0.128  0.00  0.00    -0.203 NA
ATOM      6  H   UNL d   1      -3.483   0.866   0.923  0.00  0.00     0.153 HD
BRANCH   5   7
ATOM      7  C   UNL d   1      -5.269   1.083   0.047  0.00  0.00     0.033 A 
ATOM      8  C   UNL d   1      -6.293   0.689   0.932  0.00  0.00    -0.039 A 
ATOM      9  C   UNL d   1      -7.549   1.325   0.872  0.00  0.00     0.015 A 
ATOM     10  C   UNL d   1      -6.130  -0.432   1.923  0.00  0.00     0.050 C 
ATOM     11  C   UNL d   1      -7.791   2.378  -0.017  0.00  0.00    -0.061 A 
ATOM     12  C   UNL d   1      -6.757   2.803  -0.850  0.00  0.00     0.008 A 
ATOM     13  C   UNL d   1      -9.136   3.039  -0.049  0.00  0.00     0.048 C 
ATOM     14  C   UNL d   1      -5.513   2.168  -0.813  0.00  0.00     0.026 A 
ENDBRANCH   5   7
ENDBRANCH   2   5
BRANCH   1  15
ATOM     15  C   UNL d   1      -1.116   0.655  -2.190  0.00  0.00     0.126 A 
ATOM     16  N   UNL d   1      -1.736   0.498  -3.373  0.00  0.00    -0.256 N 
ATOM     17  O   UNL d   1      -0.733   0.474  -4.328  0.00  0.00    -0.242 OA
ATOM     18  HN  UNL d   1      -2.740   0.414  -3.535  1.00  0.00     0.195 HD
ATOM     19  C   UNL d   1       0.477   0.604  -3.721  0.00  0.00     0.075 A 
ATOM     20  C   UNL d   1       0.290   0.718  -2.367  0.00  0.00     0.071 A 
ATOM     21  C   UNL d   1       1.661   0.594  -4.600  0.00  0.00     0.079 C 
ENDBRANCH   1  15
TORSDOF 3
