REMARK  0 active torsions:
REMARK  status: ('A' for Active; 'I' for Inactive)
ROOT
ATOM      1  N   UNL d   1       2.382   0.675   0.018  0.00  0.00    -0.275 N 
ATOM      2  C   UNL d   1       1.243   1.442   0.053  0.00  0.00     0.261 A 
ATOM      3  C   UNL d   1       2.437  -0.690   0.007  0.00  0.00     0.327 A 
ATOM      4  C   UNL d   1      -0.035   0.704   0.042  0.00  0.00     0.059 A 
ATOM      5  C   UNL d   1       0.006  -0.691   0.059  0.00  0.00     0.053 A 
ATOM      6  N   UNL d   1       1.240  -1.347   0.057  0.00  0.00    -0.308 N 
ATOM      7  C   UNL d   1      -1.178  -1.428   0.049  0.00  0.00     0.054 A 
ATOM      8  C   UNL d   1      -1.259   1.378  -0.009  0.00  0.00     0.021 A 
ATOM      9  O   UNL d   1       1.276   2.666   0.087  0.00  0.00    -0.267 OA
ATOM     10  O   UNL d   1       3.499  -1.298  -0.049  0.00  0.00    -0.247 OA
ATOM     11  C   UNL d   1      -2.399  -0.753  -0.015  0.00  0.00     0.036 A 
ATOM     12  C   UNL d   1      -2.445   0.642  -0.050  0.00  0.00     0.025 A 
ATOM     13 CL   UNL d   1      -3.864  -1.654  -0.073  0.00  0.00    -0.084 Cl
ATOM     14  H   UNL d   1       3.264   1.164  -0.005  0.00  0.00     0.173 HD
ATOM     15  H   UNL d   1       1.293  -2.358   0.045  0.00  0.00     0.170 HD
ENDROOT
TORSDOF 0
