REMARK  5 active torsions:
REMARK  status: ('A' for Active; 'I' for Inactive)
REMARK    1  A    between atoms: C_2  and  C_1 
REMARK    2  A    between atoms: C_7  and  C_2 
REMARK    3  A    between atoms: C_4  and  C_3 
REMARK    4  A    between atoms: C_5  and  C_10 
REMARK    5  A    between atoms: C_19  and  C_6 
ROOT
ATOM      1  C   UNL d   1       0.944   1.043  -1.797  0.00  0.00     0.097 C 
ATOM      2  C   UNL d   1       0.229   0.112  -1.133  0.00  0.00     0.045 C 
ATOM      3  C   UNL d   1       0.341   2.139  -2.464  0.00  0.00     0.103 C 
ATOM      4  N   UNL d   1      -0.145   3.036  -3.019  0.00  0.00    -0.191 NA
ENDROOT
BRANCH   1   5
ATOM      5  C   UNL d   1       2.444   0.908  -1.790  0.00  0.00     0.209 C 
ATOM      6  O   UNL d   1       2.967   0.261  -0.880  0.00  0.00    -0.285 OA
BRANCH   5   7
ATOM      7  C   UNL d   1       3.227   1.539  -2.855  0.00  0.00     0.056 A 
ATOM      8  S   UNL d   1       4.830   2.054  -2.505  0.00  0.00    -0.098 SA
ATOM      9  C   UNL d   1       5.069   2.642  -4.091  0.00  0.00     0.050 A 
ATOM     10  C   UNL d   1       3.967   2.435  -4.888  0.00  0.00     0.009 A 
ATOM     11  C   UNL d   1       2.910   1.789  -4.180  0.00  0.00     0.023 A 
ENDBRANCH   5   7
ENDBRANCH   1   5
BRANCH   2  12
ATOM     12  C   UNL d   1      -1.195   0.104  -1.132  0.00  0.00     0.007 A 
ATOM     13  S   UNL d   1      -2.031  -0.817  -2.322  0.00  0.00    -0.101 SA
ATOM     14  C   UNL d   1      -3.557  -0.354  -1.712  0.00  0.00     0.071 A 
ATOM     15  C   UNL d   1      -3.449   0.463  -0.611  0.00  0.00     0.025 A 
ATOM     16  C   UNL d   1      -2.087   0.735  -0.280  0.00  0.00     0.040 A 
BRANCH  15  17
ATOM     17  C   UNL d   1      -4.595   0.958   0.088  0.00  0.00    -0.061 C 
ATOM     18  C   UNL d   1      -5.594   1.345   0.634  0.00  0.00    -0.061 C 
BRANCH  18  19
ATOM     19  C   UNL d   1      -6.815   1.793   1.233  0.00  0.00     0.018 A 
ATOM     20  C   UNL d   1      -7.803   0.871   1.592  0.00  0.00     0.020 A 
ATOM     21  C   UNL d   1      -9.013   1.314   2.133  0.00  0.00     0.001 A 
ATOM     22  C   UNL d   1      -9.236   2.678   2.318  0.00  0.00     0.000 A 
ATOM     23  C   UNL d   1      -8.249   3.599   1.972  0.00  0.00     0.001 A 
ATOM     24  C   UNL d   1      -7.039   3.158   1.430  0.00  0.00     0.020 A 
ENDBRANCH  18  19
ENDBRANCH  15  17
ENDBRANCH   2  12
TORSDOF 5
