REMARK  3 active torsions:
REMARK  status: ('A' for Active; 'I' for Inactive)
REMARK       I    between atoms: N_2  and  C_1 
REMARK       I    between atoms: N_3  and  C_1 
REMARK    1  A    between atoms: C_19  and  N_3 
REMARK    2  A    between atoms: C_15  and  N_4 
REMARK    3  A    between atoms: C_14  and  C_15 
ROOT
ATOM      1  C   UNL d   1       1.039   0.067   0.004  0.00  0.00     0.323 C 
ATOM      2  N   UNL d   1       0.487  -1.026   0.669  0.00  0.00    -0.331 N 
ATOM      3  N   UNL d   1       0.580   0.285  -1.272  0.00  0.00    -0.309 N 
ATOM      4  N   UNL d   1      -0.176  -3.525   2.116  0.00  0.00     0.095 N 
ATOM      5  O   UNL d   1       1.893   0.760   0.555  0.00  0.00    -0.247 OA
ATOM      6  C   UNL d   1       0.909  -1.234   2.060  0.00  0.00     0.158 C 
ATOM      7  C   UNL d   1      -0.667  -1.836   0.257  0.00  0.00     0.158 C 
ATOM      8  C   UNL d   1       1.037  -2.727   2.402  0.00  0.00     0.292 C 
ATOM      9  C   UNL d   1      -0.541  -3.314   0.698  0.00  0.00     0.292 C 
ATOM     10  H   UNL d   1      -0.191  -0.269  -1.593  0.00  0.00     0.170 HD
ENDROOT
BRANCH   3  11
ATOM     11  C   UNL d   1       1.022   1.270  -2.187  0.00  0.00     0.036 A 
ATOM     12  C   UNL d   1       2.086   2.142  -1.948  0.00  0.00     0.029 A 
ATOM     13  C   UNL d   1       2.448   3.102  -2.898  0.00  0.00     0.002 A 
ATOM     14  C   UNL d   1       1.752   3.195  -4.101  0.00  0.00     0.000 A 
ATOM     15  C   UNL d   1       0.702   2.319  -4.359  0.00  0.00     0.002 A 
ATOM     16  C   UNL d   1       0.341   1.359  -3.408  0.00  0.00     0.029 A 
ENDBRANCH   3  11
BRANCH   4  17
ATOM     17  C   UNL d   1      -1.308  -3.195   2.998  0.00  0.00     0.311 C 
BRANCH  17  18
ATOM     18  C   UNL d   1      -1.036  -3.402   4.473  0.00  0.00    -0.027 A 
ATOM     19  C   UNL d   1      -1.141  -2.318   5.363  0.00  0.00     0.048 A 
ATOM     20  C   UNL d   1      -0.932  -2.555   6.704  0.00  0.00     0.105 A 
ATOM     21  O   UNL d   1      -1.014  -1.626   7.694  0.00  0.00    -0.323 OA
ATOM     22  C   UNL d   1      -0.622  -3.806   7.180  0.00  0.00     0.105 A 
ATOM     23  C   UNL d   1      -0.747  -2.443   8.852  0.00  0.00     0.352 A 
ATOM     24  O   UNL d   1      -0.473  -3.823   8.532  0.00  0.00    -0.323 OA
ATOM     25  C   UNL d   1      -0.493  -4.890   6.340  0.00  0.00     0.040 A 
ATOM     26  C   UNL d   1      -0.704  -4.683   4.972  0.00  0.00     0.012 A 
ENDBRANCH  17  18
ENDBRANCH   4  17
TORSDOF 3
