REMARK  3 active torsions:
REMARK  status: ('A' for Active; 'I' for Inactive)
REMARK    1  A    between atoms: C_4  and  C_1 
REMARK       I    between atoms: N_11  and  C_4 
REMARK       I    between atoms: C_9  and  N_12 
REMARK    2  A    between atoms: C_10  and  C_9 
REMARK    3  A    between atoms: N_12  and  N_11 
ROOT
ATOM      1  C   UNL d   1       3.189  -3.943  -0.094  0.00  0.00     0.271 C 
ATOM      2  N   UNL d   1       3.060  -3.355  -1.340  0.00  0.00    -0.263 N 
ATOM      3  O   UNL d   1       3.408  -3.276   0.913  0.00  0.00    -0.266 OA
ATOM      4  H   UNL d   1       2.956  -3.871  -2.212  0.00  0.00     0.190 HD
ENDROOT
BRANCH   2   5
ATOM      5  N   UNL d   1       3.170  -1.961  -1.448  0.00  0.00    -0.262 N 
ATOM      6  C   UNL d   1       2.974  -1.376  -2.691  0.00  0.00     0.280 C 
ATOM      7  O   UNL d   1       2.702  -2.092  -3.659  0.00  0.00    -0.265 OA
ATOM      8  H   UNL d   1       3.352  -1.448  -0.588  0.00  0.00     0.190 HD
BRANCH   6   9
ATOM      9  C   UNL d   1       3.109   0.060  -2.780  0.00  0.00     0.115 A 
ATOM     10  C   UNL d   1       2.930   0.915  -3.864  0.00  0.00     0.046 A 
ATOM     11  N   UNL d   1       3.171   2.259  -3.587  0.00  0.00    -0.298 N 
ATOM     12  C   UNL d   1       2.521   0.589  -5.256  0.00  0.00     0.071 C 
ATOM     13  N   UNL d   1       3.526   2.451  -2.331  0.00  0.00    -0.269 N 
ATOM     14  HN  UNL d   1       3.083   3.007  -4.275  1.00  0.00     0.187 HD
ATOM     15  S   UNL d   1       3.577   1.038  -1.451  0.00  0.00     0.009 SA
ATOM     16  HN  UNL d   1       3.746   3.367  -1.940  1.00  0.00     0.195 HD
ENDBRANCH   6   9
ENDBRANCH   2   5
BRANCH   1  17
ATOM     17  C   UNL d   1       3.025  -5.433  -0.055  0.00  0.00     0.044 A 
ATOM     18  C   UNL d   1       3.783  -6.258   0.830  0.00  0.00    -0.010 A 
ATOM     19  C   UNL d   1       3.522  -7.655   0.828  0.00  0.00    -0.025 A 
ATOM     20  C   UNL d   1       4.794  -5.798   1.712  0.00  0.00     0.013 A 
ATOM     21  C   UNL d   1       4.234  -8.515   1.682  0.00  0.00     0.012 A 
ATOM     22  C   UNL d   1       2.549  -8.191  -0.028  0.00  0.00     0.012 A 
ATOM     23  C   UNL d   1       5.213  -8.024   2.542  0.00  0.00     0.001 A 
ATOM     24  C   UNL d   1       5.494  -6.667   2.555  0.00  0.00     0.001 A 
ATOM     25  C   UNL d   1       1.821  -7.375  -0.887  0.00  0.00     0.002 A 
ATOM     26  C   UNL d   1       2.052  -6.003  -0.898  0.00  0.00     0.018 A 
ENDBRANCH   1  17
TORSDOF 3
