REMARK  3 active torsions:
REMARK  status: ('A' for Active; 'I' for Inactive)
REMARK    1  A    between atoms: C_11  and  C_2 
REMARK    2  A    between atoms: C_16  and  C_10 
REMARK    3  A    between atoms: C_13  and  C_12 
ROOT
ATOM      1  N   UNL d   1       0.296   0.623   0.032  0.00  0.00    -0.235 N 
ATOM      2  C   UNL d   1      -0.822   1.446   0.031  0.00  0.00     0.144 A 
ATOM      3  C   UNL d   1       0.147  -0.768   0.034  0.00  0.00     0.130 A 
ATOM      4  N   UNL d   1       1.603   0.964   0.027  0.00  0.00    -0.291 N 
ATOM      5  HN  UNL d   1       1.986   1.909   0.035  1.00  0.00     0.187 HD
ATOM      6  N   UNL d   1      -1.072  -1.382   0.054  0.00  0.00    -0.339 N 
ATOM      7  HN  UNL d   1      -1.158  -2.398   0.064  1.00  0.00     0.167 HD
ATOM      8  C   UNL d   1      -2.051   0.891   0.037  0.00  0.00     0.068 A 
ATOM      9  C   UNL d   1       1.418  -1.289   0.013  0.00  0.00     0.082 A 
ATOM     10  C   UNL d   1       2.297  -0.182   0.009  0.00  0.00     0.062 A 
ATOM     11  C   UNL d   1      -2.123  -0.607   0.059  0.00  0.00     0.062 A 
ENDROOT
BRANCH  11  12
ATOM     12  C   UNL d   1      -3.498  -1.205   0.099  0.00  0.00     0.059 A 
ATOM     13  N   UNL d   1      -4.543  -0.338   0.096  0.00  0.00    -0.364 N 
ATOM     14  C   UNL d   1      -5.782  -0.874   0.147  0.00  0.00     0.088 A 
ATOM     15  HN  UNL d   1      -4.399   0.672   0.058  1.00  0.00     0.165 HD
ATOM     16  C   UNL d   1      -6.032  -2.235   0.200  0.00  0.00     0.017 A 
ATOM     17  C   UNL d   1      -4.948  -3.105   0.200  0.00  0.00     0.004 A 
ATOM     18  C   UNL d   1      -3.657  -2.587   0.148  0.00  0.00     0.032 A 
ENDBRANCH  11  12
BRANCH   2  19
ATOM     19  C   UNL d   1      -0.644   2.918   0.022  0.00  0.00     0.434 C 
ATOM     20  F   UNL d   1       0.628   3.380   0.000  0.00  0.00    -0.165 F 
ATOM     21  F   UNL d   1      -1.266   3.471  -1.057  0.00  0.00    -0.165 F 
ATOM     22  F   UNL d   1      -1.233   3.480   1.114  0.00  0.00    -0.165 F 
ENDBRANCH   2  19
BRANCH  10  23
ATOM     23  C   UNL d   1       3.766  -0.181  -0.011  0.00  0.00    -0.008 A 
ATOM     24  C   UNL d   1       4.476   1.030   0.005  0.00  0.00     0.014 A 
ATOM     25  C   UNL d   1       5.873   1.045  -0.015  0.00  0.00     0.001 A 
ATOM     26  C   UNL d   1       6.581  -0.152  -0.051  0.00  0.00     0.000 A 
ATOM     27  C   UNL d   1       5.894  -1.364  -0.067  0.00  0.00     0.001 A 
ATOM     28  C   UNL d   1       4.495  -1.379  -0.047  0.00  0.00     0.014 A 
ENDBRANCH  10  23
TORSDOF 3
