REMARK  1 active torsions:
REMARK  status: ('A' for Active; 'I' for Inactive)
REMARK    1  A    between atoms: C_6  and  N_1 
ROOT
ATOM      1  N   UNL d   1      -2.389  -0.044  -0.286  0.00  0.00    -0.252 N 
ATOM      2  C   UNL d   1      -1.605  -1.169  -0.621  0.00  0.00     0.236 C 
ATOM      3  C   UNL d   1      -1.629   0.927   0.395  0.00  0.00     0.236 C 
ATOM      4  C   UNL d   1      -0.413  -1.004   0.255  0.00  0.00     0.100 C 
ATOM      5  C   UNL d   1      -0.220   0.509   0.139  0.00  0.00     0.100 C 
ATOM      6  C   UNL d   1       1.015  -1.510   0.362  0.00  0.00     0.022 C 
ATOM      7  C   UNL d   1       1.108   0.703   0.882  0.00  0.00     0.022 C 
ATOM      8  C   UNL d   1       2.130   0.446  -0.219  0.00  0.00    -0.025 C 
ATOM      9  C   UNL d   1       2.010  -0.846  -0.577  0.00  0.00    -0.025 C 
ATOM     10  C   UNL d   1       1.362  -0.637   1.608  0.00  0.00     0.018 C 
ATOM     11  O   UNL d   1      -1.851  -2.123  -1.334  0.00  0.00    -0.272 OA
ATOM     12  O   UNL d   1      -1.976   1.919   1.007  0.00  0.00    -0.272 OA
ENDROOT
BRANCH   1  13
ATOM     13  C   UNL d   1      -3.786   0.053  -0.511  0.00  0.00     0.048 A 
ATOM     14  C   UNL d   1      -4.581  -1.100  -0.598  0.00  0.00     0.075 A 
ATOM     15  C   UNL d   1      -5.962  -0.993  -0.765  0.00  0.00     0.157 A 
ATOM     16  F   UNL d   1      -6.705  -2.107  -0.790  0.00  0.00    -0.203 F 
ATOM     17  C   UNL d   1      -6.565   0.251  -0.884  0.00  0.00     0.154 A 
ATOM     18  C   UNL d   1      -5.798   1.405  -0.820  0.00  0.00     0.048 A 
ATOM     19  F   UNL d   1      -7.890   0.347  -1.055  0.00  0.00    -0.203 F 
ATOM     20  C   UNL d   1      -4.416   1.307  -0.617  0.00  0.00     0.033 A 
ENDBRANCH   1  13
TORSDOF 1
