REMARK  7 active torsions:
REMARK  status: ('A' for Active; 'I' for Inactive)
REMARK    1  A    between atoms: C_2  and  C_1 
REMARK    2  A    between atoms: C_3  and  C_2 
REMARK    3  A    between atoms: N_5  and  C_4 
REMARK       I    between atoms: C_6  and  N_5 
REMARK    4  A    between atoms: C_17  and  C_6 
REMARK    5  A    between atoms: C_14  and  C_10 
REMARK    6  A    between atoms: N_12  and  C_17 
REMARK    7  A    between atoms: C_19  and  N_12 
ROOT
ATOM      1  N   UNL d   1       4.026  -0.281   0.004  0.00  0.00    -0.325 N 
ATOM      2  C   UNL d   1       4.736   0.476   0.926  0.00  0.00     0.235 C 
ATOM      3  O   UNL d   1       4.250   0.928   1.961  0.00  0.00    -0.272 OA
ATOM      4  H   UNL d   1       4.641  -0.912  -0.508  0.00  0.00     0.169 HD
ENDROOT
BRANCH   1   5
ATOM      5  C   UNL d   1       2.735  -0.741   0.340  0.00  0.00     0.049 A 
ATOM      6  C   UNL d   1       1.567  -0.030  -0.004  0.00  0.00     0.043 A 
ATOM      7  C   UNL d   1       0.325  -0.478   0.478  0.00  0.00     0.041 A 
ATOM      8  C   UNL d   1       0.250  -1.626   1.262  0.00  0.00     0.035 A 
ATOM      9  C   UNL d   1       1.398  -2.357   1.555  0.00  0.00     0.026 A 
ATOM     10 CL   UNL d   1      -1.272  -2.150   1.870  0.00  0.00    -0.084 Cl
ATOM     11  C   UNL d   1       2.640  -1.922   1.087  0.00  0.00     0.032 A 
BRANCH   6  12
ATOM     12  C   UNL d   1       1.533   1.174  -0.886  0.00  0.00     0.196 C 
ATOM     13  O   UNL d   1       0.578   1.948  -0.837  0.00  0.00    -0.287 OA
BRANCH  12  14
ATOM     14  C   UNL d   1       2.627   1.501  -1.822  0.00  0.00     0.037 A 
ATOM     15  C   UNL d   1       3.115   0.608  -2.784  0.00  0.00     0.048 A 
ATOM     16 CL   UNL d   1       2.381  -0.923  -3.105  0.00  0.00    -0.083 Cl
ATOM     17  C   UNL d   1       4.239   0.957  -3.539  0.00  0.00     0.025 A 
ATOM     18  C   UNL d   1       4.842   2.205  -3.370  0.00  0.00     0.002 A 
ATOM     19  C   UNL d   1       4.313   3.121  -2.462  0.00  0.00     0.001 A 
ATOM     20  C   UNL d   1       3.204   2.773  -1.691  0.00  0.00     0.017 A 
ENDBRANCH  12  14
ENDBRANCH   6  12
ENDBRANCH   1   5
BRANCH   2  21
ATOM     21  C   UNL d   1       6.204   0.734   0.565  0.00  0.00     0.195 C 
BRANCH  21  22
ATOM     22  N   UNL d   1       6.595   0.206  -0.758  0.00  0.00    -0.284 NA
ATOM     23  H   UNL d   1       6.974   0.966  -1.323  0.00  0.00     0.128 HD
BRANCH  22  24
ATOM     24  C   UNL d   1       7.434  -0.914  -0.820  0.00  0.00     0.008 A 
ATOM     25  C   UNL d   1       7.213  -2.072  -0.073  0.00  0.00     0.024 A 
ATOM     26  C   UNL d   1       7.971  -3.235  -0.300  0.00  0.00     0.014 A 
ATOM     27  C   UNL d   1       8.979  -3.282  -1.277  0.00  0.00    -0.026 A 
ATOM     28  C   UNL d   1       9.223  -2.102  -1.992  0.00  0.00     0.014 A 
ATOM     29  C   UNL d   1       8.455  -0.947  -1.777  0.00  0.00     0.024 A 
BRANCH  27  30
ATOM     30  C   UNL d   1       9.715  -4.534  -1.589  0.00  0.00    -0.026 A 
ATOM     31  C   UNL d   1      11.084  -4.524  -1.910  0.00  0.00     0.012 A 
ATOM     32  C   UNL d   1      11.762  -5.700  -2.262  0.00  0.00     0.001 A 
ATOM     33  C   UNL d   1      11.083  -6.915  -2.286  0.00  0.00     0.000 A 
ATOM     34  C   UNL d   1       9.732  -6.955  -1.961  0.00  0.00     0.001 A 
ATOM     35  C   UNL d   1       9.055  -5.776  -1.620  0.00  0.00     0.012 A 
ENDBRANCH  27  30
ENDBRANCH  22  24
ENDBRANCH  21  22
ENDBRANCH   2  21
TORSDOF 7
