REMARK  2 active torsions:
REMARK  status: ('A' for Active; 'I' for Inactive)
REMARK    1  A    between atoms: N_2  and  S_1 
REMARK    2  A    between atoms: C_3  and  S_1 
ROOT
ATOM      1  S   UNL d   1       1.328  -0.137  -0.258  0.00  0.00     0.243 S 
ATOM      2  O   UNL d   1       1.042  -1.345   0.486  0.00  0.00    -0.206 OA
ATOM      3  O   UNL d   1       2.664   0.412  -0.308  0.00  0.00    -0.206 OA
ENDROOT
BRANCH   1   4
ATOM      4  N   UNL d   1       0.257   1.081   0.245  0.00  0.00    -0.202 NA
ATOM      5  C   UNL d   1       0.502   2.462  -0.281  0.00  0.00     0.134 C 
ATOM      6  C   UNL d   1       1.588   3.192   0.527  0.00  0.00     0.183 C 
ATOM      7  O   UNL d   1       1.291   3.201   1.932  0.00  0.00    -0.389 OA
ATOM      8  C   UNL d   1       1.135   1.868   2.442  0.00  0.00     0.183 C 
ATOM      9  C   UNL d   1      -0.001   1.143   1.718  0.00  0.00     0.134 C 
ENDBRANCH   1   4
BRANCH   1  10
ATOM     10  C   UNL d   1       0.795  -0.447  -1.927  0.00  0.00     0.076 A 
ATOM     11  C   UNL d   1      -0.511  -0.901  -2.136  0.00  0.00     0.050 A 
ATOM     12  C   UNL d   1      -0.961  -1.131  -3.438  0.00  0.00     0.057 A 
ATOM     13 CL   UNL d   1      -2.583  -1.688  -3.639  0.00  0.00    -0.083 Cl
ATOM     14  C   UNL d   1      -0.104  -0.907  -4.524  0.00  0.00     0.055 A 
ATOM     15  C   UNL d   1       1.213  -0.486  -4.300  0.00  0.00     0.027 A 
ATOM     16 CL   UNL d   1      -0.611  -1.118  -6.162  0.00  0.00    -0.083 Cl
ATOM     17  C   UNL d   1       1.670  -0.258  -2.999  0.00  0.00     0.026 A 
ENDBRANCH   1  10
TORSDOF 2
