REMARK  3 active torsions:
REMARK  status: ('A' for Active; 'I' for Inactive)
REMARK       I    between atoms: N_3  and  C_1 
REMARK    1  A    between atoms: O_6  and  C_1 
REMARK       I    between atoms: C_2  and  N_4 
REMARK    2  A    between atoms: C_5  and  C_2 
REMARK    3  A    between atoms: C_14  and  O_6 
ROOT
ATOM      1  C   UNL d   1       0.855  -0.163  -0.304  0.00  0.00     0.363 C 
ATOM      2  C   UNL d   1      -2.534   0.171  -4.462  0.00  0.00     0.260 C 
ATOM      3  N   UNL d   1       0.304   0.167  -1.531  0.00  0.00    -0.326 N 
ATOM      4  N   UNL d   1      -2.097  -0.331  -3.222  0.00  0.00    -0.346 N 
ATOM      5  O   UNL d   1       1.669  -1.070  -0.172  0.00  0.00    -0.238 OA
ATOM      6  C   UNL d   1      -0.734   1.183  -1.733  0.00  0.00     0.148 C 
ATOM      7  C   UNL d   1      -2.107   0.581  -2.062  0.00  0.00     0.146 C 
ATOM      8  O   UNL d   1      -2.876   1.354  -4.543  0.00  0.00    -0.267 OA
ATOM      9  C   UNL d   1      -0.117  -1.867  -2.902  0.00  0.00     0.040 C 
ATOM     10  C   UNL d   1       0.703  -0.598  -2.703  0.00  0.00     0.129 C 
ATOM     11  C   UNL d   1      -1.639  -1.690  -2.942  0.00  0.00     0.127 C 
ENDROOT
BRANCH   1  12
ATOM     12  O   UNL d   1       0.419   0.623   0.714  0.00  0.00    -0.294 OA
BRANCH  12  13
ATOM     13  C   UNL d   1       1.033   0.518   2.031  0.00  0.00     0.061 C 
ATOM     14  C   UNL d   1       2.517   0.907   1.976  0.00  0.00     0.046 C 
ATOM     15  C   UNL d   1       0.301   1.550   2.905  0.00  0.00     0.046 C 
ATOM     16  C   UNL d   1       0.830  -0.867   2.659  0.00  0.00     0.046 C 
ENDBRANCH  12  13
ENDBRANCH   1  12
BRANCH   2  17
ATOM     17  C   UNL d   1      -2.602  -0.709  -5.627  0.00  0.00     0.072 A 
ATOM     18  S   UNL d   1      -3.981  -0.576  -6.654  0.00  0.00    -0.097 SA
ATOM     19  C   UNL d   1      -3.398  -1.772  -7.725  0.00  0.00     0.050 A 
ATOM     20  C   UNL d   1      -2.175  -2.261  -7.333  0.00  0.00     0.009 A 
ATOM     21  C   UNL d   1      -1.705  -1.628  -6.142  0.00  0.00     0.025 A 
ENDBRANCH   2  17
TORSDOF 3
