REMARK  4 active torsions:
REMARK  status: ('A' for Active; 'I' for Inactive)
REMARK    1  A    between atoms: C_4  and  N_1 
REMARK       I    between atoms: C_6  and  N_1 
REMARK    2  A    between atoms: C_12  and  C_6 
REMARK    3  A    between atoms: C_7  and  S_10 
REMARK    4  A    between atoms: S_10  and  C_12 
ROOT
ATOM      1  N   UNL d   1       1.376  -1.336  -3.334  0.00  0.00    -0.191 NA
ATOM      2  C   UNL d   1       0.855  -0.504  -2.716  0.00  0.00     0.102 C 
ATOM      3  C   UNL d   1       0.261   0.645  -0.577  0.00  0.00     0.055 A 
ATOM      4  C   UNL d   1       0.127   0.490  -1.971  0.00  0.00     0.071 A 
ATOM      5  C   UNL d   1      -0.842   1.240  -2.658  0.00  0.00     0.025 A 
ATOM      6  C   UNL d   1      -0.625   1.487   0.108  0.00  0.00     0.031 A 
ATOM      7  C   UNL d   1      -1.681   2.118  -1.971  0.00  0.00     0.002 A 
ATOM      8  C   UNL d   1      -1.580   2.232  -0.587  0.00  0.00     0.002 A 
ENDROOT
BRANCH   3   9
ATOM      9  N   UNL d   1       1.239  -0.018   0.204  0.00  0.00    -0.325 N 
ATOM     10  C   UNL d   1       2.580  -0.045  -0.161  0.00  0.00     0.231 C 
ATOM     11  O   UNL d   1       3.047   0.570  -1.117  0.00  0.00    -0.272 OA
ATOM     12  H   UNL d   1       1.108  -0.023   1.216  0.00  0.00     0.169 HD
BRANCH  10  13
ATOM     13  C   UNL d   1       3.442  -0.879   0.772  0.00  0.00     0.184 C 
BRANCH  13  14
ATOM     14  S   UNL d   1       4.566   0.173   1.734  0.00  0.00    -0.103 SA
BRANCH  14  15
ATOM     15  C   UNL d   1       3.406   1.059   2.756  0.00  0.00     0.069 A 
ATOM     16  N   UNL d   1       2.191   0.502   2.989  0.00  0.00    -0.361 N 
ATOM     17  C   UNL d   1       1.368   1.171   3.831  0.00  0.00     0.089 A 
ATOM     18  HN  UNL d   1       1.911  -0.375   2.551  1.00  0.00     0.165 HD
ATOM     19  C   UNL d   1       1.677   2.388   4.416  0.00  0.00     0.017 A 
ATOM     20  C   UNL d   1       2.917   2.949   4.144  0.00  0.00     0.004 A 
ATOM     21  C   UNL d   1       3.803   2.270   3.312  0.00  0.00     0.037 A 
ENDBRANCH  14  15
ENDBRANCH  13  14
ENDBRANCH  10  13
ENDBRANCH   3   9
TORSDOF 4
