REMARK  5 active torsions:
REMARK  status: ('A' for Active; 'I' for Inactive)
REMARK    1  A    between atoms: C_2  and  S_1 
REMARK    2  A    between atoms: N_4  and  S_1 
REMARK    3  A    between atoms: S_8  and  N_4 
REMARK    4  A    between atoms: C_9  and  C_6 
REMARK    5  A    between atoms: C_7  and  S_8 
ROOT
ATOM      1  N   UNL d   1       0.973  -2.276  -0.761  0.00  0.00    -0.258 N 
ATOM      2  HN  UNL d   1       1.896  -2.462  -0.367  1.00  0.00     0.186 HD
ENDROOT
BRANCH   1   3
ATOM      3  S   UNL d   1      -0.437  -2.526   0.177  0.00  0.00     0.270 S 
ATOM      4  O   UNL d   1      -1.561  -1.821  -0.416  0.00  0.00    -0.200 OA
ATOM      5  O   UNL d   1      -0.557  -3.928   0.519  0.00  0.00    -0.200 OA
BRANCH   3   6
ATOM      6  C   UNL d   1      -0.044  -1.665   1.658  0.00  0.00     0.109 A 
ATOM      7  C   UNL d   1       1.183  -1.836   2.335  0.00  0.00     0.090 A 
ATOM      8  N   UNL d   1       2.201  -2.650   2.010  0.00  0.00    -0.309 N 
ATOM      9  C   UNL d   1       1.469  -1.030   3.583  0.00  0.00     0.068 A 
ATOM     10  S   UNL d   1       3.377  -2.444   3.162  0.00  0.00     0.068 SA
ATOM     11  HN  UNL d   1       2.243  -3.277   1.206  1.00  0.00     0.176 HD
ATOM     12  N   UNL d   1       2.669  -1.290   4.121  0.00  0.00    -0.310 N 
ATOM     13  HN  UNL d   1       3.069  -0.863   4.956  1.00  0.00     0.176 HD
ATOM     14  C   UNL d   1       0.526  -0.101   4.086  0.00  0.00     0.032 A 
ATOM     15  C   UNL d   1      -0.675   0.021   3.368  0.00  0.00     0.004 A 
ATOM     16  C   UNL d   1      -0.952  -0.728   2.202  0.00  0.00     0.028 A 
ENDBRANCH   3   6
ENDBRANCH   1   3
BRANCH   1  17
ATOM     17  S   UNL d   1       0.825  -1.747  -2.270  0.00  0.00    -0.069 SA
ATOM     18  C   UNL d   1      -0.137  -3.119  -2.964  0.00  0.00     0.109 C 
BRANCH  17  19
ATOM     19  C   UNL d   1       2.497  -2.257  -2.675  0.00  0.00     0.094 A 
ATOM     20  C   UNL d   1       3.622  -1.449  -2.569  0.00  0.00     0.083 A 
ATOM     21  C   UNL d   1       4.860  -2.025  -2.922  0.00  0.00     0.044 A 
ATOM     22  C   UNL d   1       4.927  -3.350  -3.335  0.00  0.00     0.050 A 
ATOM     23  C   UNL d   1       3.752  -4.070  -3.397  0.00  0.00     0.112 A 
ATOM     24 CL   UNL d   1       6.428  -4.064  -3.756  0.00  0.00    -0.083 Cl
ATOM     25  N   UNL d   1       2.543  -3.549  -3.085  0.00  0.00    -0.358 N 
ATOM     26  HN  UNL d   1       1.694  -4.109  -3.155  1.00  0.00     0.166 HD
BRANCH  20  27
ATOM     27  C   UNL d   1       3.605  -0.016  -2.134  0.00  0.00     0.420 C 
ATOM     28  F   UNL d   1       2.452   0.437  -1.578  0.00  0.00    -0.166 F 
ATOM     29  F   UNL d   1       4.573   0.242  -1.207  0.00  0.00    -0.166 F 
ATOM     30  F   UNL d   1       3.870   0.827  -3.173  0.00  0.00    -0.166 F 
ENDBRANCH  20  27
ENDBRANCH  17  19
ENDBRANCH   1  17
TORSDOF 5
