REMARK  1 active torsions:
REMARK  status: ('A' for Active; 'I' for Inactive)
REMARK    1  A    between atoms: C_10  and  N_1 
ROOT
ATOM      1  N   UNL d   1       2.406   0.706  -0.033  0.00  0.00    -0.268 N 
ATOM      2  C   UNL d   1       1.233   1.462   0.093  0.00  0.00     0.266 A 
ATOM      3  C   UNL d   1       2.359  -0.678  -0.067  0.00  0.00     0.087 A 
ATOM      4  C   UNL d   1      -0.033   0.710   0.053  0.00  0.00     0.059 A 
ATOM      5  N   UNL d   1       1.255  -1.361  -0.043  0.00  0.00    -0.345 N 
ATOM      6  HN  UNL d   1       1.278  -2.381  -0.055  1.00  0.00     0.167 HD
ATOM      7  C   UNL d   1       0.037  -0.680   0.000  0.00  0.00     0.051 A 
ATOM      8  C   UNL d   1      -1.270   1.368   0.046  0.00  0.00     0.021 A 
ATOM      9  C   UNL d   1      -1.147  -1.420  -0.024  0.00  0.00     0.054 A 
ATOM     10  O   UNL d   1       1.176   2.686   0.200  0.00  0.00    -0.267 OA
ATOM     11  C   UNL d   1      -2.381  -0.770  -0.025  0.00  0.00     0.036 A 
ATOM     12  C   UNL d   1      -2.448   0.623  -0.001  0.00  0.00     0.025 A 
ATOM     13  C   UNL d   1       3.636  -1.498  -0.080  0.00  0.00     0.089 C 
ATOM     14 CL   UNL d   1      -3.833  -1.692  -0.068  0.00  0.00    -0.084 Cl
ENDROOT
BRANCH   1  15
ATOM     15  C   UNL d   1       3.630   1.429  -0.152  0.00  0.00     0.046 A 
ATOM     16  C   UNL d   1       4.020   2.320   0.851  0.00  0.00     0.047 A 
ATOM     17  C   UNL d   1       5.209   3.008   0.691  0.00  0.00     0.090 A 
ATOM     18  N   UNL d   1       6.008   2.880  -0.390  0.00  0.00    -0.375 N 
ATOM     19  C   UNL d   1       5.595   2.038  -1.360  0.00  0.00     0.090 A 
ATOM     20  HN  UNL d   1       6.883   3.397  -0.470  1.00  0.00     0.164 HD
ATOM     21  C   UNL d   1       4.431   1.290  -1.286  0.00  0.00     0.047 A 
ENDBRANCH   1  15
TORSDOF 1
