REMARK  3 active torsions:
REMARK  status: ('A' for Active; 'I' for Inactive)
REMARK    1  A    between atoms: C_12  and  C_1 
REMARK    2  A    between atoms: S_16  and  C_7 
REMARK    3  A    between atoms: C_8  and  C_9 
ROOT
ATOM      1  C   UNL d   1      -1.624  -5.035  -0.049  0.00  0.00     0.063 A 
ATOM      2  N   UNL d   1      -0.395  -3.227   0.987  0.00  0.00    -0.362 N 
ATOM      3  HN  UNL d   1       0.192  -2.885   1.749  1.00  0.00     0.165 HD
ATOM      4  C   UNL d   1      -0.768  -2.410  -0.032  0.00  0.00     0.085 A 
ATOM      5  C   UNL d   1      -0.828  -4.509   0.957  0.00  0.00     0.104 A 
ATOM      6  C   UNL d   1      -2.002  -4.177  -1.086  0.00  0.00     0.020 A 
ATOM      7  C   UNL d   1      -1.572  -2.850  -1.079  0.00  0.00     0.035 A 
ENDROOT
BRANCH   4   8
ATOM      8  C   UNL d   1      -0.277  -1.038   0.008  0.00  0.00     0.192 A 
ATOM      9  O   UNL d   1       0.552  -0.689   1.043  0.00  0.00    -0.266 OA
ATOM     10  C   UNL d   1       0.826   0.621   0.763  0.00  0.00     0.203 A 
ATOM     11  N   UNL d   1       0.222   1.036  -0.333  0.00  0.00    -0.272 N 
ATOM     12  N   UNL d   1      -0.493  -0.037  -0.824  0.00  0.00    -0.275 N 
ATOM     13  HN  UNL d   1       0.273   1.971  -0.740  1.00  0.00     0.189 HD
ATOM     14  HN  UNL d   1      -1.073  -0.053  -1.663  1.00  0.00     0.189 HD
BRANCH  10  15
ATOM     15  S   UNL d   1       1.862   1.594   1.762  0.00  0.00    -0.089 SA
ATOM     16  C   UNL d   1       1.842   3.149   0.844  0.00  0.00     0.099 C 
ENDBRANCH  10  15
ENDBRANCH   4   8
BRANCH   1  17
ATOM     17  C   UNL d   1      -2.054  -6.470  -0.018  0.00  0.00     0.418 C 
ATOM     18  F   UNL d   1      -1.591  -7.156   1.062  0.00  0.00    -0.166 F 
ATOM     19  F   UNL d   1      -3.408  -6.606   0.006  0.00  0.00    -0.166 F 
ATOM     20  F   UNL d   1      -1.628  -7.162  -1.110  0.00  0.00    -0.166 F 
ENDBRANCH   1  17
TORSDOF 3
