REMARK  2 active torsions:
REMARK  status: ('A' for Active; 'I' for Inactive)
REMARK    1  A    between atoms: C_2  and  C_1 
REMARK       I    between atoms: N_6  and  C_1 
REMARK    2  A    between atoms: C_10  and  N_6 
ROOT
ATOM      1  C   UNL d   1       0.938   0.020   0.076  0.00  0.00     0.257 C 
ATOM      2  N   UNL d   1       0.160  -0.827  -0.691  0.00  0.00    -0.323 N 
ATOM      3  O   UNL d   1       0.517   0.923   0.789  0.00  0.00    -0.267 OA
ATOM      4  H   UNL d   1       0.643  -1.564  -1.189  0.00  0.00     0.169 HD
ENDROOT
BRANCH   2   5
ATOM      5  C   UNL d   1      -1.247  -0.840  -0.790  0.00  0.00     0.036 A 
ATOM      6  C   UNL d   1      -2.079   0.085  -0.159  0.00  0.00     0.048 A 
ATOM      7  C   UNL d   1      -3.448  -0.081  -0.287  0.00  0.00     0.050 A 
ATOM      8  C   UNL d   1      -4.514   0.724   0.298  0.00  0.00     0.294 A 
ATOM      9  C   UNL d   1      -4.013  -1.105  -1.016  0.00  0.00    -0.018 A 
ATOM     10  O   UNL d   1      -5.693   0.141  -0.084  0.00  0.00    -0.313 OA
ATOM     11  O   UNL d   1      -4.389   1.714   0.987  0.00  0.00    -0.259 OA
ATOM     12  C   UNL d   1      -5.482  -1.028  -0.902  0.00  0.00     0.218 A 
ATOM     13  C   UNL d   1      -3.212  -2.010  -1.684  0.00  0.00     0.012 A 
ATOM     14  C   UNL d   1      -1.823  -1.871  -1.567  0.00  0.00     0.030 A 
ENDBRANCH   2   5
BRANCH   1  15
ATOM     15  C   UNL d   1       2.422  -0.157  -0.017  0.00  0.00     0.054 A 
ATOM     16  C   UNL d   1       3.091  -1.353  -0.319  0.00  0.00     0.049 A 
ATOM     17 CL   UNL d   1       2.293  -2.866  -0.576  0.00  0.00    -0.083 Cl
ATOM     18  C   UNL d   1       4.491  -1.372  -0.400  0.00  0.00     0.025 A 
ATOM     19  C   UNL d   1       5.234  -0.214  -0.174  0.00  0.00     0.002 A 
ATOM     20  C   UNL d   1       4.583   0.972   0.148  0.00  0.00     0.001 A 
ATOM     21  C   UNL d   1       3.190   0.999   0.230  0.00  0.00     0.019 A 
ENDBRANCH   1  15
TORSDOF 2
