REMARK  8 active torsions:
REMARK  status: ('A' for Active; 'I' for Inactive)
REMARK    1  A    between atoms: N_2  and  S_1 
REMARK    2  A    between atoms: C_10  and  S_1 
REMARK       I    between atoms: C_8  and  N_2 
REMARK    3  A    between atoms: C_3  and  N_7 
REMARK    4  A    between atoms: C_6  and  C_9 
REMARK       I    between atoms: N_22  and  C_8 
REMARK    5  A    between atoms: N_15  and  C_32 
REMARK    6  A    between atoms: C_34  and  N_22 
REMARK    7  A    between atoms: C_32  and  C_33 
REMARK    8  A    between atoms: C_33  and  C_34 
ROOT
ATOM      1  C   UNL d   1       0.387   5.279  -5.640  0.00  0.00     0.274 C 
ENDROOT
BRANCH   1   2
ATOM      2  N   UNL d   1      -0.163   5.572  -6.976  0.00  0.00     0.091 N 
ATOM      3  C   UNL d   1      -1.644   5.495  -7.018  0.00  0.00     0.292 C 
ATOM      4  C   UNL d   1      -2.370   6.571  -6.180  0.00  0.00     0.171 C 
ATOM      5  N   UNL d   1      -1.897   7.900  -6.551  0.00  0.00    -0.214 N 
ATOM      6  C   UNL d   1      -0.451   8.102  -6.663  0.00  0.00     0.171 C 
ATOM      7  C   UNL d   1       0.221   6.936  -7.429  0.00  0.00     0.292 C 
BRANCH   5   8
ATOM      8  C   UNL d   1      -2.780   8.829  -7.032  0.00  0.00     0.680 A 
ATOM      9  N   UNL d   1      -2.298   9.918  -7.641  0.00  0.00    -0.186 N 
ATOM     10  C   UNL d   1      -3.167  10.835  -8.134  0.00  0.00     0.133 A 
ATOM     11  HN  UNL d   1      -1.292  10.056  -7.734  1.00  0.00     0.184 HD
ATOM     12  C   UNL d   1      -4.532  10.690  -7.995  0.00  0.00     0.052 A 
ATOM     13  C   UNL d   1      -4.944   9.554  -7.351  0.00  0.00     0.108 A 
ATOM     14  N   UNL d   1      -4.097   8.624  -6.879  0.00  0.00    -0.202 N 
ATOM     15  HN  UNL d   1      -4.446   7.786  -6.415  1.00  0.00     0.183 HD
BRANCH  10  16
ATOM     16  C   UNL d   1      -2.611  12.030  -8.881  0.00  0.00     0.433 C 
ATOM     17  F   UNL d   1      -1.251  12.055  -8.968  0.00  0.00    -0.165 F 
ATOM     18  F   UNL d   1      -3.064  12.090 -10.168  0.00  0.00    -0.165 F 
ATOM     19  F   UNL d   1      -2.969  13.218  -8.313  0.00  0.00    -0.165 F 
ENDBRANCH  10  16
ENDBRANCH   5   8
ENDBRANCH   1   2
BRANCH   1  20
ATOM     20  C   UNL d   1       0.086   3.855  -5.148  0.00  0.00     0.050 C 
BRANCH  20  21
ATOM     21  C   UNL d   1       0.612   2.788  -6.106  0.00  0.00     0.126 C 
BRANCH  21  22
ATOM     22  N   UNL d   1       0.340   1.445  -5.628  0.00  0.00    -0.342 N 
ATOM     23  C   UNL d   1       1.207   0.830  -4.774  0.00  0.00     0.329 C 
ATOM     24  N   UNL d   1       0.882  -0.480  -4.476  0.00  0.00    -0.232 N 
ATOM     25  O   UNL d   1       2.183   1.395  -4.300  0.00  0.00    -0.246 OA
ATOM     26  H   UNL d   1       0.054  -0.939  -4.833  0.00  0.00     0.183 HD
ATOM     27  H   UNL d   1      -0.479   0.961  -5.959  0.00  0.00     0.164 HD
BRANCH  24  28
ATOM     28  S   UNL d   1       1.811  -1.432  -3.470  0.00  0.00     0.266 S 
ATOM     29  O   UNL d   1       3.188  -1.393  -3.916  0.00  0.00    -0.200 OA
ATOM     30  O   UNL d   1       1.109  -2.691  -3.349  0.00  0.00    -0.200 OA
BRANCH  28  31
ATOM     31  C   UNL d   1       1.667  -0.596  -1.910  0.00  0.00     0.080 A 
ATOM     32  C   UNL d   1       0.432  -0.588  -1.254  0.00  0.00     0.026 A 
ATOM     33  C   UNL d   1       0.297   0.107  -0.051  0.00  0.00     0.008 A 
ATOM     34  C   UNL d   1       1.391   0.784   0.506  0.00  0.00    -0.062 A 
ATOM     35  C   UNL d   1       2.628   0.748  -0.153  0.00  0.00     0.008 A 
ATOM     36  C   UNL d   1       1.231   1.537   1.794  0.00  0.00     0.048 C 
ATOM     37  C   UNL d   1       2.770   0.057  -1.359  0.00  0.00     0.026 A 
ENDBRANCH  28  31
ENDBRANCH  24  28
ENDBRANCH  21  22
ENDBRANCH  20  21
ENDBRANCH   1  20
TORSDOF 8
