REMARK  1 active torsions:
REMARK  status: ('A' for Active; 'I' for Inactive)
REMARK    1  A    between atoms: C_5  and  C_1 
ROOT
ATOM      1  C   UNL d   1      -3.506  -0.785   2.072  0.00  0.00     0.240 A 
ATOM      2  N   UNL d   1      -4.008  -0.216   0.805  0.00  0.00    -0.260 NA
ATOM      3  O   UNL d   1      -2.061  -0.616   2.192  0.00  0.00    -0.324 OA
ATOM      4  C   UNL d   1      -2.842   0.397   0.310  0.00  0.00     0.046 A 
ATOM      5  C   UNL d   1      -1.733   0.107   1.084  0.00  0.00     0.092 A 
ATOM      6  C   UNL d   1      -2.714   1.145  -0.844  0.00  0.00     0.050 A 
ATOM      7  C   UNL d   1      -0.457   0.504   0.745  0.00  0.00     0.040 A 
ATOM      8  C   UNL d   1      -1.432   1.573  -1.205  0.00  0.00     0.035 A 
ATOM      9  C   UNL d   1      -0.307   1.248  -0.426  0.00  0.00     0.026 A 
ATOM     10 CL   UNL d   1      -1.221   2.504  -2.638  0.00  0.00    -0.084 Cl
ATOM     11  H   UNL d   1      -4.753   0.462   0.939  0.00  0.00     0.130 HD
ENDROOT
BRANCH   1  12
ATOM     12  C   UNL d   1      -3.810  -2.273   2.165  0.00  0.00    -0.004 A 
ATOM     13  C   UNL d   1      -4.648  -2.838   3.171  0.00  0.00    -0.016 A 
ATOM     14  C   UNL d   1      -4.696  -4.254   3.294  0.00  0.00    -0.025 A 
ATOM     15  C   UNL d   1      -5.444  -2.089   4.074  0.00  0.00     0.013 A 
ATOM     16  C   UNL d   1      -5.458  -4.853   4.309  0.00  0.00     0.012 A 
ATOM     17  C   UNL d   1      -3.979  -5.067   2.405  0.00  0.00     0.012 A 
ATOM     18  C   UNL d   1      -6.211  -4.084   5.192  0.00  0.00     0.001 A 
ATOM     19  C   UNL d   1      -6.215  -2.703   5.066  0.00  0.00     0.001 A 
ATOM     20  C   UNL d   1      -3.225  -4.512   1.380  0.00  0.00     0.002 A 
ATOM     21  C   UNL d   1      -3.143  -3.132   1.262  0.00  0.00     0.012 A 
ENDBRANCH   1  12
TORSDOF 1
