REMARK  7 active torsions:
REMARK  status: ('A' for Active; 'I' for Inactive)
REMARK    1  A    between atoms: C_3  and  C_1 
REMARK    2  A    between atoms: C_6  and  N_2 
REMARK    3  A    between atoms: N_7  and  C_23 
REMARK    4  A    between atoms: S_20  and  C_9 
REMARK    5  A    between atoms: C_27  and  S_20 
REMARK    6  A    between atoms: C_23  and  C_24 
REMARK    7  A    between atoms: C_24  and  C_27 
ROOT
ATOM      1  C   UNL d   1      -1.605  -2.984   8.227  0.00  0.00     0.273 C 
ENDROOT
BRANCH   1   2
ATOM      2  N   UNL d   1      -2.119  -3.004   9.609  0.00  0.00     0.091 N 
ATOM      3  C   UNL d   1      -2.981  -1.842   9.932  0.00  0.00     0.292 C 
ATOM      4  C   UNL d   1      -4.304  -1.785   9.138  0.00  0.00     0.153 C 
ATOM      5  N   UNL d   1      -5.058  -3.033   9.330  0.00  0.00    -0.377 N 
ATOM      6  C   UNL d   1      -4.300  -4.283   9.145  0.00  0.00     0.153 C 
ATOM      7  C   UNL d   1      -2.925  -4.228   9.861  0.00  0.00     0.292 C 
BRANCH   5   8
ATOM      8  C   UNL d   1      -6.373  -2.995   9.745  0.00  0.00     0.031 A 
ATOM      9  C   UNL d   1      -6.896  -3.933  10.645  0.00  0.00     0.053 A 
ATOM     10  C   UNL d   1      -8.217  -3.849  11.095  0.00  0.00     0.036 A 
ATOM     11 CL   UNL d   1      -8.806  -5.007  12.227  0.00  0.00    -0.084 Cl
ATOM     12  C   UNL d   1      -9.056  -2.834  10.651  0.00  0.00     0.024 A 
ATOM     13  C   UNL d   1      -8.569  -1.898   9.748  0.00  0.00     0.004 A 
ATOM     14  C   UNL d   1      -7.246  -1.985   9.303  0.00  0.00     0.029 A 
ENDBRANCH   5   8
ENDBRANCH   1   2
BRANCH   1  15
ATOM     15  C   UNL d   1      -0.751  -1.746   7.918  0.00  0.00     0.041 C 
BRANCH  15  16
ATOM     16  C   UNL d   1      -0.211  -1.791   6.490  0.00  0.00     0.082 C 
BRANCH  16  17
ATOM     17  S   UNL d   1       0.800  -0.300   6.184  0.00  0.00    -0.112 SA
BRANCH  17  18
ATOM     18  C   UNL d   1       1.235  -0.550   4.476  0.00  0.00     0.069 A 
ATOM     19  C   UNL d   1       2.022   0.397   3.832  0.00  0.00     0.038 A 
ATOM     20  C   UNL d   1       2.343   0.200   2.489  0.00  0.00     0.020 A 
ATOM     21  C   UNL d   1       1.873  -0.934   1.823  0.00  0.00     0.063 A 
ATOM     22  C   UNL d   1       1.103  -1.827   2.551  0.00  0.00     0.105 A 
ATOM     23  N   UNL d   1       0.777  -1.658   3.853  0.00  0.00    -0.360 N 
ATOM     24  HN  UNL d   1       0.207  -2.344   4.347  1.00  0.00     0.166 HD
BRANCH  21  25
ATOM     25  C   UNL d   1       2.173  -1.189   0.378  0.00  0.00     0.418 C 
ATOM     26  F   UNL d   1       1.607  -2.330  -0.103  0.00  0.00    -0.166 F 
ATOM     27  F   UNL d   1       3.507  -1.304   0.135  0.00  0.00    -0.166 F 
ATOM     28  F   UNL d   1       1.730  -0.186  -0.429  0.00  0.00    -0.166 F 
ENDBRANCH  21  25
ENDBRANCH  17  18
ENDBRANCH  16  17
ENDBRANCH  15  16
ENDBRANCH   1  15
TORSDOF 7
