REMARK  4 active torsions:
REMARK  status: ('A' for Active; 'I' for Inactive)
REMARK    1  A    between atoms: C_4  and  C_1 
REMARK       I    between atoms: N_9  and  C_4 
REMARK    2  A    between atoms: N_10  and  N_9 
REMARK    3  A    between atoms: C_12  and  N_10 
REMARK    4  A    between atoms: O_19  and  C_13 
ROOT
ATOM      1  C   UNL d   1      -0.216  -2.846  -0.281  0.00  0.00     0.276 C 
ATOM      2  N   UNL d   1       0.766  -3.718   0.184  0.00  0.00    -0.282 N 
ATOM      3  O   UNL d   1       0.089  -1.709  -0.647  0.00  0.00    -0.266 OA
ATOM      4  H   UNL d   1       0.515  -4.520   0.755  0.00  0.00     0.184 HD
ENDROOT
BRANCH   2   5
ATOM      5  N   UNL d   1       2.035  -3.167   0.459  0.00  0.00    -0.203 NA
ATOM      6  H   UNL d   1       2.169  -2.304  -0.089  0.00  0.00     0.153 HD
BRANCH   5   7
ATOM      7  C   UNL d   1       3.118  -4.048   0.212  0.00  0.00     0.027 A 
ATOM      8  C   UNL d   1       3.079  -5.104  -0.706  0.00  0.00     0.028 A 
ATOM      9  C   UNL d   1       4.206  -5.915  -0.919  0.00  0.00     0.038 A 
ATOM     10  C   UNL d   1       5.389  -5.668  -0.226  0.00  0.00     0.068 A 
ATOM     11  C   UNL d   1       5.456  -4.574   0.639  0.00  0.00     0.038 A 
ATOM     12  C   UNL d   1       4.334  -3.769   0.849  0.00  0.00     0.028 A 
BRANCH  10  13
ATOM     13  O   UNL d   1       6.547  -6.382  -0.348  0.00  0.00    -0.356 OA
ATOM     14  C   UNL d   1       6.384  -7.761  -0.661  0.00  0.00     0.210 C 
ENDBRANCH  10  13
ENDBRANCH   5   7
ENDBRANCH   2   5
BRANCH   1  15
ATOM     15  C   UNL d   1      -1.571  -3.351  -0.305  0.00  0.00     0.115 A 
ATOM     16  C   UNL d   1      -2.767  -2.715  -0.619  0.00  0.00     0.046 A 
ATOM     17  N   UNL d   1      -3.891  -3.539  -0.571  0.00  0.00    -0.298 N 
ATOM     18  C   UNL d   1      -3.001  -1.295  -0.992  0.00  0.00     0.071 C 
ATOM     19  N   UNL d   1      -3.586  -4.776  -0.228  0.00  0.00    -0.269 N 
ATOM     20  HN  UNL d   1      -4.838  -3.222  -0.778  1.00  0.00     0.187 HD
ATOM     21  S   UNL d   1      -1.958  -4.986   0.049  0.00  0.00     0.009 SA
ATOM     22  HN  UNL d   1      -4.275  -5.524  -0.142  1.00  0.00     0.195 HD
ENDBRANCH   1  15
TORSDOF 4
