REMARK  3 active torsions:
REMARK  status: ('A' for Active; 'I' for Inactive)
REMARK    1  A    between atoms: C_6  and  C_5 
REMARK    2  A    between atoms: O_17  and  C_7 
REMARK    3  A    between atoms: N_16  and  C_8 
ROOT
ATOM      1  C   UNL d   1       0.032  -0.810   0.070  0.00  0.00     0.045 A 
ATOM      2  N   UNL d   1       1.146   1.341  -0.058  0.00  0.00    -0.352 N 
ATOM      3  HN  UNL d   1       1.083   2.358  -0.098  1.00  0.00     0.166 HD
ATOM      4  C   UNL d   1       0.031   0.596  -0.015  0.00  0.00     0.047 A 
ATOM      5  C   UNL d   1       2.358   0.729  -0.049  0.00  0.00     0.119 A 
ATOM      6  C   UNL d   1       1.320  -1.430   0.045  0.00  0.00     0.084 A 
ATOM      7  C   UNL d   1      -1.236  -1.503   0.130  0.00  0.00     0.027 A 
ATOM      8  C   UNL d   1       2.476  -0.654  -0.008  0.00  0.00     0.072 A 
ATOM      9  C   UNL d   1      -2.445  -0.782   0.062  0.00  0.00    -0.040 A 
ATOM     10  C   UNL d   1      -1.171   1.275  -0.071  0.00  0.00     0.031 A 
ATOM     11  C   UNL d   1      -2.394   0.609  -0.058  0.00  0.00     0.011 A 
ATOM     12  C   UNL d   1      -3.808  -1.420   0.077  0.00  0.00     0.050 C 
ENDROOT
BRANCH   5  13
ATOM     13  C   UNL d   1       3.623   1.573  -0.107  0.00  0.00     0.432 C 
ATOM     14  F   UNL d   1       3.409   2.918  -0.135  0.00  0.00    -0.165 F 
ATOM     15  F   UNL d   1       4.448   1.350   0.960  0.00  0.00    -0.165 F 
ATOM     16  F   UNL d   1       4.380   1.294  -1.210  0.00  0.00    -0.165 F 
ENDBRANCH   5  13
BRANCH   6  17
ATOM     17  O   UNL d   1       1.340  -2.807   0.021  0.00  0.00    -0.355 OA
ATOM     18  C   UNL d   1       2.597  -3.468  -0.043  0.00  0.00     0.210 C 
ENDBRANCH   6  17
BRANCH   7  19
ATOM     19  N   UNL d   1      -1.266  -2.873   0.490  0.00  0.00    -0.301 NA
ATOM     20  H   UNL d   1      -0.366  -3.323   0.325  0.00  0.00     0.124 HD
ATOM     21  H   UNL d   1      -2.031  -3.401   0.092  0.00  0.00     0.124 HD
ENDBRANCH   7  19
TORSDOF 3
