REMARK  5 active torsions:
REMARK  status: ('A' for Active; 'I' for Inactive)
REMARK    1  A    between atoms: C_2  and  N_1 
REMARK    2  A    between atoms: N_3  and  C_4 
REMARK    3  A    between atoms: C_7  and  C_11 
REMARK    4  A    between atoms: O_19  and  C_7 
REMARK    5  A    between atoms: C_20  and  O_19 
ROOT
ATOM      1  N   UNL d   1      -2.341   3.860   2.489  0.00  0.00    -0.367 N 
ATOM      2  C   UNL d   1      -4.849   4.879   3.466  0.00  0.00     0.088 C 
ATOM      3  C   UNL d   1      -3.011   4.891   1.709  0.00  0.00     0.125 C 
ATOM      4  C   UNL d   1      -2.572   3.827   3.927  0.00  0.00     0.125 C 
ATOM      5  C   UNL d   1      -4.072   3.789   4.223  0.00  0.00     0.034 C 
ATOM      6  C   UNL d   1      -4.517   4.821   1.972  0.00  0.00     0.034 C 
ENDROOT
BRANCH   1   7
ATOM      7  C   UNL d   1      -1.472   2.961   1.916  0.00  0.00     0.103 A 
ATOM      8  C   UNL d   1      -0.718   3.293   0.786  0.00  0.00     0.051 A 
ATOM      9  C   UNL d   1       0.098   2.343   0.171  0.00  0.00     0.041 A 
ATOM     10  C   UNL d   1       0.139   1.064   0.709  0.00  0.00     0.118 A 
ATOM     11  C   UNL d   1      -0.601   0.795   1.843  0.00  0.00     0.125 A 
ATOM     12  N   UNL d   1      -1.385   1.723   2.453  0.00  0.00    -0.350 N 
ATOM     13  HN  UNL d   1      -1.900   1.489   3.302  1.00  0.00     0.166 HD
BRANCH  10  14
ATOM     14  N   UNL d   1       0.943   0.019   0.092  0.00  0.00    -0.114 N 
ATOM     15  O   UNL d   1       0.926  -1.105   0.619  0.00  0.00    -0.532 OA
ATOM     16  O   UNL d   1       1.594   0.310  -0.917  0.00  0.00    -0.532 OA
ENDBRANCH  10  14
ENDBRANCH   1   7
BRANCH   2  17
ATOM     17  C   UNL d   1      -4.553   6.263   4.020  0.00  0.00     0.263 C 
ATOM     18  O   UNL d   1      -4.067   7.184   3.379  0.00  0.00    -0.265 OA
BRANCH  17  19
ATOM     19  O   UNL d   1      -4.863   6.319   5.344  0.00  0.00    -0.322 OA
BRANCH  19  20
ATOM     20  C   UNL d   1      -4.237   7.391   6.062  0.00  0.00     0.174 C 
ATOM     21  C   UNL d   1      -2.895   6.884   6.555  0.00  0.00     0.034 C 
ENDBRANCH  19  20
ENDBRANCH  17  19
ENDBRANCH   2  17
TORSDOF 5
