REMARK  4 active torsions:
REMARK  status: ('A' for Active; 'I' for Inactive)
REMARK    1  A    between atoms: C_13  and  C_2 
REMARK    2  A    between atoms: C_10  and  C_3 
REMARK    3  A    between atoms: N_4  and  C_13 
REMARK    4  A    between atoms: S_17  and  C_5 
ROOT
ATOM      1  C   UNL d   1       1.610  -4.744  -1.349  0.00  0.00     0.063 A 
ATOM      2  N   UNL d   1       2.185  -2.813  -0.058  0.00  0.00    -0.317 N 
ATOM      3  C   UNL d   1       1.705  -3.407  -1.221  0.00  0.00     0.110 A 
ATOM      4  C   UNL d   1       2.573  -3.563   1.048  0.00  0.00     0.247 A 
ATOM      5  C   UNL d   1       2.030  -5.578  -0.236  0.00  0.00     0.023 A 
ATOM      6  C   UNL d   1       2.484  -5.037   0.901  0.00  0.00     0.075 A 
ATOM      7  O   UNL d   1       2.973  -3.087   2.106  0.00  0.00    -0.268 OA
ENDROOT
BRANCH   2   8
ATOM      8  C   UNL d   1       2.276  -1.354   0.025  0.00  0.00     0.209 C 
BRANCH   8   9
ATOM      9  C   UNL d   1       0.968  -0.762   0.436  0.00  0.00     0.118 A 
ATOM     10  N   UNL d   1       0.566  -0.448   1.719  0.00  0.00    -0.318 N 
ATOM     11  C   UNL d   1      -0.692   0.078   1.590  0.00  0.00     0.159 A 
ATOM     12  C   UNL d   1       1.313  -0.619   2.940  0.00  0.00     0.160 C 
ATOM     13  N   UNL d   1      -1.029   0.112   0.322  0.00  0.00    -0.278 N 
ATOM     14  N   UNL d   1       0.008  -0.415  -0.402  0.00  0.00    -0.285 N 
ATOM     15  HN  UNL d   1      -1.907   0.468  -0.057  1.00  0.00     0.189 HD
ATOM     16  HN  UNL d   1       0.035  -0.522  -1.416  1.00  0.00     0.188 HD
BRANCH  11  17
ATOM     17  S   UNL d   1      -1.696   0.630   2.883  0.00  0.00    -0.105 SA
ATOM     18  H   UNL d   1      -1.033   0.141   3.936  0.00  0.00     0.110 HD
ENDBRANCH  11  17
ENDBRANCH   8   9
ENDBRANCH   2   8
BRANCH   1  19
ATOM     19  C   UNL d   1       1.077  -5.399  -2.595  0.00  0.00     0.418 C 
ATOM     20  F   UNL d   1       0.974  -6.749  -2.478  0.00  0.00    -0.166 F 
ATOM     21  F   UNL d   1      -0.159  -4.942  -2.917  0.00  0.00    -0.166 F 
ATOM     22  F   UNL d   1       1.877  -5.163  -3.666  0.00  0.00    -0.166 F 
ENDBRANCH   1  19
TORSDOF 4
