REMARK  1 active torsions:
REMARK  status: ('A' for Active; 'I' for Inactive)
REMARK    1  A    between atoms: C_9  and  C_5 
ROOT
ATOM      1  C   UNL d   1       1.877   0.381   0.112  0.00  0.00     0.074 A 
ATOM      2  C   UNL d   1       1.585  -1.095   0.145  0.00  0.00     0.263 A 
ATOM      3  S   UNL d   1       0.595   1.552   0.099  0.00  0.00    -0.083 SA
ATOM      4  N   UNL d   1       0.304  -1.550   0.154  0.00  0.00    -0.321 N 
ATOM      5  C   UNL d   1       3.142   0.857   0.087  0.00  0.00     0.036 C 
ATOM      6  C   UNL d   1      -0.875  -0.818   0.098  0.00  0.00     0.052 A 
ATOM      7  C   UNL d   1      -0.878   0.573   0.046  0.00  0.00     0.032 A 
ATOM      8  O   UNL d   1       2.459  -1.962   0.173  0.00  0.00    -0.267 OA
ATOM      9  C   UNL d   1      -2.076  -1.537   0.089  0.00  0.00     0.031 A 
ATOM     10  C   UNL d   1      -2.111   1.237  -0.039  0.00  0.00     0.021 A 
ATOM     11  C   UNL d   1      -3.295  -0.866   0.014  0.00  0.00     0.002 A 
ATOM     12  C   UNL d   1      -3.312   0.522  -0.056  0.00  0.00     0.002 A 
ATOM     13  H   UNL d   1       0.255  -2.562   0.180  0.00  0.00     0.169 HD
ENDROOT
BRANCH   5  14
ATOM     14  C   UNL d   1       4.371   0.060   0.037  0.00  0.00    -0.035 A 
ATOM     15  C   UNL d   1       4.921  -0.278  -1.205  0.00  0.00     0.011 A 
ATOM     16  C   UNL d   1       6.030  -1.121  -1.273  0.00  0.00     0.001 A 
ATOM     17  C   UNL d   1       6.598  -1.623  -0.103  0.00  0.00     0.000 A 
ATOM     18  C   UNL d   1       6.068  -1.269   1.138  0.00  0.00     0.001 A 
ATOM     19  C   UNL d   1       4.959  -0.424   1.210  0.00  0.00     0.011 A 
ENDBRANCH   5  14
TORSDOF 1
