REMARK  2 active torsions:
REMARK  status: ('A' for Active; 'I' for Inactive)
REMARK    1  A    between atoms: C_7  and  C_4 
REMARK    2  A    between atoms: O_18  and  C_12 
ROOT
ATOM      1  C   UNL d   1      -0.711  -0.798   0.054  0.00  0.00     0.058 C 
ATOM      2  C   UNL d   1      -0.908   0.713   0.046  0.00  0.00     0.174 C 
ATOM      3  N   UNL d   1       0.672  -1.117   0.087  0.00  0.00    -0.280 NA
ATOM      4  C   UNL d   1      -1.686  -1.714  -0.015  0.00  0.00     0.038 C 
ATOM      5  C   UNL d   1       0.445   1.424  -0.007  0.00  0.00     0.064 C 
ATOM      6  C   UNL d   1       1.387  -0.636  -1.134  0.00  0.00     0.096 C 
ATOM      7  C   UNL d   1       1.364  -0.545   1.282  0.00  0.00     0.096 C 
ATOM      8  O   UNL d   1      -1.979   1.299   0.094  0.00  0.00    -0.291 OA
ATOM      9  C   UNL d   1       1.177   0.889  -1.256  0.00  0.00     0.027 C 
ATOM     10  C   UNL d   1       1.215   0.992   1.254  0.00  0.00     0.027 C 
ENDROOT
BRANCH   4  11
ATOM     11  C   UNL d   1      -3.121  -1.454  -0.102  0.00  0.00    -0.033 A 
ATOM     12  C   UNL d   1      -3.883  -1.272   1.054  0.00  0.00     0.033 A 
ATOM     13  C   UNL d   1      -5.273  -1.050   0.988  0.00  0.00     0.045 A 
ATOM     14 BR   UNL d   1      -6.096  -0.822   2.688  0.00  0.00    -0.048 Br
ATOM     15  C   UNL d   1      -5.913  -1.012  -0.259  0.00  0.00     0.085 A 
ATOM     16  C   UNL d   1      -5.126  -1.186  -1.412  0.00  0.00     0.039 A 
ATOM     17  C   UNL d   1      -3.749  -1.405  -1.342  0.00  0.00     0.014 A 
BRANCH  15  18
ATOM     18  O   UNL d   1      -7.222  -0.825  -0.602  0.00  0.00    -0.355 OA
ATOM     19  C   UNL d   1      -8.235  -0.723   0.380  0.00  0.00     0.210 C 
ENDBRANCH  15  18
ENDBRANCH   4  11
TORSDOF 2
