REMARK  3 active torsions:
REMARK  status: ('A' for Active; 'I' for Inactive)
REMARK    1  A    between atoms: C_9  and  C_5 
REMARK    2  A    between atoms: C_10  and  C_6 
REMARK    3  A    between atoms: C_11  and  C_7 
ROOT
ATOM      1  N   UNL d   1       0.340  -1.317  -0.011  0.00  0.00    -0.358 N 
ATOM      2  HN  UNL d   1       0.733  -2.258  -0.024  1.00  0.00     0.162 HD
ATOM      3  N   UNL d   1       0.750   1.133  -0.008  0.00  0.00    -0.358 N 
ATOM      4  HN  UNL d   1       1.434   1.888  -0.055  1.00  0.00     0.162 HD
ATOM      5  C   UNL d   1       1.237  -0.210   0.264  0.00  0.00     0.218 C 
ATOM      6  C   UNL d   1      -0.908  -1.189  -0.238  0.00  0.00     0.084 C 
ATOM      7  C   UNL d   1      -0.474   1.427  -0.192  0.00  0.00     0.084 C 
ATOM      8  S   UNL d   1      -1.783   0.297  -0.233  0.00  0.00    -0.053 SA
ENDROOT
BRANCH   5   9
ATOM      9  C   UNL d   1       1.779  -0.301   1.685  0.00  0.00     0.005 A 
ATOM     10  C   UNL d   1       3.096  -0.689   1.986  0.00  0.00     0.044 A 
ATOM     11 CL   UNL d   1       4.248  -1.121   0.770  0.00  0.00    -0.084 Cl
ATOM     12  C   UNL d   1       3.538  -0.744   3.317  0.00  0.00     0.024 A 
ATOM     13  C   UNL d   1       2.678  -0.417   4.364  0.00  0.00     0.002 A 
ATOM     14  C   UNL d   1       1.369  -0.042   4.087  0.00  0.00     0.001 A 
ATOM     15  C   UNL d   1       0.924   0.011   2.763  0.00  0.00     0.013 A 
ENDBRANCH   5   9
BRANCH   7  16
ATOM     16  C   UNL d   1      -0.868   2.863  -0.382  0.00  0.00    -0.002 A 
ATOM     17  C   UNL d   1      -2.140   3.342  -0.022  0.00  0.00     0.016 A 
ATOM     18  C   UNL d   1      -2.486   4.680  -0.224  0.00  0.00     0.024 A 
ATOM     19  C   UNL d   1      -1.555   5.555  -0.776  0.00  0.00     0.034 A 
ATOM     20  C   UNL d   1      -0.281   5.108  -1.114  0.00  0.00     0.024 A 
ATOM     21 CL   UNL d   1      -1.987   7.201  -1.034  0.00  0.00    -0.084 Cl
ATOM     22  C   UNL d   1       0.065   3.764  -0.914  0.00  0.00     0.016 A 
ENDBRANCH   7  16
BRANCH   6  23
ATOM     23  C   UNL d   1      -1.754  -2.407  -0.435  0.00  0.00    -0.002 A 
ATOM     24  C   UNL d   1      -1.444  -3.564   0.292  0.00  0.00     0.016 A 
ATOM     25  C   UNL d   1      -2.273  -4.688   0.216  0.00  0.00     0.024 A 
ATOM     26  C   UNL d   1      -3.407  -4.663  -0.595  0.00  0.00     0.034 A 
ATOM     27  C   UNL d   1      -3.709  -3.531  -1.349  0.00  0.00     0.024 A 
ATOM     28 CL   UNL d   1      -4.447  -6.031  -0.660  0.00  0.00    -0.084 Cl
ATOM     29  C   UNL d   1      -2.881  -2.408  -1.276  0.00  0.00     0.016 A 
ENDBRANCH   6  23
TORSDOF 3
