REMARK  7 active torsions:
REMARK  status: ('A' for Active; 'I' for Inactive)
REMARK    1  A    between atoms: N_8  and  C_1 
REMARK    2  A    between atoms: N_10  and  C_1 
REMARK    3  A    between atoms: N_11  and  C_4 
REMARK    4  A    between atoms: C_5  and  C_14 
REMARK    5  A    between atoms: N_6  and  N_10 
REMARK    6  A    between atoms: C_15  and  N_8 
REMARK    7  A    between atoms: O_22  and  C_17 
ROOT
ATOM      1  N   UNL d   1       2.500   0.024   0.027  0.00  0.00    -0.276 N 
ATOM      2  H   UNL d   1       3.018   0.733  -0.483  0.00  0.00     0.189 HD
ENDROOT
BRANCH   1   3
ATOM      3  N   UNL d   1       3.121  -0.749   0.961  0.00  0.00    -0.309 N 
ATOM      4  C   UNL d   1       4.393  -0.512   1.084  0.00  0.00     0.120 C 
ATOM      5  HN  UNL d   1       2.631  -1.450   1.515  1.00  0.00     0.186 HD
BRANCH   4   6
ATOM      6  C   UNL d   1       5.234  -1.267   2.036  0.00  0.00     0.003 A 
ATOM      7  C   UNL d   1       6.597  -1.012   2.196  0.00  0.00     0.047 A 
ATOM      8  C   UNL d   1       7.354  -1.775   3.104  0.00  0.00     0.054 A 
ATOM      9 CL   UNL d   1       7.429   0.221   1.312  0.00  0.00    -0.083 Cl
ATOM     10  C   UNL d   1       6.791  -2.821   3.859  0.00  0.00     0.031 A 
ATOM     11  C   UNL d   1       5.417  -3.043   3.673  0.00  0.00     0.030 A 
ATOM     12  C   UNL d   1       4.647  -2.285   2.785  0.00  0.00     0.017 A 
BRANCH  10  13
ATOM     13  N   UNL d   1       7.541  -3.623   4.699  0.00  0.00    -0.390 N 
ATOM     14  C   UNL d   1       6.965  -4.207   5.910  0.00  0.00     0.149 C 
ATOM     15  C   UNL d   1       8.997  -3.675   4.626  0.00  0.00     0.149 C 
ENDBRANCH  10  13
ENDBRANCH   4   6
ENDBRANCH   1   3
BRANCH   1  16
ATOM     16  C   UNL d   1       1.207  -0.209  -0.387  0.00  0.00     0.191 C 
ATOM     17  S   UNL d   1       0.607   0.772  -1.603  0.00  0.00    -0.039 SA
BRANCH  16  18
ATOM     18  N   UNL d   1       0.564  -1.218   0.299  0.00  0.00    -0.332 N 
ATOM     19  H   UNL d   1       0.940  -1.353   1.235  0.00  0.00     0.168 HD
BRANCH  18  20
ATOM     20  C   UNL d   1      -0.607  -1.911  -0.060  0.00  0.00     0.034 A 
ATOM     21  C   UNL d   1      -0.901  -2.203  -1.393  0.00  0.00     0.032 A 
ATOM     22  C   UNL d   1      -2.078  -2.872  -1.743  0.00  0.00     0.039 A 
ATOM     23  C   UNL d   1      -2.981  -3.257  -0.757  0.00  0.00     0.068 A 
ATOM     24  C   UNL d   1      -2.662  -3.023   0.584  0.00  0.00     0.039 A 
ATOM     25  C   UNL d   1      -1.469  -2.374   0.936  0.00  0.00     0.032 A 
BRANCH  23  26
ATOM     26  O   UNL d   1      -4.186  -3.865  -0.981  0.00  0.00    -0.356 OA
ATOM     27  C   UNL d   1      -4.591  -3.981  -2.342  0.00  0.00     0.210 C 
ENDBRANCH  23  26
ENDBRANCH  18  20
ENDBRANCH  16  18
ENDBRANCH   1  16
TORSDOF 7
