REMARK  7 active torsions:
REMARK  status: ('A' for Active; 'I' for Inactive)
REMARK    1  A    between atoms: N_3  and  C_1 
REMARK    2  A    between atoms: N_4  and  C_1 
REMARK    3  A    between atoms: C_2  and  N_3 
REMARK    4  A    between atoms: C_5  and  N_4 
REMARK    5  A    between atoms: C_14  and  C_7 
REMARK    6  A    between atoms: C_15  and  C_8 
REMARK    7  A    between atoms: C_16  and  C_9 
ROOT
ATOM      1  C   UNL d   1       1.019   0.244   0.500  0.00  0.00     0.176 C 
ATOM      2  S   UNL d   1       2.547  -0.071   1.097  0.00  0.00    -0.041 SA
ENDROOT
BRANCH   1   3
ATOM      3  N   UNL d   1       0.655   1.006  -0.581  0.00  0.00    -0.332 N 
ATOM      4  H   UNL d   1      -0.236   1.446  -0.391  0.00  0.00     0.168 HD
BRANCH   3   5
ATOM      5  C   UNL d   1       1.372   1.629  -1.643  0.00  0.00     0.046 A 
ATOM      6  C   UNL d   1       2.378   1.005  -2.432  0.00  0.00    -0.031 A 
ATOM      7  C   UNL d   1       2.923   1.732  -3.516  0.00  0.00     0.009 A 
ATOM      8  C   UNL d   1       2.455   2.991  -3.874  0.00  0.00     0.001 A 
ATOM      9  C   UNL d   1       1.457   3.586  -3.123  0.00  0.00     0.009 A 
ATOM     10  C   UNL d   1       0.925   2.938  -1.995  0.00  0.00    -0.031 A 
BRANCH   6  11
ATOM     11  C   UNL d   1       2.903  -0.399  -2.195  0.00  0.00     0.036 C 
ATOM     12  C   UNL d   1       3.524  -1.142  -3.382  0.00  0.00     0.010 C 
ENDBRANCH   6  11
BRANCH  10  13
ATOM     13  C   UNL d   1      -0.050   3.752  -1.156  0.00  0.00     0.036 C 
ATOM     14  C   UNL d   1      -1.503   3.612  -1.581  0.00  0.00     0.010 C 
ENDBRANCH  10  13
ENDBRANCH   3   5
ENDBRANCH   1   3
BRANCH   1  15
ATOM     15  N   UNL d   1      -0.023  -0.160   1.310  0.00  0.00    -0.333 N 
ATOM     16  H   UNL d   1       0.308  -0.508   2.203  0.00  0.00     0.168 HD
BRANCH  15  17
ATOM     17  C   UNL d   1      -1.416  -0.239   1.097  0.00  0.00     0.040 A 
ATOM     18  C   UNL d   1      -2.329  -0.177   2.173  0.00  0.00    -0.032 A 
ATOM     19  C   UNL d   1      -3.706  -0.358   1.884  0.00  0.00     0.009 A 
ATOM     20  C   UNL d   1      -4.167  -0.590   0.590  0.00  0.00     0.001 A 
ATOM     21  C   UNL d   1      -3.263  -0.648  -0.454  0.00  0.00     0.002 A 
ATOM     22  C   UNL d   1      -1.899  -0.480  -0.201  0.00  0.00     0.030 A 
BRANCH  18  23
ATOM     23  C   UNL d   1      -2.062   0.151   3.634  0.00  0.00     0.036 C 
ATOM     24  C   UNL d   1      -0.667   0.437   4.163  0.00  0.00     0.010 C 
ENDBRANCH  18  23
ENDBRANCH  15  17
ENDBRANCH   1  15
TORSDOF 7
