REMARK  7 active torsions:
REMARK  status: ('A' for Active; 'I' for Inactive)
REMARK    1  A    between atoms: C_3  and  C_1 
REMARK    2  A    between atoms: C_5  and  C_1 
REMARK    3  A    between atoms: C_7  and  C_1 
REMARK    4  A    between atoms: O_22  and  C_1 
REMARK       I    between atoms: C_2  and  N_4 
REMARK       I    between atoms: N_6  and  C_2 
REMARK    5  A    between atoms: N_4  and  C_11 
REMARK    6  A    between atoms: O_26  and  C_5 
REMARK    7  A    between atoms: C_10  and  N_6 
ROOT
ATOM      1  C   UNL d   1       0.566  -0.776  -1.184  0.00  0.00    -0.005 A 
ATOM      2  C   UNL d   1      -0.129  -2.344  -3.508  0.00  0.00     0.038 A 
ATOM      3  C   UNL d   1       0.886  -2.135  -1.275  0.00  0.00     0.013 A 
ATOM      4  C   UNL d   1      -0.156  -0.229  -2.250  0.00  0.00     0.013 A 
ATOM      5  C   UNL d   1       0.535  -2.901  -2.398  0.00  0.00     0.030 A 
ATOM      6  C   UNL d   1      -0.487  -0.995  -3.377  0.00  0.00     0.030 A 
ENDROOT
BRANCH   2   7
ATOM      7  N   UNL d   1      -0.367  -3.129  -4.719  0.00  0.00    -0.304 N 
ATOM      8  C   UNL d   1      -1.144  -2.625  -5.789  0.00  0.00     0.327 C 
ATOM      9  N   UNL d   1      -1.256  -3.450  -6.901  0.00  0.00    -0.309 N 
ATOM     10  O   UNL d   1      -1.710  -1.537  -5.765  0.00  0.00    -0.246 OA
ATOM     11  H   UNL d   1      -1.047  -4.423  -6.779  0.00  0.00     0.170 HD
ATOM     12  C   UNL d   1       0.249  -4.465  -4.747  0.00  0.00     0.161 C 
BRANCH   9  13
ATOM     13  C   UNL d   1      -1.940  -3.146  -8.107  0.00  0.00     0.038 A 
ATOM     14  C   UNL d   1      -2.442  -1.880  -8.429  0.00  0.00     0.056 A 
ATOM     15  C   UNL d   1      -3.220  -1.698  -9.576  0.00  0.00     0.074 A 
ATOM     16 CL   UNL d   1      -3.900  -0.148  -9.902  0.00  0.00    -0.081 Cl
ATOM     17  C   UNL d   1      -3.460  -2.769 -10.427  0.00  0.00     0.138 A 
ATOM     18  C   UNL d   1      -2.905  -4.016 -10.163  0.00  0.00     0.046 A 
ATOM     19  F   UNL d   1      -4.232  -2.624 -11.515  0.00  0.00    -0.204 F 
ATOM     20  C   UNL d   1      -2.142  -4.203  -9.007  0.00  0.00     0.032 A 
ENDBRANCH   9  13
ENDBRANCH   2   7
BRANCH   1  21
ATOM     21  C   UNL d   1       1.015   0.080   0.005  0.00  0.00     0.271 C 
BRANCH  21  22
ATOM     22  C   UNL d   1       2.558   0.142   0.156  0.00  0.00     0.432 C 
ATOM     23  F   UNL d   1       3.004  -0.374   1.327  0.00  0.00    -0.167 F 
ATOM     24  F   UNL d   1       3.233  -0.494  -0.827  0.00  0.00    -0.167 F 
ATOM     25  F   UNL d   1       2.983   1.438   0.137  0.00  0.00    -0.167 F 
ENDBRANCH  21  22
BRANCH  21  26
ATOM     26  C   UNL d   1       0.505  -0.472   1.342  0.00  0.00     0.307 C 
ATOM     27  O   UNL d   1       0.258  -1.646   1.592  0.00  0.00    -0.261 OA
BRANCH  26  28
ATOM     28  O   UNL d   1       0.400   0.537   2.266  0.00  0.00    -0.324 OA
ATOM     29  C   UNL d   1      -0.050   0.092   3.547  0.00  0.00     0.213 C 
ENDBRANCH  26  28
ENDBRANCH  21  26
BRANCH  21  30
ATOM     30  O   UNL d   1       0.452   1.415  -0.166  0.00  0.00    -0.368 OA
ATOM     31  H   UNL d   1       0.819   1.966   0.551  0.00  0.00     0.212 HD
ENDBRANCH  21  30
ENDBRANCH   1  21
TORSDOF 7
