REMARK  7 active torsions:
REMARK  status: ('A' for Active; 'I' for Inactive)
REMARK    1  A    between atoms: N_10  and  C_3 
REMARK    2  A    between atoms: C_8  and  C_7 
REMARK    3  A    between atoms: C_13  and  C_7 
REMARK    4  A    between atoms: C_11  and  C_9 
REMARK    5  A    between atoms: C_14  and  C_9 
REMARK    6  A    between atoms: C_12  and  C_11 
REMARK    7  A    between atoms: C_16  and  C_12 
ROOT
ATOM      1  N   UNL d   1       1.691   1.125  -0.097  0.00  0.00    -0.303 N 
ATOM      2  HN  UNL d   1       2.553   1.614  -0.337  1.00  0.00     0.171 HD
ATOM      3  C   UNL d   1       0.564   1.731   0.068  0.00  0.00     0.150 C 
ATOM      4  C   UNL d   1       0.202  -0.731   0.198  0.00  0.00     0.087 C 
ATOM      5  S   UNL d   1      -0.790   0.681   0.447  0.00  0.00    -0.048 SA
ATOM      6  C   UNL d   1       1.627  -0.242   0.079  0.00  0.00     0.265 C 
ATOM      7  C   UNL d   1      -0.232  -2.012   0.077  0.00  0.00    -0.003 C 
ATOM      8  O   UNL d   1       2.625  -0.947   0.105  0.00  0.00    -0.267 OA
ENDROOT
BRANCH   7   9
ATOM      9  C   UNL d   1      -1.673  -2.383   0.179  0.00  0.00     0.022 C 
ATOM     10  C   UNL d   1      -2.393  -3.293  -0.536  0.00  0.00    -0.040 C 
BRANCH  10  11
ATOM     11  C   UNL d   1      -1.835  -4.058  -1.735  0.00  0.00     0.123 C 
BRANCH  11  12
ATOM     12  C   UNL d   1      -1.628  -5.556  -1.499  0.00  0.00     0.163 C 
ATOM     13  O   UNL d   1      -1.881  -6.114  -0.428  0.00  0.00    -0.292 OA
BRANCH  12  14
ATOM     14  C   UNL d   1      -1.112  -6.397  -2.626  0.00  0.00     0.010 A 
ATOM     15  C   UNL d   1      -0.448  -7.593  -2.304  0.00  0.00     0.015 A 
ATOM     16  C   UNL d   1      -0.051  -8.476  -3.312  0.00  0.00     0.007 A 
ATOM     17  C   UNL d   1      -0.319  -8.199  -4.653  0.00  0.00    -0.062 A 
ATOM     18  C   UNL d   1      -0.930  -6.976  -4.983  0.00  0.00     0.007 A 
ATOM     19  C   UNL d   1       0.048  -9.196  -5.712  0.00  0.00     0.048 C 
ATOM     20  C   UNL d   1      -1.323  -6.083  -3.973  0.00  0.00     0.015 A 
ENDBRANCH  12  14
ENDBRANCH  11  12
ENDBRANCH  10  11
BRANCH  10  21
ATOM     21  C   UNL d   1      -3.868  -3.515  -0.248  0.00  0.00    -0.029 A 
ATOM     22  C   UNL d   1      -4.740  -4.043  -1.226  0.00  0.00     0.013 A 
ATOM     23  C   UNL d   1      -6.105  -4.239  -0.986  0.00  0.00     0.024 A 
ATOM     24  C   UNL d   1      -6.644  -3.921   0.249  0.00  0.00     0.034 A 
ATOM     25  C   UNL d   1      -5.812  -3.427   1.252  0.00  0.00     0.024 A 
ATOM     26 CL   UNL d   1      -8.324  -4.135   0.538  0.00  0.00    -0.084 Cl
ATOM     27  C   UNL d   1      -4.443  -3.241   1.007  0.00  0.00     0.013 A 
ENDBRANCH  10  21
ENDBRANCH   7   9
BRANCH   7  28
ATOM     28  C   UNL d   1       0.796  -3.081  -0.067  0.00  0.00    -0.024 A 
ATOM     29  C   UNL d   1       1.163  -3.855   1.040  0.00  0.00     0.013 A 
ATOM     30  C   UNL d   1       2.088  -4.894   0.898  0.00  0.00     0.007 A 
ATOM     31  C   UNL d   1       2.636  -5.193  -0.355  0.00  0.00    -0.062 A 
ATOM     32  C   UNL d   1       2.299  -4.397  -1.452  0.00  0.00     0.007 A 
ATOM     33  C   UNL d   1       3.583  -6.345  -0.509  0.00  0.00     0.048 C 
ATOM     34  C   UNL d   1       1.406  -3.335  -1.304  0.00  0.00     0.013 A 
ENDBRANCH   7  28
BRANCH   3  35
ATOM     35  N   UNL d   1       0.370   3.081  -0.132  0.00  0.00    -0.357 N 
ATOM     36  C   UNL d   1       1.451   3.832  -0.806  0.00  0.00     0.151 C 
ATOM     37  C   UNL d   1       0.854   5.081  -1.453  0.00  0.00     0.187 C 
ATOM     38  O   UNL d   1       0.341   5.944  -0.431  0.00  0.00    -0.388 OA
ATOM     39  C   UNL d   1      -0.729   5.298   0.274  0.00  0.00     0.187 C 
ATOM     40  C   UNL d   1      -0.349   3.917   0.853  0.00  0.00     0.151 C 
ENDBRANCH   3  35
TORSDOF 7
