REMARK  3 active torsions:
REMARK  status: ('A' for Active; 'I' for Inactive)
REMARK    1  A    between atoms: C_3  and  C_1 
REMARK    2  A    between atoms: C_13  and  N_4 
REMARK    3  A    between atoms: O_20  and  C_10 
ROOT
ATOM      1  C   UNL d   1      -2.791  -2.487  -0.054  0.00  0.00     0.102 C 
ATOM      2  N   UNL d   1      -4.080  -2.527   0.072  0.00  0.00    -0.365 N 
ATOM      3  HN  UNL d   1      -4.614  -1.665   0.183  1.00  0.00     0.165 HD
ENDROOT
BRANCH   2   4
ATOM      4  C   UNL d   1      -4.735  -3.774   0.056  0.00  0.00     0.034 A 
ATOM      5  C   UNL d   1      -5.979  -3.847  -0.586  0.00  0.00     0.069 A 
ATOM      6  C   UNL d   1      -6.663  -5.045  -0.560  0.00  0.00     0.107 A 
ATOM      7  O   UNL d   1      -7.879  -5.280  -1.119  0.00  0.00    -0.323 OA
ATOM      8  C   UNL d   1      -6.155  -6.154   0.071  0.00  0.00     0.105 A 
ATOM      9  C   UNL d   1      -8.074  -6.669  -0.775  0.00  0.00     0.352 A 
ATOM     10  O   UNL d   1      -6.984  -7.228  -0.014  0.00  0.00    -0.323 OA
ATOM     11  C   UNL d   1      -4.941  -6.125   0.719  0.00  0.00     0.042 A 
ATOM     12  C   UNL d   1      -4.235  -4.915   0.718  0.00  0.00     0.032 A 
ENDBRANCH   2   4
BRANCH   1  13
ATOM     13  C   UNL d   1      -2.063  -1.200  -0.026  0.00  0.00     0.014 A 
ATOM     14  C   UNL d   1      -2.733   0.029   0.026  0.00  0.00     0.077 A 
ATOM     15  C   UNL d   1      -2.015   1.222   0.045  0.00  0.00     0.039 A 
ATOM     16  C   UNL d   1      -0.620   1.194   0.018  0.00  0.00     0.022 A 
ATOM     17  C   UNL d   1       0.046  -0.031  -0.028  0.00  0.00     0.011 A 
ATOM     18  C   UNL d   1      -0.666  -1.231  -0.052  0.00  0.00     0.034 A 
ATOM     19 BR   UNL d   1       1.937  -0.065  -0.057  0.00  0.00    -0.051 Br
BRANCH  14  20
ATOM     20  O   UNL d   1      -4.096   0.132   0.058  0.00  0.00    -0.360 OA
ATOM     21  H   UNL d   1      -4.457  -0.784   0.080  0.00  0.00     0.217 HD
ENDBRANCH  14  20
ENDBRANCH   1  13
TORSDOF 3
