REMARK  4 active torsions:
REMARK  status: ('A' for Active; 'I' for Inactive)
REMARK       I    between atoms: N_2  and  C_1 
REMARK       I    between atoms: N_3  and  C_1 
REMARK    1  A    between atoms: C_4  and  N_3 
REMARK    2  A    between atoms: C_5  and  C_11 
REMARK    3  A    between atoms: O_18  and  C_5 
REMARK    4  A    between atoms: C_21  and  O_18 
ROOT
ATOM      1  C   UNL d   1       1.043   0.127  -0.151  0.00  0.00     0.322 C 
ATOM      2  N   UNL d   1       0.376   1.261  -0.615  0.00  0.00    -0.334 N 
ATOM      3  N   UNL d   1       0.645  -0.331   1.085  0.00  0.00    -0.309 N 
ATOM      4  O   UNL d   1       1.918  -0.410  -0.827  0.00  0.00    -0.247 OA
ATOM      5  C   UNL d   1      -0.753   1.956   0.006  0.00  0.00     0.128 C 
ATOM      6  C   UNL d   1       0.858   1.885  -1.847  0.00  0.00     0.128 C 
ATOM      7  C   UNL d   1      -1.508   2.648  -2.340  0.00  0.00     0.088 C 
ATOM      8  C   UNL d   1      -1.921   2.091  -0.972  0.00  0.00     0.034 C 
ATOM      9  C   UNL d   1      -0.254   1.972  -2.889  0.00  0.00     0.034 C 
ATOM     10  H   UNL d   1       0.049   0.273   1.620  0.00  0.00     0.170 HD
ENDROOT
BRANCH   3  11
ATOM     11  C   UNL d   1       1.076  -1.497   1.759  0.00  0.00     0.039 A 
ATOM     12  C   UNL d   1       2.010  -2.401   1.253  0.00  0.00     0.053 A 
ATOM     13  C   UNL d   1       2.366  -3.534   1.993  0.00  0.00     0.037 A 
ATOM     14 CL   UNL d   1       3.533  -4.634   1.362  0.00  0.00    -0.084 Cl
ATOM     15  C   UNL d   1       1.793  -3.788   3.234  0.00  0.00     0.048 A 
ATOM     16  C   UNL d   1       0.859  -2.890   3.738  0.00  0.00     0.037 A 
ATOM     17  C   UNL d   1       0.503  -1.749   3.016  0.00  0.00     0.053 A 
ATOM     18 CL   UNL d   1       0.126  -3.190   5.267  0.00  0.00    -0.084 Cl
ENDBRANCH   3  11
BRANCH   7  19
ATOM     19  C   UNL d   1      -1.355   4.156  -2.276  0.00  0.00     0.263 C 
ATOM     20  O   UNL d   1      -0.967   4.778  -1.298  0.00  0.00    -0.265 OA
BRANCH  19  21
ATOM     21  O   UNL d   1      -1.788   4.711  -3.442  0.00  0.00    -0.322 OA
BRANCH  21  22
ATOM     22  C   UNL d   1      -2.048   6.121  -3.395  0.00  0.00     0.174 C 
ATOM     23  C   UNL d   1      -3.472   6.330  -2.909  0.00  0.00     0.034 C 
ENDBRANCH  21  22
ENDBRANCH  19  21
ENDBRANCH   7  19
TORSDOF 4
