REMARK  2 active torsions:
REMARK  status: ('A' for Active; 'I' for Inactive)
REMARK    1  A    between atoms: C_2  and  C_1 
REMARK    2  A    between atoms: O_11  and  C_1 
ROOT
ATOM      1  C   UNL d   1       0.127  -1.036  -0.747  0.00  0.00     0.040 A 
ATOM      2  C   UNL d   1      -0.992  -0.558  -1.439  0.00  0.00     0.031 A 
ATOM      3  C   UNL d   1      -1.794  -1.431  -2.196  0.00  0.00    -0.008 A 
ATOM      4  N   UNL d   1      -2.214  -3.672  -2.987  0.00  0.00    -0.365 N 
ATOM      5  HN  UNL d   1      -1.963  -4.660  -3.034  1.00  0.00     0.165 HD
ATOM      6  C   UNL d   1      -1.475  -2.804  -2.276  0.00  0.00     0.042 A 
ATOM      7  C   UNL d   1       0.444  -2.395  -0.825  0.00  0.00     0.020 A 
ATOM      8  C   UNL d   1      -0.356  -3.257  -1.587  0.00  0.00     0.031 A 
ATOM      9  C   UNL d   1      -3.300  -3.198  -3.637  0.00  0.00     0.088 A 
ATOM     10  C   UNL d   1      -2.925  -0.977  -2.885  0.00  0.00     0.015 A 
ATOM     11  C   UNL d   1      -3.694  -1.874  -3.617  0.00  0.00     0.018 A 
ENDROOT
BRANCH   1  12
ATOM     12  C   UNL d   1       0.928  -0.063   0.044  0.00  0.00     0.292 C 
ATOM     13  O   UNL d   1       0.682   1.133   0.073  0.00  0.00    -0.259 OA
BRANCH  12  14
ATOM     14  O   UNL d   1       1.931  -0.686   0.708  0.00  0.00    -0.323 OA
ATOM     15  C   UNL d   1       2.738   0.177   1.516  0.00  0.00     0.213 C 
ENDBRANCH  12  14
ENDBRANCH   1  12
TORSDOF 2
