REMARK  5 active torsions:
REMARK  status: ('A' for Active; 'I' for Inactive)
REMARK    1  A    between atoms: C_3  and  C_1 
REMARK    2  A    between atoms: C_6  and  C_2 
REMARK       I    between atoms: N_7  and  C_3 
REMARK    3  A    between atoms: C_14  and  N_7 
REMARK    4  A    between atoms: C_17  and  N_7 
REMARK    5  A    between atoms: C_15  and  C_17 
ROOT
ATOM      1  N   UNL d   1      -5.394  -3.397   0.641  0.00  0.00    -0.197 NA
ATOM      2  C   UNL d   1      -4.287  -3.730   0.759  0.00  0.00     0.060 C 
ATOM      3  C   UNL d   1      -2.891  -4.157   0.872  0.00  0.00     0.143 C 
ENDROOT
BRANCH   3   4
ATOM      4  C   UNL d   1      -2.048  -3.510  -0.227  0.00  0.00     0.140 C 
BRANCH   4   5
ATOM      5  N   UNL d   1      -0.585  -3.649  -0.120  0.00  0.00    -0.342 N 
ATOM      6  C   UNL d   1       0.309  -2.544  -0.059  0.00  0.00     0.259 C 
ATOM      7  O   UNL d   1       1.452  -2.731   0.358  0.00  0.00    -0.267 OA
BRANCH   6   8
ATOM      8  C   UNL d   1      -0.076  -1.204  -0.512  0.00  0.00     0.092 C 
ATOM      9  C   UNL d   1       0.421   0.088  -0.056  0.00  0.00     0.085 C 
ATOM     10  N   UNL d   1      -0.156   1.072  -0.766  0.00  0.00    -0.259 N 
ATOM     11  O   UNL d   1      -0.958   0.488  -1.692  0.00  0.00    -0.241 OA
ATOM     12  HN  UNL d   1      -0.016   2.074  -0.633  1.00  0.00     0.195 HD
ATOM     13  C   UNL d   1      -0.865  -0.858  -1.607  0.00  0.00     0.090 C 
ATOM     14  C   UNL d   1      -1.559  -1.555  -2.710  0.00  0.00     0.080 C 
BRANCH   9  15
ATOM     15  C   UNL d   1       1.451   0.483   0.928  0.00  0.00     0.015 A 
ATOM     16  C   UNL d   1       1.302   1.604   1.776  0.00  0.00     0.046 A 
ATOM     17 CL   UNL d   1      -0.184   2.482   1.950  0.00  0.00    -0.083 Cl
ATOM     18  C   UNL d   1       2.377   2.072   2.551  0.00  0.00     0.025 A 
ATOM     19  C   UNL d   1       3.603   1.414   2.532  0.00  0.00     0.002 A 
ATOM     20  C   UNL d   1       3.760   0.289   1.732  0.00  0.00     0.001 A 
ATOM     21  C   UNL d   1       2.705  -0.154   0.924  0.00  0.00     0.015 A 
ENDBRANCH   9  15
ENDBRANCH   6   8
BRANCH   5  22
ATOM     22  C   UNL d   1       0.044  -4.996  -0.025  0.00  0.00     0.087 C 
ATOM     23  C   UNL d   1      -0.084  -5.673   1.349  0.00  0.00     0.025 C 
ATOM     24  C   UNL d   1       0.839  -6.891   1.433  0.00  0.00     0.002 C 
ATOM     25  C   UNL d   1       0.608  -7.876   0.285  0.00  0.00     0.000 C 
ATOM     26  C   UNL d   1       0.570  -7.205  -1.090  0.00  0.00     0.002 C 
ATOM     27  C   UNL d   1      -0.360  -5.984  -1.129  0.00  0.00     0.025 C 
ENDBRANCH   5  22
ENDBRANCH   4   5
ENDBRANCH   3   4
TORSDOF 5
