REMARK  7 active torsions:
REMARK  status: ('A' for Active; 'I' for Inactive)
REMARK    1  A    between atoms: N_6  and  C_1 
REMARK    2  A    between atoms: C_7  and  C_2 
REMARK       I    between atoms: C_8  and  N_6 
REMARK    3  A    between atoms: O_19  and  C_7 
REMARK    4  A    between atoms: C_17  and  C_8 
REMARK    5  A    between atoms: C_11  and  O_12 
REMARK    6  A    between atoms: O_12  and  C_17 
REMARK    7  A    between atoms: C_24  and  O_19 
ROOT
ATOM      1  C   UNL d   1      -2.205  -0.801  -0.030  0.00  0.00     0.094 C 
ATOM      2  C   UNL d   1      -1.130  -1.675   0.001  0.00  0.00     0.080 C 
ATOM      3  S   UNL d   1      -1.757   0.820  -0.265  0.00  0.00    -0.075 SA
ATOM      4  C   UNL d   1       0.116  -0.924  -0.007  0.00  0.00    -0.026 C 
ATOM      5  C   UNL d   1      -0.112   0.439  -0.102  0.00  0.00    -0.008 C 
ATOM      6  C   UNL d   1       1.520  -1.469   0.023  0.00  0.00     0.041 C 
ATOM      7  C   UNL d   1       0.940   1.504  -0.058  0.00  0.00     0.047 C 
ATOM      8  C   UNL d   1       2.553  -0.398   0.408  0.00  0.00     0.005 C 
ATOM      9  C   UNL d   1       2.326   0.915  -0.348  0.00  0.00     0.005 C 
ENDROOT
BRANCH   1  10
ATOM     10  N   UNL d   1      -3.571  -0.959   0.079  0.00  0.00    -0.319 N 
ATOM     11  C   UNL d   1      -4.136  -1.921   0.906  0.00  0.00     0.246 C 
ATOM     12  O   UNL d   1      -3.532  -2.590   1.737  0.00  0.00    -0.271 OA
ATOM     13  H   UNL d   1      -4.145  -0.157  -0.151  0.00  0.00     0.169 HD
BRANCH  11  14
ATOM     14  C   UNL d   1      -5.635  -2.076   0.675  0.00  0.00     0.278 C 
BRANCH  14  15
ATOM     15  O   UNL d   1      -6.311  -0.913   1.147  0.00  0.00    -0.340 OA
BRANCH  15  16
ATOM     16  C   UNL d   1      -7.677  -0.943   1.014  0.00  0.00     0.091 A 
ATOM     17  C   UNL d   1      -8.463  -0.417   2.053  0.00  0.00     0.069 A 
ATOM     18  C   UNL d   1      -9.854  -0.339   1.928  0.00  0.00     0.050 A 
ATOM     19 CL   UNL d   1      -7.749   0.143   3.524  0.00  0.00    -0.081 Cl
ATOM     20  C   UNL d   1     -10.462  -0.776   0.756  0.00  0.00     0.035 A 
ATOM     21  C   UNL d   1      -9.696  -1.298  -0.284  0.00  0.00     0.026 A 
ATOM     22 CL   UNL d   1     -12.169  -0.656   0.576  0.00  0.00    -0.084 Cl
ATOM     23  C   UNL d   1      -8.306  -1.377  -0.158  0.00  0.00     0.040 A 
ENDBRANCH  15  16
ENDBRANCH  14  15
ENDBRANCH  11  14
ENDBRANCH   1  10
BRANCH   2  24
ATOM     24  C   UNL d   1      -1.280  -3.132   0.019  0.00  0.00     0.296 C 
ATOM     25  O   UNL d   1      -2.202  -3.725  -0.532  0.00  0.00    -0.259 OA
BRANCH  24  26
ATOM     26  O   UNL d   1      -0.280  -3.742   0.713  0.00  0.00    -0.318 OA
BRANCH  26  27
ATOM     27  C   UNL d   1      -0.507  -5.101   1.095  0.00  0.00     0.174 C 
ATOM     28  C   UNL d   1      -1.127  -5.107   2.481  0.00  0.00     0.034 C 
ENDBRANCH  26  27
ENDBRANCH  24  26
ENDBRANCH   2  24
TORSDOF 7
