REMARK  3 active torsions:
REMARK  status: ('A' for Active; 'I' for Inactive)
REMARK    1  A    between atoms: N_4  and  C_1 
REMARK       I    between atoms: C_2  and  N_3 
REMARK    2  A    between atoms: C_9  and  C_2 
REMARK    3  A    between atoms: N_3  and  N_4 
ROOT
ATOM      1  C   UNL d   1       0.289   2.630  -2.641  0.00  0.00     0.270 C 
ATOM      2  N   UNL d   1       1.115   1.961  -1.750  0.00  0.00    -0.264 N 
ATOM      3  O   UNL d   1      -0.920   2.441  -2.726  0.00  0.00    -0.266 OA
ATOM      4  H   UNL d   1       1.948   2.430  -1.415  0.00  0.00     0.190 HD
ENDROOT
BRANCH   1   5
ATOM      5  C   UNL d   1       0.954   3.656  -3.476  0.00  0.00     0.036 A 
ATOM      6  C   UNL d   1       2.231   3.445  -3.992  0.00  0.00     0.034 A 
ATOM      7  C   UNL d   1       2.779   4.441  -4.776  0.00  0.00     0.088 A 
ATOM      8  N   UNL d   1       2.149   5.603  -5.059  0.00  0.00    -0.375 N 
ATOM      9  C   UNL d   1       0.904   5.768  -4.560  0.00  0.00     0.088 A 
ATOM     10  HN  UNL d   1       2.594   6.324  -5.625  1.00  0.00     0.164 HD
ATOM     11  C   UNL d   1       0.263   4.829  -3.775  0.00  0.00     0.034 A 
ENDBRANCH   1   5
BRANCH   2  12
ATOM     12  N   UNL d   1       0.496   1.087  -0.863  0.00  0.00    -0.274 N 
ATOM     13  H   UNL d   1      -0.527   1.108  -0.870  0.00  0.00     0.189 HD
BRANCH  12  14
ATOM     14  C   UNL d   1       1.100   0.137  -0.117  0.00  0.00     0.186 C 
ATOM     15  S   UNL d   1       0.159  -0.832   0.867  0.00  0.00    -0.040 SA
ATOM     16  N   UNL d   1       2.432  -0.069  -0.112  0.00  0.00    -0.370 N 
ATOM     17  C   UNL d   1       3.501   0.497  -0.899  0.00  0.00     0.148 C 
ATOM     18  H   UNL d   1       2.704  -0.804   0.533  0.00  0.00     0.161 HD
ENDBRANCH  12  14
ENDBRANCH   2  12
TORSDOF 3
