REMARK  1 active torsions:
REMARK  status: ('A' for Active; 'I' for Inactive)
REMARK       I    between atoms: N_3  and  C_1 
REMARK    1  A    between atoms: C_5  and  N_3 
ROOT
ATOM      1  C   UNL d   1       3.013   2.184  -3.400  0.00  0.00    -0.043 A 
ATOM      2  C   UNL d   1       2.624   3.529  -3.468  0.00  0.00     0.017 A 
ATOM      3  C   UNL d   1       1.245   1.778  -1.758  0.00  0.00     0.035 A 
ATOM      4  C   UNL d   1       2.314   1.323  -2.534  0.00  0.00     0.037 A 
ATOM      5  C   UNL d   1       1.543   3.989  -2.713  0.00  0.00     0.022 A 
ATOM      6  C   UNL d   1       0.853   3.115  -1.869  0.00  0.00     0.031 A 
ATOM      7 BR   UNL d   1       3.531   4.788  -4.562  0.00  0.00    -0.051 Br
ATOM      8  C   UNL d   1       4.162   1.634  -4.200  0.00  0.00     0.049 C 
ENDROOT
BRANCH   3   9
ATOM      9  N   UNL d   1       0.522   0.962  -0.861  0.00  0.00    -0.327 N 
ATOM     10  C   UNL d   1       0.837  -0.327  -0.468  0.00  0.00     0.218 C 
ATOM     11  O   UNL d   1       1.832  -0.971  -0.786  0.00  0.00    -0.274 OA
ATOM     12  C   UNL d   1      -0.174  -0.913   0.486  0.00  0.00     0.117 C 
ATOM     13  H   UNL d   1      -0.270   1.396  -0.408  0.00  0.00     0.169 HD
ENDBRANCH   3   9
TORSDOF 1
