REMARK  4 active torsions:
REMARK  status: ('A' for Active; 'I' for Inactive)
REMARK       I    between atoms: N_2  and  C_1 
REMARK    1  A    between atoms: C_7  and  N_2 
REMARK    2  A    between atoms: C_4  and  C_6 
REMARK    3  A    between atoms: C_5  and  C_4 
REMARK    4  A    between atoms: C_6  and  C_7 
ROOT
ATOM      1  C   UNL d   1       1.892   0.065  -2.975  0.00  0.00     0.029 C 
ENDROOT
BRANCH   1   2
ATOM      2  C   UNL d   1       2.965  -0.605  -2.103  0.00  0.00     0.040 C 
BRANCH   2   3
ATOM      3  C   UNL d   1       3.790  -1.675  -2.777  0.00  0.00    -0.058 A 
ATOM      4  C   UNL d   1       5.174  -1.499  -2.932  0.00  0.00     0.007 A 
ATOM      5  C   UNL d   1       5.975  -2.529  -3.430  0.00  0.00     0.001 A 
ATOM      6  C   UNL d   1       5.400  -3.746  -3.786  0.00  0.00     0.000 A 
ATOM      7  C   UNL d   1       4.024  -3.926  -3.661  0.00  0.00     0.001 A 
ATOM      8  C   UNL d   1       3.220  -2.896  -3.160  0.00  0.00     0.007 A 
ENDBRANCH   2   3
ENDBRANCH   1   2
BRANCH   1   9
ATOM      9  C   UNL d   1       1.112   1.148  -2.197  0.00  0.00     0.080 C 
ATOM     10  C   UNL d   1       2.017   2.272  -1.684  0.00  0.00     0.032 C 
BRANCH   9  11
ATOM     11  N   UNL d   1       0.071   1.750  -3.030  0.00  0.00    -0.357 N 
ATOM     12  C   UNL d   1      -1.232   1.412  -3.208  0.00  0.00     0.213 C 
ATOM     13  O   UNL d   1      -1.926   2.098  -3.962  0.00  0.00    -0.274 OA
ATOM     14  C   UNL d   1      -1.808   0.209  -2.513  0.00  0.00     0.117 C 
ATOM     15  H   UNL d   1       0.332   2.550  -3.598  0.00  0.00     0.162 HD
ENDBRANCH   9  11
ENDBRANCH   1   9
TORSDOF 4
