REMARK  6 active torsions:
REMARK  status: ('A' for Active; 'I' for Inactive)
REMARK    1  A    between atoms: C_2  and  C_1 
REMARK       I    between atoms: N_10  and  C_2 
REMARK    2  A    between atoms: C_6  and  C_4 
REMARK    3  A    between atoms: C_12  and  C_7 
REMARK    4  A    between atoms: N_11  and  N_10 
REMARK    5  A    between atoms: C_13  and  C_12 
REMARK    6  A    between atoms: C_14  and  C_13 
ROOT
ATOM      1  C   UNL d   1      -0.336  -1.059  -0.019  0.00  0.00     0.145 A 
ATOM      2  O   UNL d   1       0.978  -0.647  -0.024  0.00  0.00    -0.296 OA
ATOM      3  C   UNL d   1       0.959   0.713  -0.011  0.00  0.00     0.129 A 
ATOM      4  C   UNL d   1      -1.166   0.048  -0.013  0.00  0.00     0.046 A 
ATOM      5  C   UNL d   1      -0.329   1.189  -0.005  0.00  0.00     0.050 A 
ENDROOT
BRANCH   1   6
ATOM      6  C   UNL d   1      -0.653  -2.472  -0.001  0.00  0.00     0.289 C 
ATOM      7  O   UNL d   1      -1.801  -2.916   0.052  0.00  0.00    -0.264 OA
ATOM      8  N   UNL d   1       0.458  -3.311  -0.036  0.00  0.00    -0.288 N 
ATOM      9  H   UNL d   1       1.376  -2.894  -0.187  0.00  0.00     0.183 HD
BRANCH   8  10
ATOM     10  N   UNL d   1       0.301  -4.717  -0.065  0.00  0.00    -0.247 NA
ATOM     11  H   UNL d   1      -0.712  -4.906  -0.086  0.00  0.00     0.143 HD
ATOM     12  H   UNL d   1       0.608  -5.088   0.838  0.00  0.00     0.143 HD
ENDBRANCH   8  10
ENDBRANCH   1   6
BRANCH   3  13
ATOM     13  C   UNL d   1       2.193   1.408  -0.000  0.00  0.00    -0.041 C 
ATOM     14  C   UNL d   1       3.188   2.083   0.009  0.00  0.00    -0.099 C 
BRANCH  14  15
ATOM     15  C   UNL d   1       4.357   2.976   0.015  0.00  0.00     0.094 C 
BRANCH  15  16
ATOM     16  C   UNL d   1       5.430   2.485   0.985  0.00  0.00     0.012 C 
BRANCH  16  17
ATOM     17  C   UNL d   1       6.645   3.414   1.003  0.00  0.00    -0.004 C 
ATOM     18  C   UNL d   1       7.707   2.912   1.969  0.00  0.00     0.005 C 
ENDBRANCH  16  17
ENDBRANCH  15  16
ENDBRANCH  14  15
ENDBRANCH   3  13
TORSDOF 6
