REMARK  3 active torsions:
REMARK  status: ('A' for Active; 'I' for Inactive)
REMARK    1  A    between atoms: C_4  and  C_1 
REMARK       I    between atoms: N_7  and  C_4 
REMARK    2  A    between atoms: N_9  and  N_7 
REMARK    3  A    between atoms: C_11  and  N_9 
ROOT
ATOM      1  C   UNL d   1      -2.610  -1.374   0.234  0.00  0.00     0.284 C 
ATOM      2  N   UNL d   1      -3.888  -0.840   0.328  0.00  0.00    -0.281 N 
ATOM      3  O   UNL d   1      -1.649  -0.722  -0.179  0.00  0.00    -0.265 OA
ATOM      4  H   UNL d   1      -4.672  -1.481   0.416  0.00  0.00     0.184 HD
ENDROOT
BRANCH   2   5
ATOM      5  N   UNL d   1      -4.111   0.387  -0.339  0.00  0.00    -0.203 NA
ATOM      6  H   UNL d   1      -3.209   0.828  -0.562  0.00  0.00     0.153 HD
BRANCH   5   7
ATOM      7  C   UNL d   1      -4.956   1.283   0.362  0.00  0.00     0.027 A 
ATOM      8  C   UNL d   1      -4.716   2.663   0.258  0.00  0.00     0.027 A 
ATOM      9  C   UNL d   1      -5.587   3.594   0.833  0.00  0.00     0.026 A 
ATOM     10  C   UNL d   1      -6.728   3.153   1.495  0.00  0.00     0.034 A 
ATOM     11  C   UNL d   1      -7.001   1.792   1.589  0.00  0.00     0.026 A 
ATOM     12 CL   UNL d   1      -7.820   4.295   2.175  0.00  0.00    -0.084 Cl
ATOM     13  C   UNL d   1      -6.123   0.864   1.018  0.00  0.00     0.027 A 
ENDBRANCH   5   7
ENDBRANCH   2   5
BRANCH   1  14
ATOM     14  C   UNL d   1      -2.496  -2.771   0.645  0.00  0.00     0.126 A 
ATOM     15  N   UNL d   1      -3.537  -3.463   1.144  0.00  0.00    -0.256 N 
ATOM     16  O   UNL d   1      -3.044  -4.723   1.444  0.00  0.00    -0.242 OA
ATOM     17  HN  UNL d   1      -4.492  -3.129   1.273  1.00  0.00     0.195 HD
ATOM     18  C   UNL d   1      -1.727  -4.788   1.113  0.00  0.00     0.075 A 
ATOM     19  C   UNL d   1      -1.334  -3.583   0.590  0.00  0.00     0.071 A 
ATOM     20  C   UNL d   1      -1.039  -6.062   1.383  0.00  0.00     0.079 C 
ENDBRANCH   1  14
TORSDOF 3
