REMARK  5 active torsions:
REMARK  status: ('A' for Active; 'I' for Inactive)
REMARK    1  A    between atoms: N_2  and  C_1 
REMARK    2  A    between atoms: S_6  and  C_3 
REMARK       I    between atoms: C_4  and  N_5 
REMARK    3  A    between atoms: C_11  and  C_4 
REMARK    4  A    between atoms: N_5  and  C_8 
REMARK    5  A    between atoms: C_9  and  S_6 
ROOT
ATOM      1  C   UNL d   1       4.193   2.199   0.703  0.00  0.00     0.052 A 
ATOM      2  C   UNL d   1       4.387   1.739  -0.617  0.00  0.00     0.032 A 
ATOM      3  C   UNL d   1       4.891   3.350   1.120  0.00  0.00     0.031 A 
ATOM      4  C   UNL d   1       5.373   2.354  -1.416  0.00  0.00     0.021 A 
ATOM      5  C   UNL d   1       5.839   3.969   0.302  0.00  0.00     0.002 A 
ATOM      6  C   UNL d   1       6.108   3.446  -0.954  0.00  0.00     0.002 A 
ENDROOT
BRANCH   1   7
ATOM      7  N   UNL d   1       3.376   1.617   1.718  0.00  0.00    -0.322 N 
ATOM      8  C   UNL d   1       3.098   0.271   1.895  0.00  0.00     0.256 C 
ATOM      9  O   UNL d   1       3.347  -0.653   1.128  0.00  0.00    -0.267 OA
ATOM     10  H   UNL d   1       3.310   2.173   2.560  0.00  0.00     0.169 HD
BRANCH   8  11
ATOM     11  C   UNL d   1       2.634  -0.098   3.264  0.00  0.00     0.032 A 
ATOM     12  C   UNL d   1       1.870   0.756   4.064  0.00  0.00     0.017 A 
ATOM     13  C   UNL d   1       1.694   0.456   5.420  0.00  0.00     0.007 A 
ATOM     14  C   UNL d   1       2.280  -0.688   5.977  0.00  0.00    -0.062 A 
ATOM     15  C   UNL d   1       2.928  -1.602   5.141  0.00  0.00     0.007 A 
ATOM     16  C   UNL d   1       2.238  -0.919   7.459  0.00  0.00     0.048 C 
ATOM     17  C   UNL d   1       3.106  -1.307   3.792  0.00  0.00     0.017 A 
ENDBRANCH   8  11
ENDBRANCH   1   7
BRANCH   2  18
ATOM     18  S   UNL d   1       3.273   0.632  -1.480  0.00  0.00    -0.086 SA
BRANCH  18  19
ATOM     19  C   UNL d   1       4.292  -0.768  -1.948  0.00  0.00     0.038 A 
ATOM     20  C   UNL d   1       4.036  -1.525  -3.103  0.00  0.00     0.121 A 
ATOM     21  C   UNL d   1       4.734  -2.704  -3.407  0.00  0.00     0.061 A 
ATOM     22  C   UNL d   1       5.724  -3.139  -2.536  0.00  0.00     0.036 A 
ATOM     23  C   UNL d   1       6.022  -2.406  -1.390  0.00  0.00     0.025 A 
ATOM     24 CL   UNL d   1       6.579  -4.593  -2.868  0.00  0.00    -0.084 Cl
ATOM     25  C   UNL d   1       5.310  -1.234  -1.101  0.00  0.00     0.023 A 
BRANCH  20  26
ATOM     26  N   UNL d   1       3.034  -1.103  -4.060  0.00  0.00    -0.114 N 
ATOM     27  O   UNL d   1       3.250  -0.051  -4.679  0.00  0.00    -0.532 OA
ATOM     28  O   UNL d   1       2.080  -1.870  -4.249  0.00  0.00    -0.532 OA
ENDBRANCH  20  26
ENDBRANCH  18  19
ENDBRANCH   2  18
TORSDOF 5
