REMARK  5 active torsions:
REMARK  status: ('A' for Active; 'I' for Inactive)
REMARK    1  A    between atoms: C_9  and  C_1 
REMARK    2  A    between atoms: C_6  and  N_8 
REMARK    3  A    between atoms: N_7  and  C_6 
REMARK    4  A    between atoms: C_11  and  N_7 
REMARK    5  A    between atoms: N_8  and  C_9 
ROOT
ATOM      1  N   UNL d   1       4.147   1.455  -0.060  0.00  0.00    -0.362 N 
ATOM      2  H   UNL d   1       3.606   2.280   0.169  0.00  0.00     0.162 HD
ENDROOT
BRANCH   1   3
ATOM      3  C   UNL d   1       5.435   1.651  -0.470  0.00  0.00     0.172 C 
ATOM      4  S   UNL d   1       6.399   0.515  -1.230  0.00  0.00    -0.041 SA
BRANCH   3   5
ATOM      5  N   UNL d   1       5.949   2.907  -0.302  0.00  0.00    -0.333 N 
ATOM      6  H   UNL d   1       6.756   3.090  -0.891  0.00  0.00     0.168 HD
BRANCH   5   7
ATOM      7  C   UNL d   1       5.780   3.810   0.768  0.00  0.00     0.034 A 
ATOM      8  C   UNL d   1       5.174   3.461   1.980  0.00  0.00     0.032 A 
ATOM      9  C   UNL d   1       5.144   4.372   3.041  0.00  0.00     0.044 A 
ATOM     10  C   UNL d   1       5.717   5.627   2.886  0.00  0.00     0.116 A 
ATOM     11  C   UNL d   1       6.322   5.991   1.691  0.00  0.00     0.044 A 
ATOM     12  F   UNL d   1       5.705   6.490   3.911  0.00  0.00    -0.206 F 
ATOM     13  C   UNL d   1       6.361   5.078   0.634  0.00  0.00     0.032 A 
ENDBRANCH   5   7
ENDBRANCH   3   5
ENDBRANCH   1   3
BRANCH   1  14
ATOM     14  C   UNL d   1       3.472   0.171  -0.000  0.00  0.00     0.168 C 
BRANCH  14  15
ATOM     15  C   UNL d   1       2.005   0.342   0.262  0.00  0.00     0.008 A 
ATOM     16  S   UNL d   1       1.480   0.720   1.845  0.00  0.00    -0.092 SA
ATOM     17  C   UNL d   1      -0.176   0.512   1.442  0.00  0.00     0.016 A 
ATOM     18  C   UNL d   1      -1.279   0.596   2.316  0.00  0.00     0.019 A 
ATOM     19  C   UNL d   1      -0.336   0.225   0.085  0.00  0.00    -0.012 A 
ATOM     20  C   UNL d   1      -2.563   0.363   1.820  0.00  0.00     0.001 A 
ATOM     21  C   UNL d   1      -2.750   0.068   0.478  0.00  0.00     0.001 A 
ATOM     22  C   UNL d   1      -1.655   0.006  -0.390  0.00  0.00     0.013 A 
ATOM     23  C   UNL d   1       0.938   0.176  -0.610  0.00  0.00    -0.036 A 
ATOM     24  C   UNL d   1       1.053  -0.103  -2.077  0.00  0.00     0.050 C 
ENDBRANCH  14  15
ENDBRANCH   1  14
TORSDOF 5
