REMARK  2 active torsions:
REMARK  status: ('A' for Active; 'I' for Inactive)
REMARK    1  A    between atoms: C_11  and  C_3 
REMARK    2  A    between atoms: C_9  and  O_12 
ROOT
ATOM      1  O   UNL d   1      -1.242   1.387   0.102  0.00  0.00    -0.346 OA
ATOM      2  C   UNL d   1      -0.034   0.730  -0.275  0.00  0.00     0.189 C 
ATOM      3  C   UNL d   1      -2.381   0.641  -0.328  0.00  0.00     0.295 C 
ATOM      4  O   UNL d   1      -2.405  -0.640   0.307  0.00  0.00    -0.354 OA
ATOM      5  C   UNL d   1       0.026  -0.665   0.344  0.00  0.00     0.183 C 
ATOM      6  C   UNL d   1       2.345  -0.666  -0.017  0.00  0.00     0.134 C 
ATOM      7  C   UNL d   1       2.418   0.659   0.155  0.00  0.00     0.031 C 
ATOM      8  O   UNL d   1       1.182  -1.395  -0.089  0.00  0.00    -0.353 OA
ATOM      9  C   UNL d   1       1.193   1.516   0.218  0.00  0.00     0.174 C 
ATOM     10  C   UNL d   1      -1.251  -1.409  -0.032  0.00  0.00     0.206 C 
ENDROOT
BRANCH   3  11
ATOM     11  C   UNL d   1      -3.639   1.425   0.003  0.00  0.00    -0.004 A 
ATOM     12  C   UNL d   1      -3.628   2.832  -0.007  0.00  0.00     0.012 A 
ATOM     13  C   UNL d   1      -4.789   3.563   0.248  0.00  0.00     0.001 A 
ATOM     14  C   UNL d   1      -5.986   2.900   0.503  0.00  0.00     0.000 A 
ATOM     15  C   UNL d   1      -6.023   1.507   0.503  0.00  0.00     0.001 A 
ATOM     16  C   UNL d   1      -4.860   0.775   0.249  0.00  0.00     0.012 A 
ENDBRANCH   3  11
BRANCH   9  17
ATOM     17  O   UNL d   1       1.419   2.673  -0.586  0.00  0.00    -0.389 OA
ATOM     18  H   UNL d   1       1.536   2.377  -1.505  0.00  0.00     0.210 HD
ENDBRANCH   9  17
TORSDOF 2
