REMARK  3 active torsions:
REMARK  status: ('A' for Active; 'I' for Inactive)
REMARK    1  A    between atoms: N_2  and  C_1 
REMARK    2  A    between atoms: N_4  and  C_1 
REMARK       I    between atoms: C_3  and  N_2 
REMARK    3  A    between atoms: C_7  and  C_3 
ROOT
ATOM      1  N   UNL d   1       0.536   1.255  -0.353  0.00  0.00    -0.300 N 
ATOM      2  C   UNL d   1       1.106   2.280  -1.108  0.00  0.00     0.257 C 
ATOM      3  O   UNL d   1       2.171   2.194  -1.707  0.00  0.00    -0.267 OA
ATOM      4  H   UNL d   1      -0.378   1.426   0.024  0.00  0.00     0.171 HD
ENDROOT
BRANCH   1   5
ATOM      5  C   UNL d   1       1.111   0.042   0.039  0.00  0.00     0.176 C 
ATOM      6  S   UNL d   1       2.765  -0.154   0.268  0.00  0.00    -0.041 SA
BRANCH   5   7
ATOM      7  N   UNL d   1       0.165  -0.987   0.228  0.00  0.00    -0.354 N 
ATOM      8  C   UNL d   1       0.538  -2.361   0.644  0.00  0.00     0.151 C 
ATOM      9  C   UNL d   1       0.237  -3.370  -0.474  0.00  0.00     0.187 C 
ATOM     10  O   UNL d   1      -1.146  -3.304  -0.862  0.00  0.00    -0.388 OA
ATOM     11  C   UNL d   1      -1.468  -1.991  -1.341  0.00  0.00     0.187 C 
ATOM     12  C   UNL d   1      -1.230  -0.936  -0.253  0.00  0.00     0.151 C 
ENDBRANCH   5   7
ENDBRANCH   1   5
BRANCH   2  13
ATOM     13  C   UNL d   1       0.280   3.506  -1.330  0.00  0.00     0.032 A 
ATOM     14  C   UNL d   1      -0.720   3.952  -0.457  0.00  0.00     0.017 A 
ATOM     15  C   UNL d   1      -1.429   5.125  -0.751  0.00  0.00     0.001 A 
ATOM     16  C   UNL d   1      -1.143   5.854  -1.907  0.00  0.00     0.000 A 
ATOM     17  C   UNL d   1      -0.152   5.415  -2.779  0.00  0.00     0.001 A 
ATOM     18  C   UNL d   1       0.554   4.249  -2.491  0.00  0.00     0.017 A 
ENDBRANCH   2  13
TORSDOF 3
