REMARK  7 active torsions:
REMARK  status: ('A' for Active; 'I' for Inactive)
REMARK    1  A    between atoms: C_2  and  S_1 
REMARK    2  A    between atoms: C_7  and  S_1 
REMARK    3  A    between atoms: C_3  and  C_2 
REMARK    4  A    between atoms: N_17  and  C_3 
REMARK    5  A    between atoms: C_4  and  O_8 
REMARK    6  A    between atoms: C_11  and  C_4 
REMARK    7  A    between atoms: O_8  and  N_5 
ROOT
ATOM      1  C   UNL d   1       0.952  -0.451   2.533  0.00  0.00     0.110 C 
ATOM      2  N   UNL d   1       1.809  -1.393   2.290  0.00  0.00    -0.245 N 
ATOM      3  HN  UNL d   1       2.298  -1.912   3.020  1.00  0.00     0.196 HD
ENDROOT
BRANCH   1   4
ATOM      4  C   UNL d   1       0.669  -0.150   3.986  0.00  0.00     0.223 C 
BRANCH   4   5
ATOM      5  S   UNL d   1      -0.643  -1.162   4.613  0.00  0.00     0.182 S 
ATOM      6  O   UNL d   1      -1.821  -0.943   3.794  0.00  0.00    -0.222 OA
ATOM      7  O   UNL d   1      -0.716  -0.953   6.049  0.00  0.00    -0.222 OA
BRANCH   5   8
ATOM      8  C   UNL d   1      -0.102  -2.836   4.374  0.00  0.00     0.059 A 
ATOM      9  C   UNL d   1       1.004  -3.297   5.097  0.00  0.00     0.026 A 
ATOM     10  C   UNL d   1       1.495  -4.578   4.847  0.00  0.00     0.044 A 
ATOM     11  C   UNL d   1       0.866  -5.381   3.901  0.00  0.00     0.116 A 
ATOM     12  C   UNL d   1      -0.260  -4.939   3.212  0.00  0.00     0.044 A 
ATOM     13  F   UNL d   1       1.351  -6.604   3.649  0.00  0.00    -0.206 F 
ATOM     14  C   UNL d   1      -0.756  -3.657   3.450  0.00  0.00     0.026 A 
ENDBRANCH   5   8
ENDBRANCH   4   5
ENDBRANCH   1   4
BRANCH   1  15
ATOM     15  N   UNL d   1       0.330   0.301   1.570  0.00  0.00    -0.387 N 
ATOM     16  H   UNL d   1      -0.080   1.194   1.821  0.00  0.00     0.157 HD
ATOM     17  H   UNL d   1       0.741   0.262   0.645  0.00  0.00     0.157 HD
ENDBRANCH   1  15
BRANCH   2  18
ATOM     18  O   UNL d   1       1.994  -1.624   0.907  0.00  0.00    -0.193 OA
BRANCH  18  19
ATOM     19  C   UNL d   1       2.952  -2.591   0.744  0.00  0.00     0.315 C 
ATOM     20  O   UNL d   1       3.626  -3.113   1.625  0.00  0.00    -0.257 OA
BRANCH  19  21
ATOM     21  C   UNL d   1       3.103  -2.984  -0.689  0.00  0.00     0.041 A 
ATOM     22  C   UNL d   1       4.002  -4.024  -0.983  0.00  0.00     0.019 A 
ATOM     23  C   UNL d   1       4.178  -4.471  -2.296  0.00  0.00     0.025 A 
ATOM     24  C   UNL d   1       3.460  -3.875  -3.328  0.00  0.00     0.034 A 
ATOM     25  C   UNL d   1       2.574  -2.831  -3.056  0.00  0.00     0.025 A 
ATOM     26 CL   UNL d   1       3.660  -4.435  -4.942  0.00  0.00    -0.084 Cl
ATOM     27  C   UNL d   1       2.394  -2.383  -1.739  0.00  0.00     0.019 A 
ENDBRANCH  19  21
ENDBRANCH  18  19
ENDBRANCH   2  18
TORSDOF 7
