REMARK  3 active torsions:
REMARK  status: ('A' for Active; 'I' for Inactive)
REMARK    1  A    between atoms: C_7  and  C_1 
REMARK       I    between atoms: N_11  and  C_7 
REMARK       I    between atoms: C_10  and  N_12 
REMARK    2  A    between atoms: C_17  and  C_10 
REMARK    3  A    between atoms: N_12  and  N_11 
ROOT
ATOM      1  C   UNL d   1       2.122   2.403  -0.053  0.00  0.00     0.289 C 
ATOM      2  N   UNL d   1       3.480   2.684  -0.144  0.00  0.00    -0.262 N 
ATOM      3  O   UNL d   1       1.344   3.361   0.015  0.00  0.00    -0.264 OA
ATOM      4  H   UNL d   1       4.231   2.007  -0.209  0.00  0.00     0.190 HD
ENDROOT
BRANCH   1   5
ATOM      5  C   UNL d   1       1.677   1.024  -0.026  0.00  0.00     0.132 A 
ATOM      6  N   UNL d   1       0.326   0.647  -0.003  0.00  0.00    -0.302 N 
ATOM      7  C   UNL d   1       0.287  -0.742   0.034  0.00  0.00     0.113 A 
ATOM      8  C   UNL d   1      -0.850   1.410  -0.019  0.00  0.00     0.099 A 
ATOM      9  C   UNL d   1      -0.984  -1.379   0.050  0.00  0.00     0.056 A 
ATOM     10  N   UNL d   1       1.490  -1.259   0.043  0.00  0.00    -0.344 N 
ATOM     11  C   UNL d   1      -2.120  -0.652   0.025  0.00  0.00    -0.057 A 
ATOM     12  C   UNL d   1      -2.052   0.805  -0.004  0.00  0.00     0.024 A 
ATOM     13  C   UNL d   1      -3.469  -1.310   0.022  0.00  0.00     0.048 C 
ATOM     14  C   UNL d   1       2.359  -0.195   0.004  0.00  0.00     0.040 A 
ATOM     15  HN  UNL d   1       1.732  -2.250   0.072  1.00  0.00     0.167 HD
ATOM     16  C   UNL d   1       3.806  -0.519   0.009  0.00  0.00     0.071 C 
ENDBRANCH   1   5
BRANCH   2  17
ATOM     17  N   UNL d   1       3.845   4.050  -0.068  0.00  0.00    -0.263 N 
ATOM     18  C   UNL d   1       5.056   4.490  -0.566  0.00  0.00     0.270 C 
ATOM     19  O   UNL d   1       5.927   3.747  -0.998  0.00  0.00    -0.266 OA
ATOM     20  H   UNL d   1       3.050   4.688   0.006  0.00  0.00     0.190 HD
BRANCH  18  21
ATOM     21  C   UNL d   1       5.222   5.979  -0.564  0.00  0.00     0.033 A 
ATOM     22  C   UNL d   1       4.652   6.768   0.448  0.00  0.00     0.017 A 
ATOM     23  C   UNL d   1       4.777   8.160   0.414  0.00  0.00     0.001 A 
ATOM     24  C   UNL d   1       5.477   8.773  -0.624  0.00  0.00     0.000 A 
ATOM     25  C   UNL d   1       6.073   7.992  -1.618  0.00  0.00     0.001 A 
ATOM     26  C   UNL d   1       5.954   6.599  -1.585  0.00  0.00     0.017 A 
ENDBRANCH  18  21
ENDBRANCH   2  17
TORSDOF 3
