REMARK  4 active torsions:
REMARK  status: ('A' for Active; 'I' for Inactive)
REMARK    1  A    between atoms: C_14  and  N_1 
REMARK    2  A    between atoms: C_15  and  C_6 
REMARK    3  A    between atoms: C_7  and  C_14 
REMARK    4  A    between atoms: C_12  and  C_16 
ROOT
ATOM      1  N   UNL d   1       3.895   2.235   0.923  0.00  0.00    -0.321 N 
ATOM      2  HN  UNL d   1       3.578   2.096   1.883  1.00  0.00     0.169 HD
ATOM      3  C   UNL d   1       4.415   3.372   0.345  0.00  0.00     0.137 A 
ATOM      4  C   UNL d   1       3.909   1.377  -0.069  0.00  0.00     0.167 A 
ATOM      5  N   UNL d   1       4.785   3.209  -0.936  0.00  0.00    -0.242 N 
ATOM      6  HN  UNL d   1       5.212   3.893  -1.560  1.00  0.00     0.196 HD
ATOM      7  O   UNL d   1       4.450   1.885  -1.213  0.00  0.00    -0.221 OA
ENDROOT
BRANCH   4   8
ATOM      8  C   UNL d   1       3.354   0.003  -0.139  0.00  0.00     0.222 C 
BRANCH   8   9
ATOM      9  N   UNL d   1       1.985   0.071  -0.606  0.00  0.00    -0.272 N 
ATOM     10  C   UNL d   1       0.892   0.157   0.212  0.00  0.00     0.262 A 
ATOM     11  C   UNL d   1      -0.272   0.267  -0.670  0.00  0.00     0.048 A 
ATOM     12  O   UNL d   1       0.838   0.144   1.425  0.00  0.00    -0.267 OA
ATOM     13  C   UNL d   1      -1.618   0.352  -0.376  0.00  0.00     0.018 A 
ATOM     14  C   UNL d   1       0.191   0.271  -1.974  0.00  0.00     0.048 A 
ATOM     15  C   UNL d   1      -2.504   0.445  -1.456  0.00  0.00     0.001 A 
ATOM     16  C   UNL d   1      -2.030   0.458  -2.784  0.00  0.00     0.001 A 
ATOM     17  C   UNL d   1      -0.662   0.370  -3.057  0.00  0.00     0.018 A 
ATOM     18  C   UNL d   1       1.645   0.148  -1.926  0.00  0.00     0.262 A 
ATOM     19  O   UNL d   1       2.369   0.123  -2.902  0.00  0.00    -0.267 OA
ENDBRANCH   8   9
ENDBRANCH   4   8
BRANCH   3  20
ATOM     20  C   UNL d   1       4.499   4.633   1.070  0.00  0.00     0.010 A 
ATOM     21  C   UNL d   1       4.146   4.684   2.427  0.00  0.00     0.016 A 
ATOM     22  C   UNL d   1       4.203   5.887   3.135  0.00  0.00     0.017 A 
ATOM     23  C   UNL d   1       4.611   7.068   2.500  0.00  0.00     0.048 A 
ATOM     24  C   UNL d   1       4.956   7.020   1.141  0.00  0.00     0.017 A 
ATOM     25  C   UNL d   1       4.901   5.815   0.433  0.00  0.00     0.016 A 
BRANCH  23  26
ATOM     26  C   UNL d   1       4.682   8.373   3.254  0.00  0.00     0.417 C 
ATOM     27  F   UNL d   1       4.306   8.270   4.559  0.00  0.00    -0.166 F 
ATOM     28  F   UNL d   1       5.940   8.896   3.268  0.00  0.00    -0.166 F 
ATOM     29  F   UNL d   1       3.884   9.333   2.711  0.00  0.00    -0.166 F 
ENDBRANCH  23  26
ENDBRANCH   3  20
TORSDOF 4
