REMARK  4 active torsions:
REMARK  status: ('A' for Active; 'I' for Inactive)
REMARK    1  A    between atoms: N_2  and  C_1 
REMARK    2  A    between atoms: C_10  and  C_13 
REMARK    3  A    between atoms: C_16  and  C_10 
REMARK    4  A    between atoms: C_17  and  C_10 
ROOT
ATOM      1  C   UNL d   1       0.175  -1.189   0.179  0.00  0.00     0.141 A 
ATOM      2  C   UNL d   1       0.228  -0.429   1.367  0.00  0.00     0.158 A 
ATOM      3  C   UNL d   1      -0.473  -0.814   2.557  0.00  0.00     0.121 C 
ATOM      4  N   UNL d   1      -1.026  -1.144   3.532  0.00  0.00    -0.190 NA
ATOM      5  N   UNL d   1       0.789  -0.697  -0.932  0.00  0.00    -0.349 N 
ATOM      6  HN  UNL d   1       0.785  -1.218  -1.809  1.00  0.00     0.167 HD
ATOM      7  N   UNL d   1       0.856   0.784   1.464  0.00  0.00    -0.353 N 
ATOM      8  HN  UNL d   1       0.885   1.313   2.335  1.00  0.00     0.166 HD
ATOM      9  C   UNL d   1       1.406   0.504  -0.837  0.00  0.00     0.106 A 
ATOM     10  C   UNL d   1       1.433   1.232   0.334  0.00  0.00     0.106 A 
ENDROOT
BRANCH   1  11
ATOM     11  N   UNL d   1      -0.559  -2.351   0.034  0.00  0.00    -0.365 N 
ATOM     12  C   UNL d   1      -1.059  -2.681  -1.300  0.00  0.00     0.125 C 
ATOM     13  C   UNL d   1      -2.475  -3.222  -1.111  0.00  0.00     0.025 C 
ATOM     14  C   UNL d   1      -2.521  -4.466  -0.189  0.00  0.00     0.001 C 
ATOM     15  C   UNL d   1      -1.808  -4.104   1.145  0.00  0.00     0.025 C 
ATOM     16  C   UNL d   1      -0.415  -3.495   0.932  0.00  0.00     0.125 C 
BRANCH  14  17
ATOM     17  C   UNL d   1      -1.931  -5.764  -0.846  0.00  0.00     0.056 C 
BRANCH  17  18
ATOM     18  C   UNL d   1      -2.088  -6.987   0.062  0.00  0.00    -0.049 A 
ATOM     19  C   UNL d   1      -3.353  -7.420   0.491  0.00  0.00     0.008 A 
ATOM     20  C   UNL d   1      -3.490  -8.577   1.258  0.00  0.00     0.001 A 
ATOM     21  C   UNL d   1      -2.364  -9.318   1.609  0.00  0.00     0.000 A 
ATOM     22  C   UNL d   1      -1.099  -8.889   1.213  0.00  0.00     0.001 A 
ATOM     23  C   UNL d   1      -0.960  -7.730   0.446  0.00  0.00     0.008 A 
ENDBRANCH  17  18
BRANCH  17  24
ATOM     24  C   UNL d   1      -2.439  -6.095  -2.255  0.00  0.00    -0.049 A 
ATOM     25  C   UNL d   1      -1.571  -6.725  -3.166  0.00  0.00     0.008 A 
ATOM     26  C   UNL d   1      -1.983  -7.015  -4.470  0.00  0.00     0.001 A 
ATOM     27  C   UNL d   1      -3.272  -6.689  -4.882  0.00  0.00     0.000 A 
ATOM     28  C   UNL d   1      -4.158  -6.104  -3.982  0.00  0.00     0.001 A 
ATOM     29  C   UNL d   1      -3.751  -5.827  -2.675  0.00  0.00     0.008 A 
ENDBRANCH  17  24
ENDBRANCH  14  17
ENDBRANCH   1  11
TORSDOF 4
