REMARK  2 active torsions:
REMARK  status: ('A' for Active; 'I' for Inactive)
REMARK    1  A    between atoms: C_2  and  O_10 
REMARK       I    between atoms: N_13  and  C_2 
REMARK    2  A    between atoms: O_10  and  C_7 
ROOT
ATOM      1  C   UNL d   1      -0.054   0.776  -0.133  0.00  0.00     0.093 A 
ATOM      2  C   UNL d   1       0.026  -0.600  -0.370  0.00  0.00     0.006 A 
ATOM      3  C   UNL d   1       1.322  -1.268  -0.181  0.00  0.00    -0.043 A 
ATOM      4  O   UNL d   1       1.092   1.542   0.157  0.00  0.00    -0.275 OA
ATOM      5  C   UNL d   1       2.341   0.951   0.250  0.00  0.00     0.288 A 
ATOM      6  C   UNL d   1      -2.438   0.752  -0.389  0.00  0.00     0.105 A 
ATOM      7  C   UNL d   1       2.389  -0.511   0.113  0.00  0.00     0.090 A 
ATOM      8  C   UNL d   1      -1.265   1.466  -0.151  0.00  0.00     0.077 A 
ATOM      9  C   UNL d   1      -1.151  -1.272  -0.727  0.00  0.00     0.041 A 
ATOM     10  C   UNL d   1      -2.380  -0.600  -0.736  0.00  0.00     0.069 A 
ATOM     11  O   UNL d   1       3.362   1.597   0.453  0.00  0.00    -0.260 OA
ATOM     12 CL   UNL d   1      -3.804  -1.480  -1.153  0.00  0.00    -0.081 Cl
ATOM     13  C   UNL d   1       1.426  -2.764  -0.234  0.00  0.00     0.049 C 
ENDROOT
BRANCH   6  14
ATOM     14  O   UNL d   1      -3.692   1.377  -0.302  0.00  0.00    -0.260 OA
BRANCH  14  15
ATOM     15  C   UNL d   1      -3.999   1.947   0.938  0.00  0.00     0.367 C 
ATOM     16  N   UNL d   1      -5.302   2.417   1.008  0.00  0.00    -0.336 N 
ATOM     17  C   UNL d   1      -5.687   3.254   2.130  0.00  0.00     0.154 C 
ATOM     18  C   UNL d   1      -6.280   2.238  -0.049  0.00  0.00     0.154 C 
ATOM     19  O   UNL d   1      -3.203   2.042   1.865  0.00  0.00    -0.238 OA
ENDBRANCH  14  15
ENDBRANCH   6  14
TORSDOF 2
