REMARK  4 active torsions:
REMARK  status: ('A' for Active; 'I' for Inactive)
REMARK    1  A    between atoms: C_9  and  C_1 
REMARK    2  A    between atoms: N_12  and  C_10 
REMARK    3  A    between atoms: C_14  and  C_13 
REMARK    4  A    between atoms: C_18  and  C_15 
ROOT
ATOM      1  C   UNL d   1      -1.883   0.968  -0.222  0.00  0.00     0.123 C 
ATOM      2  N   UNL d   1      -1.633  -0.480   0.094  0.00  0.00    -0.243 NA
ATOM      3  C   UNL d   1      -1.062   1.227  -1.536  0.00  0.00     0.025 C 
ATOM      4  N   UNL d   1      -1.410   1.558   1.029  0.00  0.00    -0.333 N 
ATOM      5  C   UNL d   1      -0.165  -0.482  -0.186  0.00  0.00     0.020 A 
ATOM      6  C   UNL d   1       0.197   0.566  -1.061  0.00  0.00    -0.025 A 
ATOM      7  C   UNL d   1      -1.583   0.704   2.110  0.00  0.00     0.233 C 
ATOM      8  C   UNL d   1      -1.884  -0.674   1.536  0.00  0.00     0.201 C 
ATOM      9  O   UNL d   1      -1.522   1.016   3.287  0.00  0.00    -0.272 OA
ATOM     10  C   UNL d   1      -0.933   2.692  -1.951  0.00  0.00     0.024 C 
ATOM     11  C   UNL d   1      -1.618   0.405  -2.736  0.00  0.00     0.024 C 
ATOM     12  C   UNL d   1       0.832  -1.195   0.469  0.00  0.00     0.024 A 
ATOM     13  C   UNL d   1       1.510   0.992  -1.207  0.00  0.00     0.010 A 
ATOM     14  C   UNL d   1       2.493   0.341  -0.470  0.00  0.00     0.001 A 
ATOM     15  C   UNL d   1       2.161  -0.755   0.342  0.00  0.00     0.002 A 
ATOM     16  H   UNL d   1      -1.314   2.551   1.192  0.00  0.00     0.165 HD
ENDROOT
BRANCH   1  17
ATOM     17  C   UNL d   1      -3.258   1.565  -0.286  0.00  0.00     0.022 C 
ATOM     18  C   UNL d   1      -4.541   1.192  -0.146  0.00  0.00    -0.000 C 
BRANCH  18  19
ATOM     19  C   UNL d   1      -5.527   2.269  -0.022  0.00  0.00     0.001 C 
ATOM     20  C   UNL d   1      -6.854   2.135   0.133  0.00  0.00     0.011 C 
BRANCH  20  21
ATOM     21  C   UNL d   1      -7.794   3.255   0.389  0.00  0.00    -0.036 A 
ATOM     22  C   UNL d   1      -7.520   4.606   0.161  0.00  0.00     0.013 A 
ATOM     23  C   UNL d   1      -8.484   5.607   0.428  0.00  0.00     0.030 A 
ATOM     24  C   UNL d   1      -9.761   5.310   0.926  0.00  0.00     0.029 A 
ATOM     25  C   UNL d   1     -10.026   3.949   1.140  0.00  0.00     0.030 A 
ATOM     26  C   UNL d   1      -9.066   2.947   0.880  0.00  0.00     0.013 A 
BRANCH  24  27
ATOM     27  N   UNL d   1     -10.729   6.301   1.107  0.00  0.00    -0.390 N 
ATOM     28  C   UNL d   1     -10.322   7.554   1.751  0.00  0.00     0.149 C 
ATOM     29  C   UNL d   1     -12.105   5.906   1.403  0.00  0.00     0.149 C 
ENDBRANCH  24  27
ENDBRANCH  20  21
ENDBRANCH  18  19
ENDBRANCH   1  17
TORSDOF 4
