REMARK  5 active torsions:
REMARK  status: ('A' for Active; 'I' for Inactive)
REMARK    1  A    between atoms: N_6  and  S_1 
REMARK    2  A    between atoms: N_2  and  C_5 
REMARK    3  A    between atoms: C_4  and  C_7 
REMARK    4  A    between atoms: C_11  and  N_6 
REMARK    5  A    between atoms: O_22  and  C_12 
ROOT
ATOM      1  C   UNL d   1       0.073  -1.272   4.822  0.00  0.00     0.039 A 
ATOM      2  C   UNL d   1      -0.191  -0.555   3.639  0.00  0.00     0.054 A 
ATOM      3  C   UNL d   1       0.829  -0.225   2.750  0.00  0.00     0.024 A 
ATOM      4  C   UNL d   1       1.395  -1.699   5.060  0.00  0.00    -0.035 A 
ATOM      5  C   UNL d   1       2.414  -1.365   4.145  0.00  0.00     0.011 A 
ATOM      6  C   UNL d   1       2.134  -0.627   2.997  0.00  0.00     0.025 A 
ATOM      7  C   UNL d   1       1.770  -2.468   6.297  0.00  0.00     0.050 C 
ENDROOT
BRANCH   1   8
ATOM      8  N   UNL d   1      -0.974  -1.615   5.719  0.00  0.00    -0.365 N 
ATOM      9  C   UNL d   1      -1.901  -0.727   5.921  0.00  0.00     0.102 C 
ATOM     10  HN  UNL d   1      -0.996  -2.522   6.186  1.00  0.00     0.165 HD
BRANCH   9  11
ATOM     11  C   UNL d   1      -3.097  -0.977   6.750  0.00  0.00     0.014 A 
ATOM     12  C   UNL d   1      -3.260  -2.128   7.526  0.00  0.00     0.077 A 
ATOM     13  C   UNL d   1      -4.411  -2.299   8.294  0.00  0.00     0.039 A 
ATOM     14  C   UNL d   1      -5.415  -1.325   8.280  0.00  0.00     0.022 A 
ATOM     15  C   UNL d   1      -5.258  -0.188   7.490  0.00  0.00     0.011 A 
ATOM     16  C   UNL d   1      -4.106  -0.005   6.726  0.00  0.00     0.034 A 
ATOM     17 BR   UNL d   1      -6.621   1.123   7.445  0.00  0.00    -0.051 Br
BRANCH  12  18
ATOM     18  O   UNL d   1      -2.326  -3.124   7.577  0.00  0.00    -0.360 OA
ATOM     19  H   UNL d   1      -1.609  -2.887   6.945  0.00  0.00     0.217 HD
ENDBRANCH  12  18
ENDBRANCH   9  11
ENDBRANCH   1   8
BRANCH   3  20
ATOM     20  N   UNL d   1       0.516   0.571   1.609  0.00  0.00    -0.186 NA
ATOM     21  H   UNL d   1       0.918   0.231   0.732  0.00  0.00     0.145 HD
BRANCH  20  22
ATOM     22  S   UNL d   1       0.819   2.236   1.721  0.00  0.00     0.210 S 
ATOM     23  O   UNL d   1       1.164   2.644   0.375  0.00  0.00    -0.211 OA
ATOM     24  O   UNL d   1       1.690   2.522   2.840  0.00  0.00    -0.211 OA
ATOM     25  C   UNL d   1      -0.804   2.871   2.072  0.00  0.00     0.180 C 
ENDBRANCH  20  22
ENDBRANCH   3  20
TORSDOF 5
