REMARK  1 active torsions:
REMARK  status: ('A' for Active; 'I' for Inactive)
REMARK    1  A    between atoms: C_8  and  N_4 
ROOT
ATOM      1  C   UNL d   1      -0.584  -1.028  -0.176  0.00  0.00     0.125 C 
ATOM      2  S   UNL d   1       1.102  -1.185   0.310  0.00  0.00    -0.063 SA
ATOM      3  N   UNL d   1      -0.983   0.272  -0.008  0.00  0.00    -0.260 NA
ATOM      4  N   UNL d   1      -1.350  -1.924  -0.708  0.00  0.00    -0.340 N 
ATOM      5  HN  UNL d   1      -2.313  -1.677  -0.937  1.00  0.00     0.167 HD
ATOM      6  C   UNL d   1       1.364   0.531   0.116  0.00  0.00    -0.001 C 
ATOM      7  C   UNL d   1       0.070   1.270  -0.220  0.00  0.00     0.043 C 
ATOM      8  C   UNL d   1       2.586   1.061   0.270  0.00  0.00     0.029 C 
ATOM      9  C   UNL d   1      -0.174   2.470   0.696  0.00  0.00     0.038 C 
ATOM     10  C   UNL d   1       0.028   1.698  -1.696  0.00  0.00     0.038 C 
ATOM     11  H   UNL d   1      -1.883   0.467  -0.434  0.00  0.00     0.130 HD
ENDROOT
BRANCH   4  12
ATOM     12  C   UNL d   1      -0.898  -3.231  -0.982  0.00  0.00     0.057 A 
ATOM     13  C   UNL d   1       0.205  -3.447  -1.822  0.00  0.00     0.057 A 
ATOM     14  C   UNL d   1       0.680  -4.737  -2.076  0.00  0.00     0.058 A 
ATOM     15 CL   UNL d   1       2.111  -4.889  -3.034  0.00  0.00    -0.082 Cl
ATOM     16  C   UNL d   1       0.005  -5.841  -1.552  0.00  0.00     0.057 A 
ATOM     17  C   UNL d   1      -1.145  -5.650  -0.785  0.00  0.00     0.051 A 
ATOM     18 CL   UNL d   1       0.533  -7.463  -1.826  0.00  0.00    -0.082 Cl
ATOM     19  C   UNL d   1      -1.592  -4.355  -0.502  0.00  0.00     0.062 A 
ATOM     20 CL   UNL d   1      -3.033  -4.185   0.440  0.00  0.00    -0.082 Cl
ENDBRANCH   4  12
TORSDOF 1
