REMARK  7 active torsions:
REMARK  status: ('A' for Active; 'I' for Inactive)
REMARK    1  A    between atoms: N_3  and  S_1 
REMARK    2  A    between atoms: C_8  and  S_1 
REMARK    3  A    between atoms: S_2  and  N_4 
REMARK    4  A    between atoms: C_9  and  S_2 
REMARK    5  A    between atoms: C_5  and  N_3 
REMARK    6  A    between atoms: N_4  and  C_7 
REMARK    7  A    between atoms: C_6  and  C_10 
ROOT
ATOM      1  C   UNL d   1       0.879  -2.341   1.047  0.00  0.00     0.050 A 
ATOM      2  C   UNL d   1      -0.116  -3.302   1.337  0.00  0.00     0.064 A 
ATOM      3  C   UNL d   1       2.189  -2.765   0.780  0.00  0.00     0.033 A 
ATOM      4  C   UNL d   1       0.209  -4.660   1.313  0.00  0.00     0.032 A 
ATOM      5  C   UNL d   1       2.514  -4.131   0.778  0.00  0.00    -0.060 A 
ATOM      6  C   UNL d   1       1.510  -5.072   1.030  0.00  0.00     0.009 A 
ATOM      7  C   UNL d   1       3.917  -4.609   0.530  0.00  0.00     0.048 C 
ENDROOT
BRANCH   1   8
ATOM      8  N   UNL d   1       0.620  -0.927   1.093  0.00  0.00    -0.179 NA
ATOM      9  H   UNL d   1      -0.297  -0.645   0.730  0.00  0.00     0.146 HD
BRANCH   8  10
ATOM     10  S   UNL d   1       0.956  -0.084   2.529  0.00  0.00     0.245 S 
ATOM     11  O   UNL d   1       0.897  -1.011   3.642  0.00  0.00    -0.206 OA
ATOM     12  O   UNL d   1       0.145   1.109   2.504  0.00  0.00    -0.206 OA
BRANCH  10  13
ATOM     13  C   UNL d   1       2.656   0.468   2.360  0.00  0.00     0.075 A 
ATOM     14  C   UNL d   1       3.643   0.067   3.278  0.00  0.00     0.041 A 
ATOM     15  C   UNL d   1       4.976   0.501   3.121  0.00  0.00     0.049 A 
ATOM     16  C   UNL d   1       5.284   1.380   2.068  0.00  0.00     0.016 A 
ATOM     17  C   UNL d   1       4.288   1.822   1.196  0.00  0.00     0.002 A 
ATOM     18  C   UNL d   1       2.975   1.368   1.338  0.00  0.00     0.025 A 
BRANCH  15  19
ATOM     19  C   UNL d   1       6.093   0.027   4.026  0.00  0.00     0.417 C 
ATOM     20  F   UNL d   1       5.685  -0.819   5.010  0.00  0.00    -0.166 F 
ATOM     21  F   UNL d   1       7.057  -0.647   3.334  0.00  0.00    -0.166 F 
ATOM     22  F   UNL d   1       6.739   1.050   4.652  0.00  0.00    -0.166 F 
ENDBRANCH  15  19
ENDBRANCH  10  13
ENDBRANCH   8  10
ENDBRANCH   1   8
BRANCH   2  23
ATOM     23  N   UNL d   1      -1.403  -2.963   1.838  0.00  0.00    -0.279 N 
ATOM     24  H   UNL d   1      -1.571  -3.080   2.837  0.00  0.00     0.179 HD
BRANCH  23  25
ATOM     25  S   UNL d   1      -2.771  -2.821   0.895  0.00  0.00     0.263 S 
ATOM     26  O   UNL d   1      -3.881  -2.744   1.810  0.00  0.00    -0.200 OA
ATOM     27  O   UNL d   1      -2.516  -1.753  -0.053  0.00  0.00    -0.200 OA
BRANCH  25  28
ATOM     28  C   UNL d   1      -2.954  -4.344  -0.025  0.00  0.00     0.079 A 
ATOM     29  C   UNL d   1      -3.696  -5.428   0.468  0.00  0.00     0.026 A 
ATOM     30  C   UNL d   1      -3.939  -6.540  -0.360  0.00  0.00     0.008 A 
ATOM     31  C   UNL d   1      -3.478  -6.560  -1.686  0.00  0.00    -0.062 A 
ATOM     32  C   UNL d   1      -2.759  -5.462  -2.167  0.00  0.00     0.008 A 
ATOM     33  C   UNL d   1      -3.726  -7.745  -2.578  0.00  0.00     0.048 C 
ATOM     34  C   UNL d   1      -2.494  -4.367  -1.343  0.00  0.00     0.026 A 
ENDBRANCH  25  28
ENDBRANCH  23  25
ENDBRANCH   2  23
TORSDOF 7
