REMARK  3 active torsions:
REMARK  status: ('A' for Active; 'I' for Inactive)
REMARK    1  A    between atoms: C_11  and  N_1 
REMARK    2  A    between atoms: C_8  and  C_2 
REMARK    3  A    between atoms: C_16  and  C_11 
ROOT
ATOM      1  N   UNL d   1       0.913  -0.675  -0.027  0.00  0.00    -0.307 N 
ATOM      2  C   UNL d   1       0.945   0.695  -0.098  0.00  0.00     0.135 A 
ATOM      3  N   UNL d   1      -0.233   1.256  -0.096  0.00  0.00    -0.282 N 
ATOM      4  HN  UNL d   1      -0.448   2.253  -0.130  1.00  0.00     0.188 HD
ATOM      5  C   UNL d   1      -0.433  -0.985   0.011  0.00  0.00     0.194 A 
ATOM      6  N   UNL d   1      -1.109   0.221  -0.039  0.00  0.00    -0.274 N 
ATOM      7  S   UNL d   1      -1.207  -2.449   0.102  0.00  0.00    -0.039 SA
ATOM      8  H   UNL d   1      -2.112   0.357  -0.024  0.00  0.00     0.189 HD
ENDROOT
BRANCH   2   9
ATOM      9  C   UNL d   1       2.174   1.514  -0.125  0.00  0.00     0.012 A 
ATOM     10  C   UNL d   1       3.302   1.180  -0.867  0.00  0.00     0.032 A 
ATOM     11  C   UNL d   1       4.397   2.026  -0.799  0.00  0.00     0.088 A 
ATOM     12  N   UNL d   1       4.422   3.170  -0.084  0.00  0.00    -0.375 N 
ATOM     13  C   UNL d   1       3.297   3.497   0.584  0.00  0.00     0.088 A 
ATOM     14  HN  UNL d   1       5.254   3.759  -0.050  1.00  0.00     0.164 HD
ATOM     15  C   UNL d   1       2.160   2.712   0.595  0.00  0.00     0.032 A 
ENDBRANCH   2   9
BRANCH   1  16
ATOM     16  C   UNL d   1       2.004  -1.651   0.044  0.00  0.00     0.133 C 
BRANCH  16  17
ATOM     17  C   UNL d   1       2.869  -1.547   1.302  0.00  0.00     0.016 C 
ATOM     18  C   UNL d   1       2.112  -1.880   2.576  0.00  0.00     0.006 C 
ENDBRANCH  16  17
ENDBRANCH   1  16
TORSDOF 3
