REMARK  1 active torsions:
REMARK  status: ('A' for Active; 'I' for Inactive)
REMARK    1  A    between atoms: C_3  and  C_1 
ROOT
ATOM      1  C   UNL d   1       2.148   0.104   0.038  0.00  0.00     0.014 A 
ATOM      2  S   UNL d   1       1.335  -1.403   0.053  0.00  0.00    -0.089 SA
ATOM      3  C   UNL d   1       1.255   1.167   0.017  0.00  0.00    -0.033 A 
ATOM      4  C   UNL d   1      -0.125   0.717   0.007  0.00  0.00    -0.012 A 
ATOM      5  C   UNL d   1      -0.216  -0.675   0.023  0.00  0.00     0.016 A 
ATOM      6  C   UNL d   1       1.635   2.616   0.013  0.00  0.00     0.050 C 
ATOM      7  C   UNL d   1      -1.337   1.455  -0.010  0.00  0.00     0.013 A 
ATOM      8  C   UNL d   1      -1.459  -1.339   0.020  0.00  0.00     0.019 A 
ATOM      9  C   UNL d   1      -2.574   0.803  -0.005  0.00  0.00     0.001 A 
ATOM     10  C   UNL d   1      -2.632  -0.583   0.010  0.00  0.00     0.001 A 
ENDROOT
BRANCH   1  11
ATOM     11  C   UNL d   1       3.569   0.108   0.074  0.00  0.00     0.055 C 
ATOM     12  C   UNL d   1       4.298   0.168  -1.047  0.00  0.00     0.111 A 
ATOM     13  N   UNL d   1       3.855   0.261  -2.341  0.00  0.00    -0.335 N 
ATOM     14  C   UNL d   1       5.782   0.108  -1.010  0.00  0.00     0.316 A 
ATOM     15  C   UNL d   1       4.959   0.245  -3.013  0.00  0.00     0.124 A 
ATOM     16  HN  UNL d   1       2.898   0.325  -2.686  1.00  0.00     0.168 HD
ATOM     17  C   UNL d   1       5.079   0.316  -4.489  0.00  0.00     0.098 C 
ATOM     18  O   UNL d   1       6.120   0.160  -2.329  0.00  0.00    -0.261 OA
ATOM     19  O   UNL d   1       6.529   0.029  -0.057  0.00  0.00    -0.257 OA
ENDBRANCH   1  11
TORSDOF 1
