REMARK  0 active torsions:
REMARK  status: ('A' for Active; 'I' for Inactive)
ROOT
ATOM      1  N   UNL d   1       0.900   1.560   0.479  0.00  0.00    -0.362 N 
ATOM      2  HN  UNL d   1       0.804   2.399   1.052  1.00  0.00     0.165 HD
ATOM      3  C   UNL d   1      -0.234   0.773   0.201  0.00  0.00     0.060 A 
ATOM      4  C   UNL d   1      -0.279  -0.641   0.274  0.00  0.00     0.057 A 
ATOM      5  N   UNL d   1       0.819  -1.449   0.556  0.00  0.00    -0.379 N 
ATOM      6  C   UNL d   1      -1.414   1.486  -0.063  0.00  0.00     0.057 A 
ATOM      7  C   UNL d   1      -1.509  -1.283   0.043  0.00  0.00     0.057 A 
ATOM      8  C   UNL d   1       2.149  -1.274  -0.038  0.00  0.00     0.028 C 
ATOM      9  C   UNL d   1       2.063   1.232   0.017  0.00  0.00    -0.015 C 
ATOM     10  C   UNL d   1      -2.672  -0.560  -0.237  0.00  0.00     0.058 A 
ATOM     11  C   UNL d   1      -2.624   0.831  -0.283  0.00  0.00     0.058 A 
ATOM     12  C   UNL d   1       2.317   0.021  -0.841  0.00  0.00     0.082 C 
ATOM     13 CL   UNL d   1      -4.125  -1.453  -0.515  0.00  0.00    -0.082 Cl
ATOM     14 CL   UNL d   1      -4.024   1.796  -0.594  0.00  0.00    -0.082 Cl
ATOM     15  C   UNL d   1       2.384  -2.455  -1.000  0.00  0.00     0.038 C 
ATOM     16  C   UNL d   1       3.167  -1.360   1.112  0.00  0.00     0.038 C 
ATOM     17  C   UNL d   1       3.243   2.112   0.347  0.00  0.00     0.063 C 
ATOM     18  H   UNL d   1       0.592  -2.412   0.787  0.00  0.00     0.160 HD
ENDROOT
TORSDOF 0
