REMARK  2 active torsions:
REMARK  status: ('A' for Active; 'I' for Inactive)
REMARK    1  A    between atoms: C_7  and  C_3 
REMARK    2  A    between atoms: C_10  and  C_4 
ROOT
ATOM      1  N   UNL d   1       1.377  -0.587  -0.054  0.00  0.00    -0.349 N 
ATOM      2  HN  UNL d   1       2.263  -1.091  -0.092  1.00  0.00     0.166 HD
ATOM      3  C   UNL d   1       0.187  -1.157  -0.046  0.00  0.00     0.085 A 
ATOM      4  C   UNL d   1       1.257   0.796  -0.003  0.00  0.00     0.050 A 
ATOM      5  S   UNL d   1      -1.137  -0.056   0.054  0.00  0.00    -0.081 SA
ATOM      6  C   UNL d   1      -0.042   1.258   0.052  0.00  0.00     0.082 A 
ENDROOT
BRANCH   3   7
ATOM      7  C   UNL d   1      -0.040  -2.612  -0.069  0.00  0.00     0.001 A 
ATOM      8  C   UNL d   1      -1.164  -3.189  -0.674  0.00  0.00     0.057 A 
ATOM      9  C   UNL d   1      -1.338  -4.571  -0.663  0.00  0.00     0.123 A 
ATOM     10  F   UNL d   1      -2.427  -5.087  -1.251  0.00  0.00    -0.206 F 
ATOM     11  C   UNL d   1      -0.411  -5.420  -0.058  0.00  0.00    -0.023 A 
ATOM     12  C   UNL d   1       0.722  -4.855   0.534  0.00  0.00     0.011 A 
ATOM     13  C   UNL d   1      -0.638  -6.900  -0.061  0.00  0.00     0.051 C 
ATOM     14  C   UNL d   1       0.906  -3.466   0.523  0.00  0.00     0.015 A 
ENDBRANCH   3   7
BRANCH   4  15
ATOM     15  C   UNL d   1       2.429   1.666  -0.050  0.00  0.00    -0.009 A 
ATOM     16  C   UNL d   1       3.593   1.225  -0.694  0.00  0.00     0.014 A 
ATOM     17  C   UNL d   1       4.717   2.051  -0.782  0.00  0.00     0.001 A 
ATOM     18  C   UNL d   1       4.692   3.325  -0.219  0.00  0.00     0.000 A 
ATOM     19  C   UNL d   1       3.548   3.771   0.439  0.00  0.00     0.001 A 
ATOM     20  C   UNL d   1       2.423   2.946   0.526  0.00  0.00     0.014 A 
ENDBRANCH   4  15
TORSDOF 2
