REMARK  7 active torsions:
REMARK  status: ('A' for Active; 'I' for Inactive)
REMARK    1  A    between atoms: C_13  and  C_1 
REMARK    2  A    between atoms: C_8  and  C_2 
REMARK    3  A    between atoms: N_11  and  C_3 
REMARK       I    between atoms: C_7  and  N_10 
REMARK       I    between atoms: N_14  and  C_7 
REMARK    4  A    between atoms: C_12  and  C_17 
REMARK    5  A    between atoms: O_32  and  C_13 
REMARK    6  A    between atoms: C_23  and  N_14 
REMARK    7  A    between atoms: C_36  and  O_32 
ROOT
ATOM      1  C   UNL d   1      -1.628   1.335   0.126  0.00  0.00     0.072 A 
ATOM      2  C   UNL d   1      -2.202   0.089  -0.110  0.00  0.00     0.134 A 
ATOM      3  C   UNL d   1      -0.111  -0.992   0.149  0.00  0.00     0.125 A 
ATOM      4  N   UNL d   1      -1.438  -1.059  -0.079  0.00  0.00    -0.337 N 
ATOM      5  HN  UNL d   1      -1.881  -1.966  -0.229  1.00  0.00     0.167 HD
ATOM      6  C   UNL d   1       0.523   0.251   0.278  0.00  0.00     0.089 A 
ATOM      7  C   UNL d   1      -0.244   1.413   0.295  0.00  0.00     0.046 A 
ATOM      8  C   UNL d   1       1.942   0.385   0.345  0.00  0.00     0.103 C 
ATOM      9  N   UNL d   1       3.094   0.524   0.418  0.00  0.00    -0.191 NA
ENDROOT
BRANCH   3  10
ATOM     10  N   UNL d   1       0.626  -2.159   0.212  0.00  0.00    -0.363 N 
ATOM     11  C   UNL d   1       0.112  -3.387  -0.411  0.00  0.00     0.144 C 
ATOM     12  C   UNL d   1       1.315  -4.327  -0.706  0.00  0.00     0.147 C 
ATOM     13  N   UNL d   1       2.209  -4.507   0.462  0.00  0.00    -0.331 N 
ATOM     14  C   UNL d   1       3.022  -5.593   0.748  0.00  0.00     0.323 C 
ATOM     15  C   UNL d   1       2.558  -3.259   1.165  0.00  0.00     0.147 C 
ATOM     16  N   UNL d   1       2.762  -6.752   0.059  0.00  0.00    -0.309 N 
ATOM     17  O   UNL d   1       3.903  -5.485   1.599  0.00  0.00    -0.247 OA
ATOM     18  H   UNL d   1       2.053  -6.728  -0.651  0.00  0.00     0.170 HD
ATOM     19  C   UNL d   1       1.307  -2.445   1.491  0.00  0.00     0.144 C 
BRANCH  16  20
ATOM     20  C   UNL d   1       3.489  -7.961   0.155  0.00  0.00     0.037 A 
ATOM     21  C   UNL d   1       4.552  -8.153   1.041  0.00  0.00     0.045 A 
ATOM     22  C   UNL d   1       5.363  -9.294   0.975  0.00  0.00     0.050 A 
ATOM     23  C   UNL d   1       5.033 -10.306   0.066  0.00  0.00     0.016 A 
ATOM     24  C   UNL d   1       3.924 -10.164  -0.768  0.00  0.00     0.003 A 
ATOM     25  C   UNL d   1       3.162  -8.993  -0.731  0.00  0.00     0.029 A 
BRANCH  22  26
ATOM     26  C   UNL d   1       6.613  -9.383   1.815  0.00  0.00     0.417 C 
ATOM     27  F   UNL d   1       6.823  -8.302   2.617  0.00  0.00    -0.166 F 
ATOM     28  F   UNL d   1       6.621 -10.466   2.639  0.00  0.00    -0.166 F 
ATOM     29  F   UNL d   1       7.734  -9.492   1.046  0.00  0.00    -0.166 F 
ENDBRANCH  22  26
ENDBRANCH  16  20
ENDBRANCH   3  10
BRANCH   1  30
ATOM     30  C   UNL d   1      -2.408   2.578   0.229  0.00  0.00     0.295 C 
ATOM     31  O   UNL d   1      -3.464   2.665   0.824  0.00  0.00    -0.259 OA
BRANCH  30  32
ATOM     32  O   UNL d   1      -1.748   3.545  -0.448  0.00  0.00    -0.318 OA
BRANCH  32  33
ATOM     33  C   UNL d   1      -2.467   4.763  -0.683  0.00  0.00     0.174 C 
ATOM     34  C   UNL d   1      -2.987   4.703  -2.105  0.00  0.00     0.034 C 
ENDBRANCH  32  33
ENDBRANCH  30  32
ENDBRANCH   1  30
BRANCH   2  35
ATOM     35  C   UNL d   1      -3.667  -0.086  -0.495  0.00  0.00     0.433 C 
ATOM     36  F   UNL d   1      -4.336   1.051  -0.826  0.00  0.00    -0.165 F 
ATOM     37  F   UNL d   1      -3.799  -0.877  -1.605  0.00  0.00    -0.165 F 
ATOM     38  F   UNL d   1      -4.402  -0.698   0.476  0.00  0.00    -0.165 F 
ENDBRANCH   2  35
TORSDOF 7
