REMARK  3 active torsions:
REMARK  status: ('A' for Active; 'I' for Inactive)
REMARK    1  A    between atoms: N_2  and  S_1 
REMARK    2  A    between atoms: C_11  and  S_1 
REMARK    3  A    between atoms: C_3  and  N_2 
ROOT
ATOM      1  S   UNL d   1       0.974   0.084  -0.086  0.00  0.00     0.247 S 
ATOM      2  O   UNL d   1       0.442  -0.696   1.013  0.00  0.00    -0.205 OA
ATOM      3  O   UNL d   1       0.597   1.466  -0.281  0.00  0.00    -0.205 OA
ENDROOT
BRANCH   1   4
ATOM      4  N   UNL d   1       0.708  -0.842  -1.480  0.00  0.00    -0.160 NA
ATOM      5  H   UNL d   1       0.169  -1.642  -1.151  0.00  0.00     0.148 HD
BRANCH   4   6
ATOM      6  C   UNL d   1      -0.109  -0.150  -2.405  0.00  0.00     0.137 A 
ATOM      7  N   UNL d   1      -1.398  -0.374  -2.406  0.00  0.00    -0.344 N 
ATOM      8  C   UNL d   1      -1.994   0.392  -3.398  0.00  0.00     0.013 A 
ATOM      9  HN  UNL d   1      -1.888  -1.011  -1.778  1.00  0.00     0.167 HD
ATOM     10  C   UNL d   1      -3.475   0.420  -3.497  0.00  0.00     0.068 C 
ATOM     11  C   UNL d   1      -1.105   1.069  -4.216  0.00  0.00     0.077 A 
ATOM     12  S   UNL d   1       0.500   0.836  -3.655  0.00  0.00    -0.069 SA
ENDBRANCH   4   6
ENDBRANCH   1   4
BRANCH   1  13
ATOM     13  C   UNL d   1       2.749   0.030   0.038  0.00  0.00     0.074 A 
ATOM     14  C   UNL d   1       3.502   1.078  -0.500  0.00  0.00     0.025 A 
ATOM     15  C   UNL d   1       4.888   1.073  -0.357  0.00  0.00     0.002 A 
ATOM     16  C   UNL d   1       5.516   0.030   0.326  0.00  0.00     0.000 A 
ATOM     17  C   UNL d   1       4.759  -1.007   0.874  0.00  0.00     0.002 A 
ATOM     18  C   UNL d   1       3.369  -1.008   0.739  0.00  0.00     0.025 A 
ENDBRANCH   1  13
TORSDOF 3
