REMARK  4 active torsions:
REMARK  status: ('A' for Active; 'I' for Inactive)
REMARK       I    between atoms: N_2  and  C_1 
REMARK       I    between atoms: N_3  and  C_1 
REMARK    1  A    between atoms: C_5  and  N_2 
REMARK    2  A    between atoms: C_4  and  N_3 
REMARK    3  A    between atoms: O_12  and  C_11 
REMARK    4  A    between atoms: C_17  and  O_12 
ROOT
ATOM      1  C   UNL d   1       0.989  -0.683   0.042  0.00  0.00     0.299 C 
ATOM      2  N   UNL d   1       0.387  -0.247   1.212  0.00  0.00    -0.208 NA
ATOM      3  N   UNL d   1       0.161  -0.405  -1.025  0.00  0.00    -0.342 N 
ATOM      4  O   UNL d   1       2.073  -1.233  -0.061  0.00  0.00    -0.254 OA
ATOM      5  H   UNL d   1      -0.591  -0.506   1.183  0.00  0.00     0.138 HD
ATOM      6  H   UNL d   1      -0.409   0.419  -0.894  0.00  0.00     0.164 HD
ENDROOT
BRANCH   2   7
ATOM      7  C   UNL d   1       0.967  -0.513   2.473  0.00  0.00     0.050 A 
ATOM      8  C   UNL d   1       1.331   0.528   3.342  0.00  0.00     0.090 A 
ATOM      9  C   UNL d   1       1.900   0.208   4.582  0.00  0.00     0.038 A 
ATOM     10  C   UNL d   1       2.063  -1.122   4.975  0.00  0.00     0.003 A 
ATOM     11  C   UNL d   1       1.672  -2.149   4.122  0.00  0.00     0.002 A 
ATOM     12  C   UNL d   1       1.124  -1.847   2.875  0.00  0.00     0.027 A 
BRANCH   8  13
ATOM     13  O   UNL d   1       1.260   1.875   3.096  0.00  0.00    -0.350 OA
BRANCH  13  14
ATOM     14  C   UNL d   1       0.091   2.339   2.423  0.00  0.00     0.171 C 
ATOM     15  C   UNL d   1       0.034   3.851   2.556  0.00  0.00     0.034 C 
ENDBRANCH  13  14
ENDBRANCH   8  13
ENDBRANCH   2   7
BRANCH   3  16
ATOM     16  C   UNL d   1       0.554  -0.699  -2.398  0.00  0.00     0.094 C 
ATOM     17  C   UNL d   1       1.417   0.420  -3.033  0.00  0.00     0.064 C 
ATOM     18  C   UNL d   1       0.940   0.429  -4.454  0.00  0.00    -0.050 A 
ATOM     19  C   UNL d   1       1.503   1.084  -5.536  0.00  0.00     0.007 A 
ATOM     20  C   UNL d   1      -0.245  -0.295  -4.596  0.00  0.00    -0.050 A 
ATOM     21  C   UNL d   1       0.859   1.003  -6.773  0.00  0.00     0.001 A 
ATOM     22  C   UNL d   1      -0.337   0.282  -6.911  0.00  0.00     0.001 A 
ATOM     23  C   UNL d   1      -0.900  -0.372  -5.815  0.00  0.00     0.007 A 
ATOM     24  C   UNL d   1      -0.691  -0.878  -3.295  0.00  0.00     0.064 C 
ENDBRANCH   3  16
TORSDOF 4
