REMARK  6 active torsions:
REMARK  status: ('A' for Active; 'I' for Inactive)
REMARK    1  A    between atoms: N_8  and  S_1 
REMARK    2  A    between atoms: C_10  and  S_1 
REMARK    3  A    between atoms: S_2  and  C_11 
REMARK    4  A    between atoms: N_9  and  S_2 
REMARK    5  A    between atoms: C_14  and  N_8 
REMARK    6  A    between atoms: C_15  and  N_9 
ROOT
ATOM      1  C   UNL d   1       0.830  -4.105   0.203  0.00  0.00     0.027 A 
ATOM      2  C   UNL d   1       0.495  -6.456   0.311  0.00  0.00     0.027 A 
ATOM      3  C   UNL d   1       1.528  -5.410   0.134  0.00  0.00     0.194 A 
ATOM      4  C   UNL d   1      -0.738  -5.803   0.488  0.00  0.00    -0.011 A 
ATOM      5  C   UNL d   1      -0.532  -4.369   0.436  0.00  0.00    -0.011 A 
ATOM      6  C   UNL d   1       0.436  -1.772   0.154  0.00  0.00     0.080 A 
ATOM      7  C   UNL d   1      -0.534  -8.581   0.473  0.00  0.00     0.080 A 
ATOM      8  C   UNL d   1       1.347  -2.830   0.062  0.00  0.00     0.041 A 
ATOM      9  C   UNL d   1       0.636  -7.832   0.297  0.00  0.00     0.041 A 
ATOM     10  C   UNL d   1      -1.894  -6.553   0.644  0.00  0.00     0.015 A 
ATOM     11  C   UNL d   1      -1.421  -3.314   0.566  0.00  0.00     0.015 A 
ATOM     12  O   UNL d   1       2.714  -5.587  -0.037  0.00  0.00    -0.287 OA
ATOM     13  C   UNL d   1      -1.790  -7.951   0.622  0.00  0.00     0.026 A 
ATOM     14  C   UNL d   1      -0.930  -2.007   0.433  0.00  0.00     0.026 A 
ENDROOT
BRANCH   6  15
ATOM     15  S   UNL d   1       1.014  -0.091  -0.022  0.00  0.00     0.263 S 
ATOM     16  O   UNL d   1       0.087   0.767   0.680  0.00  0.00    -0.200 OA
ATOM     17  O   UNL d   1       2.425  -0.093   0.307  0.00  0.00    -0.200 OA
BRANCH  15  18
ATOM     18  N   UNL d   1       0.922   0.209  -1.676  0.00  0.00    -0.280 N 
ATOM     19  H   UNL d   1       1.770  -0.001  -2.198  0.00  0.00     0.179 HD
BRANCH  18  20
ATOM     20  C   UNL d   1      -0.335   0.136  -2.347  0.00  0.00     0.053 A 
ATOM     21  C   UNL d   1      -1.162   1.280  -2.485  0.00  0.00     0.001 A 
ATOM     22  C   UNL d   1      -2.422   1.127  -3.114  0.00  0.00    -0.024 A 
ATOM     23  C   UNL d   1      -0.793   2.574  -2.050  0.00  0.00     0.014 A 
ATOM     24  C   UNL d   1      -3.269   2.238  -3.267  0.00  0.00     0.012 A 
ATOM     25  C   UNL d   1      -2.817  -0.135  -3.586  0.00  0.00     0.012 A 
ATOM     26  C   UNL d   1      -2.882   3.501  -2.823  0.00  0.00     0.001 A 
ATOM     27  C   UNL d   1      -1.642   3.671  -2.220  0.00  0.00     0.001 A 
ATOM     28  C   UNL d   1      -1.976  -1.240  -3.468  0.00  0.00     0.003 A 
ATOM     29  C   UNL d   1      -0.732  -1.101  -2.863  0.00  0.00     0.031 A 
ENDBRANCH  18  20
ENDBRANCH  15  18
ENDBRANCH   6  15
BRANCH   7  30
ATOM     30  S   UNL d   1      -0.453 -10.364   0.440  0.00  0.00     0.263 S 
ATOM     31  O   UNL d   1      -1.739 -10.850  -0.011  0.00  0.00    -0.200 OA
ATOM     32  O   UNL d   1       0.765 -10.719  -0.252  0.00  0.00    -0.200 OA
BRANCH  30  33
ATOM     33  N   UNL d   1      -0.216 -10.793   2.054  0.00  0.00    -0.280 N 
ATOM     34  H   UNL d   1       0.765 -10.775   2.330  0.00  0.00     0.179 HD
BRANCH  33  35
ATOM     35  C   UNL d   1      -1.185 -10.419   3.038  0.00  0.00     0.053 A 
ATOM     36  C   UNL d   1      -2.285 -11.260   3.351  0.00  0.00     0.001 A 
ATOM     37  C   UNL d   1      -3.217 -10.813   4.320  0.00  0.00    -0.024 A 
ATOM     38  C   UNL d   1      -2.494 -12.534   2.774  0.00  0.00     0.014 A 
ATOM     39  C   UNL d   1      -4.309 -11.623   4.672  0.00  0.00     0.012 A 
ATOM     40  C   UNL d   1      -3.042  -9.562   4.932  0.00  0.00     0.012 A 
ATOM     41  C   UNL d   1      -4.493 -12.873   4.084  0.00  0.00     0.001 A 
ATOM     42  C   UNL d   1      -3.586 -13.329   3.137  0.00  0.00     0.001 A 
ATOM     43  C   UNL d   1      -1.954  -8.753   4.613  0.00  0.00     0.003 A 
ATOM     44  C   UNL d   1      -1.021  -9.187   3.678  0.00  0.00     0.031 A 
ENDBRANCH  33  35
ENDBRANCH  30  33
ENDBRANCH   7  30
TORSDOF 6
