REMARK  7 active torsions:
REMARK  status: ('A' for Active; 'I' for Inactive)
REMARK    1  A    between atoms: C_11  and  N_1 
REMARK    2  A    between atoms: C_7  and  C_2 
REMARK    3  A    between atoms: N_19  and  C_7 
REMARK    4  A    between atoms: O_12  and  N_8 
REMARK    5  A    between atoms: C_10  and  O_12 
REMARK    6  A    between atoms: C_15  and  C_10 
REMARK    7  A    between atoms: C_22  and  C_11 
ROOT
ATOM      1  N   UNL d   1      -4.985  -1.436   0.015  0.00  0.00    -0.261 N 
ATOM      2  C   UNL d   1      -2.845  -2.628   0.051  0.00  0.00     0.088 C 
ATOM      3  C   UNL d   1      -3.623  -1.377   0.268  0.00  0.00     0.266 C 
ATOM      4  C   UNL d   1      -5.699  -2.629  -0.056  0.00  0.00     0.331 C 
ATOM      5  N   UNL d   1      -4.925  -3.792  -0.020  0.00  0.00    -0.313 N 
ATOM      6  C   UNL d   1      -3.546  -3.766  -0.037  0.00  0.00     0.115 C 
ATOM      7  O   UNL d   1      -6.927  -2.663  -0.114  0.00  0.00    -0.246 OA
ATOM      8  O   UNL d   1      -3.050  -0.371   0.689  0.00  0.00    -0.267 OA
ATOM      9  C   UNL d   1      -5.591  -5.088  -0.019  0.00  0.00     0.160 C 
ENDROOT
BRANCH   2  10
ATOM     10  C   UNL d   1      -1.330  -2.645  -0.023  0.00  0.00     0.116 C 
ATOM     11  N   UNL d   1      -0.724  -3.783  -0.251  0.00  0.00    -0.245 N 
ATOM     12  HN  UNL d   1      -1.209  -4.675  -0.340  1.00  0.00     0.196 HD
BRANCH  11  13
ATOM     13  O   UNL d   1       0.685  -3.635  -0.360  0.00  0.00    -0.193 OA
BRANCH  13  14
ATOM     14  C   UNL d   1       1.262  -4.844  -0.644  0.00  0.00     0.315 C 
ATOM     15  O   UNL d   1       0.697  -5.929  -0.729  0.00  0.00    -0.257 OA
BRANCH  14  16
ATOM     16  C   UNL d   1       2.740  -4.711  -0.831  0.00  0.00     0.041 A 
ATOM     17  C   UNL d   1       3.490  -5.882  -1.048  0.00  0.00     0.019 A 
ATOM     18  C   UNL d   1       4.886  -5.831  -1.186  0.00  0.00     0.025 A 
ATOM     19  C   UNL d   1       5.535  -4.602  -1.115  0.00  0.00     0.034 A 
ATOM     20  C   UNL d   1       4.806  -3.428  -0.930  0.00  0.00     0.025 A 
ATOM     21 CL   UNL d   1       7.250  -4.535  -1.248  0.00  0.00    -0.084 Cl
ATOM     22  C   UNL d   1       3.410  -3.478  -0.786  0.00  0.00     0.019 A 
ENDBRANCH  14  16
ENDBRANCH  13  14
ENDBRANCH  11  13
BRANCH  10  23
ATOM     23  N   UNL d   1      -0.621  -1.476   0.140  0.00  0.00    -0.286 NA
ATOM     24  H   UNL d   1      -1.119  -0.725   0.624  0.00  0.00     0.125 HD
ATOM     25  H   UNL d   1       0.336  -1.603   0.441  0.00  0.00     0.125 HD
ENDBRANCH  10  23
ENDBRANCH   2  10
BRANCH   1  26
ATOM     26  C   UNL d   1      -5.747  -0.188  -0.003  0.00  0.00     0.175 C 
BRANCH  26  27
ATOM     27  C   UNL d   1      -5.705   0.472  -1.367  0.00  0.00    -0.040 A 
ATOM     28  C   UNL d   1      -6.664   0.163  -2.344  0.00  0.00     0.009 A 
ATOM     29  C   UNL d   1      -6.548   0.675  -3.639  0.00  0.00     0.001 A 
ATOM     30  C   UNL d   1      -5.479   1.506  -3.969  0.00  0.00     0.000 A 
ATOM     31  C   UNL d   1      -4.547   1.859  -2.994  0.00  0.00     0.001 A 
ATOM     32  C   UNL d   1      -4.661   1.347  -1.700  0.00  0.00     0.009 A 
ENDBRANCH  26  27
ENDBRANCH   1  26
TORSDOF 7
