REMARK  8 active torsions:
REMARK  status: ('A' for Active; 'I' for Inactive)
REMARK    1  A    between atoms: S_11  and  C_2 
REMARK    2  A    between atoms: S_10  and  C_3 
REMARK    3  A    between atoms: C_8  and  C_17 
REMARK       I    between atoms: N_12  and  C_8 
REMARK    4  A    between atoms: C_9  and  C_16 
REMARK       I    between atoms: N_13  and  C_9 
REMARK    5  A    between atoms: C_16  and  S_10 
REMARK    6  A    between atoms: C_17  and  S_11 
REMARK    7  A    between atoms: C_18  and  N_12 
REMARK    8  A    between atoms: C_19  and  N_13 
ROOT
ATOM      1  S   UNL d   1       1.688  -0.024  -0.062  0.00  0.00    -0.038 SA
ATOM      2  C   UNL d   1       0.448   1.053  -0.567  0.00  0.00     0.129 A 
ATOM      3  C   UNL d   1       0.447  -1.060   0.523  0.00  0.00     0.129 A 
ATOM      4  N   UNL d   1      -0.769   0.622  -0.317  0.00  0.00    -0.287 N 
ATOM      5  HN  UNL d   1      -1.616   1.134  -0.565  1.00  0.00     0.188 HD
ATOM      6  N   UNL d   1      -0.770  -0.603   0.317  0.00  0.00    -0.287 N 
ATOM      7  HN  UNL d   1      -1.617  -1.099   0.595  1.00  0.00     0.188 HD
ENDROOT
BRANCH   2   8
ATOM      8  S   UNL d   1       0.740   2.610  -1.338  0.00  0.00    -0.094 SA
BRANCH   8   9
ATOM      9  C   UNL d   1      -0.782   3.458  -0.832  0.00  0.00     0.184 C 
BRANCH   9  10
ATOM     10  C   UNL d   1      -0.941   4.907  -1.265  0.00  0.00     0.231 C 
ATOM     11  N   UNL d   1      -0.000   5.433  -2.129  0.00  0.00    -0.327 N 
ATOM     12  H   UNL d   1       0.668   4.780  -2.522  0.00  0.00     0.169 HD
ATOM     13  O   UNL d   1      -1.918   5.527  -0.838  0.00  0.00    -0.272 OA
BRANCH  11  14
ATOM     14  C   UNL d   1       0.087   6.779  -2.562  0.00  0.00     0.034 A 
ATOM     15  C   UNL d   1      -0.676   7.821  -2.014  0.00  0.00     0.032 A 
ATOM     16  C   UNL d   1      -0.530   9.136  -2.468  0.00  0.00     0.044 A 
ATOM     17  C   UNL d   1       0.380   9.415  -3.475  0.00  0.00     0.116 A 
ATOM     18  C   UNL d   1       1.148   8.403  -4.036  0.00  0.00     0.044 A 
ATOM     19  F   UNL d   1       0.522  10.675  -3.909  0.00  0.00    -0.206 F 
ATOM     20  C   UNL d   1       1.006   7.087  -3.576  0.00  0.00     0.032 A 
ENDBRANCH  11  14
ENDBRANCH   9  10
ENDBRANCH   8   9
ENDBRANCH   2   8
BRANCH   3  21
ATOM     21  S   UNL d   1       0.743  -2.596   1.336  0.00  0.00    -0.094 SA
BRANCH  21  22
ATOM     22  C   UNL d   1      -0.971  -3.163   1.516  0.00  0.00     0.184 C 
BRANCH  22  23
ATOM     23  C   UNL d   1      -1.187  -4.516   2.177  0.00  0.00     0.231 C 
ATOM     24  N   UNL d   1      -0.078  -5.210   2.614  0.00  0.00    -0.327 N 
ATOM     25  H   UNL d   1       0.804  -4.705   2.611  0.00  0.00     0.169 HD
ATOM     26  O   UNL d   1      -2.349  -4.916   2.295  0.00  0.00    -0.272 OA
BRANCH  24  27
ATOM     27  C   UNL d   1      -0.059  -6.531   3.129  0.00  0.00     0.034 A 
ATOM     28  C   UNL d   1      -1.157  -7.401   3.066  0.00  0.00     0.032 A 
ATOM     29  C   UNL d   1      -1.075  -8.703   3.569  0.00  0.00     0.044 A 
ATOM     30  C   UNL d   1       0.109  -9.141   4.142  0.00  0.00     0.116 A 
ATOM     31  C   UNL d   1       1.214  -8.300   4.217  0.00  0.00     0.044 A 
ATOM     32  F   UNL d   1       0.190 -10.390   4.623  0.00  0.00    -0.206 F 
ATOM     33  C   UNL d   1       1.131  -6.998   3.706  0.00  0.00     0.032 A 
ENDBRANCH  24  27
ENDBRANCH  22  23
ENDBRANCH  21  22
ENDBRANCH   3  21
TORSDOF 8
