REMARK  4 active torsions:
REMARK  status: ('A' for Active; 'I' for Inactive)
REMARK    1  A    between atoms: C_4  and  C_1 
REMARK    2  A    between atoms: C_8  and  C_3 
REMARK       I    between atoms: N_7  and  C_4 
REMARK    3  A    between atoms: C_11  and  N_7 
REMARK    4  A    between atoms: C_14  and  C_10 
ROOT
ATOM      1  C   UNL d   1      -2.786  -1.304   0.005  0.00  0.00     0.258 C 
ATOM      2  N   UNL d   1      -3.955  -0.577  -0.152  0.00  0.00    -0.323 N 
ATOM      3  O   UNL d   1      -2.753  -2.533   0.088  0.00  0.00    -0.267 OA
ATOM      4  H   UNL d   1      -3.871   0.390  -0.430  0.00  0.00     0.169 HD
ENDROOT
BRANCH   1   5
ATOM      5  C   UNL d   1      -1.518  -0.570   0.045  0.00  0.00     0.064 A 
ATOM      6  C   UNL d   1      -0.235  -1.224  -0.006  0.00  0.00     0.053 A 
ATOM      7  C   UNL d   1       0.739  -0.263   0.118  0.00  0.00     0.062 A 
ATOM      8  O   UNL d   1       0.138   0.953   0.229  0.00  0.00    -0.318 OA
ATOM      9  C   UNL d   1      -1.215   0.774   0.219  0.00  0.00     0.065 A 
ATOM     10  C   UNL d   1      -1.957   2.033   0.433  0.00  0.00     0.077 C 
BRANCH   7  11
ATOM     11  C   UNL d   1       2.247  -0.269   0.168  0.00  0.00    -0.002 C 
ATOM     12  C   UNL d   1       2.804  -1.704   0.164  0.00  0.00     0.021 C 
ATOM     13  C   UNL d   1       2.801   0.478  -1.057  0.00  0.00     0.021 C 
ATOM     14  C   UNL d   1       2.728   0.431   1.453  0.00  0.00     0.021 C 
ENDBRANCH   7  11
ENDBRANCH   1   5
BRANCH   2  15
ATOM     15  C   UNL d   1      -5.272  -1.056   0.083  0.00  0.00     0.035 A 
ATOM     16  C   UNL d   1      -5.548  -2.311   0.633  0.00  0.00     0.030 A 
ATOM     17  C   UNL d   1      -6.843  -2.664   1.027  0.00  0.00     0.010 A 
ATOM     18  C   UNL d   1      -7.905  -1.766   0.891  0.00  0.00    -0.055 A 
ATOM     19  C   UNL d   1      -7.655  -0.552   0.235  0.00  0.00     0.010 A 
ATOM     20  C   UNL d   1      -6.354  -0.199  -0.160  0.00  0.00     0.030 A 
BRANCH  18  21
ATOM     21  C   UNL d   1      -9.251  -2.034   1.546  0.00  0.00     0.010 C 
ATOM     22  C   UNL d   1      -9.940  -3.304   1.043  0.00  0.00     0.015 C 
ATOM     23  C   UNL d   1      -9.085  -2.095   3.072  0.00  0.00     0.015 C 
ENDBRANCH  18  21
ENDBRANCH   2  15
TORSDOF 4
