REMARK  5 active torsions:
REMARK  status: ('A' for Active; 'I' for Inactive)
REMARK    1  A    between atoms: C_2  and  C_1 
REMARK       I    between atoms: N_8  and  C_1 
REMARK    2  A    between atoms: C_3  and  C_7 
REMARK    3  A    between atoms: N_4  and  N_8 
REMARK    4  A    between atoms: C_16  and  C_13 
REMARK    5  A    between atoms: O_14  and  C_16 
ROOT
ATOM      1  C   UNL d   1       0.952   0.242  -0.079  0.00  0.00     0.270 C 
ATOM      2  N   UNL d   1       0.162   1.384  -0.058  0.00  0.00    -0.266 N 
ATOM      3  O   UNL d   1       2.151   0.224   0.173  0.00  0.00    -0.266 OA
ATOM      4  H   UNL d   1      -0.846   1.325  -0.143  0.00  0.00     0.190 HD
ENDROOT
BRANCH   1   5
ATOM      5  C   UNL d   1       0.240  -1.030  -0.466  0.00  0.00     0.042 A 
ATOM      6  C   UNL d   1       0.702  -2.293  -0.040  0.00  0.00    -0.019 A 
ATOM      7  C   UNL d   1       0.002  -3.442  -0.456  0.00  0.00     0.010 A 
ATOM      8  C   UNL d   1      -1.118  -3.350  -1.282  0.00  0.00     0.001 A 
ATOM      9  C   UNL d   1      -1.556  -2.108  -1.718  0.00  0.00     0.001 A 
ATOM     10  C   UNL d   1      -0.880  -0.954  -1.319  0.00  0.00     0.018 A 
BRANCH   6  11
ATOM     11  C   UNL d   1       1.940  -2.485   0.800  0.00  0.00     0.203 C 
BRANCH  11  12
ATOM     12  O   UNL d   1       1.814  -1.821   2.048  0.00  0.00    -0.396 OA
ATOM     13  H   UNL d   1       2.371  -1.020   1.962  0.00  0.00     0.209 HD
ENDBRANCH  11  12
ENDBRANCH   6  11
ENDBRANCH   1   5
BRANCH   2  14
ATOM     14  N   UNL d   1       0.715   2.596   0.255  0.00  0.00    -0.308 N 
ATOM     15  C   UNL d   1       0.020   3.628  -0.111  0.00  0.00     0.126 C 
ATOM     16  HN  UNL d   1       1.608   2.682   0.740  1.00  0.00     0.186 HD
BRANCH  15  17
ATOM     17  C   UNL d   1       0.437   4.965   0.229  0.00  0.00     0.021 A 
ATOM     18  S   UNL d   1      -0.424   6.300  -0.405  0.00  0.00    -0.101 SA
ATOM     19  C   UNL d   1       0.553   7.415   0.448  0.00  0.00     0.050 A 
ATOM     20  C   UNL d   1       1.527   6.785   1.191  0.00  0.00     0.008 A 
ATOM     21  C   UNL d   1       1.471   5.368   1.050  0.00  0.00     0.021 A 
ENDBRANCH  15  17
ENDBRANCH   2  14
TORSDOF 5
