REMARK  8 active torsions:
REMARK  status: ('A' for Active; 'I' for Inactive)
REMARK    1  A    between atoms: C_12  and  N_1 
REMARK    2  A    between atoms: C_7  and  C_3 
REMARK    3  A    between atoms: C_17  and  N_5 
REMARK    4  A    between atoms: N_19  and  C_7 
REMARK    5  A    between atoms: C_8  and  C_9 
REMARK    6  A    between atoms: C_9  and  O_13 
REMARK    7  A    between atoms: O_13  and  N_10 
REMARK    8  A    between atoms: C_21  and  C_12 
ROOT
ATOM      1  N   UNL d   1       5.641  -2.479   0.047  0.00  0.00    -0.261 N 
ATOM      2  C   UNL d   1       4.939  -3.671   0.218  0.00  0.00     0.332 C 
ATOM      3  C   UNL d   1       3.564  -1.202  -0.057  0.00  0.00     0.088 C 
ATOM      4  C   UNL d   1       5.046  -1.234  -0.068  0.00  0.00     0.266 C 
ATOM      5  N   UNL d   1       3.557  -3.589   0.031  0.00  0.00    -0.304 N 
ATOM      6  C   UNL d   1       2.913  -2.368  -0.043  0.00  0.00     0.116 C 
ATOM      7  O   UNL d   1       5.492  -4.726   0.525  0.00  0.00    -0.246 OA
ATOM      8  O   UNL d   1       5.675  -0.176  -0.161  0.00  0.00    -0.267 OA
ENDROOT
BRANCH   3   9
ATOM      9  C   UNL d   1       2.779   0.085  -0.030  0.00  0.00     0.116 C 
ATOM     10  N   UNL d   1       1.542   0.049  -0.453  0.00  0.00    -0.245 N 
ATOM     11  HN  UNL d   1       1.087  -0.792  -0.807  1.00  0.00     0.196 HD
BRANCH  10  12
ATOM     12  O   UNL d   1       0.907   1.306  -0.364  0.00  0.00    -0.193 OA
BRANCH  12  13
ATOM     13  C   UNL d   1      -0.302   1.256  -0.992  0.00  0.00     0.316 C 
ATOM     14  O   UNL d   1      -0.803   0.293  -1.558  0.00  0.00    -0.257 OA
BRANCH  13  15
ATOM     15  C   UNL d   1      -1.046   2.534  -0.846  0.00  0.00     0.063 A 
ATOM     16  C   UNL d   1      -0.468   3.810  -0.831  0.00  0.00     0.050 A 
ATOM     17 CL   UNL d   1       1.229   4.103  -0.994  0.00  0.00    -0.083 Cl
ATOM     18  C   UNL d   1      -1.289   4.946  -0.728  0.00  0.00     0.025 A 
ATOM     19  C   UNL d   1      -2.677   4.818  -0.652  0.00  0.00     0.002 A 
ATOM     20  C   UNL d   1      -3.259   3.555  -0.676  0.00  0.00     0.001 A 
ATOM     21  C   UNL d   1      -2.448   2.422  -0.776  0.00  0.00     0.019 A 
ENDBRANCH  13  15
ENDBRANCH  12  13
ENDBRANCH  10  12
BRANCH   9  22
ATOM     22  N   UNL d   1       3.363   1.247   0.421  0.00  0.00    -0.286 NA
ATOM     23  H   UNL d   1       4.377   1.288   0.305  0.00  0.00     0.125 HD
ATOM     24  H   UNL d   1       2.891   2.088   0.108  0.00  0.00     0.125 HD
ENDBRANCH   9  22
ENDBRANCH   3   9
BRANCH   1  25
ATOM     25  C   UNL d   1       7.097  -2.560   0.026  0.00  0.00     0.175 C 
BRANCH  25  26
ATOM     26  C   UNL d   1       7.617  -3.036  -1.317  0.00  0.00    -0.040 A 
ATOM     27  C   UNL d   1       7.874  -2.127  -2.353  0.00  0.00     0.009 A 
ATOM     28  C   UNL d   1       8.295  -2.583  -3.605  0.00  0.00     0.001 A 
ATOM     29  C   UNL d   1       8.455  -3.948  -3.838  0.00  0.00     0.000 A 
ATOM     30  C   UNL d   1       8.209  -4.860  -2.817  0.00  0.00     0.001 A 
ATOM     31  C   UNL d   1       7.800  -4.406  -1.563  0.00  0.00     0.009 A 
ENDBRANCH  25  26
ENDBRANCH   1  25
BRANCH   5  32
ATOM     32  C   UNL d   1       2.775  -4.844   0.068  0.00  0.00     0.086 C 
ATOM     33  C   UNL d   1       2.147  -5.069   1.444  0.00  0.00     0.032 C 
ATOM     34  C   UNL d   1       1.731  -4.946  -1.050  0.00  0.00     0.032 C 
ENDBRANCH   5  32
TORSDOF 8
