REMARK  5 active torsions:
REMARK  status: ('A' for Active; 'I' for Inactive)
REMARK    1  A    between atoms: C_4  and  C_1 
REMARK       I    between atoms: N_8  and  C_4 
REMARK    2  A    between atoms: C_7  and  N_9 
REMARK    3  A    between atoms: N_10  and  C_7 
REMARK    4  A    between atoms: N_9  and  N_8 
REMARK    5  A    between atoms: C_14  and  N_10 
ROOT
ATOM      1  C   UNL d   1       3.252  -0.583  -0.947  0.00  0.00     0.278 C 
ATOM      2  N   UNL d   1       4.357  -1.416  -0.842  0.00  0.00    -0.263 N 
ATOM      3  O   UNL d   1       2.187  -0.915  -0.423  0.00  0.00    -0.265 OA
ATOM      4  H   UNL d   1       5.271  -1.130  -1.182  0.00  0.00     0.190 HD
ENDROOT
BRANCH   2   5
ATOM      5  N   UNL d   1       4.349  -2.412   0.145  0.00  0.00    -0.273 N 
ATOM      6  H   UNL d   1       3.499  -2.462   0.707  0.00  0.00     0.189 HD
BRANCH   5   7
ATOM      7  C   UNL d   1       5.089  -3.553   0.015  0.00  0.00     0.191 C 
ATOM      8  S   UNL d   1       5.858  -4.040  -1.392  0.00  0.00    -0.039 SA
BRANCH   7   9
ATOM      9  N   UNL d   1       5.229  -4.342   1.124  0.00  0.00    -0.332 N 
ATOM     10  H   UNL d   1       5.632  -5.248   0.903  0.00  0.00     0.168 HD
BRANCH   9  11
ATOM     11  C   UNL d   1       5.312  -3.979   2.491  0.00  0.00     0.034 A 
ATOM     12  C   UNL d   1       5.141  -2.686   2.988  0.00  0.00     0.030 A 
ATOM     13  C   UNL d   1       5.411  -2.394   4.331  0.00  0.00     0.009 A 
ATOM     14  C   UNL d   1       5.864  -3.389   5.201  0.00  0.00    -0.062 A 
ATOM     15  C   UNL d   1       6.000  -4.692   4.719  0.00  0.00     0.009 A 
ATOM     16  C   UNL d   1       6.269  -3.032   6.599  0.00  0.00     0.048 C 
ATOM     17  C   UNL d   1       5.717  -4.985   3.379  0.00  0.00     0.030 A 
ENDBRANCH   9  11
ENDBRANCH   7   9
ENDBRANCH   5   7
ENDBRANCH   2   5
BRANCH   1  18
ATOM     18  C   UNL d   1       3.467   0.680  -1.643  0.00  0.00     0.097 A 
ATOM     19  S   UNL d   1       2.081   1.597  -2.065  0.00  0.00    -0.082 SA
ATOM     20  C   UNL d   1       3.011   2.904  -2.677  0.00  0.00     0.017 A 
ATOM     21  C   UNL d   1       2.517   4.116  -3.199  0.00  0.00     0.020 A 
ATOM     22  C   UNL d   1       4.378   2.642  -2.595  0.00  0.00     0.004 A 
ATOM     23  C   UNL d   1       3.421   5.087  -3.635  0.00  0.00     0.001 A 
ATOM     24  C   UNL d   1       4.785   4.856  -3.565  0.00  0.00     0.001 A 
ATOM     25  C   UNL d   1       5.270   3.648  -3.055  0.00  0.00     0.014 A 
ATOM     26  C   UNL d   1       4.623   1.342  -2.014  0.00  0.00     0.068 A 
ATOM     27 CL   UNL d   1       6.235   0.778  -1.777  0.00  0.00    -0.082 Cl
ENDBRANCH   1  18
TORSDOF 5
