REMARK  2 active torsions:
REMARK  status: ('A' for Active; 'I' for Inactive)
REMARK       I    between atoms: N_2  and  C_1 
REMARK    1  A    between atoms: C_9  and  C_1 
REMARK    2  A    between atoms: C_3  and  N_2 
ROOT
ATOM      1  C   UNL d   1       0.766   2.143   1.605  0.00  0.00     0.092 C 
ATOM      2  C   UNL d   1       0.678   3.231   3.696  0.00  0.00    -0.050 A 
ATOM      3  C   UNL d   1       0.507   4.209   2.710  0.00  0.00    -0.050 A 
ATOM      4  C   UNL d   1       0.538   1.859   3.110  0.00  0.00     0.064 C 
ATOM      5  C   UNL d   1       0.210   3.574   1.382  0.00  0.00     0.064 C 
ATOM      6  C   UNL d   1       0.600   5.557   3.014  0.00  0.00     0.007 A 
ATOM      7  C   UNL d   1       0.922   3.583   5.014  0.00  0.00     0.007 A 
ATOM      8  C   UNL d   1       1.028   4.941   5.330  0.00  0.00     0.001 A 
ATOM      9  C   UNL d   1       0.874   5.920   4.335  0.00  0.00     0.001 A 
ENDROOT
BRANCH   1  10
ATOM     10  N   UNL d   1       0.205   1.112   0.732  0.00  0.00    -0.356 N 
ATOM     11  C   UNL d   1       0.345   1.199  -0.643  0.00  0.00     0.222 C 
ATOM     12  O   UNL d   1       0.815   2.217  -1.166  0.00  0.00    -0.273 OA
ATOM     13  H   UNL d   1       0.022   0.199   1.128  0.00  0.00     0.162 HD
BRANCH  11  14
ATOM     14  C   UNL d   1      -0.085  -0.024  -1.484  0.00  0.00     0.078 C 
ATOM     15  C   UNL d   1      -1.246   0.235  -2.488  0.00  0.00     0.014 C 
ATOM     16  C   UNL d   1      -1.665  -1.230  -2.294  0.00  0.00     0.002 C 
ATOM     17  C   UNL d   1      -0.954  -1.180  -0.925  0.00  0.00     0.014 C 
ENDBRANCH  11  14
ENDBRANCH   1  10
TORSDOF 2
