REMARK  7 active torsions:
REMARK  status: ('A' for Active; 'I' for Inactive)
REMARK    1  A    between atoms: C_2  and  C_1 
REMARK       I    between atoms: N_4  and  C_2 
REMARK       I    between atoms: C_3  and  N_7 
REMARK       I    between atoms: N_8  and  C_3 
REMARK    2  A    between atoms: N_7  and  N_4 
REMARK    3  A    between atoms: C_5  and  C_14 
REMARK    4  A    between atoms: C_24  and  C_6 
REMARK    5  A    between atoms: C_16  and  N_8 
REMARK    6  A    between atoms: C_25  and  C_24 
REMARK    7  A    between atoms: C_26  and  C_25 
ROOT
ATOM      1  C   UNL d   1       3.105   2.171  -0.114  0.00  0.00     0.271 C 
ATOM      2  N   UNL d   1       2.765   3.396   0.427  0.00  0.00    -0.262 N 
ATOM      3  O   UNL d   1       4.182   1.981  -0.672  0.00  0.00    -0.266 OA
ATOM      4  H   UNL d   1       1.984   3.543   1.062  0.00  0.00     0.190 HD
ENDROOT
BRANCH   1   5
ATOM      5  C   UNL d   1       2.119   1.061   0.010  0.00  0.00     0.050 A 
ATOM      6  C   UNL d   1       0.731   1.246   0.050  0.00  0.00     0.040 A 
ATOM      7  C   UNL d   1      -0.109   0.131   0.072  0.00  0.00     0.034 A 
ATOM      8  C   UNL d   1       0.473  -1.138   0.066  0.00  0.00     0.108 A 
ATOM      9  N   UNL d   1       1.806  -1.352   0.039  0.00  0.00    -0.373 N 
ATOM     10  C   UNL d   1       2.598  -0.248  -0.001  0.00  0.00     0.104 A 
ATOM     11  HN  UNL d   1       2.199  -2.294   0.048  1.00  0.00     0.164 HD
BRANCH   7  12
ATOM     12  C   UNL d   1      -1.537   0.233   0.078  0.00  0.00    -0.066 C 
ATOM     13  C   UNL d   1      -2.732   0.193   0.067  0.00  0.00    -0.101 C 
BRANCH  13  14
ATOM     14  C   UNL d   1      -4.193   0.036   0.048  0.00  0.00     0.094 C 
BRANCH  14  15
ATOM     15  C   UNL d   1      -4.653  -0.629  -1.251  0.00  0.00     0.012 C 
BRANCH  15  16
ATOM     16  C   UNL d   1      -6.168  -0.818  -1.261  0.00  0.00    -0.004 C 
ATOM     17  C   UNL d   1      -6.643  -1.472  -2.548  0.00  0.00     0.005 C 
ENDBRANCH  15  16
ENDBRANCH  14  15
ENDBRANCH  13  14
ENDBRANCH   7  12
ENDBRANCH   1   5
BRANCH   2  18
ATOM     18  N   UNL d   1       3.682   4.486   0.297  0.00  0.00    -0.248 N 
ATOM     19  C   UNL d   1       3.123   5.760   0.231  0.00  0.00     0.339 C 
ATOM     20  N   UNL d   1       4.076   6.771   0.188  0.00  0.00    -0.308 N 
ATOM     21  O   UNL d   1       1.904   5.911   0.283  0.00  0.00    -0.245 OA
ATOM     22  H   UNL d   1       5.043   6.485   0.116  0.00  0.00     0.170 HD
ATOM     23  H   UNL d   1       4.464   4.278  -0.321  0.00  0.00     0.192 HD
BRANCH  20  24
ATOM     24  C   UNL d   1       3.833   8.162   0.351  0.00  0.00     0.036 A 
ATOM     25  C   UNL d   1       2.579   8.674   0.701  0.00  0.00     0.031 A 
ATOM     26  C   UNL d   1       2.392  10.037   0.958  0.00  0.00     0.026 A 
ATOM     27  C   UNL d   1       3.463  10.914   0.856  0.00  0.00     0.034 A 
ATOM     28  C   UNL d   1       4.713  10.439   0.468  0.00  0.00     0.026 A 
ATOM     29 CL   UNL d   1       3.241  12.576   1.240  0.00  0.00    -0.084 Cl
ATOM     30  C   UNL d   1       4.899   9.067   0.217  0.00  0.00     0.031 A 
ENDBRANCH  20  24
ENDBRANCH   2  18
TORSDOF 7
