REMARK  4 active torsions:
REMARK  status: ('A' for Active; 'I' for Inactive)
REMARK    1  A    between atoms: C_2  and  S_1 
REMARK    2  A    between atoms: N_3  and  S_1 
REMARK    3  A    between atoms: C_16  and  N_3 
REMARK    4  A    between atoms: N_5  and  C_7 
REMARK       I    between atoms: C_12  and  N_5 
ROOT
ATOM      1  N   UNL d   1       6.881  -4.876   2.553  0.00  0.00    -0.191 NA
ATOM      2  C   UNL d   1       6.115  -4.095   2.170  0.00  0.00     0.099 C 
ATOM      3  C   UNL d   1       3.443  -1.133   0.751  0.00  0.00     0.042 A 
ATOM      4  C   UNL d   1       5.182  -3.110   1.698  0.00  0.00     0.044 A 
ATOM      5  C   UNL d   1       3.785  -2.208  -0.070  0.00  0.00     0.031 A 
ATOM      6  C   UNL d   1       3.958  -1.046   2.043  0.00  0.00     0.031 A 
ATOM      7  C   UNL d   1       4.655  -3.197   0.404  0.00  0.00     0.025 A 
ATOM      8  C   UNL d   1       4.820  -2.038   2.520  0.00  0.00     0.025 A 
ENDROOT
BRANCH   3   9
ATOM      9  N   UNL d   1       2.691  -0.049   0.247  0.00  0.00    -0.281 N 
ATOM     10  H   UNL d   1       3.160   0.783  -0.103  0.00  0.00     0.179 HD
BRANCH   9  11
ATOM     11  S   UNL d   1       1.038  -0.132   0.032  0.00  0.00     0.263 S 
ATOM     12  O   UNL d   1       0.646   1.125  -0.571  0.00  0.00    -0.200 OA
ATOM     13  O   UNL d   1       0.688  -1.398  -0.573  0.00  0.00    -0.200 OA
BRANCH  11  14
ATOM     14  C   UNL d   1       0.436  -0.120   1.703  0.00  0.00     0.081 A 
ATOM     15  C   UNL d   1       0.209   1.094   2.354  0.00  0.00     0.051 A 
ATOM     16  C   UNL d   1      -0.287   1.085   3.661  0.00  0.00     0.062 A 
ATOM     17 CL   UNL d   1      -0.541   2.609   4.443  0.00  0.00    -0.082 Cl
ATOM     18  C   UNL d   1      -0.571  -0.126   4.327  0.00  0.00     0.056 A 
ATOM     19  C   UNL d   1      -0.350  -1.326   3.644  0.00  0.00     0.033 A 
ATOM     20  C   UNL d   1       0.146  -1.328   2.337  0.00  0.00     0.027 A 
BRANCH  18  21
ATOM     21  N   UNL d   1      -1.069  -0.075   5.654  0.00  0.00    -0.326 N 
ATOM     22  C   UNL d   1      -1.394  -1.139   6.473  0.00  0.00     0.218 C 
ATOM     23  O   UNL d   1      -1.314  -2.329   6.188  0.00  0.00    -0.274 OA
ATOM     24  C   UNL d   1      -1.894  -0.722   7.834  0.00  0.00     0.117 C 
ATOM     25  H   UNL d   1      -1.194   0.862   6.027  0.00  0.00     0.169 HD
ENDBRANCH  18  21
ENDBRANCH  11  14
ENDBRANCH   9  11
ENDBRANCH   3   9
TORSDOF 4
