REMARK  2 active torsions:
REMARK  status: ('A' for Active; 'I' for Inactive)
REMARK    1  A    between atoms: O_14  and  C_5 
REMARK    2  A    between atoms: S_13  and  C_8 
ROOT
ATOM      1  N   UNL d   1       0.285   0.702   0.005  0.00  0.00    -0.061 N 
ATOM      2  C   UNL d   1       0.276  -0.692   0.009  0.00  0.00     0.708 A 
ATOM      3  N   UNL d   1       1.517  -1.122   0.011  0.00  0.00    -0.167 N 
ATOM      4  HN  UNL d   1       1.850  -2.086   0.014  1.00  0.00     0.186 HD
ATOM      5  C   UNL d   1      -0.905   1.436   0.002  0.00  0.00     0.181 A 
ATOM      6  N   UNL d   1       1.558   1.164   0.004  0.00  0.00    -0.256 N 
ATOM      7  HN  UNL d   1       1.895   2.126   0.003  1.00  0.00     0.190 HD
ATOM      8  C   UNL d   1       2.255   0.024   0.007  0.00  0.00     0.174 A 
ATOM      9  N   UNL d   1      -0.889  -1.400   0.010  0.00  0.00    -0.194 N 
ATOM     10  HN  UNL d   1      -0.895  -2.420   0.013  1.00  0.00     0.184 HD
ATOM     11  C   UNL d   1      -2.077   0.787   0.002  0.00  0.00     0.083 A 
ATOM     12  C   UNL d   1      -1.992  -0.708   0.007  0.00  0.00     0.027 A 
ATOM     13  C   UNL d   1      -3.294  -1.471   0.008  0.00  0.00     0.069 C 
ENDROOT
BRANCH   5  14
ATOM     14  O   UNL d   1      -0.859   2.821  -0.002  0.00  0.00    -0.344 OA
ATOM     15  H   UNL d   1       0.090   3.069  -0.000  0.00  0.00     0.219 HD
ENDBRANCH   5  14
BRANCH   8  16
ATOM     16  S   UNL d   1       3.997   0.039   0.006  0.00  0.00    -0.097 SA
ATOM     17  C   UNL d   1       4.340  -1.735   0.010  0.00  0.00     0.099 C 
ENDBRANCH   8  16
TORSDOF 2
