REMARK  7 active torsions:
REMARK  status: ('A' for Active; 'I' for Inactive)
REMARK    1  A    between atoms: C_2  and  C_1 
REMARK       I    between atoms: N_11  and  C_2 
REMARK    2  A    between atoms: C_3  and  C_4 
REMARK    3  A    between atoms: O_19  and  C_5 
REMARK       I    between atoms: C_8  and  N_16 
REMARK       I    between atoms: N_18  and  C_8 
REMARK    4  A    between atoms: C_10  and  C_21 
REMARK    5  A    between atoms: N_16  and  N_11 
REMARK    6  A    between atoms: C_26  and  N_18 
REMARK    7  A    between atoms: C_21  and  O_19 
ROOT
ATOM      1  C   UNL d   1       0.073   1.205   0.176  0.00  0.00     0.107 A 
ATOM      2  C   UNL d   1       1.345   0.685   0.003  0.00  0.00     0.092 A 
ATOM      3  S   UNL d   1      -1.090  -0.063   0.334  0.00  0.00    -0.094 SA
ATOM      4  C   UNL d   1       1.353  -0.748   0.042  0.00  0.00     0.045 A 
ATOM      5  C   UNL d   1       0.092  -1.278   0.186  0.00  0.00     0.053 A 
ENDROOT
BRANCH   1   6
ATOM      6  C   UNL d   1      -0.378   2.600   0.182  0.00  0.00     0.279 C 
ATOM      7  N   UNL d   1      -1.613   2.801   0.784  0.00  0.00    -0.261 N 
ATOM      8  H   UNL d   1      -1.994   2.091   1.405  0.00  0.00     0.190 HD
ATOM      9  O   UNL d   1       0.247   3.542  -0.302  0.00  0.00    -0.265 OA
BRANCH   7  10
ATOM     10  N   UNL d   1      -2.122   4.097   0.963  0.00  0.00    -0.248 N 
ATOM     11  C   UNL d   1      -2.750   4.374   2.168  0.00  0.00     0.339 C 
ATOM     12  N   UNL d   1      -3.180   5.681   2.247  0.00  0.00    -0.308 N 
ATOM     13  O   UNL d   1      -2.906   3.495   3.012  0.00  0.00    -0.245 OA
ATOM     14  H   UNL d   1      -3.091   6.228   1.404  0.00  0.00     0.170 HD
ATOM     15  H   UNL d   1      -1.813   4.804   0.304  0.00  0.00     0.192 HD
BRANCH  12  16
ATOM     16  C   UNL d   1      -3.791   6.314   3.351  0.00  0.00     0.036 A 
ATOM     17  C   UNL d   1      -3.933   5.719   4.608  0.00  0.00     0.031 A 
ATOM     18  C   UNL d   1      -4.508   6.425   5.671  0.00  0.00     0.026 A 
ATOM     19  C   UNL d   1      -4.949   7.731   5.481  0.00  0.00     0.034 A 
ATOM     20  C   UNL d   1      -4.828   8.334   4.233  0.00  0.00     0.026 A 
ATOM     21 CL   UNL d   1      -5.633   8.605   6.795  0.00  0.00    -0.084 Cl
ATOM     22  C   UNL d   1      -4.249   7.628   3.172  0.00  0.00     0.031 A 
ENDBRANCH  12  16
ENDBRANCH   7  10
ENDBRANCH   1   6
BRANCH   2  23
ATOM     23  O   UNL d   1       2.417   1.505  -0.148  0.00  0.00    -0.344 OA
BRANCH  23  24
ATOM     24  C   UNL d   1       3.567   0.869  -0.713  0.00  0.00     0.234 C 
BRANCH  24  25
ATOM     25  C   UNL d   1       4.564   1.880  -1.233  0.00  0.00     0.055 A 
ATOM     26  N   UNL d   1       5.836   1.773  -0.746  0.00  0.00    -0.365 N 
ATOM     27  C   UNL d   1       6.779   2.609  -1.240  0.00  0.00     0.104 A 
ATOM     28  HN  UNL d   1       6.068   1.083  -0.032  1.00  0.00     0.165 HD
ATOM     29  C   UNL d   1       6.529   3.566  -2.210  0.00  0.00     0.064 A 
ATOM     30  C   UNL d   1       5.225   3.659  -2.705  0.00  0.00     0.043 A 
ATOM     31  C   UNL d   1       4.231   2.804  -2.226  0.00  0.00     0.059 A 
ATOM     32 CL   UNL d   1       2.668   2.901  -2.943  0.00  0.00    -0.082 Cl
BRANCH  29  33
ATOM     33  C   UNL d   1       7.646   4.428  -2.709  0.00  0.00     0.418 C 
ATOM     34  F   UNL d   1       7.247   5.353  -3.623  0.00  0.00    -0.166 F 
ATOM     35  F   UNL d   1       8.257   5.124  -1.712  0.00  0.00    -0.166 F 
ATOM     36  F   UNL d   1       8.625   3.704  -3.313  0.00  0.00    -0.166 F 
ENDBRANCH  29  33
ENDBRANCH  24  25
ENDBRANCH  23  24
ENDBRANCH   2  23
TORSDOF 7
