REMARK  3 active torsions:
REMARK  status: ('A' for Active; 'I' for Inactive)
REMARK    1  A    between atoms: N_9  and  C_3 
REMARK    2  A    between atoms: C_11  and  C_4 
REMARK       I    between atoms: C_8  and  N_10 
REMARK    3  A    between atoms: C_12  and  C_8 
ROOT
ATOM      1  C   UNL d   1      -1.000  -6.587   0.085  0.00  0.00     0.277 C 
ATOM      2  N   UNL d   1       0.142  -2.611  -0.169  0.00  0.00    -0.357 N 
ATOM      3  N   UNL d   1      -0.360  -5.420  -0.338  0.00  0.00    -0.343 N 
ATOM      4  C   UNL d   1       0.743  -3.512   0.847  0.00  0.00     0.145 C 
ATOM      5  C   UNL d   1      -1.112  -3.127  -0.753  0.00  0.00     0.145 C 
ATOM      6  C   UNL d   1       0.874  -4.962   0.310  0.00  0.00     0.146 C 
ATOM      7  C   UNL d   1      -0.835  -4.499  -1.376  0.00  0.00     0.146 C 
ATOM      8  O   UNL d   1      -0.436  -7.366   0.859  0.00  0.00    -0.265 OA
ENDROOT
BRANCH   2   9
ATOM      9  C   UNL d   1       0.270  -1.264   0.031  0.00  0.00     0.165 A 
ATOM     10  N   UNL d   1       0.918  -0.698   1.026  0.00  0.00    -0.320 N 
ATOM     11  C   UNL d   1       0.844   0.691   0.909  0.00  0.00     0.131 A 
ATOM     12  HN  UNL d   1       1.402  -1.199   1.771  1.00  0.00     0.169 HD
ATOM     13  N   UNL d   1       0.201   1.219  -0.136  0.00  0.00    -0.308 N 
ATOM     14  S   UNL d   1      -0.345  -0.049  -1.052  0.00  0.00     0.024 SA
ATOM     15  HN  UNL d   1       0.072   2.211  -0.333  1.00  0.00     0.176 HD
BRANCH  11  16
ATOM     16  C   UNL d   1       1.469   1.588   1.941  0.00  0.00     0.049 A 
ATOM     17  S   UNL d   1       2.345   1.024   3.293  0.00  0.00    -0.098 SA
ATOM     18  C   UNL d   1       2.651   2.619   3.837  0.00  0.00     0.050 A 
ATOM     19  C   UNL d   1       2.085   3.564   3.011  0.00  0.00     0.009 A 
ATOM     20  C   UNL d   1       1.402   2.967   1.911  0.00  0.00     0.023 A 
ENDBRANCH  11  16
ENDBRANCH   2   9
BRANCH   1  21
ATOM     21  C   UNL d   1      -2.326  -6.877  -0.443  0.00  0.00     0.142 A 
ATOM     22  O   UNL d   1      -3.208  -5.858  -0.710  0.00  0.00    -0.317 OA
ATOM     23  C   UNL d   1      -4.322  -6.409  -1.253  0.00  0.00     0.143 A 
ATOM     24  C   UNL d   1      -4.216  -7.778  -1.272  0.00  0.00     0.027 A 
ATOM     25  C   UNL d   1      -2.952  -8.083  -0.708  0.00  0.00     0.045 A 
ENDBRANCH   1  21
TORSDOF 3
