REMARK  5 active torsions:
REMARK  status: ('A' for Active; 'I' for Inactive)
REMARK    1  A    between atoms: C_7  and  C_1 
REMARK    2  A    between atoms: C_9  and  C_6 
REMARK    3  A    between atoms: C_10  and  C_9 
REMARK       I    between atoms: N_19  and  C_10 
REMARK    4  A    between atoms: C_11  and  C_17 
REMARK    5  A    between atoms: N_12  and  N_19 
ROOT
ATOM      1  C   UNL d   1       0.046   1.019   0.418  0.00  0.00     0.156 A 
ATOM      2  N   UNL d   1       1.154   0.186   0.321  0.00  0.00    -0.321 N 
ATOM      3  HN  UNL d   1       2.132   0.401   0.514  1.00  0.00     0.169 HD
ATOM      4  N   UNL d   1      -1.102   0.421   0.053  0.00  0.00    -0.241 N 
ATOM      5  HN  UNL d   1      -2.038   0.825   0.024  1.00  0.00     0.196 HD
ATOM      6  C   UNL d   1       0.627  -0.949  -0.083  0.00  0.00     0.157 A 
ATOM      7  O   UNL d   1      -0.721  -0.872  -0.275  0.00  0.00    -0.222 OA
ENDROOT
BRANCH   6   8
ATOM      8  C   UNL d   1       1.219  -2.273  -0.350  0.00  0.00     0.191 C 
BRANCH   8   9
ATOM      9  C   UNL d   1       2.713  -2.392  -0.170  0.00  0.00     0.243 C 
ATOM     10  N   UNL d   1       3.454  -1.232  -0.031  0.00  0.00    -0.270 N 
ATOM     11  H   UNL d   1       2.994  -0.328   0.095  0.00  0.00     0.190 HD
ATOM     12  O   UNL d   1       3.219  -3.520  -0.199  0.00  0.00    -0.271 OA
BRANCH  10  13
ATOM     13  N   UNL d   1       4.803  -1.341   0.143  0.00  0.00    -0.308 N 
ATOM     14  C   UNL d   1       5.463  -0.244   0.338  0.00  0.00     0.126 C 
ATOM     15  HN  UNL d   1       5.272  -2.247   0.120  1.00  0.00     0.186 HD
BRANCH  14  16
ATOM     16  C   UNL d   1       6.886  -0.306   0.566  0.00  0.00     0.021 A 
ATOM     17  S   UNL d   1       7.763   1.131   0.863  0.00  0.00    -0.101 SA
ATOM     18  C   UNL d   1       9.230   0.269   1.057  0.00  0.00     0.050 A 
ATOM     19  C   UNL d   1       9.060  -1.087   0.885  0.00  0.00     0.008 A 
ATOM     20  C   UNL d   1       7.705  -1.418   0.597  0.00  0.00     0.021 A 
ENDBRANCH  14  16
ENDBRANCH  10  13
ENDBRANCH   8   9
ENDBRANCH   6   8
BRANCH   1  21
ATOM     21  C   UNL d   1       0.115   2.400   0.889  0.00  0.00     0.094 A 
ATOM     22  N   UNL d   1       1.345   2.928   1.142  0.00  0.00    -0.360 N 
ATOM     23  C   UNL d   1       1.352   4.205   1.595  0.00  0.00     0.105 A 
ATOM     24  HN  UNL d   1       2.204   2.397   0.999  1.00  0.00     0.165 HD
ATOM     25  C   UNL d   1       0.192   4.936   1.793  0.00  0.00     0.104 A 
ATOM     26  N   UNL d   1      -1.033   4.426   1.543  0.00  0.00    -0.372 N 
ATOM     27  C   UNL d   1      -1.044   3.146   1.089  0.00  0.00     0.121 A 
ATOM     28  HN  UNL d   1      -1.888   4.964   1.685  1.00  0.00     0.164 HD
ENDBRANCH   1  21
TORSDOF 5
