REMARK  7 active torsions:
REMARK  status: ('A' for Active; 'I' for Inactive)
REMARK    1  A    between atoms: C_6  and  N_1 
REMARK    2  A    between atoms: C_11  and  C_6 
REMARK    3  A    between atoms: C_12  and  C_11 
REMARK    4  A    between atoms: O_20  and  C_11 
REMARK    5  A    between atoms: N_15  and  C_12 
REMARK    6  A    between atoms: C_21  and  N_15 
REMARK    7  A    between atoms: C_22  and  N_15 
ROOT
ATOM      1  N   UNL d   1       0.088  -1.385  -0.031  0.00  0.00    -0.343 N 
ATOM      2  C   UNL d   1       0.603   0.370  -1.320  0.00  0.00     0.005 A 
ATOM      3  C   UNL d   1       1.128   0.594  -0.014  0.00  0.00     0.005 A 
ATOM      4  C   UNL d   1      -0.111  -0.833  -1.290  0.00  0.00     0.046 A 
ATOM      5  C   UNL d   1       0.688  -0.450   0.799  0.00  0.00     0.046 A 
ATOM      6  C   UNL d   1      -0.859  -1.264  -2.401  0.00  0.00     0.032 A 
ATOM      7  C   UNL d   1       0.885  -0.431   2.192  0.00  0.00     0.032 A 
ATOM      8  C   UNL d   1       1.873   1.646   0.563  0.00  0.00     0.033 A 
ATOM      9  C   UNL d   1       0.620   1.138  -2.506  0.00  0.00     0.033 A 
ATOM     10  C   UNL d   1       2.119   1.637   1.932  0.00  0.00     0.011 A 
ATOM     11  C   UNL d   1      -0.133   0.717  -3.602  0.00  0.00     0.011 A 
ATOM     12  C   UNL d   1      -0.876  -0.457  -3.549  0.00  0.00     0.021 A 
ATOM     13  C   UNL d   1       1.619   0.622   2.742  0.00  0.00     0.021 A 
ATOM     14 BR   UNL d   1       3.115   3.044   2.709  0.00  0.00    -0.051 Br
ATOM     15 BR   UNL d   1      -0.173   1.785  -5.164  0.00  0.00    -0.051 Br
ENDROOT
BRANCH   1  16
ATOM     16  C   UNL d   1      -0.357  -2.706   0.398  0.00  0.00     0.163 C 
BRANCH  16  17
ATOM     17  C   UNL d   1       0.750  -3.774   0.552  0.00  0.00     0.164 C 
BRANCH  17  18
ATOM     18  C   UNL d   1       1.598  -3.640   1.845  0.00  0.00     0.305 C 
BRANCH  18  19
ATOM     19  N   UNL d   1       2.507  -4.793   2.114  0.00  0.00     0.090 N 
BRANCH  19  20
ATOM     20  C   UNL d   1       3.498  -5.004   1.040  0.00  0.00     0.268 C 
ATOM     21  C   UNL d   1       4.367  -3.804   0.676  0.00  0.00     0.037 C 
ENDBRANCH  19  20
BRANCH  19  22
ATOM     22  C   UNL d   1       3.132  -4.610   3.445  0.00  0.00     0.268 C 
ATOM     23  C   UNL d   1       4.069  -5.735   3.892  0.00  0.00     0.037 C 
ENDBRANCH  19  22
ENDBRANCH  18  19
ENDBRANCH  17  18
BRANCH  17  24
ATOM     24  O   UNL d   1       0.116  -5.067   0.586  0.00  0.00    -0.392 OA
ATOM     25  H   UNL d   1       0.747  -5.650   1.059  0.00  0.00     0.210 HD
ENDBRANCH  17  24
ENDBRANCH  16  17
ENDBRANCH   1  16
TORSDOF 7
