REMARK  3 active torsions:
REMARK  status: ('A' for Active; 'I' for Inactive)
REMARK    1  A    between atoms: C_12  and  C_2 
REMARK    2  A    between atoms: C_13  and  C_10 
REMARK    3  A    between atoms: C_16  and  C_11 
ROOT
ATOM      1  N   UNL d   1       0.293   0.628   0.050  0.00  0.00    -0.235 N 
ATOM      2  C   UNL d   1      -0.820   1.459   0.037  0.00  0.00     0.144 A 
ATOM      3  C   UNL d   1       0.133  -0.762   0.053  0.00  0.00     0.130 A 
ATOM      4  N   UNL d   1       1.600   0.960   0.054  0.00  0.00    -0.291 N 
ATOM      5  HN  UNL d   1       1.989   1.903   0.069  1.00  0.00     0.187 HD
ATOM      6  N   UNL d   1      -1.093  -1.366   0.049  0.00  0.00    -0.339 N 
ATOM      7  HN  UNL d   1      -1.187  -2.382   0.060  1.00  0.00     0.167 HD
ATOM      8  C   UNL d   1      -2.052   0.912   0.025  0.00  0.00     0.069 A 
ATOM      9  C   UNL d   1       1.401  -1.292   0.046  0.00  0.00     0.082 A 
ATOM     10  C   UNL d   1      -2.137  -0.584   0.030  0.00  0.00     0.070 A 
ATOM     11  C   UNL d   1       2.288  -0.190   0.036  0.00  0.00     0.062 A 
ENDROOT
BRANCH  11  12
ATOM     12  C   UNL d   1       3.757  -0.195   0.002  0.00  0.00    -0.008 A 
ATOM     13  C   UNL d   1       4.470   1.016   0.016  0.00  0.00     0.014 A 
ATOM     14  C   UNL d   1       5.867   1.030  -0.028  0.00  0.00     0.001 A 
ATOM     15  C   UNL d   1       6.572  -0.168  -0.086  0.00  0.00     0.000 A 
ATOM     16  C   UNL d   1       5.883  -1.379  -0.099  0.00  0.00     0.001 A 
ATOM     17  C   UNL d   1       4.484  -1.393  -0.055  0.00  0.00     0.014 A 
ENDBRANCH  11  12
BRANCH   2  18
ATOM     18  C   UNL d   1      -0.634   2.930   0.027  0.00  0.00     0.434 C 
ATOM     19  F   UNL d   1       0.639   3.386   0.013  0.00  0.00    -0.165 F 
ATOM     20  F   UNL d   1      -1.248   3.480  -1.057  0.00  0.00    -0.165 F 
ATOM     21  F   UNL d   1      -1.231   3.494   1.113  0.00  0.00    -0.165 F 
ENDBRANCH   2  18
BRANCH  10  22
ATOM     22  C   UNL d   1      -3.454  -1.184   0.009  0.00  0.00     0.101 A 
ATOM     23  O   UNL d   1      -4.562  -0.378  -0.039  0.00  0.00    -0.321 OA
ATOM     24  C   UNL d   1      -5.652  -1.185  -0.062  0.00  0.00     0.142 A 
ATOM     25  C   UNL d   1      -5.274  -2.505  -0.029  0.00  0.00     0.027 A 
ATOM     26  C   UNL d   1      -3.859  -2.507   0.019  0.00  0.00     0.041 A 
ENDBRANCH  10  22
TORSDOF 3
