REMARK  3 active torsions:
REMARK  status: ('A' for Active; 'I' for Inactive)
REMARK    1  A    between atoms: C_3  and  C_1 
REMARK    2  A    between atoms: C_15  and  N_4 
REMARK    3  A    between atoms: C_14  and  C_15 
ROOT
ATOM      1  N   UNL d   1       1.283   2.443  -3.399  0.00  0.00    -0.197 NA
ATOM      2  C   UNL d   1       1.980   1.914  -2.637  0.00  0.00     0.060 C 
ATOM      3  C   UNL d   1       2.854   1.257  -1.655  0.00  0.00     0.144 C 
ENDROOT
BRANCH   3   4
ATOM      4  C   UNL d   1       2.286   1.372  -0.238  0.00  0.00     0.146 C 
BRANCH   4   5
ATOM      5  N   UNL d   1       1.031   0.632  -0.061  0.00  0.00    -0.323 N 
ATOM      6  C   UNL d   1       1.093  -0.760   0.098  0.00  0.00     0.262 A 
ATOM      7  C   UNL d   1      -0.210  -1.473   0.164  0.00  0.00     0.115 A 
ATOM      8  O   UNL d   1       2.163  -1.358   0.153  0.00  0.00    -0.267 OA
ATOM      9  C   UNL d   1      -1.349  -0.759   0.093  0.00  0.00     0.023 A 
ATOM     10  C   UNL d   1      -1.335   0.671  -0.049  0.00  0.00     0.018 A 
ATOM     11  C   UNL d   1      -0.169   1.317  -0.131  0.00  0.00     0.094 A 
BRANCH   7  12
ATOM     12  C   UNL d   1      -0.205  -2.953   0.269  0.00  0.00     0.422 C 
ATOM     13  F   UNL d   1       1.005  -3.553   0.362  0.00  0.00    -0.166 F 
ATOM     14  F   UNL d   1      -0.917  -3.365   1.356  0.00  0.00    -0.166 F 
ATOM     15  F   UNL d   1      -0.825  -3.513  -0.808  0.00  0.00    -0.166 F 
ENDBRANCH   7  12
ENDBRANCH   4   5
ENDBRANCH   3   4
TORSDOF 3
