REMARK  2 active torsions:
REMARK  status: ('A' for Active; 'I' for Inactive)
REMARK       I    between atoms: C_4  and  N_1 
REMARK    1  A    between atoms: O_9  and  C_4 
REMARK    2  A    between atoms: C_12  and  O_9 
ROOT
ATOM      1  N   UNL d   1       1.616  -1.153  -0.079  0.00  0.00    -0.200 N 
ATOM      2  C   UNL d   1       2.386   0.009  -0.063  0.00  0.00     0.381 A 
ATOM      3  O   UNL d   1       1.573   1.157  -0.067  0.00  0.00    -0.258 OA
ATOM      4  C   UNL d   1       2.052  -2.458   0.055  0.00  0.00     0.376 C 
ATOM      5  C   UNL d   1       0.291  -0.754  -0.073  0.00  0.00     0.083 A 
ATOM      6  C   UNL d   1       0.299   0.625  -0.063  0.00  0.00     0.108 A 
ATOM      7  O   UNL d   1       3.607   0.109  -0.060  0.00  0.00    -0.237 OA
ATOM      8  O   UNL d   1       1.315  -3.434   0.182  0.00  0.00    -0.237 OA
ATOM      9  C   UNL d   1      -0.894  -1.466  -0.051  0.00  0.00     0.033 A 
ATOM     10  C   UNL d   1      -0.864   1.366  -0.030  0.00  0.00     0.040 A 
ATOM     11  C   UNL d   1      -2.087  -0.739  -0.020  0.00  0.00     0.002 A 
ATOM     12  C   UNL d   1      -2.073   0.668  -0.009  0.00  0.00     0.003 A 
ENDROOT
BRANCH   4  13
ATOM     13  O   UNL d   1       3.408  -2.554   0.118  0.00  0.00    -0.304 OA
BRANCH  13  14
ATOM     14  C   UNL d   1       3.933  -3.772   0.661  0.00  0.00     0.176 C 
ATOM     15  C   UNL d   1       3.982  -3.638   2.173  0.00  0.00     0.034 C 
ENDBRANCH  13  14
ENDBRANCH   4  13
TORSDOF 2
