REMARK  6 active torsions:
REMARK  status: ('A' for Active; 'I' for Inactive)
REMARK    1  A    between atoms: C_14  and  C_1 
REMARK    2  A    between atoms: C_6  and  N_16 
REMARK    3  A    between atoms: N_13  and  C_6 
REMARK    4  A    between atoms: N_16  and  N_8 
REMARK    5  A    between atoms: C_10  and  C_20 
REMARK    6  A    between atoms: C_20  and  N_13 
ROOT
ATOM      1  N   UNL d   1      -4.297   1.246   0.026  0.00  0.00    -0.309 N 
ATOM      2  HN  UNL d   1      -3.727   2.080  -0.119  1.00  0.00     0.186 HD
ATOM      3  C   UNL d   1      -3.788   0.053   0.052  0.00  0.00     0.124 C 
ENDROOT
BRANCH   1   4
ATOM      4  N   UNL d   1      -5.646   1.306   0.205  0.00  0.00    -0.277 N 
ATOM      5  H   UNL d   1      -5.963   2.194   0.598  0.00  0.00     0.189 HD
BRANCH   4   6
ATOM      6  C   UNL d   1      -6.610   0.643  -0.529  0.00  0.00     0.186 C 
ATOM      7  S   UNL d   1      -6.424  -0.142  -1.992  0.00  0.00    -0.040 SA
BRANCH   6   8
ATOM      8  N   UNL d   1      -7.850   0.623   0.061  0.00  0.00    -0.360 N 
ATOM      9  H   UNL d   1      -8.553   0.118  -0.465  0.00  0.00     0.162 HD
BRANCH   8  10
ATOM     10  C   UNL d   1      -8.086   0.808   1.483  0.00  0.00     0.187 C 
BRANCH  10  11
ATOM     11  C   UNL d   1      -8.319   2.243   1.767  0.00  0.00     0.070 A 
ATOM     12  O   UNL d   1      -7.215   3.002   2.039  0.00  0.00    -0.325 OA
ATOM     13  C   UNL d   1      -7.651   4.266   2.277  0.00  0.00     0.142 A 
ATOM     14  C   UNL d   1      -9.019   4.332   2.159  0.00  0.00     0.027 A 
ATOM     15  C   UNL d   1      -9.453   3.025   1.828  0.00  0.00     0.036 A 
ENDBRANCH  10  11
ENDBRANCH   8  10
ENDBRANCH   6   8
ENDBRANCH   4   6
ENDBRANCH   1   4
BRANCH   3  16
ATOM     16  C   UNL d   1      -2.339  -0.213  -0.032  0.00  0.00     0.054 A 
ATOM     17  C   UNL d   1      -1.803  -1.587  -0.043  0.00  0.00     0.198 A 
ATOM     18  C   UNL d   1      -0.335  -1.709  -0.087  0.00  0.00     0.049 A 
ATOM     19  O   UNL d   1      -2.528  -2.573  -0.001  0.00  0.00    -0.286 OA
ATOM     20  C   UNL d   1       0.274  -2.964  -0.119  0.00  0.00     0.018 A 
ATOM     21  C   UNL d   1       0.438  -0.547  -0.086  0.00  0.00     0.089 A 
ATOM     22  C   UNL d   1       1.667  -3.052  -0.151  0.00  0.00     0.001 A 
ATOM     23  C   UNL d   1       2.441  -1.890  -0.150  0.00  0.00     0.003 A 
ATOM     24  C   UNL d   1       1.828  -0.637  -0.117  0.00  0.00     0.038 A 
ATOM     25  O   UNL d   1      -0.106   0.713  -0.054  0.00  0.00    -0.321 OA
ATOM     26  C   UNL d   1      -1.476   0.810  -0.027  0.00  0.00     0.159 A 
ENDBRANCH   3  16
TORSDOF 6
