REMARK  5 active torsions:
REMARK  status: ('A' for Active; 'I' for Inactive)
REMARK    1  A    between atoms: C_11  and  C_3 
REMARK    2  A    between atoms: C_13  and  C_7 
REMARK    3  A    between atoms: O_19  and  C_11 
REMARK    4  A    between atoms: C_16  and  C_12 
REMARK    5  A    between atoms: O_30  and  C_22 
ROOT
ATOM      1  N   UNL d   1      -0.121   1.417  -0.002  0.00  0.00    -0.279 N 
ATOM      2  C   UNL d   1      -0.381   0.103   0.187  0.00  0.00     0.155 A 
ATOM      3  C   UNL d   1      -2.524   1.756   0.331  0.00  0.00     0.067 A 
ATOM      4  C   UNL d   1       1.170   1.731  -0.362  0.00  0.00     0.267 C 
ATOM      5  N   UNL d   1      -1.529  -0.412   0.464  0.00  0.00    -0.339 N 
ATOM      6  HN  UNL d   1      -1.626  -1.414   0.626  1.00  0.00     0.168 HD
ATOM      7  C   UNL d   1      -1.183   2.409   0.043  0.00  0.00     0.169 A 
ATOM      8  C   UNL d   1       2.039   0.522  -0.219  0.00  0.00     0.077 C 
ATOM      9  C   UNL d   1      -2.625   0.422   0.538  0.00  0.00     0.022 A 
ATOM     10  S   UNL d   1       1.046  -0.874   0.006  0.00  0.00    -0.048 SA
ATOM     11  C   UNL d   1       3.377   0.475  -0.164  0.00  0.00     0.036 C 
ATOM     12  O   UNL d   1       1.550   2.810  -0.793  0.00  0.00    -0.266 OA
ATOM     13  C   UNL d   1      -3.878  -0.375   0.817  0.00  0.00     0.069 C 
ENDROOT
BRANCH   7  14
ATOM     14  C   UNL d   1      -0.837   3.501   1.060  0.00  0.00    -0.030 A 
ATOM     15  C   UNL d   1      -0.727   3.231   2.433  0.00  0.00     0.012 A 
ATOM     16  C   UNL d   1      -0.386   4.247   3.334  0.00  0.00     0.037 A 
ATOM     17  C   UNL d   1      -0.150   5.543   2.875  0.00  0.00     0.068 A 
ATOM     18  C   UNL d   1      -0.228   5.813   1.510  0.00  0.00     0.037 A 
ATOM     19  C   UNL d   1      -0.577   4.807   0.610  0.00  0.00     0.012 A 
BRANCH  17  20
ATOM     20  O   UNL d   1       0.205   6.605   3.660  0.00  0.00    -0.356 OA
ATOM     21  C   UNL d   1      -0.302   6.575   4.989  0.00  0.00     0.210 C 
ENDBRANCH  17  20
ENDBRANCH   7  14
BRANCH   3  22
ATOM     22  C   UNL d   1      -3.651   2.726   0.262  0.00  0.00     0.293 C 
ATOM     23  O   UNL d   1      -3.609   3.729  -0.433  0.00  0.00    -0.259 OA
BRANCH  22  24
ATOM     24  O   UNL d   1      -4.672   2.392   1.082  0.00  0.00    -0.323 OA
ATOM     25  C   UNL d   1      -5.810   3.256   1.026  0.00  0.00     0.213 C 
ENDBRANCH  22  24
ENDBRANCH   3  22
BRANCH  11  26
ATOM     26  C   UNL d   1       4.232   1.660  -0.122  0.00  0.00    -0.035 A 
ATOM     27  C   UNL d   1       4.590   2.193   1.123  0.00  0.00     0.013 A 
ATOM     28  C   UNL d   1       5.354   3.360   1.195  0.00  0.00     0.024 A 
ATOM     29  C   UNL d   1       5.761   3.991   0.022  0.00  0.00     0.034 A 
ATOM     30  C   UNL d   1       5.423   3.458  -1.221  0.00  0.00     0.024 A 
ATOM     31 CL   UNL d   1       6.683   5.441   0.111  0.00  0.00    -0.084 Cl
ATOM     32  C   UNL d   1       4.660   2.289  -1.295  0.00  0.00     0.013 A 
ENDBRANCH  11  26
TORSDOF 5
