REMARK  3 active torsions:
REMARK  status: ('A' for Active; 'I' for Inactive)
REMARK       I    between atoms: N_2  and  C_1 
REMARK    1  A    between atoms: C_4  and  C_1 
REMARK       I    between atoms: C_5  and  N_2 
REMARK    2  A    between atoms: O_12  and  C_5 
REMARK    3  A    between atoms: N_7  and  O_12 
ROOT
ATOM      1  C   UNL d   1       0.221  -3.319  -0.089  0.00  0.00     0.263 C 
ATOM      2  N   UNL d   1       0.195  -2.505  -1.202  0.00  0.00    -0.267 N 
ATOM      3  C   UNL d   1       1.142  -1.547  -1.459  0.00  0.00     0.389 C 
ATOM      4  O   UNL d   1       1.166  -3.505   0.665  0.00  0.00    -0.267 OA
ATOM      5  O   UNL d   1       0.813  -0.467  -1.943  0.00  0.00    -0.236 OA
ATOM      6  H   UNL d   1      -0.710  -2.238  -1.560  0.00  0.00     0.174 HD
ENDROOT
BRANCH   3   7
ATOM      7  O   UNL d   1       2.419  -1.928  -1.138  0.00  0.00    -0.181 OA
BRANCH   7   8
ATOM      8  N   UNL d   1       3.136  -0.817  -0.678  0.00  0.00    -0.260 N 
ATOM      9  C   UNL d   1       4.413  -0.877  -0.886  0.00  0.00     0.045 C 
ATOM     10  C   UNL d   1       5.134  -1.880  -1.657  0.00  0.00     0.020 A 
ATOM     11  C   UNL d   1       5.267   0.214  -0.234  0.00  0.00     0.060 C 
ATOM     12  C   UNL d   1       6.480  -1.683  -1.911  0.00  0.00     0.065 A 
ATOM     13  C   UNL d   1       4.816  -3.098  -2.312  0.00  0.00     0.040 A 
ATOM     14  O   UNL d   1       7.006  -2.681  -2.657  0.00  0.00    -0.326 OA
ATOM     15  C   UNL d   1       7.344  -0.557  -1.488  0.00  0.00     0.066 C 
ATOM     16  C   UNL d   1       5.984  -3.542  -2.900  0.00  0.00     0.143 A 
ATOM     17  C   UNL d   1       6.451   0.636  -1.113  0.00  0.00     0.013 C 
ATOM     18  HN  UNL d   1       2.690  -0.024  -0.217  1.00  0.00     0.194 HD
ENDBRANCH   7   8
ENDBRANCH   3   7
BRANCH   1  19
ATOM     19  C   UNL d   1      -1.022  -4.074   0.148  0.00  0.00     0.075 A 
ATOM     20  C   UNL d   1      -1.364  -5.128  -0.710  0.00  0.00     0.051 A 
ATOM     21 CL   UNL d   1      -0.396  -5.572  -2.072  0.00  0.00    -0.083 Cl
ATOM     22  C   UNL d   1      -2.526  -5.874  -0.474  0.00  0.00     0.025 A 
ATOM     23  C   UNL d   1      -3.334  -5.580   0.622  0.00  0.00     0.003 A 
ATOM     24  C   UNL d   1      -2.989  -4.539   1.484  0.00  0.00     0.025 A 
ATOM     25  C   UNL d   1      -1.835  -3.785   1.251  0.00  0.00     0.051 A 
ATOM     26 CL   UNL d   1      -1.495  -2.487   2.338  0.00  0.00    -0.083 Cl
ENDBRANCH   1  19
TORSDOF 3
