REMARK  5 active torsions:
REMARK  status: ('A' for Active; 'I' for Inactive)
REMARK    1  A    between atoms: S_6  and  C_1 
REMARK    2  A    between atoms: C_2  and  C_7 
REMARK       I    between atoms: C_3  and  N_5 
REMARK       I    between atoms: N_8  and  C_3 
REMARK    3  A    between atoms: N_5  and  C_4 
REMARK    4  A    between atoms: C_18  and  S_6 
REMARK    5  A    between atoms: C_12  and  N_8 
ROOT
ATOM      1  C   UNL d   1       3.080   3.344  -0.983  0.00  0.00     0.325 C 
ATOM      2  N   UNL d   1       1.751   3.016  -0.863  0.00  0.00    -0.307 N 
ATOM      3  N   UNL d   1       3.483   4.521  -0.420  0.00  0.00    -0.309 N 
ATOM      4  O   UNL d   1       3.914   2.690  -1.618  0.00  0.00    -0.247 OA
ATOM      5  H   UNL d   1       1.105   3.790  -0.971  0.00  0.00     0.170 HD
ATOM      6  H   UNL d   1       4.391   4.811  -0.762  0.00  0.00     0.170 HD
ENDROOT
BRANCH   2   7
ATOM      7  C   UNL d   1       1.233   1.727  -1.177  0.00  0.00     0.054 C 
ATOM      8  C   UNL d   1      -0.061   1.567  -1.762  0.00  0.00     0.049 C 
ATOM      9  C   UNL d   1      -0.373   0.270  -2.216  0.00  0.00     0.053 C 
ATOM     10 CL   UNL d   1      -1.661  -0.132  -3.287  0.00  0.00    -0.083 Cl
ATOM     11  C   UNL d   1       0.440  -0.832  -1.889  0.00  0.00     0.025 C 
ATOM     12  C   UNL d   1       1.618  -0.669  -1.180  0.00  0.00     0.004 C 
ATOM     13  C   UNL d   1       2.033   0.613  -0.870  0.00  0.00     0.031 C 
BRANCH   8  14
ATOM     14  S   UNL d   1      -1.169   3.006  -1.626  0.00  0.00    -0.122 SA
BRANCH  14  15
ATOM     15  C   UNL d   1      -2.439   2.995  -2.969  0.00  0.00     0.044 C 
ATOM     16  C   UNL d   1      -3.721   2.238  -2.604  0.00  0.00     0.021 C 
ATOM     17  C   UNL d   1      -2.855   4.462  -3.183  0.00  0.00     0.021 C 
ENDBRANCH  14  15
ENDBRANCH   8  14
ENDBRANCH   2   7
BRANCH   3  18
ATOM     18  C   UNL d   1       2.966   5.232   0.676  0.00  0.00     0.037 A 
ATOM     19  C   UNL d   1       2.014   4.709   1.553  0.00  0.00     0.045 A 
ATOM     20  C   UNL d   1       1.544   5.460   2.642  0.00  0.00     0.050 A 
ATOM     21  C   UNL d   1       2.065   6.742   2.860  0.00  0.00     0.016 A 
ATOM     22  C   UNL d   1       3.044   7.257   2.012  0.00  0.00     0.003 A 
ATOM     23  C   UNL d   1       3.497   6.502   0.929  0.00  0.00     0.029 A 
BRANCH  20  24
ATOM     24  C   UNL d   1       0.496   4.895   3.569  0.00  0.00     0.417 C 
ATOM     25  F   UNL d   1       0.062   3.654   3.211  0.00  0.00    -0.166 F 
ATOM     26  F   UNL d   1       0.940   4.779   4.851  0.00  0.00    -0.166 F 
ATOM     27  F   UNL d   1      -0.618   5.676   3.626  0.00  0.00    -0.166 F 
ENDBRANCH  20  24
ENDBRANCH   3  18
TORSDOF 5
