REMARK  6 active torsions:
REMARK  status: ('A' for Active; 'I' for Inactive)
REMARK    1  A    between atoms: C_2  and  C_1 
REMARK       I    between atoms: N_3  and  C_1 
REMARK       I    between atoms: N_10  and  C_2 
REMARK    2  A    between atoms: C_4  and  N_3 
REMARK    3  A    between atoms: C_15  and  N_10 
REMARK    4  A    between atoms: C_11  and  C_14 
REMARK    5  A    between atoms: S_13  and  C_12 
REMARK    6  A    between atoms: C_14  and  C_15 
ROOT
ATOM      1  C   UNL d   1       0.123   0.069  -1.503  0.00  0.00     0.309 C 
ATOM      2  O   UNL d   1      -1.043   0.440  -1.531  0.00  0.00    -0.262 OA
ATOM      3  N   UNL d   1       0.843  -0.453  -2.560  0.00  0.00    -0.353 N 
ATOM      4  H   UNL d   1       1.817  -0.694  -2.372  0.00  0.00     0.162 HD
ENDROOT
BRANCH   1   5
ATOM      5  C   UNL d   1       0.943   0.181  -0.201  0.00  0.00     0.313 C 
ATOM      6  N   UNL d   1       0.270   0.750   0.869  0.00  0.00    -0.319 N 
ATOM      7  H   UNL d   1      -0.729   0.890   0.742  0.00  0.00     0.169 HD
ATOM      8  O   UNL d   1       2.091  -0.251  -0.232  0.00  0.00    -0.262 OA
BRANCH   6   9
ATOM      9  C   UNL d   1       0.838   1.014   2.138  0.00  0.00     0.036 A 
ATOM     10  C   UNL d   1       2.222   1.034   2.349  0.00  0.00     0.048 A 
ATOM     11  C   UNL d   1       2.772   1.200   3.625  0.00  0.00     0.002 A 
ATOM     12  C   UNL d   1       1.909   1.404   4.704  0.00  0.00     0.018 A 
ATOM     13  C   UNL d   1       0.527   1.449   4.505  0.00  0.00     0.004 A 
ATOM     14  C   UNL d   1      -0.008   1.266   3.224  0.00  0.00     0.029 A 
BRANCH  11  15
ATOM     15  S   UNL d   1       4.534   1.206   3.941  0.00  0.00    -0.134 SA
ATOM     16  C   UNL d   1       5.165   0.088   2.654  0.00  0.00     0.095 C 
ENDBRANCH  11  15
ENDBRANCH   6   9
ENDBRANCH   1   5
BRANCH   3  17
ATOM     17  C   UNL d   1       0.292  -0.608  -3.892  0.00  0.00     0.129 C 
BRANCH  17  18
ATOM     18  C   UNL d   1       0.478   0.643  -4.751  0.00  0.00     0.076 C 
BRANCH  18  19
ATOM     19  C   UNL d   1      -0.151   0.468  -6.110  0.00  0.00     0.010 A 
ATOM     20  N   UNL d   1       0.614  -0.092  -7.079  0.00  0.00    -0.369 N 
ATOM     21  C   UNL d   1       0.049  -0.258  -8.297  0.00  0.00     0.088 A 
ATOM     22  HN  UNL d   1       1.576  -0.377  -6.897  1.00  0.00     0.165 HD
ATOM     23  C   UNL d   1      -1.254   0.098  -8.599  0.00  0.00     0.017 A 
ATOM     24  C   UNL d   1      -2.028   0.660  -7.592  0.00  0.00     0.003 A 
ATOM     25  C   UNL d   1      -1.473   0.848  -6.329  0.00  0.00     0.025 A 
ENDBRANCH  18  19
ENDBRANCH  17  18
ENDBRANCH   3  17
TORSDOF 6
