REMARK  2 active torsions:
REMARK  status: ('A' for Active; 'I' for Inactive)
REMARK    1  A    between atoms: C_8  and  C_2 
REMARK    2  A    between atoms: S_9  and  C_5 
ROOT
ATOM      1  N   UNL d   1      -1.879  -0.620   0.438  0.00  0.00    -0.320 N 
ATOM      2  C   UNL d   1      -1.872   0.653  -0.076  0.00  0.00     0.132 A 
ATOM      3  N   UNL d   1      -0.701   0.853  -0.654  0.00  0.00    -0.283 N 
ATOM      4  HN  UNL d   1      -0.412   1.703  -1.139  1.00  0.00     0.188 HD
ATOM      5  C   UNL d   1      -0.661  -1.153   0.158  0.00  0.00     0.157 A 
ATOM      6  N   UNL d   1       0.068  -0.283  -0.492  0.00  0.00    -0.278 N 
ATOM      7  HN  UNL d   1       1.025  -0.418  -0.817  1.00  0.00     0.189 HD
ATOM      8  H   UNL d   1      -2.647  -1.076   0.902  0.00  0.00     0.169 HD
ENDROOT
BRANCH   2   9
ATOM      9  C   UNL d   1      -2.997   1.583  -0.010  0.00  0.00     0.009 A 
ATOM     10  C   UNL d   1      -3.952   1.516   1.016  0.00  0.00     0.015 A 
ATOM     11  C   UNL d   1      -5.019   2.418   1.054  0.00  0.00     0.001 A 
ATOM     12  C   UNL d   1      -5.145   3.393   0.068  0.00  0.00     0.000 A 
ATOM     13  C   UNL d   1      -4.200   3.476  -0.953  0.00  0.00     0.001 A 
ATOM     14  C   UNL d   1      -3.130   2.579  -0.988  0.00  0.00     0.015 A 
ENDBRANCH   2   9
BRANCH   5  15
ATOM     15  S   UNL d   1      -0.228  -2.751   0.622  0.00  0.00    -0.106 SA
ATOM     16  H   UNL d   1      -1.396  -3.170   1.123  0.00  0.00     0.110 HD
ENDBRANCH   5  15
TORSDOF 2
