REMARK  6 active torsions:
REMARK  status: ('A' for Active; 'I' for Inactive)
REMARK    1  A    between atoms: C_2  and  C_1 
REMARK       I    between atoms: N_8  and  C_2 
REMARK    2  A    between atoms: C_17  and  N_8 
REMARK    3  A    between atoms: O_15  and  C_9 
REMARK    4  A    between atoms: C_10  and  O_16 
REMARK    5  A    between atoms: O_16  and  C_18 
REMARK    6  A    between atoms: C_18  and  C_17 
ROOT
ATOM      1  C   UNL d   1       0.105   4.979   0.003  0.00  0.00     0.149 C 
ENDROOT
BRANCH   1   2
ATOM      2  N   UNL d   1       0.406   3.565  -0.107  0.00  0.00    -0.353 N 
ATOM      3  C   UNL d   1       1.104   2.874   0.862  0.00  0.00     0.275 C 
ATOM      4  O   UNL d   1       1.537   3.419   1.875  0.00  0.00    -0.265 OA
ATOM      5  H   UNL d   1       0.056   3.030  -0.894  0.00  0.00     0.162 HD
BRANCH   3   6
ATOM      6  C   UNL d   1       1.301   1.471   0.573  0.00  0.00     0.142 A 
ATOM      7  O   UNL d   1       0.746   0.924  -0.557  0.00  0.00    -0.317 OA
ATOM      8  C   UNL d   1       1.089  -0.391  -0.572  0.00  0.00     0.143 A 
ATOM      9  C   UNL d   1       1.861  -0.703   0.522  0.00  0.00     0.027 A 
ATOM     10  C   UNL d   1       1.999   0.496   1.260  0.00  0.00     0.045 A 
ENDBRANCH   3   6
ENDBRANCH   1   2
BRANCH   1  11
ATOM     11  C   UNL d   1       1.355   5.863   0.002  0.00  0.00     0.195 C 
BRANCH  11  12
ATOM     12  O   UNL d   1       0.967   7.240  -0.008  0.00  0.00    -0.350 OA
BRANCH  12  13
ATOM     13  C   UNL d   1       2.004   8.135  -0.029  0.00  0.00     0.069 A 
ATOM     14  C   UNL d   1       1.692   9.405  -0.511  0.00  0.00     0.039 A 
ATOM     15  C   UNL d   1       2.678  10.393  -0.588  0.00  0.00     0.039 A 
ATOM     16  C   UNL d   1       3.984  10.129  -0.171  0.00  0.00     0.068 A 
ATOM     17  C   UNL d   1       4.291   8.867   0.335  0.00  0.00     0.039 A 
ATOM     18  C   UNL d   1       3.304   7.877   0.409  0.00  0.00     0.039 A 
BRANCH  16  19
ATOM     19  O   UNL d   1       4.857  11.174  -0.298  0.00  0.00    -0.356 OA
ATOM     20  C   UNL d   1       6.199  10.938   0.113  0.00  0.00     0.210 C 
ENDBRANCH  16  19
ENDBRANCH  12  13
ENDBRANCH  11  12
ENDBRANCH   1  11
TORSDOF 6
