REMARK  4 active torsions:
REMARK  status: ('A' for Active; 'I' for Inactive)
REMARK    1  A    between atoms: C_6  and  C_1 
REMARK    2  A    between atoms: C_5  and  C_2 
REMARK    3  A    between atoms: S_9  and  C_5 
REMARK    4  A    between atoms: C_14  and  S_9 
ROOT
ATOM      1  C   UNL d   1       1.318  -1.355  -0.888  0.00  0.00     0.139 A 
ATOM      2  C   UNL d   1       1.671  -0.132  -0.339  0.00  0.00     0.095 A 
ATOM      3  N   UNL d   1      -0.027  -1.698  -0.686  0.00  0.00    -0.349 N 
ATOM      4  HN  UNL d   1      -0.469  -2.548  -1.038  1.00  0.00     0.166 HD
ATOM      5  S   UNL d   1       0.318   0.589   0.429  0.00  0.00    -0.070 SA
ATOM      6  C   UNL d   1      -0.638  -0.773   0.019  0.00  0.00     0.048 A 
ATOM      7  C   UNL d   1      -2.048  -0.867   0.489  0.00  0.00     0.076 C 
ENDROOT
BRANCH   2   8
ATOM      8  C   UNL d   1       2.986   0.456  -0.257  0.00  0.00     0.233 C 
ATOM      9  O   UNL d   1       3.939  -0.114   0.254  0.00  0.00    -0.279 OA
BRANCH   8  10
ATOM     10  S   UNL d   1       3.095   2.035  -1.035  0.00  0.00    -0.047 SA
BRANCH  10  11
ATOM     11  C   UNL d   1       4.837   2.424  -1.091  0.00  0.00     0.008 A 
ATOM     12  C   UNL d   1       5.834   1.477  -1.353  0.00  0.00     0.019 A 
ATOM     13  C   UNL d   1       7.177   1.858  -1.435  0.00  0.00     0.001 A 
ATOM     14  C   UNL d   1       7.538   3.195  -1.285  0.00  0.00     0.000 A 
ATOM     15  C   UNL d   1       6.555   4.152  -1.047  0.00  0.00     0.001 A 
ATOM     16  C   UNL d   1       5.214   3.768  -0.951  0.00  0.00     0.019 A 
ENDBRANCH  10  11
ENDBRANCH   8  10
ENDBRANCH   2   8
BRANCH   1  17
ATOM     17  C   UNL d   1       2.228  -2.290  -1.636  0.00  0.00     0.434 C 
ATOM     18  F   UNL d   1       3.372  -1.679  -2.046  0.00  0.00    -0.165 F 
ATOM     19  F   UNL d   1       2.595  -3.357  -0.884  0.00  0.00    -0.165 F 
ATOM     20  F   UNL d   1       1.641  -2.780  -2.761  0.00  0.00    -0.165 F 
ENDBRANCH   1  17
TORSDOF 4
