REMARK  4 active torsions:
REMARK  status: ('A' for Active; 'I' for Inactive)
REMARK       I    between atoms: C_3  and  N_4 
REMARK    1  A    between atoms: C_8  and  C_3 
REMARK    2  A    between atoms: N_4  and  C_9 
REMARK    3  A    between atoms: S_5  and  C_8 
REMARK    4  A    between atoms: C_10  and  S_5 
ROOT
ATOM      1  N   UNL d   1      -2.598   4.062  -1.296  0.00  0.00    -0.191 NA
ATOM      2  C   UNL d   1      -1.488   3.760  -1.144  0.00  0.00     0.099 C 
ATOM      3  C   UNL d   1      -0.114   3.392  -0.961  0.00  0.00     0.044 A 
ATOM      4  C   UNL d   1       2.580   2.657  -0.605  0.00  0.00     0.034 A 
ATOM      5  C   UNL d   1       0.887   4.006  -1.717  0.00  0.00     0.025 A 
ATOM      6  C   UNL d   1       0.234   2.417  -0.023  0.00  0.00     0.025 A 
ATOM      7  C   UNL d   1       1.574   2.050   0.150  0.00  0.00     0.031 A 
ATOM      8  C   UNL d   1       2.227   3.646  -1.532  0.00  0.00     0.031 A 
ENDROOT
BRANCH   4   9
ATOM      9  N   UNL d   1       3.948   2.358  -0.468  0.00  0.00    -0.327 N 
ATOM     10  C   UNL d   1       4.526   1.353   0.291  0.00  0.00     0.231 C 
ATOM     11  O   UNL d   1       3.919   0.439   0.842  0.00  0.00    -0.272 OA
ATOM     12  H   UNL d   1       4.599   2.975  -0.945  0.00  0.00     0.169 HD
BRANCH  10  13
ATOM     13  C   UNL d   1       6.054   1.381   0.317  0.00  0.00     0.182 C 
BRANCH  13  14
ATOM     14  S   UNL d   1       6.688   3.093   0.386  0.00  0.00    -0.121 SA
BRANCH  14  15
ATOM     15  C   UNL d   1       8.458   2.899   0.522  0.00  0.00     0.001 A 
ATOM     16  C   UNL d   1       9.145   1.684   0.560  0.00  0.00     0.019 A 
ATOM     17  C   UNL d   1      10.543   1.659   0.666  0.00  0.00     0.008 A 
ATOM     18  C   UNL d   1      11.277   2.849   0.736  0.00  0.00    -0.062 A 
ATOM     19  C   UNL d   1      10.594   4.064   0.700  0.00  0.00     0.008 A 
ATOM     20  C   UNL d   1      12.773   2.811   0.844  0.00  0.00     0.048 C 
ATOM     21  C   UNL d   1       9.201   4.087   0.595  0.00  0.00     0.019 A 
ENDBRANCH  14  15
ENDBRANCH  13  14
ENDBRANCH  10  13
ENDBRANCH   4   9
TORSDOF 4
