REMARK  4 active torsions:
REMARK  status: ('A' for Active; 'I' for Inactive)
REMARK    1  A    between atoms: C_2  and  C_1 
REMARK    2  A    between atoms: C_4  and  C_1 
REMARK       I    between atoms: N_11  and  C_2 
REMARK    3  A    between atoms: C_12  and  C_3 
REMARK    4  A    between atoms: N_5  and  C_4 
ROOT
ATOM      1  C   UNL d   1       1.036  -0.090   0.025  0.00  0.00     0.094 C 
ATOM      2  C   UNL d   1       0.359  -0.839  -0.865  0.00  0.00     0.038 C 
ENDROOT
BRANCH   1   3
ATOM      3  C   UNL d   1       0.384   0.752   1.084  0.00  0.00     0.258 C 
ATOM      4  O   UNL d   1      -0.763   0.588   1.481  0.00  0.00    -0.267 OA
ATOM      5  N   UNL d   1       1.141   1.743   1.637  0.00  0.00    -0.365 N 
ATOM      6  H   UNL d   1       2.099   1.966   1.398  0.00  0.00     0.159 HD
ATOM      7  H   UNL d   1       0.702   2.299   2.362  0.00  0.00     0.159 HD
ENDBRANCH   1   3
BRANCH   1   8
ATOM      8  C   UNL d   1       2.557  -0.090   0.025  0.00  0.00    -0.031 C 
BRANCH   8   9
ATOM      9  N   UNL d   1       3.817  -0.090   0.025  0.00  0.00    -0.365 N 
ATOM     10  HN2 UNL d   1       2.797  -0.090   0.025  1.00  0.00     0.165 HD
ATOM     11  HN1 UNL d   1       4.837  -0.090   0.025  1.00  0.00     0.165 HD
ENDBRANCH   8   9
ENDBRANCH   1   8
BRANCH   2  12
ATOM     12  C   UNL d   1      -1.103  -0.914  -0.957  0.00  0.00    -0.032 A 
ATOM     13  C   UNL d   1      -1.807  -0.015  -1.759  0.00  0.00     0.028 A 
ATOM     14  C   UNL d   1      -3.191  -0.092  -1.772  0.00  0.00     0.088 A 
ATOM     15  N   UNL d   1      -3.902  -0.991  -1.058  0.00  0.00    -0.375 N 
ATOM     16  C   UNL d   1      -3.197  -1.840  -0.281  0.00  0.00     0.088 A 
ATOM     17  HN  UNL d   1      -4.920  -1.026  -1.104  1.00  0.00     0.164 HD
ATOM     18  C   UNL d   1      -1.813  -1.848  -0.203  0.00  0.00     0.028 A 
ENDBRANCH   2  12
TORSDOF 4
