REMARK  3 active torsions:
REMARK  status: ('A' for Active; 'I' for Inactive)
REMARK    1  A    between atoms: N_2  and  S_1 
REMARK    2  A    between atoms: C_4  and  S_1 
REMARK    3  A    between atoms: C_5  and  N_3 
ROOT
ATOM      1  N   UNL d   1       0.555  -1.083  -0.299  0.00  0.00    -0.204 NA
ATOM      2  N   UNL d   1      -1.111  -2.603   1.562  0.00  0.00    -0.267 NA
ATOM      3  C   UNL d   1      -0.923  -0.834  -0.189  0.00  0.00     0.122 C 
ATOM      4  C   UNL d   1       0.868  -2.499   0.094  0.00  0.00     0.122 C 
ATOM      5  C   UNL d   1      -1.479  -1.210   1.209  0.00  0.00     0.112 C 
ATOM      6  C   UNL d   1       0.353  -2.826   1.509  0.00  0.00     0.112 C 
ENDROOT
BRANCH   1   7
ATOM      7  S   UNL d   1       1.561   0.109   0.384  0.00  0.00     0.243 S 
ATOM      8  O   UNL d   1       2.820  -0.511   0.753  0.00  0.00    -0.206 OA
ATOM      9  O   UNL d   1       0.797   0.872   1.345  0.00  0.00    -0.206 OA
BRANCH   7  10
ATOM     10  C   UNL d   1       1.906   1.193  -0.993  0.00  0.00     0.074 A 
ATOM     11  C   UNL d   1       1.099   2.312  -1.218  0.00  0.00     0.025 A 
ATOM     12  C   UNL d   1       1.507   3.285  -2.136  0.00  0.00     0.008 A 
ATOM     13  C   UNL d   1       2.730   3.160  -2.810  0.00  0.00    -0.062 A 
ATOM     14  C   UNL d   1       3.501   2.006  -2.619  0.00  0.00     0.008 A 
ATOM     15  C   UNL d   1       3.208   4.248  -3.728  0.00  0.00     0.048 C 
ATOM     16  C   UNL d   1       3.096   1.027  -1.708  0.00  0.00     0.025 A 
ENDBRANCH   7  10
ENDBRANCH   1   7
BRANCH   2  17
ATOM     17  C   UNL d   1      -1.678  -2.996   2.796  0.00  0.00     0.082 A 
ATOM     18  N   UNL d   1      -0.887  -3.254   3.859  0.00  0.00    -0.357 N 
ATOM     19  C   UNL d   1      -1.476  -3.619   5.023  0.00  0.00     0.089 A 
ATOM     20  HN  UNL d   1       0.127  -3.175   3.788  1.00  0.00     0.166 HD
ATOM     21  C   UNL d   1      -2.840  -3.768   5.187  0.00  0.00     0.017 A 
ATOM     22  C   UNL d   1      -3.651  -3.531   4.089  0.00  0.00     0.005 A 
ATOM     23  C   UNL d   1      -3.065  -3.143   2.885  0.00  0.00     0.042 A 
ENDBRANCH   2  17
TORSDOF 3
