REMARK  6 active torsions:
REMARK  status: ('A' for Active; 'I' for Inactive)
REMARK    1  A    between atoms: N_2  and  C_1 
REMARK    2  A    between atoms: N_3  and  C_1 
REMARK    3  A    between atoms: C_8  and  N_2 
REMARK    4  A    between atoms: C_11  and  N_2 
REMARK    5  A    between atoms: C_7  and  N_3 
REMARK    6  A    between atoms: C_9  and  C_11 
ROOT
ATOM      1  N   UNL d   1       3.054   4.507   1.937  0.00  0.00    -0.197 NA
ATOM      2  C   UNL d   1       2.375   3.764   1.368  0.00  0.00     0.060 C 
ATOM      3  C   UNL d   1       1.518   2.830   0.618  0.00  0.00     0.143 C 
ENDROOT
BRANCH   3   4
ATOM      4  C   UNL d   1       0.835   1.815   1.540  0.00  0.00     0.139 C 
BRANCH   4   5
ATOM      5  N   UNL d   1      -0.088   0.905   0.800  0.00  0.00    -0.352 N 
BRANCH   5   6
ATOM      6  C   UNL d   1       0.450   0.061  -0.155  0.00  0.00     0.174 C 
ATOM      7  S   UNL d   1       0.099   0.231  -1.787  0.00  0.00    -0.041 SA
BRANCH   6   8
ATOM      8  N   UNL d   1       1.471  -0.791   0.170  0.00  0.00    -0.333 N 
ATOM      9  H   UNL d   1       1.984  -1.118  -0.644  0.00  0.00     0.168 HD
BRANCH   8  10
ATOM     10  C   UNL d   1       1.898  -1.316   1.406  0.00  0.00     0.034 C 
ATOM     11  C   UNL d   1       1.123  -1.244   2.558  0.00  0.00     0.036 C 
ATOM     12  C   UNL d   1       1.640  -1.556   3.814  0.00  0.00    -0.060 C 
ATOM     13  C   UNL d   1       0.843  -1.219   5.040  0.00  0.00     0.048 C 
ATOM     14  C   UNL d   1       2.914  -2.122   3.894  0.00  0.00     0.007 C 
ATOM     15  C   UNL d   1       3.656  -2.324   2.730  0.00  0.00     0.003 C 
ATOM     16  C   UNL d   1       3.159  -1.911   1.491  0.00  0.00     0.029 C 
ENDBRANCH   8  10
ENDBRANCH   6   8
ENDBRANCH   5   6
BRANCH   5  17
ATOM     17  C   UNL d   1      -1.488   0.772   1.323  0.00  0.00     0.086 C 
ATOM     18  C   UNL d   1      -2.349  -0.410   0.807  0.00  0.00     0.025 C 
ATOM     19  C   UNL d   1      -3.283  -0.121  -0.374  0.00  0.00     0.002 C 
ATOM     20  C   UNL d   1      -3.975   1.233  -0.301  0.00  0.00     0.000 C 
ATOM     21  C   UNL d   1      -2.996   2.355   0.009  0.00  0.00     0.002 C 
ATOM     22  C   UNL d   1      -2.278   2.089   1.321  0.00  0.00     0.025 C 
ENDBRANCH   5  17
ENDBRANCH   4   5
ENDBRANCH   3   4
TORSDOF 6
