REMARK  6 active torsions:
REMARK  status: ('A' for Active; 'I' for Inactive)
REMARK    1  A    between atoms: N_2  and  C_1 
REMARK    2  A    between atoms: N_3  and  C_1 
REMARK    3  A    between atoms: C_7  and  N_2 
REMARK    4  A    between atoms: C_12  and  N_2 
REMARK    5  A    between atoms: C_8  and  N_3 
REMARK    6  A    between atoms: C_9  and  C_12 
ROOT
ATOM      1  N   UNL d   1       3.550   1.576   4.698  0.00  0.00    -0.197 NA
ATOM      2  C   UNL d   1       2.823   1.015   3.991  0.00  0.00     0.060 C 
ATOM      3  C   UNL d   1       1.899   0.327   3.079  0.00  0.00     0.143 C 
ENDROOT
BRANCH   3   4
ATOM      4  C   UNL d   1       1.699   1.157   1.809  0.00  0.00     0.139 C 
BRANCH   4   5
ATOM      5  N   UNL d   1       0.669   0.589   0.918  0.00  0.00    -0.352 N 
BRANCH   5   6
ATOM      6  C   UNL d   1       0.922  -0.673   0.316  0.00  0.00     0.174 C 
ATOM      7  S   UNL d   1      -0.166  -1.945   0.420  0.00  0.00    -0.041 SA
BRANCH   6   8
ATOM      8  N   UNL d   1       2.115  -0.636  -0.399  0.00  0.00    -0.333 N 
ATOM      9  H   UNL d   1       2.349   0.310  -0.680  0.00  0.00     0.168 HD
BRANCH   8  10
ATOM     10  C   UNL d   1       2.807  -1.646  -1.100  0.00  0.00     0.034 A 
ATOM     11  C   UNL d   1       2.776  -3.000  -0.762  0.00  0.00     0.031 A 
ATOM     12  C   UNL d   1       3.488  -3.939  -1.518  0.00  0.00     0.026 A 
ATOM     13  C   UNL d   1       4.251  -3.524  -2.606  0.00  0.00     0.034 A 
ATOM     14  C   UNL d   1       4.319  -2.175  -2.936  0.00  0.00     0.026 A 
ATOM     15 CL   UNL d   1       5.118  -4.680  -3.538  0.00  0.00    -0.084 Cl
ATOM     16  C   UNL d   1       3.608  -1.239  -2.177  0.00  0.00     0.031 A 
ENDBRANCH   8  10
ENDBRANCH   6   8
ENDBRANCH   5   6
BRANCH   5  17
ATOM     17  C   UNL d   1      -0.648   1.261   0.693  0.00  0.00     0.086 C 
ATOM     18  C   UNL d   1      -0.779   1.648  -0.793  0.00  0.00     0.025 C 
ATOM     19  C   UNL d   1       0.085   2.858  -1.127  0.00  0.00     0.002 C 
ATOM     20  C   UNL d   1      -0.377   4.073  -0.335  0.00  0.00     0.000 C 
ATOM     21  C   UNL d   1      -0.407   3.820   1.169  0.00  0.00     0.002 C 
ATOM     22  C   UNL d   1      -1.015   2.471   1.577  0.00  0.00     0.025 C 
ENDBRANCH   5  17
ENDBRANCH   4   5
ENDBRANCH   3   4
TORSDOF 6
