REMARK  5 active torsions:
REMARK  status: ('A' for Active; 'I' for Inactive)
REMARK    1  A    between atoms: O_5  and  C_1 
REMARK    2  A    between atoms: N_11  and  C_2 
REMARK    3  A    between atoms: C_10  and  O_5 
REMARK    4  A    between atoms: C_16  and  N_11 
REMARK    5  A    between atoms: C_20  and  C_16 
ROOT
ATOM      1  C   UNL d   1      -0.498   1.054  -0.036  0.00  0.00     0.142 C 
ATOM      2  C   UNL d   1      -1.242  -0.129  -0.110  0.00  0.00     0.139 C 
ATOM      3  N   UNL d   1      -0.649  -1.333  -0.199  0.00  0.00    -0.330 N 
ATOM      4  HN  UNL d   1      -1.202  -2.189  -0.253  1.00  0.00     0.168 HD
ATOM      5  N   UNL d   1       1.480  -0.292  -0.250  0.00  0.00    -0.347 N 
ATOM      6  HN  UNL d   1       2.495  -0.378  -0.301  1.00  0.00     0.167 HD
ATOM      7  C   UNL d   1       0.876   0.919  -0.215  0.00  0.00     0.044 C 
ATOM      8  C   UNL d   1       0.689  -1.373  -0.216  0.00  0.00     0.079 C 
ATOM      9  C   UNL d   1       1.811   2.068  -0.449  0.00  0.00     0.071 C 
ATOM     10  C   UNL d   1       1.341  -2.718  -0.191  0.00  0.00     0.089 C 
ENDROOT
BRANCH   1  11
ATOM     11  O   UNL d   1      -1.198   2.238   0.061  0.00  0.00    -0.303 OA
BRANCH  11  12
ATOM     12  C   UNL d   1      -0.654   3.274   0.787  0.00  0.00     0.098 A 
ATOM     13  C   UNL d   1      -0.599   4.545   0.197  0.00  0.00     0.069 A 
ATOM     14  C   UNL d   1       0.030   5.601   0.857  0.00  0.00     0.050 A 
ATOM     15 CL   UNL d   1      -1.250   4.832  -1.376  0.00  0.00    -0.081 Cl
ATOM     16  C   UNL d   1       0.578   5.390   2.120  0.00  0.00     0.035 A 
ATOM     17  C   UNL d   1       0.469   4.146   2.744  0.00  0.00     0.026 A 
ATOM     18 CL   UNL d   1       1.410   6.671   2.912  0.00  0.00    -0.084 Cl
ATOM     19  C   UNL d   1      -0.164   3.088   2.085  0.00  0.00     0.041 A 
ENDBRANCH  11  12
ENDBRANCH   1  11
BRANCH   2  20
ATOM     20  N   UNL d   1      -2.637  -0.076  -0.145  0.00  0.00    -0.370 N 
ATOM     21  H   UNL d   1      -3.057   0.361   0.662  0.00  0.00     0.161 HD
BRANCH  20  22
ATOM     22  C   UNL d   1      -3.361  -1.192  -0.734  0.00  0.00     0.160 C 
BRANCH  22  23
ATOM     23  C   UNL d   1      -3.691  -2.363   0.168  0.00  0.00    -0.041 A 
ATOM     24  C   UNL d   1      -3.304  -2.465   1.508  0.00  0.00     0.009 A 
ATOM     25  C   UNL d   1      -3.633  -3.598   2.262  0.00  0.00     0.001 A 
ATOM     26  C   UNL d   1      -4.353  -4.643   1.687  0.00  0.00     0.000 A 
ATOM     27  C   UNL d   1      -4.749  -4.561   0.356  0.00  0.00     0.001 A 
ATOM     28  C   UNL d   1      -4.420  -3.430  -0.395  0.00  0.00     0.009 A 
ENDBRANCH  22  23
ENDBRANCH  20  22
ENDBRANCH   2  20
TORSDOF 5
