REMARK  8 active torsions:
REMARK  status: ('A' for Active; 'I' for Inactive)
REMARK    1  A    between atoms: C_9  and  N_1 
REMARK    2  A    between atoms: S_10  and  C_5 
REMARK    3  A    between atoms: C_22  and  S_10 
REMARK    4  A    between atoms: C_12  and  C_13 
REMARK    5  A    between atoms: O_21  and  C_23 
REMARK    6  A    between atoms: C_25  and  O_21 
REMARK    7  A    between atoms: C_24  and  C_22 
REMARK    8  A    between atoms: C_30  and  C_25 
ROOT
ATOM      1  N   UNL d   1      -0.278  -1.265  -0.016  0.00  0.00    -0.273 N 
ATOM      2  C   UNL d   1       0.960  -0.633   0.057  0.00  0.00     0.163 A 
ATOM      3  N   UNL d   1       0.795   0.674   0.126  0.00  0.00    -0.281 N 
ATOM      4  HN  UNL d   1       1.538   1.366   0.222  1.00  0.00     0.188 HD
ATOM      5  C   UNL d   1      -1.183  -0.205  -0.035  0.00  0.00     0.168 A 
ATOM      6  N   UNL d   1      -0.545   0.941   0.048  0.00  0.00    -0.278 N 
ATOM      7  HN  UNL d   1      -0.973   1.867   0.053  1.00  0.00     0.189 HD
ATOM      8  C   UNL d   1       2.251  -1.250  -0.021  0.00  0.00     0.120 A 
ATOM      9  O   UNL d   1       2.505  -2.386  -0.750  0.00  0.00    -0.319 OA
ATOM     10  C   UNL d   1       3.434  -0.849   0.581  0.00  0.00     0.043 A 
ATOM     11  C   UNL d   1       3.808  -2.715  -0.575  0.00  0.00     0.142 A 
ATOM     12  C   UNL d   1       4.425  -1.804   0.244  0.00  0.00     0.027 A 
ENDROOT
BRANCH   1  13
ATOM     13  C   UNL d   1      -0.541  -2.668  -0.008  0.00  0.00     0.043 A 
ATOM     14  C   UNL d   1       0.235  -3.534   0.776  0.00  0.00     0.033 A 
ATOM     15  C   UNL d   1      -0.038  -4.905   0.799  0.00  0.00     0.039 A 
ATOM     16  C   UNL d   1      -1.102  -5.423   0.065  0.00  0.00     0.069 A 
ATOM     17  C   UNL d   1      -1.847  -4.572  -0.751  0.00  0.00     0.039 A 
ATOM     18  C   UNL d   1      -1.573  -3.201  -0.786  0.00  0.00     0.033 A 
BRANCH  16  19
ATOM     19  O   UNL d   1      -1.330  -6.766   0.216  0.00  0.00    -0.347 OA
BRANCH  19  20
ATOM     20  C   UNL d   1      -2.676  -7.171  -0.049  0.00  0.00     0.214 C 
BRANCH  20  21
ATOM     21  C   UNL d   1      -2.981  -8.515   0.570  0.00  0.00    -0.034 A 
ATOM     22  C   UNL d   1      -4.243  -8.738   1.143  0.00  0.00     0.009 A 
ATOM     23  C   UNL d   1      -4.579  -9.987   1.664  0.00  0.00     0.001 A 
ATOM     24  C   UNL d   1      -3.659 -11.031   1.612  0.00  0.00     0.000 A 
ATOM     25  C   UNL d   1      -2.403 -10.825   1.040  0.00  0.00     0.001 A 
ATOM     26  C   UNL d   1      -2.066  -9.574   0.518  0.00  0.00     0.009 A 
ENDBRANCH  20  21
ENDBRANCH  19  20
ENDBRANCH  16  19
ENDBRANCH   1  13
BRANCH   5  27
ATOM     27  S   UNL d   1      -2.916  -0.354   0.059  0.00  0.00    -0.087 SA
BRANCH  27  28
ATOM     28  C   UNL d   1      -3.449   1.378  -0.098  0.00  0.00     0.121 C 
BRANCH  28  29
ATOM     29  C   UNL d   1      -4.957   1.502  -0.041  0.00  0.00    -0.049 A 
ATOM     30  C   UNL d   1      -5.613   1.709   1.177  0.00  0.00     0.008 A 
ATOM     31  C   UNL d   1      -7.008   1.815   1.232  0.00  0.00     0.008 A 
ATOM     32  C   UNL d   1      -7.805   1.715   0.074  0.00  0.00    -0.051 A 
ATOM     33  C   UNL d   1      -7.135   1.500  -1.140  0.00  0.00     0.008 A 
ATOM     34  C   UNL d   1      -5.734   1.393  -1.198  0.00  0.00     0.008 A 
BRANCH  32  35
ATOM     35  C   UNL d   1      -9.339   1.831   0.174  0.00  0.00    -0.024 C 
ATOM     36  C   UNL d   1     -10.065   1.730  -1.187  0.00  0.00     0.019 C 
ATOM     37  C   UNL d   1      -9.887   0.697   1.067  0.00  0.00     0.019 C 
ATOM     38  C   UNL d   1      -9.728   3.191   0.793  0.00  0.00     0.019 C 
ENDBRANCH  32  35
ENDBRANCH  28  29
ENDBRANCH  27  28
ENDBRANCH   5  27
TORSDOF 8
