REMARK  6 active torsions:
REMARK  status: ('A' for Active; 'I' for Inactive)
REMARK    1  A    between atoms: C_5  and  C_1 
REMARK    2  A    between atoms: N_2  and  C_4 
REMARK    3  A    between atoms: S_10  and  C_3 
REMARK       I    between atoms: C_6  and  N_12 
REMARK       I    between atoms: N_11  and  C_6 
REMARK    4  A    between atoms: C_14  and  S_10 
REMARK    5  A    between atoms: C_13  and  N_11 
REMARK    6  A    between atoms: N_12  and  C_16 
ROOT
ATOM      1  C   UNL d   1      -0.885   4.191  -0.780  0.00  0.00     0.028 A 
ATOM      2  C   UNL d   1       0.284   4.186  -1.562  0.00  0.00     0.034 A 
ATOM      3  C   UNL d   1      -1.211   5.375  -0.095  0.00  0.00     0.021 A 
ATOM      4  C   UNL d   1       1.047   5.357  -1.719  0.00  0.00     0.025 A 
ATOM      5  C   UNL d   1      -0.407   6.516  -0.195  0.00  0.00     0.001 A 
ATOM      6  C   UNL d   1       0.706   6.513  -1.028  0.00  0.00     0.002 A 
ENDROOT
BRANCH   1   7
ATOM      7  S   UNL d   1      -2.134   2.909  -0.858  0.00  0.00    -0.070 SA
BRANCH   7   8
ATOM      8  C   UNL d   1      -1.656   1.759   0.405  0.00  0.00     0.089 A 
ATOM      9  C   UNL d   1      -1.873   1.923   1.774  0.00  0.00     0.084 A 
ATOM     10  C   UNL d   1      -1.377   0.924   2.644  0.00  0.00     0.056 A 
ATOM     11  C   UNL d   1      -0.755  -0.202   2.122  0.00  0.00     0.119 A 
ATOM     12  C   UNL d   1      -0.661  -0.330   0.753  0.00  0.00     0.124 A 
ATOM     13  N   UNL d   1      -1.120   0.613  -0.102  0.00  0.00    -0.357 N 
ATOM     14  HN  UNL d   1      -1.066   0.468  -1.110  1.00  0.00     0.166 HD
BRANCH   9  15
ATOM     15  C   UNL d   1      -2.594   3.092   2.375  0.00  0.00     0.420 C 
ATOM     16  F   UNL d   1      -3.518   3.689   1.577  0.00  0.00    -0.166 F 
ATOM     17  F   UNL d   1      -3.292   2.732   3.495  0.00  0.00    -0.166 F 
ATOM     18  F   UNL d   1      -1.750   4.078   2.785  0.00  0.00    -0.166 F 
ENDBRANCH   9  15
BRANCH  11  19
ATOM     19  N   UNL d   1      -0.236  -1.251   2.985  0.00  0.00    -0.114 N 
ATOM     20  O   UNL d   1      -0.302  -1.067   4.210  0.00  0.00    -0.532 OA
ATOM     21  O   UNL d   1       0.228  -2.265   2.457  0.00  0.00    -0.532 OA
ENDBRANCH  11  19
ENDBRANCH   7   8
ENDBRANCH   1   7
BRANCH   2  22
ATOM     22  N   UNL d   1       0.801   3.026  -2.200  0.00  0.00    -0.209 NA
ATOM     23  C   UNL d   1       1.541   2.151  -1.392  0.00  0.00     0.303 C 
ATOM     24  N   UNL d   1       2.382   1.390  -2.193  0.00  0.00    -0.310 N 
ATOM     25  O   UNL d   1       1.485   2.127  -0.171  0.00  0.00    -0.253 OA
ATOM     26  H   UNL d   1       2.074   1.292  -3.149  0.00  0.00     0.170 HD
ATOM     27  H   UNL d   1       1.343   3.246  -3.023  0.00  0.00     0.138 HD
BRANCH  24  28
ATOM     28  C   UNL d   1       3.471   0.584  -1.791  0.00  0.00     0.074 A 
ATOM     29  C   UNL d   1       4.076   0.587  -0.524  0.00  0.00     0.146 A 
ATOM     30  C   UNL d   1       5.145  -0.258  -0.232  0.00  0.00     0.086 A 
ATOM     31  F   UNL d   1       3.706   1.435   0.442  0.00  0.00    -0.204 F 
ATOM     32  C   UNL d   1       5.637  -1.099  -1.217  0.00  0.00     0.119 A 
ATOM     33  C   UNL d   1       5.084  -1.103  -2.490  0.00  0.00     0.044 A 
ATOM     34  F   UNL d   1       6.670  -1.907  -0.944  0.00  0.00    -0.206 F 
ATOM     35  C   UNL d   1       4.006  -0.262  -2.777  0.00  0.00     0.036 A 
ENDBRANCH  24  28
ENDBRANCH   2  22
TORSDOF 6
