REMARK  2 active torsions:
REMARK  status: ('A' for Active; 'I' for Inactive)
REMARK    1  A    between atoms: C_15  and  N_1 
REMARK    2  A    between atoms: C_18  and  C_15 
ROOT
ATOM      1  N   UNL d   1       3.033   0.618   0.132  0.00  0.00    -0.250 N 
ATOM      2  C   UNL d   1      -0.615   0.473  -0.083  0.00  0.00     0.062 A 
ATOM      3  N   UNL d   1       1.832   1.382  -0.172  0.00  0.00    -0.289 N 
ATOM      4  C   UNL d   1       0.800   0.452  -0.072  0.00  0.00     0.083 A 
ATOM      5  C   UNL d   1       1.326  -0.848   0.098  0.00  0.00     0.078 A 
ATOM      6  C   UNL d   1       2.758  -0.762   0.208  0.00  0.00     0.276 C 
ATOM      7  C   UNL d   1      -1.267  -0.733  -0.019  0.00  0.00     0.136 A 
ATOM      8  N   UNL d   1      -2.784   0.972  -0.117  0.00  0.00    -0.301 N 
ATOM      9  HN  UNL d   1      -3.675   1.467  -0.150  1.00  0.00     0.187 HD
ATOM     10  N   UNL d   1      -2.585  -0.370  -0.070  0.00  0.00    -0.280 N 
ATOM     11  C   UNL d   1      -1.541   1.510  -0.110  0.00  0.00     0.038 A 
ATOM     12  N   UNL d   1      -0.760  -1.974   0.079  0.00  0.00    -0.349 N 
ATOM     13  HN  UNL d   1      -1.342  -2.812   0.093  1.00  0.00     0.167 HD
ATOM     14  C   UNL d   1       0.583  -2.015   0.158  0.00  0.00     0.109 A 
ATOM     15  O   UNL d   1       3.599  -1.644   0.341  0.00  0.00    -0.266 OA
ATOM     16  C   UNL d   1       1.802   2.803   0.078  0.00  0.00     0.178 C 
ATOM     17  C   UNL d   1      -3.717  -1.260  -0.047  0.00  0.00     0.179 C 
ATOM     18  C   UNL d   1      -1.435   2.982  -0.084  0.00  0.00     0.071 C 
ENDROOT
BRANCH   1  19
ATOM     19  C   UNL d   1       4.381   1.136   0.004  0.00  0.00     0.191 C 
BRANCH  19  20
ATOM     20  C   UNL d   1       4.917   1.662   1.318  0.00  0.00    -0.038 A 
ATOM     21  C   UNL d   1       5.030   0.819   2.437  0.00  0.00     0.010 A 
ATOM     22  C   UNL d   1       5.470   1.319   3.665  0.00  0.00     0.024 A 
ATOM     23  C   UNL d   1       5.814   2.662   3.780  0.00  0.00     0.034 A 
ATOM     24  C   UNL d   1       5.751   3.503   2.671  0.00  0.00     0.024 A 
ATOM     25 CL   UNL d   1       6.313   3.292   5.302  0.00  0.00    -0.084 Cl
ATOM     26  C   UNL d   1       5.311   3.003   1.442  0.00  0.00     0.010 A 
ENDBRANCH  19  20
ENDBRANCH   1  19
TORSDOF 2
