REMARK  4 active torsions:
REMARK  status: ('A' for Active; 'I' for Inactive)
REMARK    1  A    between atoms: C_6  and  C_1 
REMARK    2  A    between atoms: C_3  and  C_2 
REMARK       I    between atoms: N_7  and  C_3 
REMARK    3  A    between atoms: C_8  and  N_7 
REMARK    4  A    between atoms: C_11  and  C_8 
ROOT
ATOM      1  C   UNL d   1      -1.203  -0.607   0.356  0.00  0.00     0.086 C 
ATOM      2  C   UNL d   1       0.055  -1.260   0.103  0.00  0.00     0.093 C 
ATOM      3  N   UNL d   1      -1.071   0.717   0.153  0.00  0.00    -0.259 N 
ATOM      4  HN  UNL d   1      -1.823   1.406   0.131  1.00  0.00     0.195 HD
ATOM      5  O   UNL d   1       0.263   0.962  -0.017  0.00  0.00    -0.241 OA
ATOM      6  C   UNL d   1       0.947  -0.205   0.002  0.00  0.00     0.090 C 
ATOM      7  C   UNL d   1       2.418  -0.055  -0.042  0.00  0.00     0.080 C 
ENDROOT
BRANCH   2   8
ATOM      8  C   UNL d   1       0.377  -2.679   0.057  0.00  0.00     0.262 C 
ATOM      9  N   UNL d   1       1.443  -2.995  -0.793  0.00  0.00    -0.308 N 
ATOM     10  H   UNL d   1       1.854  -2.218  -1.277  0.00  0.00     0.170 HD
ATOM     11  O   UNL d   1      -0.261  -3.515   0.684  0.00  0.00    -0.267 OA
BRANCH   9  12
ATOM     12  C   UNL d   1       2.016  -4.235  -1.005  0.00  0.00     0.112 C 
ATOM     13  N   UNL d   1       1.452  -5.311  -0.574  0.00  0.00    -0.385 N 
ATOM     14  H   UNL d   1       0.565  -5.075  -0.100  0.00  0.00     0.157 HD
ATOM     15  HN  UNL d   1       1.826  -6.254  -0.683  1.00  0.00     0.157 HD
BRANCH  12  16
ATOM     16  C   UNL d   1       3.343  -4.302  -1.708  0.00  0.00     0.008 A 
ATOM     17  C   UNL d   1       3.948  -3.211  -2.353  0.00  0.00     0.017 A 
ATOM     18  C   UNL d   1       5.239  -3.329  -2.891  0.00  0.00     0.025 A 
ATOM     19  C   UNL d   1       5.928  -4.539  -2.800  0.00  0.00     0.034 A 
ATOM     20  C   UNL d   1       5.329  -5.639  -2.195  0.00  0.00     0.025 A 
ATOM     21 CL   UNL d   1       7.522  -4.665  -3.425  0.00  0.00    -0.084 Cl
ATOM     22  C   UNL d   1       4.045  -5.521  -1.657  0.00  0.00     0.017 A 
ENDBRANCH  12  16
ENDBRANCH   9  12
ENDBRANCH   2   8
BRANCH   1  23
ATOM     23  C   UNL d   1      -2.513  -1.124   0.776  0.00  0.00     0.037 A 
ATOM     24  C   UNL d   1      -3.161  -0.571   1.909  0.00  0.00     0.048 A 
ATOM     25 CL   UNL d   1      -2.439   0.641   2.925  0.00  0.00    -0.083 Cl
ATOM     26  C   UNL d   1      -4.442  -0.990   2.296  0.00  0.00     0.025 A 
ATOM     27  C   UNL d   1      -5.089  -1.997   1.594  0.00  0.00     0.003 A 
ATOM     28  C   UNL d   1      -4.465  -2.568   0.487  0.00  0.00     0.025 A 
ATOM     29  C   UNL d   1      -3.202  -2.121   0.063  0.00  0.00     0.048 A 
ATOM     30 CL   UNL d   1      -2.608  -2.804  -1.415  0.00  0.00    -0.083 Cl
ENDBRANCH   1  23
TORSDOF 4
