REMARK  4 active torsions:
REMARK  status: ('A' for Active; 'I' for Inactive)
REMARK    1  A    between atoms: C_3  and  C_1 
REMARK       I    between atoms: N_10  and  C_3 
REMARK    2  A    between atoms: C_4  and  C_7 
REMARK    3  A    between atoms: C_14  and  N_10 
REMARK    4  A    between atoms: C_25  and  C_23 
ROOT
ATOM      1  C   UNL d   1      -8.683  -1.970  -0.014  0.00  0.00     0.068 A 
ATOM      2  C   UNL d   1      -8.196  -0.703  -0.364  0.00  0.00     0.061 A 
ATOM      3  N   UNL d   1      -9.697   1.395  -0.645  0.00  0.00    -0.191 NA
ATOM      4  C   UNL d   1      -9.042   0.449  -0.520  0.00  0.00     0.100 C 
ATOM      5  C   UNL d   1      -7.760  -3.029   0.115  0.00  0.00     0.020 A 
ATOM      6  C   UNL d   1      -5.903  -1.538  -0.339  0.00  0.00     0.036 A 
ATOM      7  C   UNL d   1      -6.818  -0.507  -0.545  0.00  0.00     0.053 A 
ATOM      8  C   UNL d   1      -6.386  -2.816  -0.050  0.00  0.00     0.030 A 
ENDROOT
BRANCH   1   9
ATOM      9  C   UNL d   1     -10.142  -2.254   0.258  0.00  0.00     0.418 C 
ATOM     10  F   UNL d   1     -10.978  -1.197   0.115  0.00  0.00    -0.166 F 
ATOM     11  F   UNL d   1     -10.631  -3.227  -0.561  0.00  0.00    -0.166 F 
ATOM     12  F   UNL d   1     -10.336  -2.709   1.528  0.00  0.00    -0.166 F 
ENDBRANCH   1   9
BRANCH   6  13
ATOM     13  N   UNL d   1      -4.506  -1.342  -0.377  0.00  0.00    -0.322 N 
ATOM     14  C   UNL d   1      -3.856  -0.119  -0.294  0.00  0.00     0.272 C 
ATOM     15  O   UNL d   1      -4.414   0.966  -0.176  0.00  0.00    -0.266 OA
ATOM     16  H   UNL d   1      -3.928  -2.167  -0.293  0.00  0.00     0.169 HD
BRANCH  14  17
ATOM     17  C   UNL d   1      -2.410  -0.193  -0.290  0.00  0.00     0.102 A 
ATOM     18  N   UNL d   1      -1.645   0.939  -0.088  0.00  0.00    -0.351 N 
ATOM     19  C   UNL d   1      -0.306   0.636  -0.082  0.00  0.00     0.043 A 
ATOM     20  H   UNL d   1      -2.041   1.860   0.064  0.00  0.00     0.166 HD
ATOM     21  C   UNL d   1       0.813   1.456   0.088  0.00  0.00     0.031 A 
ATOM     22  C   UNL d   1      -0.205  -0.735  -0.282  0.00  0.00    -0.007 A 
ATOM     23  C   UNL d   1       2.075   0.844   0.079  0.00  0.00     0.009 A 
ATOM     24  C   UNL d   1       2.221  -0.539  -0.086  0.00  0.00    -0.058 A 
ATOM     25  C   UNL d   1       1.070  -1.327  -0.277  0.00  0.00     0.021 A 
ATOM     26  C   UNL d   1      -1.522  -1.239  -0.456  0.00  0.00     0.049 A 
BRANCH  24  27
ATOM     27  C   UNL d   1       3.550  -1.259  -0.061  0.00  0.00     0.034 C 
ATOM     28  C   UNL d   1       4.801  -0.410   0.099  0.00  0.00     0.010 C 
ENDBRANCH  24  27
ENDBRANCH  14  17
ENDBRANCH   6  13
TORSDOF 4
