REMARK  6 active torsions:
REMARK  status: ('A' for Active; 'I' for Inactive)
REMARK    1  A    between atoms: N_6  and  C_1 
REMARK    2  A    between atoms: C_9  and  N_4 
REMARK       I    between atoms: C_8  and  N_6 
REMARK    3  A    between atoms: C_15  and  C_8 
REMARK    4  A    between atoms: C_10  and  C_16 
REMARK    5  A    between atoms: O_17  and  C_10 
REMARK    6  A    between atoms: C_16  and  C_15 
ROOT
ATOM      1  C   UNL d   1      -0.290  -1.223  -0.051  0.00  0.00     0.129 A 
ATOM      2  C   UNL d   1       1.104  -0.684  -0.197  0.00  0.00     0.295 A 
ATOM      3  N   UNL d   1      -0.315   1.039   0.339  0.00  0.00    -0.289 N 
ATOM      4  N   UNL d   1       1.040   0.684   0.052  0.00  0.00    -0.217 N 
ATOM      5  C   UNL d   1      -1.066  -0.150   0.196  0.00  0.00     0.057 A 
ATOM      6  O   UNL d   1       2.055  -1.408  -0.455  0.00  0.00    -0.264 OA
ATOM      7  C   UNL d   1      -0.779   2.333  -0.174  0.00  0.00     0.178 C 
ATOM      8  C   UNL d   1      -2.562  -0.150   0.255  0.00  0.00     0.072 C 
ENDROOT
BRANCH   1   9
ATOM      9  N   UNL d   1      -0.492  -2.569  -0.218  0.00  0.00    -0.321 N 
ATOM     10  C   UNL d   1      -1.621  -3.320   0.004  0.00  0.00     0.222 C 
ATOM     11  O   UNL d   1      -2.708  -2.906   0.393  0.00  0.00    -0.273 OA
ATOM     12  H   UNL d   1       0.357  -3.067  -0.484  0.00  0.00     0.169 HD
BRANCH  10  13
ATOM     13  C   UNL d   1      -1.445  -4.799  -0.290  0.00  0.00     0.113 C 
BRANCH  13  14
ATOM     14  C   UNL d   1      -2.324  -5.197  -1.470  0.00  0.00     0.120 C 
BRANCH  14  15
ATOM     15  C   UNL d   1      -1.789  -4.602  -2.746  0.00  0.00     0.258 C 
ATOM     16  O   UNL d   1      -0.617  -4.311  -2.936  0.00  0.00    -0.265 OA
BRANCH  15  17
ATOM     17  O   UNL d   1      -2.790  -4.463  -3.659  0.00  0.00    -0.326 OA
ATOM     18  C   UNL d   1      -2.371  -3.875  -4.893  0.00  0.00     0.213 C 
ENDBRANCH  15  17
ENDBRANCH  14  15
ENDBRANCH  13  14
ENDBRANCH  10  13
ENDBRANCH   1   9
BRANCH   4  19
ATOM     19  C   UNL d   1       2.126   1.592   0.058  0.00  0.00     0.060 A 
ATOM     20  C   UNL d   1       3.246   1.350  -0.752  0.00  0.00     0.031 A 
ATOM     21  C   UNL d   1       4.300   2.268  -0.821  0.00  0.00     0.002 A 
ATOM     22  C   UNL d   1       4.260   3.433  -0.062  0.00  0.00     0.000 A 
ATOM     23  C   UNL d   1       3.177   3.670   0.779  0.00  0.00     0.002 A 
ATOM     24  C   UNL d   1       2.121   2.752   0.842  0.00  0.00     0.031 A 
ENDBRANCH   4  19
TORSDOF 6
