REMARK  5 active torsions:
REMARK  status: ('A' for Active; 'I' for Inactive)
REMARK    1  A    between atoms: C_3  and  C_1 
REMARK    2  A    between atoms: S_13  and  C_6 
REMARK    3  A    between atoms: C_18  and  S_13 
REMARK    4  A    between atoms: C_15  and  C_18 
REMARK       I    between atoms: N_16  and  C_15 
REMARK    5  A    between atoms: C_20  and  N_16 
ROOT
ATOM      1  C   UNL d   1      -1.372   0.304  -0.030  0.00  0.00     0.153 A 
ATOM      2  N   UNL d   1      -0.880  -0.489   0.984  0.00  0.00    -0.314 N 
ATOM      3  N   UNL d   1      -0.662   0.084  -1.122  0.00  0.00    -0.281 N 
ATOM      4  HN  UNL d   1      -0.813   0.522  -2.030  1.00  0.00     0.188 HD
ATOM      5  C   UNL d   1       0.166  -1.181   0.429  0.00  0.00     0.163 A 
ATOM      6  N   UNL d   1       0.314  -0.834  -0.827  0.00  0.00    -0.278 N 
ATOM      7  HN  UNL d   1       1.025  -1.183  -1.468  1.00  0.00     0.189 HD
ATOM      8  C   UNL d   1      -1.395  -0.640   2.319  0.00  0.00     0.160 C 
ENDROOT
BRANCH   5   9
ATOM      9  S   UNL d   1       1.109  -2.374   1.265  0.00  0.00    -0.083 SA
BRANCH   9  10
ATOM     10  C   UNL d   1       2.326  -2.759  -0.029  0.00  0.00     0.185 C 
BRANCH  10  11
ATOM     11  C   UNL d   1       3.262  -3.919   0.289  0.00  0.00     0.231 C 
ATOM     12  N   UNL d   1       2.821  -4.818   1.240  0.00  0.00    -0.327 N 
ATOM     13  H   UNL d   1       1.923  -4.612   1.665  0.00  0.00     0.169 HD
ATOM     14  O   UNL d   1       4.301  -4.032  -0.364  0.00  0.00    -0.272 OA
BRANCH  12  15
ATOM     15  C   UNL d   1       3.458  -6.009   1.659  0.00  0.00     0.034 A 
ATOM     16  C   UNL d   1       4.727  -6.410   1.227  0.00  0.00     0.029 A 
ATOM     17  C   UNL d   1       5.284  -7.615   1.655  0.00  0.00     0.002 A 
ATOM     18  C   UNL d   1       4.576  -8.441   2.527  0.00  0.00     0.000 A 
ATOM     19  C   UNL d   1       3.317  -8.049   2.978  0.00  0.00     0.002 A 
ATOM     20  C   UNL d   1       2.764  -6.837   2.552  0.00  0.00     0.029 A 
ENDBRANCH  12  15
ENDBRANCH  10  11
ENDBRANCH   9  10
ENDBRANCH   5   9
BRANCH   1  21
ATOM     21  C   UNL d   1      -2.529   1.248   0.001  0.00  0.00     0.102 A 
ATOM     22  N   UNL d   1      -3.162   1.618   1.120  0.00  0.00    -0.257 N 
ATOM     23  O   UNL d   1      -4.197   2.441   0.714  0.00  0.00    -0.242 OA
ATOM     24  HN  UNL d   1      -2.929   1.349   2.076  1.00  0.00     0.195 HD
ATOM     25  C   UNL d   1      -4.182   2.553  -0.641  0.00  0.00     0.074 A 
ATOM     26  C   UNL d   1      -3.117   1.844  -1.139  0.00  0.00     0.070 A 
ATOM     27  C   UNL d   1      -5.266   3.348  -1.244  0.00  0.00     0.079 C 
ENDBRANCH   1  21
TORSDOF 5
