REMARK  6 active torsions:
REMARK  status: ('A' for Active; 'I' for Inactive)
REMARK    1  A    between atoms: C_10  and  C_1 
REMARK    2  A    between atoms: N_7  and  C_2 
REMARK    3  A    between atoms: C_6  and  C_3 
REMARK       I    between atoms: C_9  and  N_7 
REMARK       I    between atoms: N_15  and  C_9 
REMARK    4  A    between atoms: O_22  and  C_10 
REMARK    5  A    between atoms: C_12  and  C_21 
REMARK    6  A    between atoms: C_21  and  N_15 
ROOT
ATOM      1  C   UNL d   1      -1.268  -0.349   0.661  0.00  0.00     0.122 C 
ATOM      2  C   UNL d   1      -0.939   0.875   0.103  0.00  0.00     0.193 C 
ATOM      3  C   UNL d   1      -0.228  -1.226   0.194  0.00  0.00     0.089 C 
ATOM      4  N   UNL d   1       0.717  -0.508  -0.435  0.00  0.00    -0.257 N 
ATOM      5  HN  UNL d   1       1.591  -0.863  -0.823  1.00  0.00     0.195 HD
ATOM      6  O   UNL d   1       0.288   0.782  -0.457  0.00  0.00    -0.218 OA
ENDROOT
BRANCH   2   7
ATOM      7  N   UNL d   1      -1.624   2.060  -0.013  0.00  0.00    -0.286 N 
ATOM      8  C   UNL d   1      -1.209   3.205  -0.630  0.00  0.00     0.322 C 
ATOM      9  N   UNL d   1       0.092   3.294  -1.017  0.00  0.00    -0.338 N 
ATOM     10  O   UNL d   1      -2.006   4.130  -0.773  0.00  0.00    -0.247 OA
ATOM     11  H   UNL d   1       0.586   2.433  -1.204  0.00  0.00     0.164 HD
ATOM     12  H   UNL d   1      -2.593   2.077   0.284  0.00  0.00     0.172 HD
BRANCH   9  13
ATOM     13  C   UNL d   1       0.592   4.484  -1.669  0.00  0.00     0.170 C 
BRANCH  13  14
ATOM     14  C   UNL d   1       2.075   4.380  -1.824  0.00  0.00     0.000 A 
ATOM     15  S   UNL d   1       2.787   4.446  -3.384  0.00  0.00    -0.105 SA
ATOM     16  C   UNL d   1       4.371   4.327  -2.745  0.00  0.00     0.050 A 
ATOM     17  C   UNL d   1       4.364   4.225  -1.371  0.00  0.00     0.008 A 
ATOM     18  C   UNL d   1       3.045   4.253  -0.841  0.00  0.00     0.017 A 
ENDBRANCH  13  14
ENDBRANCH   9  13
ENDBRANCH   2   7
BRANCH   1  19
ATOM     19  C   UNL d   1      -2.452  -0.650   1.431  0.00  0.00     0.299 C 
ATOM     20  O   UNL d   1      -2.508  -1.572   2.240  0.00  0.00    -0.259 OA
BRANCH  19  21
ATOM     21  O   UNL d   1      -3.502   0.163   1.113  0.00  0.00    -0.322 OA
ATOM     22  C   UNL d   1      -4.762  -0.254   1.649  0.00  0.00     0.213 C 
ENDBRANCH  19  21
ENDBRANCH   1  19
BRANCH   3  23
ATOM     23  C   UNL d   1      -0.114  -2.696   0.140  0.00  0.00     0.037 A 
ATOM     24  C   UNL d   1      -1.183  -3.509  -0.299  0.00  0.00     0.048 A 
ATOM     25 CL   UNL d   1      -2.771  -2.919  -0.672  0.00  0.00    -0.083 Cl
ATOM     26  C   UNL d   1      -0.993  -4.870  -0.584  0.00  0.00     0.025 A 
ATOM     27  C   UNL d   1       0.270  -5.441  -0.507  0.00  0.00     0.003 A 
ATOM     28  C   UNL d   1       1.339  -4.669  -0.071  0.00  0.00     0.025 A 
ATOM     29  C   UNL d   1       1.148  -3.325   0.286  0.00  0.00     0.048 A 
ATOM     30 CL   UNL d   1       2.558  -2.516   0.899  0.00  0.00    -0.083 Cl
ENDBRANCH   3  23
TORSDOF 6
