REMARK  9 active torsions:
REMARK  status: ('A' for Active; 'I' for Inactive)
REMARK    1  A    between atoms: C_2  and  S_1 
REMARK    2  A    between atoms: N_9  and  S_1 
REMARK       I    between atoms: C_5  and  N_8 
REMARK    3  A    between atoms: C_11  and  C_5 
REMARK    4  A    between atoms: C_6  and  C_11 
REMARK    5  A    between atoms: C_13  and  C_6 
REMARK    6  A    between atoms: C_7  and  C_13 
REMARK    7  A    between atoms: O_18  and  C_7 
REMARK    8  A    between atoms: N_8  and  N_10 
REMARK    9  A    between atoms: N_10  and  C_17 
ROOT
ATOM      1  C   UNL d   1      -1.831   6.512   3.167  0.00  0.00     0.232 C 
ATOM      2  N   UNL d   1      -2.978   6.651   3.937  0.00  0.00    -0.287 N 
ATOM      3  O   UNL d   1      -1.234   5.444   3.047  0.00  0.00    -0.272 OA
ATOM      4  H   UNL d   1      -3.224   7.564   4.307  0.00  0.00     0.184 HD
ENDROOT
BRANCH   2   5
ATOM      5  N   UNL d   1      -3.307   5.549   4.753  0.00  0.00    -0.203 NA
ATOM      6  H   UNL d   1      -2.806   4.710   4.433  0.00  0.00     0.153 HD
BRANCH   5   7
ATOM      7  C   UNL d   1      -4.697   5.310   4.904  0.00  0.00     0.027 A 
ATOM      8  C   UNL d   1      -5.138   3.994   5.129  0.00  0.00     0.026 A 
ATOM      9  C   UNL d   1      -6.475   3.715   5.441  0.00  0.00     0.026 A 
ATOM     10  C   UNL d   1      -7.386   4.765   5.551  0.00  0.00     0.074 A 
ATOM     11  C   UNL d   1      -6.969   6.082   5.349  0.00  0.00     0.026 A 
ATOM     12  C   UNL d   1      -5.632   6.348   5.032  0.00  0.00     0.026 A 
BRANCH  10  13
ATOM     13  S   UNL d   1      -9.043   4.458   6.093  0.00  0.00     0.239 S 
ATOM     14  O   UNL d   1      -9.547   5.633   6.764  0.00  0.00    -0.206 OA
ATOM     15  O   UNL d   1      -9.113   3.143   6.681  0.00  0.00    -0.206 OA
BRANCH  13  16
ATOM     16  N   UNL d   1      -9.887   4.358   4.646  0.00  0.00    -0.225 NA
ATOM     17  H   UNL d   1     -10.532   5.144   4.567  0.00  0.00     0.136 HD
ATOM     18  H   UNL d   1     -10.348   3.448   4.585  0.00  0.00     0.136 HD
ENDBRANCH  13  16
ENDBRANCH  10  13
ENDBRANCH   5   7
ENDBRANCH   2   5
BRANCH   1  19
ATOM     19  C   UNL d   1      -1.385   7.809   2.515  0.00  0.00     0.114 C 
BRANCH  19  20
ATOM     20  C   UNL d   1      -0.540   7.650   1.227  0.00  0.00    -0.023 C 
ATOM     21  C   UNL d   1       0.843   7.005   1.481  0.00  0.00     0.010 C 
ATOM     22  C   UNL d   1       1.752   7.520   0.360  0.00  0.00     0.001 C 
ATOM     23  C   UNL d   1       1.109   8.802  -0.161  0.00  0.00     0.001 C 
ATOM     24  C   UNL d   1      -0.093   9.048   0.741  0.00  0.00     0.010 C 
BRANCH  20  25
ATOM     25  C   UNL d   1      -1.264   6.812   0.136  0.00  0.00     0.119 C 
BRANCH  25  26
ATOM     26  C   UNL d   1      -2.646   7.268  -0.272  0.00  0.00     0.140 C 
ATOM     27  O   UNL d   1      -3.152   8.341  -0.003  0.00  0.00    -0.650 OA
BRANCH  26  28
ATOM     28  O   UNL d   1      -3.284   6.331  -1.019  0.00  0.00    -0.776 OA
ATOM     29  H   UNL d   1      -2.764   5.516  -1.154  0.00  0.00     0.167 HD
ENDBRANCH  26  28
ENDBRANCH  25  26
ENDBRANCH  20  25
ENDBRANCH  19  20
ENDBRANCH   1  19
TORSDOF 9
