REMARK  8 active torsions:
REMARK  status: ('A' for Active; 'I' for Inactive)
REMARK    1  A    between atoms: C_3  and  C_1 
REMARK       I    between atoms: N_14  and  C_1 
REMARK       I    between atoms: C_2  and  N_6 
REMARK    2  A    between atoms: O_15  and  C_2 
REMARK    3  A    between atoms: N_6  and  C_3 
REMARK    4  A    between atoms: C_8  and  C_3 
REMARK    5  A    between atoms: C_7  and  C_8 
REMARK    6  A    between atoms: N_16  and  N_14 
REMARK    7  A    between atoms: C_17  and  O_15 
REMARK    8  A    between atoms: C_18  and  C_17 
ROOT
ATOM      1  C   UNL d   1       0.233   1.258  -0.479  0.00  0.00     0.185 C 
ENDROOT
BRANCH   1   2
ATOM      2  C   UNL d   1       1.137   0.157   0.131  0.00  0.00     0.255 C 
ATOM      3  O   UNL d   1       1.249   0.003   1.353  0.00  0.00    -0.270 OA
ATOM      4  N   UNL d   1       1.809  -0.653  -0.768  0.00  0.00    -0.292 N 
ATOM      5  H   UNL d   1       1.849  -0.375  -1.758  0.00  0.00     0.183 HD
BRANCH   4   6
ATOM      6  N   UNL d   1       2.716  -1.630  -0.287  0.00  0.00    -0.247 NA
ATOM      7  H   UNL d   1       2.261  -2.083   0.516  0.00  0.00     0.143 HD
ATOM      8  H   UNL d   1       3.501  -1.130   0.143  0.00  0.00     0.143 HD
ENDBRANCH   4   6
ENDBRANCH   1   2
BRANCH   1   9
ATOM      9  N   UNL d   1      -0.553   1.746   0.668  0.00  0.00    -0.323 N 
ATOM     10  C   UNL d   1      -1.754   2.373   0.706  0.00  0.00     0.361 C 
ATOM     11  O   UNL d   1      -2.217   2.752   1.773  0.00  0.00    -0.238 OA
ATOM     12  H   UNL d   1      -0.145   1.591   1.585  0.00  0.00     0.165 HD
BRANCH  10  13
ATOM     13  O   UNL d   1      -2.355   2.499  -0.501  0.00  0.00    -0.299 OA
BRANCH  13  14
ATOM     14  C   UNL d   1      -3.712   2.954  -0.411  0.00  0.00     0.219 C 
BRANCH  14  15
ATOM     15  C   UNL d   1      -4.064   3.821  -1.593  0.00  0.00    -0.034 A 
ATOM     16  C   UNL d   1      -4.745   3.291  -2.697  0.00  0.00     0.009 A 
ATOM     17  C   UNL d   1      -5.124   4.118  -3.756  0.00  0.00     0.001 A 
ATOM     18  C   UNL d   1      -4.821   5.479  -3.724  0.00  0.00     0.000 A 
ATOM     19  C   UNL d   1      -4.130   6.013  -2.638  0.00  0.00     0.001 A 
ATOM     20  C   UNL d   1      -3.749   5.187  -1.579  0.00  0.00     0.009 A 
ENDBRANCH  14  15
ENDBRANCH  13  14
ENDBRANCH  10  13
ENDBRANCH   1   9
BRANCH   1  21
ATOM     21  C   UNL d   1       1.032   2.425  -1.066  0.00  0.00     0.093 C 
BRANCH  21  22
ATOM     22  C   UNL d   1       1.902   2.143  -2.245  0.00  0.00     0.028 A 
ATOM     23  N   UNL d   1       1.887   0.939  -2.913  0.00  0.00    -0.354 N 
ATOM     24  C   UNL d   1       2.809   1.044  -3.847  0.00  0.00     0.180 A 
ATOM     25  HN  UNL d   1       1.288   0.135  -2.724  1.00  0.00     0.166 HD
ATOM     26  N   UNL d   1       3.406   2.270  -3.827  0.00  0.00    -0.360 N 
ATOM     27  C   UNL d   1       2.838   2.983  -2.810  0.00  0.00     0.114 A 
ATOM     28  H   UNL d   1       4.144   2.583  -4.444  0.00  0.00     0.166 HD
ENDBRANCH  21  22
ENDBRANCH   1  21
TORSDOF 8
