REMARK  9 active torsions:
REMARK  status: ('A' for Active; 'I' for Inactive)
REMARK    1  A    between atoms: C_9  and  C_1 
REMARK    2  A    between atoms: C_20  and  C_3 
REMARK    3  A    between atoms: C_19  and  C_4 
REMARK    4  A    between atoms: C_21  and  C_5 
REMARK    5  A    between atoms: C_22  and  C_6 
REMARK    6  A    between atoms: C_12  and  C_9 
REMARK    7  A    between atoms: C_10  and  C_11 
REMARK    8  A    between atoms: C_18  and  C_15 
REMARK    9  A    between atoms: N_23  and  C_18 
ROOT
ATOM      1  C   UNL d   1      -4.090   0.484  -1.004  0.00  0.00    -0.024 A 
ATOM      2  C   UNL d   1      -5.240   0.308  -1.920  0.00  0.00    -0.024 A 
ATOM      3  C   UNL d   1      -5.835  -0.297   0.203  0.00  0.00    -0.019 A 
ATOM      4  C   UNL d   1      -6.275  -0.164  -1.187  0.00  0.00     0.025 A 
ATOM      5  C   UNL d   1      -4.441   0.058   0.231  0.00  0.00     0.025 A 
ENDROOT
BRANCH   1   6
ATOM      6  C   UNL d   1      -2.719   0.853  -1.262  0.00  0.00     0.025 C 
ATOM      7  C   UNL d   1      -2.194   2.043  -1.602  0.00  0.00    -0.012 C 
ATOM      8  C   UNL d   1      -2.819   3.346  -1.876  0.00  0.00    -0.003 C 
ATOM      9  C   UNL d   1      -0.754   2.191  -1.869  0.00  0.00    -0.014 A 
ATOM     10  C   UNL d   1      -1.912   4.143  -2.502  0.00  0.00    -0.003 C 
ATOM     11  C   UNL d   1      -0.611   3.452  -2.457  0.00  0.00    -0.013 A 
ATOM     12  C   UNL d   1       0.643   3.944  -2.796  0.00  0.00     0.013 A 
ATOM     13  C   UNL d   1       1.764   3.159  -2.517  0.00  0.00     0.001 A 
ATOM     14  C   UNL d   1       1.621   1.900  -1.913  0.00  0.00     0.001 A 
ATOM     15  C   UNL d   1       0.353   1.405  -1.590  0.00  0.00     0.013 A 
BRANCH   8  16
ATOM     16  C   UNL d   1      -4.093   3.904  -1.382  0.00  0.00    -0.024 A 
ATOM     17  C   UNL d   1      -5.183   4.131  -2.226  0.00  0.00     0.012 A 
ATOM     18  C   UNL d   1      -6.343   4.754  -1.768  0.00  0.00     0.001 A 
ATOM     19  C   UNL d   1      -6.400   5.224  -0.461  0.00  0.00     0.000 A 
ATOM     20  C   UNL d   1      -5.304   5.057   0.384  0.00  0.00     0.001 A 
ATOM     21  C   UNL d   1      -4.163   4.387  -0.069  0.00  0.00     0.012 A 
ENDBRANCH   8  16
BRANCH  10  22
ATOM     22  C   UNL d   1      -2.191   5.492  -3.001  0.00  0.00    -0.024 A 
ATOM     23  C   UNL d   1      -2.015   6.613  -2.187  0.00  0.00     0.012 A 
ATOM     24  C   UNL d   1      -2.372   7.876  -2.659  0.00  0.00     0.001 A 
ATOM     25  C   UNL d   1      -2.899   8.022  -3.943  0.00  0.00     0.000 A 
ATOM     26  C   UNL d   1      -3.058   6.907  -4.766  0.00  0.00     0.001 A 
ATOM     27  C   UNL d   1      -2.700   5.644  -4.298  0.00  0.00     0.012 A 
ENDBRANCH  10  22
ENDBRANCH   1   6
BRANCH   2  28
ATOM     28  C   UNL d   1      -5.348   0.791  -3.291  0.00  0.00     0.025 C 
BRANCH  28  29
ATOM     29  C   UNL d   1      -5.957   0.331  -4.402  0.00  0.00    -0.012 C 
ATOM     30  C   UNL d   1      -6.605  -0.973  -4.718  0.00  0.00    -0.003 C 
ATOM     31  C   UNL d   1      -7.338  -0.834  -5.860  0.00  0.00    -0.003 C 
ATOM     32  C   UNL d   1      -7.078   0.528  -6.390  0.00  0.00    -0.013 A 
ATOM     33  C   UNL d   1      -6.212   1.225  -5.548  0.00  0.00    -0.014 A 
ATOM     34  C   UNL d   1      -7.583   1.125  -7.543  0.00  0.00     0.013 A 
ATOM     35  C   UNL d   1      -5.847   2.531  -5.838  0.00  0.00     0.013 A 
ATOM     36  C   UNL d   1      -6.379   3.151  -6.973  0.00  0.00     0.001 A 
ATOM     37  C   UNL d   1      -7.236   2.450  -7.826  0.00  0.00     0.001 A 
BRANCH  30  38
ATOM     38  C   UNL d   1      -6.404  -2.193  -3.901  0.00  0.00    -0.024 A 
ATOM     39  C   UNL d   1      -5.101  -2.496  -3.461  0.00  0.00     0.012 A 
ATOM     40  C   UNL d   1      -4.872  -3.453  -2.473  0.00  0.00     0.001 A 
ATOM     41  C   UNL d   1      -5.942  -4.176  -1.958  0.00  0.00     0.000 A 
ATOM     42  C   UNL d   1      -7.220  -3.960  -2.462  0.00  0.00     0.001 A 
ATOM     43  C   UNL d   1      -7.458  -2.977  -3.427  0.00  0.00     0.012 A 
ENDBRANCH  30  38
BRANCH  31  44
ATOM     44  C   UNL d   1      -8.308  -1.762  -6.466  0.00  0.00    -0.024 A 
ATOM     45  C   UNL d   1      -9.660  -1.602  -6.123  0.00  0.00     0.012 A 
ATOM     46  C   UNL d   1     -10.651  -2.373  -6.730  0.00  0.00     0.001 A 
ATOM     47  C   UNL d   1     -10.302  -3.304  -7.704  0.00  0.00     0.000 A 
ATOM     48  C   UNL d   1      -8.966  -3.447  -8.082  0.00  0.00     0.001 A 
ATOM     49  C   UNL d   1      -7.968  -2.676  -7.468  0.00  0.00     0.012 A 
ENDBRANCH  31  44
ENDBRANCH  28  29
ENDBRANCH   2  28
BRANCH   3  50
ATOM     50  C   UNL d   1      -6.642  -0.628   1.229  0.00  0.00     0.096 C 
BRANCH  50  51
ATOM     51  N   UNL d   1      -6.493  -0.690   2.618  0.00  0.00    -0.398 N 
ATOM     52  C   UNL d   1      -5.273  -0.371   3.355  0.00  0.00     0.148 C 
ATOM     53  C   UNL d   1      -7.579  -1.178   3.476  0.00  0.00     0.148 C 
ENDBRANCH  50  51
ENDBRANCH   3  50
TORSDOF 9
