REMARK  3 active torsions:
REMARK  status: ('A' for Active; 'I' for Inactive)
REMARK    1  A    between atoms: C_8  and  C_2 
REMARK    2  A    between atoms: O_14  and  C_3 
REMARK    3  A    between atoms: O_16  and  C_8 
ROOT
ATOM      1  C   UNL d   1       0.002  -0.823   0.000  0.00  0.00     0.047 A 
ATOM      2  C   UNL d   1       2.482  -0.734  -0.002  0.00  0.00     0.087 A 
ATOM      3  C   UNL d   1       1.280  -1.464   0.001  0.00  0.00     0.098 A 
ATOM      4  C   UNL d   1       0.037   0.590  -0.002  0.00  0.00     0.048 A 
ATOM      5  C   UNL d   1      -1.289  -1.442   0.002  0.00  0.00     0.051 A 
ATOM      6  N   UNL d   1       1.177   1.297  -0.005  0.00  0.00    -0.364 N 
ATOM      7  HN  UNL d   1       1.153   2.317  -0.006  1.00  0.00     0.165 HD
ATOM      8  C   UNL d   1       2.360   0.639  -0.005  0.00  0.00     0.109 A 
ATOM      9  C   UNL d   1      -2.464  -0.686   0.002  0.00  0.00     0.048 A 
ATOM     10  C   UNL d   1      -1.142   1.318  -0.001  0.00  0.00     0.054 A 
ATOM     11  C   UNL d   1      -2.383   0.694   0.001  0.00  0.00     0.037 A 
ATOM     12 CL   UNL d   1      -1.530  -3.160   0.003  0.00  0.00    -0.083 Cl
ATOM     13 CL   UNL d   1      -3.821   1.636   0.002  0.00  0.00    -0.084 Cl
ENDROOT
BRANCH   2  14
ATOM     14  C   UNL d   1       3.790  -1.437  -0.002  0.00  0.00     0.180 C 
ATOM     15  O   UNL d   1       3.831  -2.660  -0.001  0.00  0.00    -0.646 OA
BRANCH  14  16
ATOM     16  O   UNL d   1       4.916  -0.701  -0.002  0.00  0.00    -0.773 OA
ATOM     17  H   UNL d   1       4.874   0.269  -0.001  0.00  0.00     0.167 HD
ENDBRANCH  14  16
ENDBRANCH   2  14
BRANCH   3  18
ATOM     18  O   UNL d   1       1.306  -2.840   0.004  0.00  0.00    -0.359 OA
ATOM     19  H   UNL d   1       2.232  -3.172   0.003  0.00  0.00     0.217 HD
ENDBRANCH   3  18
TORSDOF 3
