REMARK  3 active torsions:
REMARK  status: ('A' for Active; 'I' for Inactive)
REMARK       I    between atoms: N_2  and  C_1 
REMARK       I    between atoms: N_6  and  C_1 
REMARK    1  A    between atoms: C_4  and  N_2 
REMARK    2  A    between atoms: C_5  and  C_12 
REMARK    3  A    between atoms: C_12  and  N_6 
ROOT
ATOM      1  C   UNL d   1       1.007  -0.174  -0.075  0.00  0.00     0.321 C 
ATOM      2  N   UNL d   1       0.381   0.131   1.119  0.00  0.00    -0.308 N 
ATOM      3  N   UNL d   1       0.110  -0.720  -0.960  0.00  0.00    -0.338 N 
ATOM      4  O   UNL d   1       2.196  -0.046  -0.333  0.00  0.00    -0.247 OA
ATOM      5  H   UNL d   1      -0.377  -0.506   1.316  0.00  0.00     0.170 HD
ATOM      6  H   UNL d   1      -0.874  -0.575  -0.798  0.00  0.00     0.164 HD
ENDROOT
BRANCH   2   7
ATOM      7  C   UNL d   1       1.061   0.632   2.253  0.00  0.00     0.042 A 
ATOM      8  C   UNL d   1       1.948   1.720   2.236  0.00  0.00    -0.035 A 
ATOM      9  C   UNL d   1       2.211   2.574   1.029  0.00  0.00     0.050 C 
ATOM     10  C   UNL d   1       2.609   2.067   3.429  0.00  0.00     0.009 A 
ATOM     11  C   UNL d   1       2.361   1.386   4.621  0.00  0.00     0.001 A 
ATOM     12  C   UNL d   1       1.426   0.355   4.645  0.00  0.00     0.002 A 
ATOM     13  C   UNL d   1       0.773  -0.008   3.471  0.00  0.00     0.030 A 
ENDBRANCH   2   7
BRANCH   3  14
ATOM     14  C   UNL d   1       0.537  -1.180  -2.260  0.00  0.00     0.170 C 
BRANCH  14  15
ATOM     15  C   UNL d   1      -0.683  -1.516  -3.055  0.00  0.00     0.000 A 
ATOM     16  S   UNL d   1      -1.387  -3.075  -2.949  0.00  0.00    -0.105 SA
ATOM     17  C   UNL d   1      -2.648  -2.649  -4.022  0.00  0.00     0.050 A 
ATOM     18  C   UNL d   1      -2.535  -1.350  -4.463  0.00  0.00     0.008 A 
ATOM     19  C   UNL d   1      -1.398  -0.696  -3.908  0.00  0.00     0.017 A 
ENDBRANCH  14  15
ENDBRANCH   3  14
TORSDOF 3
