REMARK  4 active torsions:
REMARK  status: ('A' for Active; 'I' for Inactive)
REMARK    1  A    between atoms: C_5  and  C_1 
REMARK    2  A    between atoms: C_7  and  C_2 
REMARK       I    between atoms: N_9  and  C_7 
REMARK    3  A    between atoms: N_10  and  N_9 
REMARK    4  A    between atoms: C_13  and  N_10 
ROOT
ATOM      1  C   UNL d   1      -1.211  -0.693  -0.548  0.00  0.00     0.088 A 
ATOM      2  C   UNL d   1      -0.115  -1.369   0.107  0.00  0.00     0.094 A 
ATOM      3  N   UNL d   1      -1.161   0.618  -0.252  0.00  0.00    -0.259 N 
ATOM      4  HN  UNL d   1      -1.783   1.341  -0.613  1.00  0.00     0.195 HD
ATOM      5  O   UNL d   1      -0.129   0.807   0.619  0.00  0.00    -0.241 OA
ATOM      6  C   UNL d   1       0.504  -0.366   0.835  0.00  0.00     0.090 A 
ATOM      7  C   UNL d   1       1.642  -0.284   1.770  0.00  0.00     0.080 C 
ENDROOT
BRANCH   2   8
ATOM      8  C   UNL d   1       0.369  -2.739   0.076  0.00  0.00     0.271 C 
ATOM      9  N   UNL d   1      -0.605  -3.719   0.188  0.00  0.00    -0.282 N 
ATOM     10  H   UNL d   1      -1.474  -3.462   0.650  0.00  0.00     0.184 HD
ATOM     11  O   UNL d   1       1.574  -2.995   0.002  0.00  0.00    -0.266 OA
BRANCH   9  12
ATOM     12  N   UNL d   1      -0.159  -5.042   0.440  0.00  0.00    -0.203 NA
ATOM     13  H   UNL d   1       0.485  -5.368  -0.294  0.00  0.00     0.153 HD
BRANCH  12  14
ATOM     14  C   UNL d   1      -1.171  -6.005   0.691  0.00  0.00     0.033 A 
ATOM     15  C   UNL d   1      -0.846  -7.218   1.337  0.00  0.00    -0.039 A 
ATOM     16  C   UNL d   1      -1.865  -8.145   1.634  0.00  0.00     0.015 A 
ATOM     17  C   UNL d   1       0.564  -7.591   1.716  0.00  0.00     0.050 C 
ATOM     18  C   UNL d   1      -3.201  -7.887   1.311  0.00  0.00    -0.061 A 
ATOM     19  C   UNL d   1      -3.508  -6.721   0.614  0.00  0.00     0.008 A 
ATOM     20  C   UNL d   1      -4.273  -8.867   1.680  0.00  0.00     0.048 C 
ATOM     21  C   UNL d   1      -2.504  -5.802   0.296  0.00  0.00     0.026 A 
ENDBRANCH  12  14
ENDBRANCH   9  12
ENDBRANCH   2   8
BRANCH   1  22
ATOM     22  C   UNL d   1      -2.251  -1.158  -1.484  0.00  0.00     0.054 A 
ATOM     23  C   UNL d   1      -1.974  -2.184  -2.398  0.00  0.00     0.130 A 
ATOM     24  F   UNL d   1      -0.765  -2.760  -2.437  0.00  0.00    -0.205 F 
ATOM     25  C   UNL d   1      -2.917  -2.633  -3.327  0.00  0.00     0.043 A 
ATOM     26  C   UNL d   1      -4.165  -2.031  -3.402  0.00  0.00     0.005 A 
ATOM     27  C   UNL d   1      -4.468  -0.991  -2.531  0.00  0.00     0.025 A 
ATOM     28  C   UNL d   1      -3.534  -0.566  -1.570  0.00  0.00     0.049 A 
ATOM     29 CL   UNL d   1      -4.106   0.689  -0.516  0.00  0.00    -0.083 Cl
ENDBRANCH   1  22
TORSDOF 4
