REMARK  9 active torsions:
REMARK  status: ('A' for Active; 'I' for Inactive)
REMARK    1  A    between atoms: C_2  and  C_1 
REMARK    2  A    between atoms: S_3  and  C_1 
REMARK    3  A    between atoms: C_11  and  C_1 
REMARK       I    between atoms: N_12  and  C_2 
REMARK    4  A    between atoms: C_5  and  S_3 
REMARK    5  A    between atoms: O_16  and  C_4 
REMARK    6  A    between atoms: O_17  and  C_8 
REMARK    7  A    between atoms: C_18  and  N_12 
REMARK    8  A    between atoms: C_14  and  C_21 
REMARK    9  A    between atoms: C_21  and  C_18 
ROOT
ATOM      1  C   UNL d   1       0.572  -0.645   1.294  0.00  0.00     0.236 C 
ATOM      2  O   UNL d   1       0.464   0.026   2.325  0.00  0.00    -0.272 OA
ATOM      3  N   UNL d   1       0.408  -2.012   1.318  0.00  0.00    -0.359 N 
ATOM      4  H   UNL d   1       0.679  -2.551   0.497  0.00  0.00     0.162 HD
ENDROOT
BRANCH   1   5
ATOM      5  C   UNL d   1       0.854   0.038  -0.058  0.00  0.00     0.178 C 
BRANCH   5   6
ATOM      6  S   UNL d   1       1.359  -1.075  -1.434  0.00  0.00    -0.093 SA
BRANCH   6   7
ATOM      7  C   UNL d   1       2.714  -1.969  -0.730  0.00  0.00     0.070 A 
ATOM      8  N   UNL d   1       2.463  -3.286  -0.540  0.00  0.00    -0.361 N 
ATOM      9  C   UNL d   1       3.485  -4.056  -0.109  0.00  0.00     0.089 A 
ATOM     10  HN  UNL d   1       1.539  -3.681  -0.717  1.00  0.00     0.165 HD
ATOM     11  C   UNL d   1       4.747  -3.566   0.175  0.00  0.00     0.017 A 
ATOM     12  C   UNL d   1       4.973  -2.204   0.009  0.00  0.00     0.004 A 
ATOM     13  C   UNL d   1       3.943  -1.387  -0.456  0.00  0.00     0.037 A 
ENDBRANCH   6   7
ENDBRANCH   5   6
BRANCH   5  14
ATOM     14  C   UNL d   1      -0.333   0.879  -0.517  0.00  0.00    -0.035 A 
ATOM     15  C   UNL d   1      -0.194   2.262  -0.706  0.00  0.00     0.009 A 
ATOM     16  C   UNL d   1      -1.258   3.031  -1.183  0.00  0.00     0.001 A 
ATOM     17  C   UNL d   1      -2.480   2.429  -1.479  0.00  0.00     0.000 A 
ATOM     18  C   UNL d   1      -2.643   1.063  -1.285  0.00  0.00     0.001 A 
ATOM     19  C   UNL d   1      -1.583   0.291  -0.801  0.00  0.00     0.009 A 
ENDBRANCH   5  14
ENDBRANCH   1   5
BRANCH   3  20
ATOM     20  C   UNL d   1       0.194  -2.732   2.559  0.00  0.00     0.127 C 
BRANCH  20  21
ATOM     21  C   UNL d   1      -1.241  -2.576   3.061  0.00  0.00     0.058 C 
BRANCH  21  22
ATOM     22  C   UNL d   1      -1.509  -3.374   4.311  0.00  0.00    -0.054 A 
ATOM     23  C   UNL d   1      -1.966  -4.699   4.223  0.00  0.00     0.046 A 
ATOM     24  C   UNL d   1      -2.272  -5.446   5.371  0.00  0.00     0.102 A 
ATOM     25  C   UNL d   1      -2.079  -4.855   6.633  0.00  0.00     0.101 A 
ATOM     26  C   UNL d   1      -1.614  -3.536   6.718  0.00  0.00     0.040 A 
ATOM     27  C   UNL d   1      -1.323  -2.801   5.570  0.00  0.00     0.010 A 
BRANCH  24  28
ATOM     28  O   UNL d   1      -2.784  -6.715   5.326  0.00  0.00    -0.353 OA
ATOM     29  C   UNL d   1      -3.043  -7.287   4.051  0.00  0.00     0.210 C 
ENDBRANCH  24  28
BRANCH  25  30
ATOM     30  O   UNL d   1      -2.353  -5.405   7.859  0.00  0.00    -0.353 OA
ATOM     31  C   UNL d   1      -2.185  -6.811   7.983  0.00  0.00     0.210 C 
ENDBRANCH  25  30
ENDBRANCH  21  22
ENDBRANCH  20  21
ENDBRANCH   3  20
TORSDOF 9
