REMARK  5 active torsions:
REMARK  status: ('A' for Active; 'I' for Inactive)
REMARK    1  A    between atoms: C_3  and  C_1 
REMARK    2  A    between atoms: N_2  and  C_5 
REMARK    3  A    between atoms: C_4  and  C_10 
REMARK       I    between atoms: N_8  and  C_4 
REMARK    4  A    between atoms: C_21  and  N_8 
REMARK    5  A    between atoms: O_27  and  C_22 
ROOT
ATOM      1  N   UNL d   1      -0.340   5.319   0.866  0.00  0.00    -0.367 N 
ATOM      2  C   UNL d   1      -0.761   8.120   1.458  0.00  0.00     0.081 C 
ATOM      3  C   UNL d   1      -1.156   6.127  -0.050  0.00  0.00     0.125 C 
ATOM      4  C   UNL d   1      -0.418   5.736   2.272  0.00  0.00     0.125 C 
ATOM      5  C   UNL d   1      -0.663   7.577   0.019  0.00  0.00     0.034 C 
ATOM      6  C   UNL d   1       0.024   7.195   2.392  0.00  0.00     0.034 C 
ENDROOT
BRANCH   2   7
ATOM      7  C   UNL d   1      -2.239   8.320   1.813  0.00  0.00     0.226 C 
ATOM      8  N   UNL d   1      -2.507   8.568   3.146  0.00  0.00    -0.327 N 
ATOM      9  H   UNL d   1      -1.726   8.655   3.780  0.00  0.00     0.169 HD
ATOM     10  O   UNL d   1      -3.079   8.342   0.914  0.00  0.00    -0.273 OA
BRANCH   8  11
ATOM     11  C   UNL d   1      -3.777   8.889   3.683  0.00  0.00     0.034 A 
ATOM     12  C   UNL d   1      -4.963   8.826   2.948  0.00  0.00     0.032 A 
ATOM     13  C   UNL d   1      -6.170   9.278   3.484  0.00  0.00     0.039 A 
ATOM     14  C   UNL d   1      -6.214   9.794   4.774  0.00  0.00     0.068 A 
ATOM     15  C   UNL d   1      -5.052   9.780   5.548  0.00  0.00     0.039 A 
ATOM     16  C   UNL d   1      -3.840   9.329   5.010  0.00  0.00     0.032 A 
BRANCH  14  17
ATOM     17  O   UNL d   1      -7.322  10.325   5.375  0.00  0.00    -0.356 OA
ATOM     18  C   UNL d   1      -8.409  10.637   4.507  0.00  0.00     0.210 C 
ENDBRANCH  14  17
ENDBRANCH   8  11
ENDBRANCH   2   7
BRANCH   1  19
ATOM     19  C   UNL d   1      -0.358   3.929   0.676  0.00  0.00     0.102 A 
ATOM     20  C   UNL d   1      -0.209   3.377  -0.595  0.00  0.00     0.049 A 
ATOM     21  C   UNL d   1      -0.125   1.994  -0.762  0.00  0.00     0.021 A 
ATOM     22  C   UNL d   1      -0.173   1.161   0.352  0.00  0.00     0.063 A 
ATOM     23  C   UNL d   1      -0.326   1.778   1.582  0.00  0.00     0.106 A 
ATOM     24  N   UNL d   1      -0.418   3.116   1.756  0.00  0.00    -0.352 N 
ATOM     25  HN  UNL d   1      -0.531   3.508   2.690  1.00  0.00     0.166 HD
BRANCH  22  26
ATOM     26  C   UNL d   1      -0.040  -0.321   0.237  0.00  0.00     0.418 C 
ATOM     27  F   UNL d   1      -0.044  -0.968   1.436  0.00  0.00    -0.166 F 
ATOM     28  F   UNL d   1       1.114  -0.695  -0.381  0.00  0.00    -0.166 F 
ATOM     29  F   UNL d   1      -1.048  -0.881  -0.489  0.00  0.00    -0.166 F 
ENDBRANCH  22  26
ENDBRANCH   1  19
TORSDOF 5
