REMARK  9 active torsions:
REMARK  status: ('A' for Active; 'I' for Inactive)
REMARK    1  A    between atoms: N_7  and  C_1 
REMARK    2  A    between atoms: N_10  and  C_1 
REMARK    3  A    between atoms: C_2  and  C_9 
REMARK    4  A    between atoms: N_3  and  N_7 
REMARK    5  A    between atoms: O_14  and  C_6 
REMARK    6  A    between atoms: C_15  and  N_10 
REMARK    7  A    between atoms: O_16  and  C_12 
REMARK    8  A    between atoms: C_18  and  C_15 
REMARK    9  A    between atoms: C_17  and  C_18 
ROOT
ATOM      1  N   UNL d   1       0.310   0.098   1.280  0.00  0.00    -0.277 N 
ATOM      2  H   UNL d   1       0.818  -0.144   2.119  0.00  0.00     0.189 HD
ENDROOT
BRANCH   1   3
ATOM      3  N   UNL d   1      -1.045   0.191   1.333  0.00  0.00    -0.309 N 
ATOM      4  C   UNL d   1      -1.587   0.539   2.455  0.00  0.00     0.121 C 
ATOM      5  HN  UNL d   1      -1.618  -0.008   0.513  1.00  0.00     0.186 HD
BRANCH   4   6
ATOM      6  C   UNL d   1      -3.058   0.521   2.581  0.00  0.00     0.017 A 
ATOM      7  C   UNL d   1      -3.778   1.431   3.359  0.00  0.00     0.080 A 
ATOM      8  C   UNL d   1      -5.164   1.265   3.496  0.00  0.00     0.040 A 
ATOM      9  C   UNL d   1      -5.829   0.219   2.841  0.00  0.00     0.039 A 
ATOM     10  C   UNL d   1      -5.110  -0.668   2.044  0.00  0.00     0.069 A 
ATOM     11  C   UNL d   1      -3.731  -0.518   1.924  0.00  0.00     0.052 A 
BRANCH   7  12
ATOM     12  O   UNL d   1      -3.223   2.456   4.077  0.00  0.00    -0.355 OA
ATOM     13  C   UNL d   1      -2.590   3.440   3.257  0.00  0.00     0.210 C 
ENDBRANCH   7  12
BRANCH  10  14
ATOM     14  O   UNL d   1      -5.631  -1.750   1.393  0.00  0.00    -0.356 OA
ATOM     15  C   UNL d   1      -6.967  -1.600   0.929  0.00  0.00     0.210 C 
ENDBRANCH  10  14
ENDBRANCH   4   6
ENDBRANCH   1   3
BRANCH   1  16
ATOM     16  C   UNL d   1       0.984   0.311   0.077  0.00  0.00     0.186 C 
ATOM     17  S   UNL d   1       0.339   1.173  -1.210  0.00  0.00    -0.040 SA
BRANCH  16  18
ATOM     18  N   UNL d   1       2.263  -0.238   0.096  0.00  0.00    -0.366 N 
ATOM     19  H   UNL d   1       2.405  -1.016   0.726  0.00  0.00     0.161 HD
BRANCH  18  20
ATOM     20  C   UNL d   1       3.282   0.003  -0.932  0.00  0.00     0.126 C 
BRANCH  20  21
ATOM     21  C   UNL d   1       4.478  -0.949  -0.861  0.00  0.00     0.058 C 
BRANCH  21  22
ATOM     22  C   UNL d   1       5.586  -0.516  -1.794  0.00  0.00    -0.057 A 
ATOM     23  C   UNL d   1       6.583   0.366  -1.347  0.00  0.00     0.007 A 
ATOM     24  C   UNL d   1       7.592   0.800  -2.214  0.00  0.00     0.001 A 
ATOM     25  C   UNL d   1       7.617   0.361  -3.533  0.00  0.00     0.000 A 
ATOM     26  C   UNL d   1       6.631  -0.511  -3.994  0.00  0.00     0.001 A 
ATOM     27  C   UNL d   1       5.620  -0.946  -3.128  0.00  0.00     0.007 A 
ENDBRANCH  21  22
ENDBRANCH  20  21
ENDBRANCH  18  20
ENDBRANCH  16  18
ENDBRANCH   1  16
TORSDOF 9
