REMARK  6 active torsions:
REMARK  status: ('A' for Active; 'I' for Inactive)
REMARK    1  A    between atoms: N_7  and  C_1 
REMARK    2  A    between atoms: C_12  and  N_2 
REMARK    3  A    between atoms: C_3  and  C_9 
REMARK       I    between atoms: C_6  and  N_8 
REMARK    4  A    between atoms: C_10  and  C_6 
REMARK    5  A    between atoms: N_8  and  N_7 
REMARK    6  A    between atoms: C_19  and  C_12 
ROOT
ATOM      1  N   UNL d   1      -0.345  -2.604   0.189  0.00  0.00    -0.173 NA
ATOM      2  H   UNL d   1      -0.049  -2.919   1.120  0.00  0.00     0.156 HD
ENDROOT
BRANCH   1   3
ATOM      3  C   UNL d   1      -0.251  -1.242   0.054  0.00  0.00     0.170 C 
ATOM      4  N   UNL d   1       1.002  -0.704   0.025  0.00  0.00    -0.351 N 
ATOM      5  C   UNL d   1       0.908   0.734   0.002  0.00  0.00     0.145 C 
ATOM      6  C   UNL d   1      -0.599   0.934  -0.194  0.00  0.00     0.142 C 
ATOM      7  N   UNL d   1      -1.247  -0.402  -0.068  0.00  0.00    -0.364 N 
ATOM      8  HN  UNL d   1      -2.245  -0.614  -0.075  1.00  0.00     0.162 HD
BRANCH   4   9
ATOM      9  C   UNL d   1       2.257  -1.366  -0.267  0.00  0.00     0.164 C 
BRANCH   9  10
ATOM     10  C   UNL d   1       2.591  -1.516  -1.741  0.00  0.00    -0.040 A 
ATOM     11  C   UNL d   1       3.942  -1.517  -2.133  0.00  0.00     0.009 A 
ATOM     12  C   UNL d   1       4.314  -1.746  -3.466  0.00  0.00     0.001 A 
ATOM     13  C   UNL d   1       3.334  -1.985  -4.428  0.00  0.00     0.000 A 
ATOM     14  C   UNL d   1       1.992  -1.987  -4.059  0.00  0.00     0.001 A 
ATOM     15  C   UNL d   1       1.622  -1.763  -2.731  0.00  0.00     0.009 A 
ENDBRANCH   9  10
ENDBRANCH   4   9
ENDBRANCH   1   3
BRANCH   1  16
ATOM     16  N   UNL d   1      -1.602  -3.141  -0.135  0.00  0.00    -0.280 N 
ATOM     17  C   UNL d   1      -2.109  -4.149   0.656  0.00  0.00     0.266 C 
ATOM     18  O   UNL d   1      -1.582  -4.529   1.697  0.00  0.00    -0.266 OA
ATOM     19  H   UNL d   1      -1.911  -2.958  -1.085  0.00  0.00     0.184 HD
BRANCH  17  20
ATOM     20  C   UNL d   1      -3.345  -4.802   0.139  0.00  0.00     0.034 A 
ATOM     21  C   UNL d   1      -3.543  -6.170   0.387  0.00  0.00     0.033 A 
ATOM     22  C   UNL d   1      -4.672  -6.832  -0.124  0.00  0.00     0.048 A 
ATOM     23  C   UNL d   1      -5.616  -6.097  -0.860  0.00  0.00     0.016 A 
ATOM     24  C   UNL d   1      -5.434  -4.732  -1.087  0.00  0.00     0.002 A 
ATOM     25  C   UNL d   1      -4.301  -4.085  -0.592  0.00  0.00     0.017 A 
BRANCH  22  26
ATOM     26  C   UNL d   1      -4.882  -8.314   0.089  0.00  0.00     0.417 C 
ATOM     27  F   UNL d   1      -3.889  -8.912   0.801  0.00  0.00    -0.166 F 
ATOM     28  F   UNL d   1      -6.039  -8.588   0.752  0.00  0.00    -0.166 F 
ATOM     29  F   UNL d   1      -4.958  -8.996  -1.089  0.00  0.00    -0.166 F 
ENDBRANCH  22  26
ENDBRANCH  17  20
ENDBRANCH   1  16
TORSDOF 6
