REMARK  3 active torsions:
REMARK  status: ('A' for Active; 'I' for Inactive)
REMARK    1  A    between atoms: C_7  and  C_4 
REMARK    2  A    between atoms: C_13  and  N_8 
REMARK    3  A    between atoms: C_16  and  C_13 
ROOT
ATOM      1  N   UNL d   1       1.380  -0.682  -0.403  0.00  0.00    -0.336 N 
ATOM      2  HN  UNL d   1       2.161  -1.184  -0.825  1.00  0.00     0.168 HD
ATOM      3  C   UNL d   1       0.317  -1.249   0.120  0.00  0.00     0.144 A 
ATOM      4  C   UNL d   1       1.288   0.699  -0.296  0.00  0.00     0.051 A 
ATOM      5  S   UNL d   1      -0.856  -0.153   0.754  0.00  0.00    -0.064 SA
ATOM      6  C   UNL d   1       0.162   1.158   0.361  0.00  0.00     0.083 A 
ATOM      7  N   UNL d   1       0.059  -2.571   0.205  0.00  0.00    -0.368 N 
ATOM      8  H   UNL d   1      -0.829  -2.865  -0.197  0.00  0.00     0.161 HD
ENDROOT
BRANCH   7   9
ATOM      9  C   UNL d   1       1.112  -3.558   0.017  0.00  0.00     0.153 C 
BRANCH   9  10
ATOM     10  C   UNL d   1       0.469  -4.950   0.135  0.00  0.00     0.139 C 
ATOM     11  O   UNL d   1      -0.438  -5.172  -0.972  0.00  0.00    -0.384 OA
ATOM     12  C   UNL d   1      -0.308  -6.538  -1.391  0.00  0.00     0.168 C 
ATOM     13  C   UNL d   1       0.538  -7.235  -0.347  0.00  0.00     0.029 C 
ATOM     14  C   UNL d   1       1.441  -6.115   0.116  0.00  0.00     0.035 C 
ENDBRANCH   9  10
ENDBRANCH   7   9
BRANCH   4  15
ATOM     15  C   UNL d   1       2.294   1.595  -0.858  0.00  0.00    -0.009 A 
ATOM     16  C   UNL d   1       2.911   1.279  -2.078  0.00  0.00     0.017 A 
ATOM     17  C   UNL d   1       3.848   2.154  -2.646  0.00  0.00     0.043 A 
ATOM     18  C   UNL d   1       4.160   3.339  -1.998  0.00  0.00     0.116 A 
ATOM     19  C   UNL d   1       3.565   3.669  -0.787  0.00  0.00     0.043 A 
ATOM     20  F   UNL d   1       5.052   4.178  -2.543  0.00  0.00    -0.206 F 
ATOM     21  C   UNL d   1       2.629   2.801  -0.223  0.00  0.00     0.017 A 
ENDBRANCH   4  15
TORSDOF 3
