REMARK  3 active torsions:
REMARK  status: ('A' for Active; 'I' for Inactive)
REMARK    1  A    between atoms: C_9  and  C_4 
REMARK    2  A    between atoms: N_7  and  C_10 
REMARK    3  A    between atoms: N_8  and  C_14 
REMARK       I    between atoms: N_16  and  C_9 
ROOT
ATOM      1  C   UNL d   1      -0.450   0.724  -0.195  0.00  0.00     0.005 A 
ATOM      2  C   UNL d   1      -0.981  -0.587  -0.243  0.00  0.00     0.029 A 
ATOM      3  C   UNL d   1       1.369  -0.747  -0.152  0.00  0.00     0.028 A 
ATOM      4  C   UNL d   1      -1.358   1.777  -0.151  0.00  0.00     0.046 A 
ATOM      5  C   UNL d   1       1.007   0.616  -0.155  0.00  0.00    -0.010 A 
ATOM      6  C   UNL d   1       0.136  -1.545  -0.203  0.00  0.00     0.194 A 
ATOM      7  C   UNL d   1      -3.218   0.165  -0.235  0.00  0.00     0.104 A 
ATOM      8  C   UNL d   1      -2.328  -0.904  -0.264  0.00  0.00     0.052 A 
ATOM      9  C   UNL d   1      -2.746   1.495  -0.175  0.00  0.00     0.054 A 
ATOM     10  C   UNL d   1       2.666  -1.224  -0.129  0.00  0.00     0.052 A 
ATOM     11  C   UNL d   1       3.676  -0.259  -0.137  0.00  0.00     0.103 A 
ATOM     12  C   UNL d   1       2.023   1.558  -0.154  0.00  0.00     0.016 A 
ATOM     13  O   UNL d   1       0.052  -2.750  -0.215  0.00  0.00    -0.287 OA
ATOM     14  C   UNL d   1       3.361   1.118  -0.158  0.00  0.00     0.037 A 
ENDROOT
BRANCH   4  15
ATOM     15  C   UNL d   1      -1.002   3.169   0.178  0.00  0.00     0.254 C 
ATOM     16  N   UNL d   1      -0.348   3.987  -0.736  0.00  0.00    -0.357 N 
ATOM     17  C   UNL d   1      -0.210   5.396  -0.388  0.00  0.00     0.152 C 
ATOM     18  C   UNL d   1      -0.090   3.652  -2.129  0.00  0.00     0.152 C 
ATOM     19  O   UNL d   1      -1.376   3.555   1.285  0.00  0.00    -0.267 OA
ENDBRANCH   4  15
BRANCH   7  20
ATOM     20  N   UNL d   1      -4.662  -0.100  -0.223  0.00  0.00    -0.116 N 
ATOM     21  O   UNL d   1      -5.030  -1.282  -0.166  0.00  0.00    -0.532 OA
ATOM     22  O   UNL d   1      -5.423   0.874  -0.276  0.00  0.00    -0.532 OA
ENDBRANCH   7  20
BRANCH  11  23
ATOM     23  N   UNL d   1       5.080  -0.691  -0.134  0.00  0.00    -0.116 N 
ATOM     24  O   UNL d   1       5.310  -1.907  -0.084  0.00  0.00    -0.532 OA
ATOM     25  O   UNL d   1       5.950   0.190  -0.186  0.00  0.00    -0.532 OA
ENDBRANCH  11  23
TORSDOF 3
