REMARK  4 active torsions:
REMARK  status: ('A' for Active; 'I' for Inactive)
REMARK    1  A    between atoms: N_2  and  C_1 
REMARK    2  A    between atoms: O_20  and  C_7 
REMARK    3  A    between atoms: O_19  and  C_8 
REMARK    4  A    between atoms: C_17  and  C_13 
ROOT
ATOM      1  N   UNL d   1       3.783   0.022  -0.183  0.00  0.00    -0.363 N 
ATOM      2  HN  UNL d   1       4.369   0.655   0.361  1.00  0.00     0.165 HD
ATOM      3  C   UNL d   1       4.298  -0.877  -0.963  0.00  0.00     0.100 C 
ENDROOT
BRANCH   1   4
ATOM      4  C   UNL d   1       2.365   0.086  -0.120  0.00  0.00     0.068 A 
ATOM      5  C   UNL d   1       1.610  -1.090   0.030  0.00  0.00     0.071 A 
ATOM      6  C   UNL d   1       0.206  -1.103   0.070  0.00  0.00     0.092 A 
ATOM      7  C   UNL d   1      -0.461   0.123   0.015  0.00  0.00     0.070 A 
ATOM      8  C   UNL d   1       0.277   1.316  -0.094  0.00  0.00     0.065 A 
ATOM      9 CL   UNL d   1      -2.175   0.332   0.100  0.00  0.00    -0.081 Cl
ATOM     10  C   UNL d   1       1.678   1.313  -0.161  0.00  0.00     0.096 A 
BRANCH   6  11
ATOM     11  O   UNL d   1      -0.268  -2.379   0.160  0.00  0.00    -0.354 OA
ATOM     12  C   UNL d   1      -1.655  -2.648   0.086  0.00  0.00     0.210 C 
ENDBRANCH   6  11
BRANCH  10  13
ATOM     13  O   UNL d   1       2.441   2.450  -0.265  0.00  0.00    -0.354 OA
ATOM     14  C   UNL d   1       1.763   3.700  -0.241  0.00  0.00     0.210 C 
ENDBRANCH  10  13
ENDBRANCH   1   4
BRANCH   3  15
ATOM     15  C   UNL d   1       5.748  -1.118  -1.101  0.00  0.00    -0.018 A 
ATOM     16  C   UNL d   1       6.146  -2.259  -1.810  0.00  0.00     0.052 A 
ATOM     17  C   UNL d   1       7.497  -2.476  -1.965  0.00  0.00     0.105 A 
ATOM     18  O   UNL d   1       8.060  -3.520  -2.630  0.00  0.00    -0.323 OA
ATOM     19  C   UNL d   1       8.435  -1.614  -1.444  0.00  0.00     0.105 A 
ATOM     20  C   UNL d   1       9.461  -3.193  -2.512  0.00  0.00     0.352 A 
ATOM     21  O   UNL d   1       9.706  -2.008  -1.724  0.00  0.00    -0.323 OA
ATOM     22  C   UNL d   1       8.070  -0.491  -0.729  0.00  0.00     0.040 A 
ATOM     23  C   UNL d   1       6.702  -0.240  -0.552  0.00  0.00     0.016 A 
ENDBRANCH   3  15
TORSDOF 4
