REMARK  2 active torsions:
REMARK  status: ('A' for Active; 'I' for Inactive)
REMARK    1  A    between atoms: C_2  and  C_1 
REMARK    2  A    between atoms: S_14  and  C_7 
ROOT
ATOM      1  C   UNL d   1      -0.413   2.663   0.310  0.00  0.00     0.197 C 
ATOM      2  S   UNL d   1      -1.381   2.735   1.849  0.00  0.00    -0.076 SA
ATOM      3  C   UNL d   1      -2.713   3.354   0.916  0.00  0.00     0.117 C 
ATOM      4  N   UNL d   1      -1.344   3.030  -0.755  0.00  0.00    -0.219 NA
ATOM      5  N   UNL d   1      -2.554   3.523  -0.358  0.00  0.00    -0.309 N 
ATOM      6  HN  UNL d   1      -3.234   3.963  -0.978  1.00  0.00     0.182 HD
ATOM      7  H   UNL d   1      -0.904   3.566  -1.502  0.00  0.00     0.148 HD
ENDROOT
BRANCH   1   8
ATOM      8  C   UNL d   1       0.159   1.297   0.073  0.00  0.00     0.078 A 
ATOM      9  C   UNL d   1      -0.513   0.061  -0.140  0.00  0.00     0.077 A 
ATOM     10  C   UNL d   1       0.479  -0.881  -0.247  0.00  0.00     0.135 A 
ATOM     11 CL   UNL d   1      -2.182  -0.230  -0.214  0.00  0.00    -0.081 Cl
ATOM     12  N   UNL d   1       1.651  -0.207  -0.099  0.00  0.00    -0.306 N 
ATOM     13  N   UNL d   1       1.496   1.115   0.081  0.00  0.00    -0.299 N 
ATOM     14  C   UNL d   1       2.970  -0.793  -0.084  0.00  0.00     0.177 C 
ATOM     15  HN  UNL d   1       2.223   1.821   0.198  1.00  0.00     0.187 HD
ENDBRANCH   1   8
BRANCH   3  16
ATOM     16  S   UNL d   1      -4.177   3.733   1.751  0.00  0.00    -0.117 SA
ATOM     17  H   UNL d   1      -3.845   3.094   2.880  0.00  0.00     0.109 HD
ENDBRANCH   3  16
TORSDOF 2
