REMARK  7 active torsions:
REMARK  status: ('A' for Active; 'I' for Inactive)
REMARK    1  A    between atoms: C_9  and  C_1 
REMARK    2  A    between atoms: S_14  and  C_5 
REMARK       I    between atoms: C_8  and  N_10 
REMARK    3  A    between atoms: O_11  and  C_8 
REMARK    4  A    between atoms: C_9  and  N_10 
REMARK    5  A    between atoms: C_13  and  C_9 
REMARK    6  A    between atoms: C_15  and  O_11 
REMARK    7  A    between atoms: C_16  and  C_13 
ROOT
ATOM      1  C   UNL d   1       3.155  -1.002  -0.499  0.00  0.00     0.167 C 
ENDROOT
BRANCH   1   2
ATOM      2  C   UNL d   1       2.068  -0.027  -0.836  0.00  0.00     0.164 A 
ATOM      3  O   UNL d   1       1.831   0.263  -2.156  0.00  0.00    -0.270 OA
ATOM      4  C   UNL d   1       0.727   1.071  -2.071  0.00  0.00     0.200 A 
ATOM      5  N   UNL d   1       0.344   1.271  -0.828  0.00  0.00    -0.272 N 
ATOM      6  N   UNL d   1       1.202   0.548  -0.028  0.00  0.00    -0.279 N 
ATOM      7  HN  UNL d   1      -0.437   1.849  -0.518  1.00  0.00     0.189 HD
ATOM      8  HN  UNL d   1       1.172   0.473   0.989  1.00  0.00     0.189 HD
BRANCH   4   9
ATOM      9  S   UNL d   1      -0.089   1.708  -3.459  0.00  0.00    -0.098 SA
ATOM     10  H   UNL d   1       0.276   0.743  -4.311  0.00  0.00     0.110 HD
ENDBRANCH   4   9
ENDBRANCH   1   2
BRANCH   1  11
ATOM     11  N   UNL d   1       2.909  -2.262  -1.209  0.00  0.00    -0.324 N 
ATOM     12  C   UNL d   1       3.209  -2.636  -2.484  0.00  0.00     0.362 C 
ATOM     13  O   UNL d   1       2.655  -3.614  -2.969  0.00  0.00    -0.238 OA
ATOM     14  H   UNL d   1       2.153  -2.827  -0.846  0.00  0.00     0.165 HD
BRANCH  12  15
ATOM     15  O   UNL d   1       4.140  -1.873  -3.100  0.00  0.00    -0.294 OA
BRANCH  15  16
ATOM     16  C   UNL d   1       4.569  -2.214  -4.453  0.00  0.00     0.061 C 
ATOM     17  C   UNL d   1       3.396  -2.163  -5.444  0.00  0.00     0.046 C 
ATOM     18  C   UNL d   1       5.593  -1.134  -4.847  0.00  0.00     0.046 C 
ATOM     19  C   UNL d   1       5.272  -3.579  -4.493  0.00  0.00     0.046 C 
ENDBRANCH  15  16
ENDBRANCH  12  15
ENDBRANCH   1  11
BRANCH   1  20
ATOM     20  C   UNL d   1       4.567  -0.413  -0.631  0.00  0.00     0.072 C 
BRANCH  20  21
ATOM     21  C   UNL d   1       4.940   0.536   0.495  0.00  0.00    -0.056 A 
ATOM     22  C   UNL d   1       5.393   0.043   1.729  0.00  0.00     0.007 A 
ATOM     23  C   UNL d   1       5.755   0.920   2.756  0.00  0.00     0.001 A 
ATOM     24  C   UNL d   1       5.661   2.292   2.565  0.00  0.00     0.000 A 
ATOM     25  C   UNL d   1       5.201   2.797   1.349  0.00  0.00     0.001 A 
ATOM     26  C   UNL d   1       4.838   1.925   0.321  0.00  0.00     0.007 A 
ENDBRANCH  20  21
ENDBRANCH   1  20
TORSDOF 7
