REMARK  3 active torsions:
REMARK  status: ('A' for Active; 'I' for Inactive)
REMARK    1  A    between atoms: C_12  and  N_1 
REMARK    2  A    between atoms: C_9  and  C_5 
REMARK    3  A    between atoms: C_8  and  C_10 
ROOT
ATOM      1  N   UNL d   1       2.330  -0.678  -0.062  0.00  0.00    -0.220 N 
ATOM      2  N   UNL d   1       2.322   0.699   0.005  0.00  0.00    -0.289 N 
ATOM      3  HN  UNL d   1       3.206   1.206   0.045  1.00  0.00     0.188 HD
ATOM      4  C   UNL d   1       1.163  -1.448  -0.099  0.00  0.00     0.278 A 
ATOM      5  C   UNL d   1       1.202   1.358   0.017  0.00  0.00     0.070 A 
ATOM      6  C   UNL d   1      -0.111  -0.710  -0.055  0.00  0.00     0.046 A 
ATOM      7  C   UNL d   1      -0.116   0.676   0.052  0.00  0.00     0.009 A 
ATOM      8  O   UNL d   1       1.095  -2.676  -0.121  0.00  0.00    -0.265 OA
ATOM      9  C   UNL d   1      -1.319  -1.427  -0.090  0.00  0.00     0.018 A 
ATOM     10  C   UNL d   1      -1.346   1.334   0.208  0.00  0.00     0.015 A 
ATOM     11  C   UNL d   1      -2.537  -0.759  -0.007  0.00  0.00     0.001 A 
ATOM     12  C   UNL d   1      -2.550   0.622   0.152  0.00  0.00     0.001 A 
ENDROOT
BRANCH   5  13
ATOM     13  C   UNL d   1       1.325   2.853  -0.047  0.00  0.00    -0.006 A 
ATOM     14  C   UNL d   1       2.371   3.478   0.649  0.00  0.00     0.030 A 
ATOM     15  C   UNL d   1       2.564   4.868   0.563  0.00  0.00     0.048 A 
ATOM     16  C   UNL d   1       1.674   5.631  -0.207  0.00  0.00     0.016 A 
ATOM     17  C   UNL d   1       0.651   5.013  -0.924  0.00  0.00     0.002 A 
ATOM     18  C   UNL d   1       0.499   3.626  -0.872  0.00  0.00     0.014 A 
BRANCH  15  19
ATOM     19  C   UNL d   1       3.724   5.546   1.251  0.00  0.00     0.417 C 
ATOM     20  F   UNL d   1       4.539   4.689   1.927  0.00  0.00    -0.166 F 
ATOM     21  F   UNL d   1       4.527   6.212   0.376  0.00  0.00    -0.166 F 
ATOM     22  F   UNL d   1       3.318   6.472   2.163  0.00  0.00    -0.166 F 
ENDBRANCH  15  19
ENDBRANCH   5  13
BRANCH   1  23
ATOM     23  C   UNL d   1       3.648  -1.247  -0.177  0.00  0.00     0.060 A 
ATOM     24  C   UNL d   1       3.872  -2.515  -0.742  0.00  0.00     0.031 A 
ATOM     25  C   UNL d   1       5.162  -3.040  -0.863  0.00  0.00     0.002 A 
ATOM     26  C   UNL d   1       6.257  -2.311  -0.416  0.00  0.00     0.000 A 
ATOM     27  C   UNL d   1       6.065  -1.052   0.144  0.00  0.00     0.002 A 
ATOM     28  C   UNL d   1       4.772  -0.520   0.253  0.00  0.00     0.031 A 
ENDBRANCH   1  23
TORSDOF 3
