REMARK  2 active torsions:
REMARK  status: ('A' for Active; 'I' for Inactive)
REMARK    1  A    between atoms: O_12  and  C_4 
REMARK    2  A    between atoms: O_14  and  C_10 
ROOT
ATOM      1  C   UNL d   1       1.254   1.470   0.039  0.00  0.00    -0.040 A 
ATOM      2  C   UNL d   1      -0.060   0.792  -0.013  0.00  0.00     0.037 A 
ATOM      3  C   UNL d   1      -0.059  -0.612  -0.023  0.00  0.00     0.095 A 
ATOM      4  C   UNL d   1      -1.329   1.400  -0.019  0.00  0.00     0.081 A 
ATOM      5  O   UNL d   1       1.135  -1.363  -0.056  0.00  0.00    -0.275 OA
ATOM      6  C   UNL d   1       2.370  -0.750  -0.056  0.00  0.00     0.288 A 
ATOM      7  C   UNL d   1       2.367   0.716   0.020  0.00  0.00     0.090 A 
ATOM      8  C   UNL d   1      -1.229  -1.378  -0.008  0.00  0.00     0.075 A 
ATOM      9  C   UNL d   1      -2.514   0.651   0.030  0.00  0.00     0.074 A 
ATOM     10  C   UNL d   1      -2.452  -0.735   0.031  0.00  0.00     0.071 A 
ATOM     11  O   UNL d   1       3.420  -1.375  -0.106  0.00  0.00    -0.260 OA
ATOM     12  C   UNL d   1       1.412   2.957   0.175  0.00  0.00     0.049 C 
ENDROOT
BRANCH   4  13
ATOM     13  O   UNL d   1      -1.530   2.750  -0.102  0.00  0.00    -0.360 OA
ATOM     14  H   UNL d   1      -0.891   3.096  -0.748  0.00  0.00     0.217 HD
ENDBRANCH   4  13
BRANCH  10  15
ATOM     15  O   UNL d   1      -3.578  -1.502   0.053  0.00  0.00    -0.361 OA
ATOM     16  H   UNL d   1      -4.355  -0.919   0.086  0.00  0.00     0.217 HD
ENDBRANCH  10  15
TORSDOF 2
