REMARK  6 active torsions:
REMARK  status: ('A' for Active; 'I' for Inactive)
REMARK    1  A    between atoms: C_4  and  C_1 
REMARK       I    between atoms: N_5  and  C_1 
REMARK    2  A    between atoms: C_2  and  C_3 
REMARK       I    between atoms: N_6  and  C_2 
REMARK    3  A    between atoms: C_14  and  N_5 
REMARK    4  A    between atoms: C_13  and  N_6 
REMARK    5  A    between atoms: C_27  and  C_15 
REMARK    6  A    between atoms: C_28  and  C_16 
ROOT
ATOM      1  N   UNL d   1       6.156  -9.393   1.857  0.00  0.00    -0.197 NA
ATOM      2  C   UNL d   1       6.093  -8.388   2.431  0.00  0.00     0.063 C 
ATOM      3  C   UNL d   1       6.009  -7.120   3.185  0.00  0.00     0.162 C 
ENDROOT
BRANCH   3   4
ATOM      4  C   UNL d   1       4.865  -6.241   2.740  0.00  0.00    -0.045 A 
ATOM      5  C   UNL d   1       3.539  -6.684   2.831  0.00  0.00     0.010 A 
ATOM      6  C   UNL d   1       2.492  -5.918   2.302  0.00  0.00     0.030 A 
ATOM      7  C   UNL d   1       2.744  -4.693   1.675  0.00  0.00     0.035 A 
ATOM      8  C   UNL d   1       4.055  -4.209   1.674  0.00  0.00     0.030 A 
ATOM      9  C   UNL d   1       5.106  -4.974   2.199  0.00  0.00     0.010 A 
BRANCH   7  10
ATOM     10  N   UNL d   1       1.650  -4.045   1.044  0.00  0.00    -0.323 N 
ATOM     11  C   UNL d   1       1.714  -2.906   0.258  0.00  0.00     0.257 C 
ATOM     12  O   UNL d   1       2.718  -2.227   0.086  0.00  0.00    -0.267 OA
ATOM     13  H   UNL d   1       0.760  -4.516   1.133  0.00  0.00     0.169 HD
BRANCH  11  14
ATOM     14  C   UNL d   1       0.458  -2.446  -0.406  0.00  0.00     0.048 A 
ATOM     15  C   UNL d   1       0.260  -1.084  -0.717  0.00  0.00     0.048 A 
ATOM     16  C   UNL d   1      -0.782  -0.724  -1.595  0.00  0.00     0.018 A 
ATOM     17  C   UNL d   1      -1.678  -1.675  -2.076  0.00  0.00     0.001 A 
ATOM     18  C   UNL d   1      -1.548  -3.001  -1.680  0.00  0.00     0.001 A 
ATOM     19  C   UNL d   1      -0.474  -3.393  -0.873  0.00  0.00     0.018 A 
BRANCH  15  20
ATOM     20  C   UNL d   1       0.984   0.082  -0.110  0.00  0.00     0.257 C 
ATOM     21  N   UNL d   1       1.414  -0.073   1.196  0.00  0.00    -0.323 N 
ATOM     22  H   UNL d   1       1.590  -1.013   1.516  0.00  0.00     0.169 HD
ATOM     23  O   UNL d   1       1.057   1.120  -0.763  0.00  0.00    -0.267 OA
BRANCH  21  24
ATOM     24  C   UNL d   1       1.924   0.934   2.035  0.00  0.00     0.035 A 
ATOM     25  C   UNL d   1       1.715   2.294   1.816  0.00  0.00     0.030 A 
ATOM     26  C   UNL d   1       2.307   3.242   2.655  0.00  0.00     0.010 A 
ATOM     27  C   UNL d   1       3.116   2.841   3.726  0.00  0.00    -0.045 A 
ATOM     28  C   UNL d   1       3.263   1.471   3.984  0.00  0.00     0.010 A 
ATOM     29  C   UNL d   1       2.665   0.526   3.148  0.00  0.00     0.030 A 
BRANCH  27  30
ATOM     30  C   UNL d   1       3.823   3.869   4.577  0.00  0.00     0.162 C 
ATOM     31  C   UNL d   1       5.290   3.749   4.524  0.00  0.00     0.063 C 
ATOM     32  N   UNL d   1       6.447   3.658   4.510  0.00  0.00    -0.197 NA
ENDBRANCH  27  30
ENDBRANCH  21  24
ENDBRANCH  15  20
ENDBRANCH  11  14
ENDBRANCH   7  10
ENDBRANCH   3   4
TORSDOF 6
