REMARK  6 active torsions:
REMARK  status: ('A' for Active; 'I' for Inactive)
REMARK    1  A    between atoms: C_2  and  S_1 
REMARK    2  A    between atoms: C_10  and  S_1 
REMARK    3  A    between atoms: C_3  and  C_5 
REMARK    4  A    between atoms: C_4  and  C_6 
REMARK    5  A    between atoms: N_14  and  C_7 
REMARK    6  A    between atoms: C_15  and  N_14 
ROOT
ATOM      1  C   UNL d   1       0.435   1.334   0.787  0.00  0.00     0.159 C 
ATOM      2  C   UNL d   1      -0.298   2.272   0.159  0.00  0.00     0.123 C 
ATOM      3  C   UNL d   1       0.894   0.168   0.128  0.00  0.00     0.113 C 
ATOM      4  N   UNL d   1       1.248  -0.755  -0.475  0.00  0.00    -0.191 NA
ENDROOT
BRANCH   1   5
ATOM      5  S   UNL d   1       0.751   1.543   2.477  0.00  0.00     0.218 S 
ATOM      6  O   UNL d   1      -0.301   0.890   3.235  0.00  0.00    -0.216 OA
ATOM      7  O   UNL d   1       1.056   2.941   2.740  0.00  0.00    -0.216 OA
BRANCH   5   8
ATOM      8  C   UNL d   1       2.253   0.641   2.804  0.00  0.00     0.065 A 
ATOM      9  C   UNL d   1       3.485   1.296   2.715  0.00  0.00     0.024 A 
ATOM     10  C   UNL d   1       4.651   0.617   3.075  0.00  0.00     0.008 A 
ATOM     11  C   UNL d   1       4.592  -0.705   3.538  0.00  0.00    -0.062 A 
ATOM     12  C   UNL d   1       3.351  -1.352   3.611  0.00  0.00     0.008 A 
ATOM     13  C   UNL d   1       5.852  -1.409   3.953  0.00  0.00     0.048 C 
ATOM     14  C   UNL d   1       2.180  -0.680   3.256  0.00  0.00     0.024 A 
ENDBRANCH   5   8
ENDBRANCH   1   5
BRANCH   2  15
ATOM     15  N   UNL d   1      -0.762   2.261  -1.140  0.00  0.00    -0.364 N 
ATOM     16  H   UNL d   1      -0.699   1.381  -1.651  0.00  0.00     0.165 HD
BRANCH  15  17
ATOM     17  C   UNL d   1      -1.420   3.298  -1.822  0.00  0.00     0.033 A 
ATOM     18  C   UNL d   1      -1.173   4.647  -1.552  0.00  0.00     0.045 A 
ATOM     19  C   UNL d   1      -1.909   5.667  -2.178  0.00  0.00     0.050 A 
ATOM     20  C   UNL d   1      -2.922   5.319  -3.083  0.00  0.00     0.032 A 
ATOM     21  C   UNL d   1      -3.201   3.973  -3.362  0.00  0.00     0.050 A 
ATOM     22  C   UNL d   1      -2.432   2.976  -2.736  0.00  0.00     0.045 A 
BRANCH  19  23
ATOM     23  C   UNL d   1      -1.610   7.107  -1.837  0.00  0.00     0.417 C 
ATOM     24  F   UNL d   1      -2.417   7.997  -2.475  0.00  0.00    -0.166 F 
ATOM     25  F   UNL d   1      -1.753   7.357  -0.506  0.00  0.00    -0.166 F 
ATOM     26  F   UNL d   1      -0.334   7.463  -2.150  0.00  0.00    -0.166 F 
ENDBRANCH  19  23
BRANCH  21  27
ATOM     27  C   UNL d   1      -4.335   3.582  -4.282  0.00  0.00     0.417 C 
ATOM     28  F   UNL d   1      -5.039   4.645  -4.758  0.00  0.00    -0.166 F 
ATOM     29  F   UNL d   1      -3.908   2.893  -5.375  0.00  0.00    -0.166 F 
ATOM     30  F   UNL d   1      -5.245   2.779  -3.664  0.00  0.00    -0.166 F 
ENDBRANCH  21  27
ENDBRANCH  15  17
ENDBRANCH   2  15
TORSDOF 6
