REMARK  3 active torsions:
REMARK  status: ('A' for Active; 'I' for Inactive)
REMARK    1  A    between atoms: C_2  and  C_1 
REMARK       I    between atoms: N_6  and  C_2 
REMARK    2  A    between atoms: C_14  and  C_5 
REMARK    3  A    between atoms: C_11  and  N_6 
ROOT
ATOM      1  C   UNL d   1       0.135  -2.728  -0.151  0.00  0.00     0.262 C 
ATOM      2  N   UNL d   1      -0.966  -3.552  -0.261  0.00  0.00    -0.309 N 
ATOM      3  O   UNL d   1       1.301  -3.098  -0.111  0.00  0.00    -0.267 OA
ATOM      4  H   UNL d   1      -1.870  -3.120  -0.343  0.00  0.00     0.170 HD
ENDROOT
BRANCH   1   5
ATOM      5  C   UNL d   1      -0.191  -1.301  -0.099  0.00  0.00     0.093 A 
ATOM      6  C   UNL d   1       0.610  -0.190  -0.548  0.00  0.00     0.083 A 
ATOM      7  N   UNL d   1       0.009   0.970  -0.227  0.00  0.00    -0.259 N 
ATOM      8  O   UNL d   1      -1.195   0.651   0.333  0.00  0.00    -0.241 OA
ATOM      9  HN  UNL d   1       0.381   1.908  -0.374  1.00  0.00     0.195 HD
ATOM     10  C   UNL d   1      -1.339  -0.696   0.384  0.00  0.00     0.090 A 
ATOM     11  C   UNL d   1      -2.645  -1.141   0.913  0.00  0.00     0.080 C 
BRANCH   6  12
ATOM     12  C   UNL d   1       1.842  -0.147  -1.344  0.00  0.00    -0.006 A 
ATOM     13  C   UNL d   1       2.729   0.936  -1.216  0.00  0.00     0.014 A 
ATOM     14  C   UNL d   1       3.827   1.069  -2.070  0.00  0.00     0.001 A 
ATOM     15  C   UNL d   1       4.057   0.119  -3.061  0.00  0.00     0.000 A 
ATOM     16  C   UNL d   1       3.197  -0.968  -3.192  0.00  0.00     0.001 A 
ATOM     17  C   UNL d   1       2.095  -1.099  -2.341  0.00  0.00     0.014 A 
ENDBRANCH   6  12
ENDBRANCH   1   5
BRANCH   2  18
ATOM     18  C   UNL d   1      -0.954  -4.946  -0.425  0.00  0.00     0.108 A 
ATOM     19  N   UNL d   1       0.195  -5.636  -0.484  0.00  0.00    -0.342 N 
ATOM     20  C   UNL d   1       0.153  -6.956  -0.764  0.00  0.00     0.043 A 
ATOM     21  HN  UNL d   1       1.087  -5.170  -0.320  1.00  0.00     0.167 HD
ATOM     22  C   UNL d   1       1.334  -7.680  -0.866  0.00  0.00     0.030 A 
ATOM     23  C   UNL d   1      -1.059  -7.640  -0.990  0.00  0.00    -0.009 A 
ATOM     24  C   UNL d   1       1.341  -9.035  -1.222  0.00  0.00     0.002 A 
ATOM     25  C   UNL d   1       0.143  -9.692  -1.473  0.00  0.00     0.001 A 
ATOM     26  C   UNL d   1      -1.059  -9.001  -1.345  0.00  0.00     0.013 A 
ATOM     27  C   UNL d   1      -2.246  -6.918  -0.866  0.00  0.00     0.017 A 
ATOM     28  C   UNL d   1      -2.193  -5.557  -0.581  0.00  0.00     0.049 A 
ENDBRANCH   2  18
TORSDOF 3
