REMARK  1 active torsions:
REMARK  status: ('A' for Active; 'I' for Inactive)
REMARK    1  A    between atoms: C_11  and  N_3 
ROOT
ATOM      1  C   UNL d   1       0.248   0.728   0.002  0.00  0.00     0.070 A 
ATOM      2  C   UNL d   1       0.248  -0.670  -0.029  0.00  0.00     0.021 A 
ATOM      3  N   UNL d   1       2.389   0.025  -0.015  0.00  0.00    -0.318 N 
ATOM      4  C   UNL d   1       1.562   1.161  -0.015  0.00  0.00     0.030 A 
ATOM      5  C   UNL d   1       1.558  -1.111  -0.026  0.00  0.00     0.026 A 
ATOM      6  C   UNL d   1      -0.999   1.465   0.022  0.00  0.00     0.273 A 
ATOM      7  N   UNL d   1      -2.131  -0.753  -0.015  0.00  0.00    -0.308 N 
ATOM      8  HN  UNL d   1      -3.015  -1.262  -0.020  1.00  0.00     0.186 HD
ATOM      9  N   UNL d   1      -2.118   0.637   0.012  0.00  0.00    -0.266 N 
ATOM     10  C   UNL d   1      -0.998  -1.394  -0.032  0.00  0.00     0.121 A 
ATOM     11  O   UNL d   1      -1.085   2.687   0.054  0.00  0.00    -0.266 OA
ATOM     12  C   UNL d   1       2.034  -2.523   0.062  0.00  0.00     0.070 C 
ATOM     13  C   UNL d   1       2.013   2.582  -0.115  0.00  0.00     0.070 C 
ATOM     14  H   UNL d   1      -3.023   1.094   0.024  0.00  0.00     0.190 HD
ENDROOT
BRANCH   3  15
ATOM     15  C   UNL d   1       3.823   0.022  -0.003  0.00  0.00     0.039 A 
ATOM     16  C   UNL d   1       4.531   0.964   0.756  0.00  0.00     0.030 A 
ATOM     17  C   UNL d   1       5.929   0.981   0.740  0.00  0.00     0.002 A 
ATOM     18  C   UNL d   1       6.633   0.043  -0.010  0.00  0.00     0.000 A 
ATOM     19  C   UNL d   1       5.940  -0.910  -0.751  0.00  0.00     0.002 A 
ATOM     20  C   UNL d   1       4.542  -0.915  -0.756  0.00  0.00     0.030 A 
ENDBRANCH   3  15
TORSDOF 1
