REMARK  3 active torsions:
REMARK  status: ('A' for Active; 'I' for Inactive)
REMARK    1  A    between atoms: C_6  and  CA_1 
REMARK    2  A    between atoms: OXT_11  and  C_6 
REMARK    3  A    between atoms: O_13  and  C_10 
ROOT
ATOM      1  CA  UNL d   1      -2.419  -0.155  -0.076  0.00  0.00     0.107 A 
ATOM      2  N   UNL d   1      -1.620   0.968   0.003  0.00  0.00    -0.350 N 
ATOM      3  C   UNL d   1      -1.568  -1.246  -0.038  0.00  0.00     0.050 A 
ATOM      4  C   UNL d   1      -0.232  -0.768  -0.018  0.00  0.00    -0.004 A 
ATOM      5  C   UNL d   1      -0.288   0.623  -0.012  0.00  0.00     0.043 A 
ATOM      6  C   UNL d   1       1.025  -1.397  -0.009  0.00  0.00     0.050 A 
ATOM      7  C   UNL d   1       0.863   1.418  -0.011  0.00  0.00     0.033 A 
ATOM      8  C   UNL d   1       2.193  -0.626  -0.019  0.00  0.00     0.069 A 
ATOM      9  C   UNL d   1       2.106   0.766  -0.021  0.00  0.00     0.039 A 
ATOM     10  H   UNL d   1      -1.978   1.916   0.029  0.00  0.00     0.166 HD
ENDROOT
BRANCH   1  11
ATOM     11  C   UNL d   1      -3.856  -0.070  -0.142  0.00  0.00     0.193 C 
ATOM     12  O   UNL d   1      -4.513   0.898   0.209  0.00  0.00    -0.645 OA
BRANCH  11  13
ATOM     13  OXT UNL d   1      -4.411  -1.172  -0.694  0.00  0.00    -0.772 OA
ATOM     14  HXT UNL d   1      -3.748  -1.786  -1.060  0.00  0.00     0.167 HD
ENDBRANCH  11  13
ENDBRANCH   1  11
BRANCH   8  15
ATOM     15  O   UNL d   1       3.345  -1.366  -0.028  0.00  0.00    -0.356 OA
ATOM     16  C   UNL d   1       4.572  -0.653  -0.071  0.00  0.00     0.210 C 
ENDBRANCH   8  15
TORSDOF 3
