REMARK  1 active torsions:
REMARK  status: ('A' for Active; 'I' for Inactive)
REMARK    1  A    between atoms: C_8  and  C_3 
ROOT
ATOM      1  C   UNL d   1      -0.029   0.696   0.068  0.00  0.00     0.024 C 
ATOM      2  C   UNL d   1      -0.062  -0.653   0.087  0.00  0.00     0.021 C 
ATOM      3  C   UNL d   1      -1.296   1.525  -0.048  0.00  0.00     0.103 C 
ATOM      4  C   UNL d   1      -2.575   0.686   0.066  0.00  0.00     0.057 C 
ATOM      5  N   UNL d   1      -1.280  -1.310   0.062  0.00  0.00    -0.362 N 
ATOM      6  C   UNL d   1      -2.513  -0.668   0.085  0.00  0.00     0.023 C 
ATOM      7  C   UNL d   1       1.272   1.418   0.147  0.00  0.00     0.159 C 
ATOM      8  C   UNL d   1      -3.813   1.389   0.124  0.00  0.00     0.098 C 
ATOM      9  N   UNL d   1      -4.826   1.960   0.184  0.00  0.00    -0.192 NA
ATOM     10  C   UNL d   1       1.194  -1.502   0.091  0.00  0.00     0.067 C 
ATOM     11  C   UNL d   1       2.450  -0.735  -0.388  0.00  0.00    -0.036 C 
ATOM     12  C   UNL d   1       2.520   0.599   0.368  0.00  0.00     0.092 C 
ATOM     13  O   UNL d   1       1.322   2.645   0.105  0.00  0.00    -0.293 OA
ATOM     14  C   UNL d   1      -3.728  -1.564   0.106  0.00  0.00     0.069 C 
ATOM     15  C   UNL d   1       2.400  -0.495  -1.914  0.00  0.00     0.015 C 
ATOM     16  C   UNL d   1       3.718  -1.547  -0.079  0.00  0.00     0.015 C 
ATOM     17  H   UNL d   1      -1.277  -2.327   0.112  0.00  0.00     0.165 HD
ENDROOT
BRANCH   3  18
ATOM     18  C   UNL d   1      -1.313   2.304  -1.365  0.00  0.00    -0.041 A 
ATOM     19  C   UNL d   1      -1.264   1.609  -2.588  0.00  0.00     0.048 A 
ATOM     20  C   UNL d   1      -1.295   2.342  -3.749  0.00  0.00     0.105 A 
ATOM     21  O   UNL d   1      -1.269   1.824  -5.005  0.00  0.00    -0.323 OA
ATOM     22  C   UNL d   1      -1.373   3.714  -3.740  0.00  0.00     0.105 A 
ATOM     23  C   UNL d   1      -1.395   3.028  -5.787  0.00  0.00     0.352 A 
ATOM     24  O   UNL d   1      -1.412   4.234  -4.995  0.00  0.00    -0.323 OA
ATOM     25  C   UNL d   1      -1.421   4.433  -2.566  0.00  0.00     0.040 A 
ATOM     26  C   UNL d   1      -1.394   3.717  -1.365  0.00  0.00     0.011 A 
ENDBRANCH   3  18
TORSDOF 1
