REMARK  4 active torsions:
REMARK  status: ('A' for Active; 'I' for Inactive)
REMARK    1  A    between atoms: O_2  and  S_1 
REMARK    2  A    between atoms: C_8  and  S_1 
REMARK    3  A    between atoms: C_3  and  O_2 
REMARK    4  A    between atoms: N_4  and  C_5 
ROOT
ATOM      1  C   UNL d   1       0.978  -0.221  -2.547  0.00  0.00     0.116 A 
ATOM      2  C   UNL d   1       2.254   0.149  -3.038  0.00  0.00     0.065 A 
ATOM      3  C   UNL d   1      -0.157  -0.087  -3.366  0.00  0.00     0.040 A 
ATOM      4  C   UNL d   1       2.293   0.752  -4.318  0.00  0.00     0.032 A 
ATOM      5  C   UNL d   1      -0.069   0.475  -4.639  0.00  0.00     0.003 A 
ATOM      6  C   UNL d   1       1.157   0.909  -5.112  0.00  0.00     0.002 A 
ENDROOT
BRANCH   1   7
ATOM      7  O   UNL d   1       0.890  -0.848  -1.328  0.00  0.00    -0.227 OA
BRANCH   7   8
ATOM      8  S   UNL d   1      -0.288  -0.567  -0.228  0.00  0.00     0.303 S 
ATOM      9  O   UNL d   1       0.053  -1.335   0.957  0.00  0.00    -0.193 OA
ATOM     10  O   UNL d   1      -1.599  -0.738  -0.826  0.00  0.00    -0.193 OA
BRANCH   8  11
ATOM     11  C   UNL d   1      -0.142   1.152   0.239  0.00  0.00     0.086 A 
ATOM     12  C   UNL d   1      -0.840   2.132  -0.473  0.00  0.00     0.026 A 
ATOM     13  C   UNL d   1      -0.762   3.466  -0.065  0.00  0.00     0.002 A 
ATOM     14  C   UNL d   1      -0.009   3.812   1.058  0.00  0.00     0.000 A 
ATOM     15  C   UNL d   1       0.657   2.827   1.787  0.00  0.00     0.002 A 
ATOM     16  C   UNL d   1       0.586   1.493   1.385  0.00  0.00     0.026 A 
ENDBRANCH   8  11
ENDBRANCH   7   8
ENDBRANCH   1   7
BRANCH   2  17
ATOM     17  N   UNL d   1       3.489  -0.017  -2.380  0.00  0.00    -0.379 N 
ATOM     18  C   UNL d   1       3.542  -0.229  -0.931  0.00  0.00     0.123 C 
ATOM     19  C   UNL d   1       4.942   0.115  -0.417  0.00  0.00     0.020 C 
ATOM     20  C   UNL d   1       6.031  -0.661  -1.154  0.00  0.00     0.003 C 
ATOM     21  C   UNL d   1       5.875  -0.542  -2.667  0.00  0.00     0.020 C 
ATOM     22  C   UNL d   1       4.450  -0.865  -3.120  0.00  0.00     0.123 C 
ENDBRANCH   2  17
TORSDOF 4
