REMARK  10 active torsions:
REMARK  status: ('A' for Active; 'I' for Inactive)
REMARK       I    between atoms: N_12  and  C_1 
REMARK       I    between atoms: N_13  and  C_1 
REMARK    1  A    between atoms: O_23  and  C_2 
REMARK    2  A    between atoms: O_24  and  C_3 
REMARK    3  A    between atoms: O_25  and  C_4 
REMARK    4  A    between atoms: O_26  and  C_5 
REMARK    5  A    between atoms: O_27  and  C_6 
REMARK    6  A    between atoms: O_28  and  C_7 
REMARK    7  A    between atoms: N_8  and  N_13 
REMARK    8  A    between atoms: N_10  and  N_12 
REMARK    9  A    between atoms: C_19  and  C_22 
REMARK   10  A    between atoms: C_20  and  C_21 
ROOT
ATOM      1  C   UNL d   1       1.128  -0.130  -0.008  0.00  0.00     0.353 C 
ATOM      2  N   UNL d   1       0.483   0.126  -1.217  0.00  0.00    -0.251 N 
ATOM      3  N   UNL d   1       0.208  -0.229   1.040  0.00  0.00    -0.251 N 
ATOM      4  O   UNL d   1       2.340  -0.259   0.123  0.00  0.00    -0.244 OA
ATOM      5  H   UNL d   1      -0.524   0.169  -1.261  0.00  0.00     0.191 HD
ATOM      6  H   UNL d   1      -0.768  -0.029   0.868  0.00  0.00     0.191 HD
ENDROOT
BRANCH   2   7
ATOM      7  N   UNL d   1       1.204   0.274  -2.368  0.00  0.00    -0.307 N 
ATOM      8  C   UNL d   1       0.521   0.507  -3.444  0.00  0.00     0.118 C 
ATOM      9  HN  UNL d   1       2.221   0.204  -2.380  1.00  0.00     0.186 HD
BRANCH   8  10
ATOM     10  C   UNL d   1       1.167   0.689  -4.761  0.00  0.00    -0.014 A 
ATOM     11  C   UNL d   1       2.548   0.584  -4.909  0.00  0.00     0.052 A 
ATOM     12  C   UNL d   1       3.154   0.757  -6.164  0.00  0.00     0.105 A 
ATOM     13  C   UNL d   1       2.350   1.036  -7.282  0.00  0.00     0.135 A 
ATOM     14  C   UNL d   1       0.941   1.081  -7.139  0.00  0.00     0.105 A 
ATOM     15  C   UNL d   1       0.361   0.944  -5.871  0.00  0.00     0.052 A 
BRANCH  12  16
ATOM     16  O   UNL d   1       4.515   0.610  -6.091  0.00  0.00    -0.353 OA
ATOM     17  C   UNL d   1       5.296   0.737  -7.267  0.00  0.00     0.210 C 
ENDBRANCH  12  16
BRANCH  13  18
ATOM     18  O   UNL d   1       2.921   1.112  -8.530  0.00  0.00    -0.351 OA
ATOM     19  C   UNL d   1       2.697   2.344  -9.213  0.00  0.00     0.210 C 
ENDBRANCH  13  18
BRANCH  14  20
ATOM     20  O   UNL d   1       0.204   1.244  -8.286  0.00  0.00    -0.353 OA
ATOM     21  C   UNL d   1      -1.180   0.921  -8.229  0.00  0.00     0.210 C 
ENDBRANCH  14  20
ENDBRANCH   8  10
ENDBRANCH   2   7
BRANCH   3  22
ATOM     22  N   UNL d   1       0.630  -0.434   2.328  0.00  0.00    -0.307 N 
ATOM     23  C   UNL d   1      -0.311  -0.471   3.216  0.00  0.00     0.118 C 
ATOM     24  HN  UNL d   1       1.615  -0.550   2.569  1.00  0.00     0.186 HD
BRANCH  23  25
ATOM     25  C   UNL d   1      -0.053  -0.646   4.660  0.00  0.00    -0.014 A 
ATOM     26  C   UNL d   1       1.235  -0.749   5.177  0.00  0.00     0.052 A 
ATOM     27  C   UNL d   1       1.446  -0.868   6.563  0.00  0.00     0.105 A 
ATOM     28  C   UNL d   1       0.337  -0.874   7.433  0.00  0.00     0.135 A 
ATOM     29  C   UNL d   1      -0.966  -0.719   6.902  0.00  0.00     0.105 A 
ATOM     30  C   UNL d   1      -1.152  -0.648   5.518  0.00  0.00     0.052 A 
BRANCH  27  31
ATOM     31  O   UNL d   1       2.780  -0.947   6.870  0.00  0.00    -0.353 OA
ATOM     32  C   UNL d   1       3.180  -1.052   8.227  0.00  0.00     0.210 C 
ENDBRANCH  27  31
BRANCH  28  33
ATOM     33  O   UNL d   1       0.540  -0.868   8.790  0.00  0.00    -0.351 OA
ATOM     34  C   UNL d   1      -0.103  -1.924   9.505  0.00  0.00     0.210 C 
ENDBRANCH  28  33
BRANCH  29  35
ATOM     35  O   UNL d   1      -2.002  -0.614   7.800  0.00  0.00    -0.353 OA
ATOM     36  C   UNL d   1      -3.238  -0.104   7.311  0.00  0.00     0.210 C 
ENDBRANCH  29  35
ENDBRANCH  23  25
ENDBRANCH   3  22
TORSDOF 10
