REMARK  4 active torsions:
REMARK  status: ('A' for Active; 'I' for Inactive)
REMARK       I    between atoms: N_4  and  C_1 
REMARK       I    between atoms: N_5  and  C_1 
REMARK    1  A    between atoms: C_2  and  C_12 
REMARK    2  A    between atoms: C_13  and  C_3 
REMARK    3  A    between atoms: C_6  and  N_4 
REMARK    4  A    between atoms: C_11  and  N_5 
ROOT
ATOM      1  N   UNL d   1      -3.098  -1.258  -2.088  0.00  0.00    -0.372 N 
ATOM      2  HN  UNL d   1      -3.542  -1.971  -2.668  1.00  0.00     0.164 HD
ATOM      3  C   UNL d   1      -1.084  -0.240  -1.167  0.00  0.00     0.053 A 
ATOM      4  C   UNL d   1      -3.258   0.667  -0.634  0.00  0.00     0.035 A 
ATOM      5  C   UNL d   1      -1.868   0.713  -0.516  0.00  0.00     0.053 A 
ATOM      6  C   UNL d   1      -1.753  -1.188  -1.942  0.00  0.00     0.117 A 
ATOM      7  C   UNL d   1      -3.820  -0.327  -1.422  0.00  0.00     0.108 A 
ENDROOT
BRANCH   3   8
ATOM      8  N   UNL d   1       0.327  -0.288  -1.103  0.00  0.00    -0.307 N 
ATOM      9  C   UNL d   1       1.146   0.504  -0.319  0.00  0.00     0.325 C 
ATOM     10  N   UNL d   1       2.479   0.321  -0.661  0.00  0.00    -0.307 N 
ATOM     11  O   UNL d   1       0.765   1.294   0.535  0.00  0.00    -0.247 OA
ATOM     12  H   UNL d   1       2.629   0.169  -1.651  0.00  0.00     0.170 HD
ATOM     13  H   UNL d   1       0.783  -1.057  -1.574  0.00  0.00     0.170 HD
BRANCH  10  14
ATOM     14  C   UNL d   1       3.509   1.059  -0.023  0.00  0.00     0.058 A 
ATOM     15  C   UNL d   1       4.488   1.701  -0.796  0.00  0.00     0.060 A 
ATOM     16 CL   UNL d   1       4.431   1.650  -2.524  0.00  0.00    -0.082 Cl
ATOM     17  C   UNL d   1       5.492   2.454  -0.183  0.00  0.00     0.026 A 
ATOM     18  C   UNL d   1       5.541   2.545   1.209  0.00  0.00     0.002 A 
ATOM     19  C   UNL d   1       4.583   1.893   1.984  0.00  0.00     0.002 A 
ATOM     20  C   UNL d   1       3.566   1.157   1.371  0.00  0.00     0.031 A 
ENDBRANCH  10  14
ENDBRANCH   3   8
BRANCH   4  21
ATOM     21  C   UNL d   1      -4.086   1.606   0.057  0.00  0.00    -0.060 C 
ATOM     22  C   UNL d   1      -4.798   2.368   0.649  0.00  0.00    -0.061 C 
BRANCH  22  23
ATOM     23  C   UNL d   1      -5.687   3.243   1.352  0.00  0.00     0.018 A 
ATOM     24  C   UNL d   1      -6.805   2.717   2.004  0.00  0.00     0.020 A 
ATOM     25  C   UNL d   1      -7.690   3.567   2.668  0.00  0.00     0.001 A 
ATOM     26  C   UNL d   1      -7.455   4.942   2.686  0.00  0.00     0.000 A 
ATOM     27  C   UNL d   1      -6.333   5.467   2.045  0.00  0.00     0.001 A 
ATOM     28  C   UNL d   1      -5.446   4.618   1.380  0.00  0.00     0.020 A 
ENDBRANCH  22  23
ENDBRANCH   4  21
TORSDOF 4
