REMARK  2 active torsions:
REMARK  status: ('A' for Active; 'I' for Inactive)
REMARK    1  A    between atoms: C_16  and  N_4 
REMARK    2  A    between atoms: C_13  and  C_16 
ROOT
ATOM      1  C   UNL d   1      -4.877  -2.334   3.444  0.00  0.00     0.105 A 
ATOM      2  C   UNL d   1      -4.341  -3.582   3.238  0.00  0.00     0.105 A 
ATOM      3  O   UNL d   1      -6.053  -2.376   4.125  0.00  0.00    -0.323 OA
ATOM      4  O   UNL d   1      -5.115  -4.569   3.764  0.00  0.00    -0.323 OA
ATOM      5  C   UNL d   1      -6.212  -3.800   4.299  0.00  0.00     0.352 A 
ATOM      6  C   UNL d   1      -4.254  -1.191   2.990  0.00  0.00     0.048 A 
ATOM      7  C   UNL d   1      -3.042  -1.327   2.293  0.00  0.00    -0.027 A 
ATOM      8  C   UNL d   1      -3.151  -3.758   2.568  0.00  0.00     0.040 A 
ATOM      9  C   UNL d   1      -2.497  -2.616   2.090  0.00  0.00     0.012 A 
ENDROOT
BRANCH   7  10
ATOM     10  C   UNL d   1      -2.323  -0.098   1.782  0.00  0.00     0.311 C 
BRANCH  10  11
ATOM     11  N   UNL d   1      -2.191  -0.038   0.315  0.00  0.00     0.094 N 
ATOM     12  C   UNL d   1      -3.465  -0.043  -0.423  0.00  0.00     0.287 C 
ATOM     13  C   UNL d   1      -4.350   1.168  -0.195  0.00  0.00     0.170 C 
ATOM     14  S   UNL d   1      -3.489   2.668  -0.598  0.00  0.00     0.147 S 
ATOM     15  C   UNL d   1      -1.903   2.463   0.169  0.00  0.00     0.170 C 
ATOM     16  O   UNL d   1      -4.166   3.758   0.079  0.00  0.00    -0.228 OA
ATOM     17  O   UNL d   1      -3.292   2.706  -2.036  0.00  0.00    -0.228 OA
ATOM     18  C   UNL d   1      -1.339   1.083  -0.121  0.00  0.00     0.287 C 
ENDBRANCH  10  11
ENDBRANCH   7  10
TORSDOF 2
