REMARK  6 active torsions:
REMARK  status: ('A' for Active; 'I' for Inactive)
REMARK    1  A    between atoms: C_2  and  C_1 
REMARK       I    between atoms: N_5  and  C_1 
REMARK    2  A    between atoms: N_3  and  N_5 
REMARK    3  A    between atoms: C_14  and  C_7 
REMARK    4  A    between atoms: C_8  and  C_10 
REMARK    5  A    between atoms: C_11  and  C_9 
REMARK    6  A    between atoms: O_12  and  C_14 
ROOT
ATOM      1  C   UNL d   1       0.905   0.246  -0.094  0.00  0.00     0.270 C 
ATOM      2  N   UNL d   1       0.152   1.250   0.484  0.00  0.00    -0.266 N 
ATOM      3  O   UNL d   1       0.449  -0.836  -0.467  0.00  0.00    -0.266 OA
ATOM      4  H   UNL d   1       0.545   2.180   0.544  0.00  0.00     0.190 HD
ENDROOT
BRANCH   2   5
ATOM      5  N   UNL d   1      -1.205   1.132   0.558  0.00  0.00    -0.309 N 
ATOM      6  C   UNL d   1      -1.820   2.194   0.965  0.00  0.00     0.107 C 
ATOM      7  HN  UNL d   1      -1.696   0.272   0.313  1.00  0.00     0.186 HD
BRANCH   6   8
ATOM      8  C   UNL d   1      -3.291   2.214   1.043  0.00  0.00     0.019 C 
ATOM      9  C   UNL d   1      -3.950   3.267   1.545  0.00  0.00     0.013 C 
BRANCH   9  10
ATOM     10  C   UNL d   1      -5.418   3.309   1.651  0.00  0.00    -0.036 A 
ATOM     11  C   UNL d   1      -6.181   2.147   1.835  0.00  0.00     0.011 A 
ATOM     12  C   UNL d   1      -7.572   2.211   1.943  0.00  0.00     0.001 A 
ATOM     13  C   UNL d   1      -8.217   3.442   1.885  0.00  0.00     0.000 A 
ATOM     14  C   UNL d   1      -7.472   4.609   1.726  0.00  0.00     0.001 A 
ATOM     15  C   UNL d   1      -6.080   4.544   1.614  0.00  0.00     0.011 A 
ENDBRANCH   9  10
ENDBRANCH   6   8
ENDBRANCH   2   5
BRANCH   1  16
ATOM     16  C   UNL d   1       2.389   0.479  -0.196  0.00  0.00     0.042 A 
ATOM     17  C   UNL d   1       3.064   1.712  -0.356  0.00  0.00    -0.019 A 
ATOM     18  C   UNL d   1       4.481   1.702  -0.365  0.00  0.00     0.010 A 
ATOM     19  C   UNL d   1       5.214   0.522  -0.252  0.00  0.00     0.001 A 
ATOM     20  C   UNL d   1       4.551  -0.687  -0.124  0.00  0.00     0.001 A 
ATOM     21  C   UNL d   1       3.156  -0.706  -0.099  0.00  0.00     0.018 A 
BRANCH  17  22
ATOM     22  C   UNL d   1       2.446   3.084  -0.467  0.00  0.00     0.203 C 
BRANCH  22  23
ATOM     23  O   UNL d   1       1.171   3.086  -1.076  0.00  0.00    -0.396 OA
ATOM     24  H   UNL d   1       1.292   3.330  -2.012  0.00  0.00     0.209 HD
ENDBRANCH  22  23
ENDBRANCH  17  22
ENDBRANCH   1  16
TORSDOF 6
