REMARK  4 active torsions:
REMARK  status: ('A' for Active; 'I' for Inactive)
REMARK    1  A    between atoms: C_2  and  S_1 
REMARK    2  A    between atoms: N_15  and  S_1 
REMARK    3  A    between atoms: C_4  and  C_20 
REMARK    4  A    between atoms: C_25  and  N_15 
ROOT
ATOM      1  C   UNL d   1       1.670   3.151  -4.373  0.00  0.00    -0.002 A 
ATOM      2  C   UNL d   1       0.886   1.137  -2.568  0.00  0.00     0.042 A 
ATOM      3  C   UNL d   1       2.600   2.554  -3.507  0.00  0.00     0.016 A 
ATOM      4  C   UNL d   1       0.345   2.684  -4.343  0.00  0.00     0.016 A 
ATOM      5  C   UNL d   1      -0.047   1.685  -3.442  0.00  0.00     0.031 A 
ATOM      6  C   UNL d   1       2.208   1.568  -2.598  0.00  0.00     0.031 A 
ENDROOT
BRANCH   2   7
ATOM      7  N   UNL d   1       0.487   0.208  -1.582  0.00  0.00    -0.281 N 
ATOM      8  H   UNL d   1       0.251   0.516  -0.641  0.00  0.00     0.179 HD
BRANCH   7   9
ATOM      9  S   UNL d   1       0.398  -1.428  -1.899  0.00  0.00     0.265 S 
ATOM     10  O   UNL d   1       0.013  -2.084  -0.666  0.00  0.00    -0.200 OA
ATOM     11  O   UNL d   1      -0.379  -1.611  -3.103  0.00  0.00    -0.200 OA
BRANCH   9  12
ATOM     12  C   UNL d   1       2.047  -1.902  -2.252  0.00  0.00     0.110 A 
ATOM     13  C   UNL d   1       3.104  -1.772  -1.337  0.00  0.00     0.108 A 
ATOM     14  C   UNL d   1       4.464  -2.175  -1.688  0.00  0.00     0.086 A 
ATOM     15  N   UNL d   1       3.134  -1.285  -0.088  0.00  0.00    -0.238 N 
ATOM     16  N   UNL d   1       5.262  -1.930  -0.642  0.00  0.00    -0.239 N 
ATOM     17  C   UNL d   1       4.797  -2.713  -2.946  0.00  0.00     0.034 A 
ATOM     18  O   UNL d   1       4.447  -1.400   0.340  0.00  0.00    -0.156 OA
ATOM     19  HN  UNL d   1       6.266  -2.099  -0.583  1.00  0.00     0.197 HD
ATOM     20  C   UNL d   1       3.719  -2.834  -3.840  0.00  0.00     0.004 A 
ATOM     21  C   UNL d   1       2.395  -2.444  -3.510  0.00  0.00     0.028 A 
ATOM     22  HN  UNL d   1       2.349  -0.905   0.440  1.00  0.00     0.197 HD
ENDBRANCH   9  12
ENDBRANCH   7   9
ENDBRANCH   2   7
BRANCH   1  23
ATOM     23  C   UNL d   1       2.032   4.270  -5.264  0.00  0.00     0.085 A 
ATOM     24  N   UNL d   1       1.435   4.551  -6.405  0.00  0.00    -0.349 N 
ATOM     25  C   UNL d   1       1.951   5.722  -6.945  0.00  0.00     0.050 A 
ATOM     26  HN  UNL d   1       0.699   3.988  -6.832  1.00  0.00     0.166 HD
ATOM     27  C   UNL d   1       1.550   6.334  -8.149  0.00  0.00     0.031 A 
ATOM     28  C   UNL d   1       2.948   6.336  -6.190  0.00  0.00     0.034 A 
ATOM     29  C   UNL d   1       2.136   7.544  -8.546  0.00  0.00     0.009 A 
ATOM     30  C   UNL d   1       3.124   8.154  -7.769  0.00  0.00    -0.061 A 
ATOM     31  C   UNL d   1       3.549   7.545  -6.580  0.00  0.00     0.028 A 
ATOM     32  C   UNL d   1       3.714   9.467  -8.197  0.00  0.00     0.048 C 
ATOM     33  S   UNL d   1       3.252   5.394  -4.790  0.00  0.00    -0.070 SA
ENDBRANCH   1  23
TORSDOF 4
