REMARK  3 active torsions:
REMARK  status: ('A' for Active; 'I' for Inactive)
REMARK       I    between atoms: N_2  and  C_1 
REMARK       I    between atoms: N_3  and  C_1 
REMARK    1  A    between atoms: C_5  and  N_2 
REMARK    2  A    between atoms: C_8  and  N_3 
REMARK    3  A    between atoms: C_10  and  C_8 
ROOT
ATOM      1  C   UNL d   1       0.831   0.030  -0.075  0.00  0.00     0.320 C 
ATOM      2  N   UNL d   1       2.190  -0.003  -0.306  0.00  0.00    -0.309 N 
ATOM      3  N   UNL d   1       0.185  -1.029  -0.667  0.00  0.00    -0.339 N 
ATOM      4  O   UNL d   1       0.226   0.903   0.536  0.00  0.00    -0.247 OA
ATOM      5  H   UNL d   1       2.502  -0.674  -0.991  0.00  0.00     0.170 HD
ATOM      6  H   UNL d   1       0.709  -1.852  -0.917  0.00  0.00     0.164 HD
ENDROOT
BRANCH   2   7
ATOM      7  C   UNL d   1       3.138   0.949   0.131  0.00  0.00     0.039 A 
ATOM      8  C   UNL d   1       2.863   1.928   1.087  0.00  0.00     0.071 A 
ATOM      9  C   UNL d   1       3.840   2.857   1.433  0.00  0.00     0.118 A 
ATOM     10  F   UNL d   1       3.562   3.798   2.346  0.00  0.00    -0.206 F 
ATOM     11  C   UNL d   1       5.099   2.830   0.847  0.00  0.00     0.042 A 
ATOM     12  C   UNL d   1       5.393   1.843  -0.089  0.00  0.00     0.005 A 
ATOM     13  C   UNL d   1       4.418   0.902  -0.440  0.00  0.00     0.030 A 
ENDBRANCH   2   7
BRANCH   3  14
ATOM     14  C   UNL d   1      -1.258  -1.145  -0.620  0.00  0.00     0.162 C 
BRANCH  14  15
ATOM     15  C   UNL d   1      -1.708  -2.361   0.149  0.00  0.00    -0.040 A 
ATOM     16  C   UNL d   1      -1.414  -2.494   1.514  0.00  0.00     0.009 A 
ATOM     17  C   UNL d   1      -1.873  -3.600   2.234  0.00  0.00     0.001 A 
ATOM     18  C   UNL d   1      -2.635  -4.579   1.599  0.00  0.00     0.000 A 
ATOM     19  C   UNL d   1      -2.937  -4.456   0.244  0.00  0.00     0.001 A 
ATOM     20  C   UNL d   1      -2.477  -3.353  -0.478  0.00  0.00     0.009 A 
ENDBRANCH  14  15
ENDBRANCH   3  14
TORSDOF 3
