REMARK  5 active torsions:
REMARK  status: ('A' for Active; 'I' for Inactive)
REMARK    1  A    between atoms: C_11  and  N_9 
REMARK    2  A    between atoms: C_15  and  C_11 
REMARK    3  A    between atoms: N_14  and  C_16 
REMARK    4  A    between atoms: C_16  and  C_15 
REMARK    5  A    between atoms: O_20  and  C_15 
ROOT
ATOM      1  C   UNL d   1       0.750  -0.824   0.627  0.00  0.00     0.145 C 
ATOM      2  C   UNL d   1       0.795   0.232  -0.230  0.00  0.00     0.149 C 
ATOM      3  N   UNL d   1       0.355  -2.072   0.210  0.00  0.00    -0.287 N 
ATOM      4  N   UNL d   1      -0.237  -1.080  -1.880  0.00  0.00    -0.269 N 
ATOM      5  C   UNL d   1      -0.161  -2.231  -1.079  0.00  0.00     0.332 C 
ATOM      6  C   UNL d   1       0.300   0.170  -1.564  0.00  0.00     0.282 C 
ATOM      7  N   UNL d   1       1.147  -0.481   1.881  0.00  0.00    -0.336 N 
ATOM      8  HN  UNL d   1       1.185  -1.075   2.709  1.00  0.00     0.168 HD
ATOM      9  N   UNL d   1       1.417   1.219   0.479  0.00  0.00    -0.333 N 
ATOM     10  C   UNL d   1       1.470   0.791   1.783  0.00  0.00     0.185 C 
ATOM     11  O   UNL d   1      -0.531  -3.334  -1.485  0.00  0.00    -0.246 OA
ATOM     12  O   UNL d   1       0.298   1.127  -2.335  0.00  0.00    -0.265 OA
ATOM     13  C   UNL d   1       0.457  -3.227   1.081  0.00  0.00     0.163 C 
ATOM     14  C   UNL d   1      -0.905  -1.179  -3.166  0.00  0.00     0.164 C 
ENDROOT
BRANCH   9  15
ATOM     15  C   UNL d   1       2.020   2.433  -0.022  0.00  0.00     0.163 C 
BRANCH  15  16
ATOM     16  C   UNL d   1       3.559   2.380  -0.076  0.00  0.00     0.164 C 
BRANCH  16  17
ATOM     17  C   UNL d   1       4.178   1.267  -0.968  0.00  0.00     0.305 C 
BRANCH  17  18
ATOM     18  N   UNL d   1       3.691   1.156  -2.357  0.00  0.00     0.095 N 
ATOM     19  C   UNL d   1       4.243   2.190  -3.263  0.00  0.00     0.298 C 
ATOM     20  C   UNL d   1       3.738   1.991  -4.705  0.00  0.00     0.198 C 
ATOM     21  O   UNL d   1       4.099   0.702  -5.215  0.00  0.00    -0.388 OA
ATOM     22  C   UNL d   1       3.575  -0.325  -4.363  0.00  0.00     0.198 C 
ATOM     23  C   UNL d   1       4.091  -0.161  -2.925  0.00  0.00     0.298 C 
ENDBRANCH  17  18
ENDBRANCH  16  17
BRANCH  16  24
ATOM     24  O   UNL d   1       4.082   3.668  -0.418  0.00  0.00    -0.392 OA
ATOM     25  H   UNL d   1       3.603   3.982  -1.204  0.00  0.00     0.210 HD
ENDBRANCH  16  24
ENDBRANCH  15  16
ENDBRANCH   9  15
TORSDOF 5
