REMARK  4 active torsions:
REMARK  status: ('A' for Active; 'I' for Inactive)
REMARK    1  A    between atoms: C_10  and  N_1 
REMARK    2  A    between atoms: C_9  and  N_2 
REMARK    3  A    between atoms: C_13  and  C_9 
REMARK    4  A    between atoms: S_18  and  C_16 
ROOT
ATOM      1  N   UNL d   1       0.879  -1.390   0.190  0.00  0.00    -0.246 N 
ATOM      2  N   UNL d   1       2.057   0.699   0.243  0.00  0.00    -0.259 N 
ATOM      3  C   UNL d   1       2.100  -0.717   0.341  0.00  0.00     0.338 A 
ATOM      4  C   UNL d   1      -0.296  -0.674   0.097  0.00  0.00     0.150 A 
ATOM      5  C   UNL d   1      -0.282   0.686   0.074  0.00  0.00     0.147 A 
ATOM      6  C   UNL d   1       0.901   1.468   0.092  0.00  0.00     0.282 A 
ATOM      7  N   UNL d   1      -1.579  -1.147   0.039  0.00  0.00    -0.336 N 
ATOM      8  HN  UNL d   1      -1.881  -2.122   0.039  1.00  0.00     0.168 HD
ATOM      9  N   UNL d   1      -1.591   1.073   0.012  0.00  0.00    -0.345 N 
ATOM     10  C   UNL d   1      -2.340  -0.072  -0.017  0.00  0.00     0.182 A 
ATOM     11  O   UNL d   1       3.172  -1.310   0.512  0.00  0.00    -0.246 OA
ATOM     12  O   UNL d   1       0.872   2.687  -0.041  0.00  0.00    -0.265 OA
ATOM     13  H   UNL d   1      -1.934   2.024  -0.011  0.00  0.00     0.167 HD
ENDROOT
BRANCH   2  14
ATOM     14  C   UNL d   1       3.330   1.415   0.135  0.00  0.00     0.177 C 
BRANCH  14  15
ATOM     15  C   UNL d   1       3.646   2.365   1.277  0.00  0.00    -0.023 A 
ATOM     16  C   UNL d   1       4.408   3.539   1.086  0.00  0.00     0.008 A 
ATOM     17  C   UNL d   1       4.795   4.300   2.203  0.00  0.00     0.019 A 
ATOM     18  C   UNL d   1       4.433   3.918   3.495  0.00  0.00     0.001 A 
ATOM     19  C   UNL d   1       3.671   2.774   3.689  0.00  0.00     0.001 A 
ATOM     20  C   UNL d   1       3.285   2.003   2.592  0.00  0.00     0.010 A 
BRANCH  16  21
ATOM     21  S   UNL d   1       5.081   4.070  -0.494  0.00  0.00    -0.134 SA
ATOM     22  C   UNL d   1       3.607   4.771  -1.293  0.00  0.00     0.095 C 
ENDBRANCH  16  21
ENDBRANCH  14  15
ENDBRANCH   2  14
BRANCH   1  23
ATOM     23  C   UNL d   1       0.771  -2.807   0.215  0.00  0.00     0.051 A 
ATOM     24  C   UNL d   1       0.276  -3.540  -0.886  0.00  0.00    -0.035 A 
ATOM     25  C   UNL d   1      -0.064  -2.916  -2.213  0.00  0.00     0.050 C 
ATOM     26  C   UNL d   1       0.110  -4.931  -0.765  0.00  0.00     0.009 A 
ATOM     27  C   UNL d   1       0.450  -5.593   0.414  0.00  0.00     0.001 A 
ATOM     28  C   UNL d   1       0.978  -4.876   1.483  0.00  0.00     0.002 A 
ATOM     29  C   UNL d   1       1.150  -3.493   1.381  0.00  0.00     0.031 A 
ENDBRANCH   1  23
TORSDOF 4
