REMARK  5 active torsions:
REMARK  status: ('A' for Active; 'I' for Inactive)
REMARK    1  A    between atoms: CA_3  and  C_1 
REMARK    2  A    between atoms: OXT_12  and  C_1 
REMARK    3  A    between atoms: C_2  and  C_4 
REMARK    4  A    between atoms: C_4  and  CA_3 
REMARK    5  A    between atoms: N_11  and  CA_3 
ROOT
ATOM      1  C   UNL d   1      -0.600  -1.620  -0.180  0.00  0.00     0.085 C 
ENDROOT
BRANCH   1   2
ATOM      2  C   UNL d   1      -1.613  -0.680  -0.792  0.00  0.00    -0.050 A 
ATOM      3  C   UNL d   1      -1.403  -0.134  -2.067  0.00  0.00     0.049 A 
ATOM      4  C   UNL d   1      -2.320   0.772  -2.600  0.00  0.00     0.119 A 
ATOM      5  F   UNL d   1      -2.102   1.286  -3.817  0.00  0.00    -0.206 F 
ATOM      6  C   UNL d   1      -3.446   1.158  -1.888  0.00  0.00     0.084 A 
ATOM      7  C   UNL d   1      -3.658   0.611  -0.632  0.00  0.00     0.119 A 
ATOM      8  C   UNL d   1      -2.762  -0.305  -0.082  0.00  0.00     0.049 A 
ATOM      9  F   UNL d   1      -4.734   0.977   0.075  0.00  0.00    -0.206 F 
ENDBRANCH   1   2
BRANCH   1  10
ATOM     10  CA  UNL d   1       0.506  -0.885   0.598  0.00  0.00     0.318 C 
BRANCH  10  11
ATOM     11  C   UNL d   1       1.564  -1.880   1.099  0.00  0.00     0.174 C 
ATOM     12  O   UNL d   1       1.941  -2.879   0.507  0.00  0.00    -0.648 OA
BRANCH  11  13
ATOM     13  OXT UNL d   1       2.067  -1.489   2.301  0.00  0.00    -0.775 OA
ATOM     14  HXT UNL d   1       1.568  -0.670   2.551  0.00  0.00     0.167 HD
ENDBRANCH  11  13
ENDBRANCH  10  11
BRANCH  10  15
ATOM     15  N   UNL d   1       0.004  -0.122   1.786  0.00  0.00     0.093 N 
ATOM     16  H1  UNL d   1      -0.660  -0.720   2.290  0.00  0.00     0.314 HD
ATOM     17  H2  UNL d   1      -0.573   0.650   1.434  0.00  0.00     0.314 HD
ENDBRANCH  10  15
ENDBRANCH   1  10
TORSDOF 5
