REMARK  8 active torsions:
REMARK  status: ('A' for Active; 'I' for Inactive)
REMARK    1  A    between atoms: C_2  and  C_1 
REMARK       I    between atoms: N_4  and  C_1 
REMARK    2  A    between atoms: O_15  and  C_3 
REMARK    3  A    between atoms: C_11  and  N_4 
REMARK    4  A    between atoms: C_20  and  N_4 
REMARK    5  A    between atoms: O_17  and  C_5 
REMARK    6  A    between atoms: O_18  and  C_6 
REMARK    7  A    between atoms: C_19  and  C_11 
REMARK    8  A    between atoms: C_16  and  C_20 
ROOT
ATOM      1  N   UNL d   1      -4.322  -2.225  -1.778  0.00  0.00    -0.197 NA
ATOM      2  C   UNL d   1      -3.188  -2.392  -1.615  0.00  0.00     0.060 C 
ATOM      3  C   UNL d   1      -1.742  -2.538  -1.361  0.00  0.00     0.143 C 
ENDROOT
BRANCH   3   4
ATOM      4  C   UNL d   1      -1.269  -1.317  -0.573  0.00  0.00     0.140 C 
BRANCH   4   5
ATOM      5  N   UNL d   1       0.118  -1.198  -0.101  0.00  0.00    -0.343 N 
ATOM      6  C   UNL d   1       0.627  -0.028   0.519  0.00  0.00     0.254 C 
ATOM      7  O   UNL d   1       1.708  -0.030   1.111  0.00  0.00    -0.267 OA
BRANCH   6   8
ATOM      8  C   UNL d   1      -0.061   1.303   0.393  0.00  0.00     0.037 C 
ATOM      9  C   UNL d   1      -1.444   1.493   0.391  0.00  0.00     0.057 C 
ATOM     10  C   UNL d   1      -2.018   2.725   0.055  0.00  0.00     0.105 C 
ATOM     11  C   UNL d   1      -1.188   3.846  -0.099  0.00  0.00     0.135 C 
ATOM     12  C   UNL d   1       0.208   3.704   0.061  0.00  0.00     0.105 C 
ATOM     13  C   UNL d   1       0.759   2.434   0.278  0.00  0.00     0.057 C 
BRANCH  10  14
ATOM     14  O   UNL d   1      -3.376   2.871  -0.071  0.00  0.00    -0.353 OA
ATOM     15  C   UNL d   1      -4.112   1.712  -0.469  0.00  0.00     0.210 C 
ENDBRANCH  10  14
BRANCH  11  16
ATOM     16  O   UNL d   1      -1.630   5.128  -0.329  0.00  0.00    -0.351 OA
ATOM     17  C   UNL d   1      -2.707   5.274  -1.247  0.00  0.00     0.210 C 
ENDBRANCH  11  16
BRANCH  12  18
ATOM     18  O   UNL d   1       0.950   4.856  -0.029  0.00  0.00    -0.353 OA
ATOM     19  C   UNL d   1       2.366   4.731  -0.013  0.00  0.00     0.210 C 
ENDBRANCH  12  18
ENDBRANCH   6   8
BRANCH   5  20
ATOM     20  C   UNL d   1       0.939  -2.412   0.022  0.00  0.00     0.164 C 
BRANCH  20  21
ATOM     21  C   UNL d   1       1.364  -3.003  -1.304  0.00  0.00    -0.038 A 
ATOM     22  C   UNL d   1       1.810  -2.200  -2.362  0.00  0.00     0.025 A 
ATOM     23  C   UNL d   1       2.198  -2.811  -3.545  0.00  0.00     0.088 A 
ATOM     24  N   UNL d   1       2.185  -4.146  -3.742  0.00  0.00    -0.375 N 
ATOM     25  C   UNL d   1       1.789  -4.908  -2.702  0.00  0.00     0.088 A 
ATOM     26  HN  UNL d   1       2.462  -4.559  -4.633  1.00  0.00     0.164 HD
ATOM     27  C   UNL d   1       1.379  -4.391  -1.482  0.00  0.00     0.025 A 
ENDBRANCH  20  21
ENDBRANCH   5  20
ENDBRANCH   4   5
ENDBRANCH   3   4
TORSDOF 8
