REMARK  2 active torsions:
REMARK  status: ('A' for Active; 'I' for Inactive)
REMARK    1  A    between atoms: N_7  and  C_1 
REMARK       I    between atoms: C_6  and  N_8 
REMARK    2  A    between atoms: C_9  and  C_6 
ROOT
ATOM      1  C   UNL d   1      -0.025   1.756  -0.147  0.00  0.00     0.290 C 
ATOM      2  C   UNL d   1       1.301   0.995  -0.243  0.00  0.00    -0.009 A 
ATOM      3  C   UNL d   1      -1.026   0.604  -0.233  0.00  0.00    -0.009 C 
ATOM      4  C   UNL d   1       1.073  -0.396  -0.167  0.00  0.00    -0.017 A 
ATOM      5  C   UNL d   1      -0.353  -0.633  -0.112  0.00  0.00    -0.017 C 
ATOM      6  C   UNL d   1       2.584   1.517  -0.329  0.00  0.00     0.010 A 
ATOM      7  C   UNL d   1      -2.397   0.635  -0.432  0.00  0.00     0.010 C 
ATOM      8  C   UNL d   1       2.137  -1.282  -0.188  0.00  0.00     0.013 A 
ATOM      9  C   UNL d   1      -1.066  -1.815   0.011  0.00  0.00     0.013 C 
ATOM     10  C   UNL d   1       3.655   0.624  -0.345  0.00  0.00     0.001 A 
ATOM     11  C   UNL d   1      -3.121  -0.551  -0.292  0.00  0.00     0.001 C 
ATOM     12  C   UNL d   1       3.433  -0.762  -0.277  0.00  0.00     0.001 A 
ATOM     13  C   UNL d   1      -2.461  -1.762  -0.037  0.00  0.00     0.001 C 
ENDROOT
BRANCH   1  14
ATOM     14  N   UNL d   1      -0.031   2.584   1.075  0.00  0.00     0.105 N 
ATOM     15  C   UNL d   1       0.098   1.890   2.369  0.00  0.00     0.293 C 
ATOM     16  C   UNL d   1      -1.203   1.308   2.947  0.00  0.00     0.156 C 
ATOM     17  N   UNL d   1      -2.338   2.233   2.913  0.00  0.00    -0.344 N 
ATOM     18  C   UNL d   1      -3.454   1.867   3.692  0.00  0.00     0.260 C 
ATOM     19  C   UNL d   1      -2.404   3.161   1.785  0.00  0.00     0.156 C 
ATOM     20  O   UNL d   1      -3.330   1.053   4.612  0.00  0.00    -0.267 OA
ATOM     21  C   UNL d   1      -1.068   3.607   1.171  0.00  0.00     0.293 C 
BRANCH  18  22
ATOM     22  C   UNL d   1      -4.760   2.471   3.383  0.00  0.00     0.072 A 
ATOM     23  S   UNL d   1      -5.801   2.894   4.684  0.00  0.00    -0.097 SA
ATOM     24  C   UNL d   1      -6.989   3.520   3.627  0.00  0.00     0.050 A 
ATOM     25  C   UNL d   1      -6.629   3.386   2.308  0.00  0.00     0.009 A 
ATOM     26  C   UNL d   1      -5.380   2.721   2.171  0.00  0.00     0.025 A 
ENDBRANCH  18  22
ENDBRANCH   1  14
TORSDOF 2
