REMARK  2 active torsions:
REMARK  status: ('A' for Active; 'I' for Inactive)
REMARK    1  A    between atoms: C_2  and  C_1 
REMARK    2  A    between atoms: O_7  and  C_2 
ROOT
ATOM      1  C   UNL d   1      -1.445  -0.174  -0.088  0.00  0.00     0.054 A 
ATOM      2  C   UNL d   1      -0.645  -1.325  -0.064  0.00  0.00     0.023 A 
ATOM      3  C   UNL d   1      -0.819   1.089  -0.097  0.00  0.00     0.026 A 
ATOM      4  C   UNL d   1       0.751  -1.202  -0.014  0.00  0.00     0.020 A 
ATOM      5  C   UNL d   1       0.576   1.214  -0.060  0.00  0.00    -0.061 A 
ATOM      6  I   UNL d   1      -1.375  -3.292  -0.175  0.00  0.00    -0.043 I 
ATOM      7  C   UNL d   1       1.355   0.058  -0.012  0.00  0.00     0.008 A 
ATOM      8  C   UNL d   1       1.233   2.561  -0.113  0.00  0.00     0.048 C 
ENDROOT
BRANCH   1   9
ATOM      9  C   UNL d   1      -2.932  -0.138  -0.141  0.00  0.00     0.177 C 
ATOM     10  O   UNL d   1      -3.540   0.746  -0.721  0.00  0.00    -0.646 OA
BRANCH   9  11
ATOM     11  O   UNL d   1      -3.559  -1.074   0.599  0.00  0.00    -0.773 OA
ATOM     12  H   UNL d   1      -2.971  -1.744   0.994  0.00  0.00     0.167 HD
ENDBRANCH   9  11
ENDBRANCH   1   9
TORSDOF 2
