REMARK  2 active torsions:
REMARK  status: ('A' for Active; 'I' for Inactive)
REMARK    1  A    between atoms: N_3  and  C_2 
REMARK       I    between atoms: C_8  and  N_3 
REMARK    2  A    between atoms: C_9  and  C_6 
ROOT
ATOM      1  C   UNL d   1      -0.657  -0.121   0.084  0.00  0.00     0.071 A 
ATOM      2  C   UNL d   1      -0.067   1.150   0.031  0.00  0.00     0.055 A 
ATOM      3  N   UNL d   1      -3.135  -0.697   0.580  0.00  0.00    -0.191 NA
ATOM      4  C   UNL d   1      -2.052  -0.373   0.318  0.00  0.00     0.102 C 
ATOM      5  C   UNL d   1       1.571  -1.207   0.033  0.00  0.00    -0.049 A 
ATOM      6  C   UNL d   1       0.166  -1.271   0.059  0.00  0.00     0.033 A 
ATOM      7  C   UNL d   1       1.337   1.222   0.036  0.00  0.00     0.031 A 
ATOM      8  C   UNL d   1       2.139   0.070   0.034  0.00  0.00     0.010 A 
ENDROOT
BRANCH   2   9
ATOM      9  N   UNL d   1      -0.730   2.404   0.004  0.00  0.00    -0.326 N 
ATOM     10  C   UNL d   1      -1.997   2.670  -0.480  0.00  0.00     0.218 C 
ATOM     11  O   UNL d   1      -2.743   1.869  -1.026  0.00  0.00    -0.274 OA
ATOM     12  C   UNL d   1      -2.405   4.115  -0.319  0.00  0.00     0.117 C 
ATOM     13  H   UNL d   1      -0.140   3.216   0.140  0.00  0.00     0.169 HD
ENDBRANCH   2   9
BRANCH   5  14
ATOM     14  C   UNL d   1       2.403  -2.502   0.031  0.00  0.00    -0.024 C 
ATOM     15  C   UNL d   1       2.067  -3.331  -1.228  0.00  0.00     0.019 C 
ATOM     16  C   UNL d   1       3.928  -2.264   0.034  0.00  0.00     0.019 C 
ATOM     17  C   UNL d   1       2.071  -3.342   1.286  0.00  0.00     0.019 C 
ENDBRANCH   5  14
TORSDOF 2
