REMARK  5 active torsions:
REMARK  status: ('A' for Active; 'I' for Inactive)
REMARK    1  A    between atoms: C_7  and  C_1 
REMARK    2  A    between atoms: C_11  and  C_2 
REMARK    3  A    between atoms: N_6  and  C_7 
REMARK    4  A    between atoms: C_18  and  N_9 
REMARK    5  A    between atoms: C_17  and  C_18 
ROOT
ATOM      1  N   UNL d   1       3.262   1.075   0.344  0.00  0.00     0.096 N 
ATOM      2  N   UNL d   1       3.220  -1.971   0.493  0.00  0.00     0.096 N 
ATOM      3  C   UNL d   1       3.970   0.208  -0.644  0.00  0.00     0.303 C 
ATOM      4  C   UNL d   1       3.208   0.306   1.600  0.00  0.00     0.303 C 
ATOM      5  C   UNL d   1       2.554  -1.085   1.473  0.00  0.00     0.303 C 
ATOM      6  C   UNL d   1       3.400  -1.237  -0.780  0.00  0.00     0.303 C 
ENDROOT
BRANCH   1   7
ATOM      7  C   UNL d   1       1.949   1.455  -0.220  0.00  0.00     0.315 C 
BRANCH   7   8
ATOM      8  C   UNL d   1       1.120   2.445   0.558  0.00  0.00     0.016 C 
ATOM      9  C   UNL d   1       0.258   3.456  -0.018  0.00  0.00     0.067 C 
ATOM     10  N   UNL d   1      -0.338   4.192   0.934  0.00  0.00    -0.300 N 
ATOM     11  N   UNL d   1       0.054   3.636   2.081  0.00  0.00    -0.311 N 
ATOM     12  HN  UNL d   1      -0.953   4.996   0.808  1.00  0.00     0.187 HD
ATOM     13  C   UNL d   1       0.866   2.557   1.910  0.00  0.00     0.118 C 
ATOM     14  H   UNL d   1      -0.293   4.025   2.948  0.00  0.00     0.186 HD
BRANCH   9  15
ATOM     15  C   UNL d   1      -0.036   3.723  -1.431  0.00  0.00    -0.007 A 
ATOM     16  C   UNL d   1      -0.198   2.671  -2.347  0.00  0.00     0.017 A 
ATOM     17  C   UNL d   1      -0.456   2.934  -3.695  0.00  0.00     0.043 A 
ATOM     18  C   UNL d   1      -0.581   4.250  -4.118  0.00  0.00     0.116 A 
ATOM     19  C   UNL d   1      -0.467   5.308  -3.225  0.00  0.00     0.043 A 
ATOM     20  F   UNL d   1      -0.829   4.503  -5.412  0.00  0.00    -0.206 F 
ATOM     21  C   UNL d   1      -0.194   5.044  -1.879  0.00  0.00     0.017 A 
ENDBRANCH   9  15
ENDBRANCH   7   8
ENDBRANCH   1   7
BRANCH   2  22
ATOM     22  C   UNL d   1       4.513  -2.483   0.983  0.00  0.00     0.311 C 
BRANCH  22  23
ATOM     23  C   UNL d   1       4.398  -3.309   2.249  0.00  0.00    -0.027 A 
ATOM     24  C   UNL d   1       5.055  -2.896   3.420  0.00  0.00     0.048 A 
ATOM     25  C   UNL d   1       4.908  -3.665   4.555  0.00  0.00     0.105 A 
ATOM     26  O   UNL d   1       5.474  -3.408   5.764  0.00  0.00    -0.323 OA
ATOM     27  C   UNL d   1       4.142  -4.806   4.564  0.00  0.00     0.105 A 
ATOM     28  C   UNL d   1       5.021  -4.550   6.521  0.00  0.00     0.352 A 
ATOM     29  O   UNL d   1       4.128  -5.410   5.783  0.00  0.00    -0.323 OA
ATOM     30  C   UNL d   1       3.479  -5.244   3.439  0.00  0.00     0.040 A 
ATOM     31  C   UNL d   1       3.615  -4.489   2.269  0.00  0.00     0.012 A 
ENDBRANCH  22  23
ENDBRANCH   2  22
TORSDOF 5
