REMARK  11 active torsions:
REMARK  status: ('A' for Active; 'I' for Inactive)
REMARK    1  A    between atoms: N_3  and  S_1 
REMARK    2  A    between atoms: C_17  and  S_1 
REMARK    3  A    between atoms: C_2  and  N_3 
REMARK    4  A    between atoms: C_9  and  C_4 
REMARK    5  A    between atoms: C_13  and  C_10 
REMARK    6  A    between atoms: O_31  and  C_11 
REMARK    7  A    between atoms: O_33  and  C_14 
REMARK    8  A    between atoms: O_34  and  C_15 
REMARK    9  A    between atoms: O_35  and  C_16 
REMARK       I    between atoms: C_24  and  N_25 
REMARK   10  A    between atoms: N_25  and  C_30 
REMARK   11  A    between atoms: O_38  and  C_29 
ROOT
ATOM      1  C   UNL d   1       0.919  -2.213   1.741  0.00  0.00     0.172 A 
ATOM      2  C   UNL d   1       0.210  -4.350   2.057  0.00  0.00     0.049 A 
ATOM      3  N   UNL d   1      -0.053  -3.036   2.126  0.00  0.00    -0.331 N 
ATOM      4  HN  UNL d   1      -0.952  -2.685   2.457  1.00  0.00     0.168 HD
ATOM      5  N   UNL d   1       2.143  -2.531   1.328  0.00  0.00    -0.331 N 
ATOM      6  HN  UNL d   1       2.830  -1.826   1.059  1.00  0.00     0.168 HD
ATOM      7  C   UNL d   1       2.412  -3.851   1.289  0.00  0.00     0.047 A 
ATOM      8  C   UNL d   1       1.444  -4.795   1.597  0.00  0.00     0.061 A 
ENDROOT
BRANCH   1   9
ATOM      9  N   UNL d   1       0.605  -0.858   1.649  0.00  0.00    -0.151 NA
ATOM     10  H   UNL d   1       1.177  -0.479   0.904  0.00  0.00     0.149 HD
BRANCH   9  11
ATOM     11  S   UNL d   1       0.881  -0.015   3.078  0.00  0.00     0.248 S 
ATOM     12  O   UNL d   1       0.751  -0.874   4.233  0.00  0.00    -0.205 OA
ATOM     13  O   UNL d   1       0.149   1.232   2.980  0.00  0.00    -0.205 OA
BRANCH  11  14
ATOM     14  C   UNL d   1       2.599   0.454   2.936  0.00  0.00     0.075 A 
ATOM     15  C   UNL d   1       2.991   1.323   1.913  0.00  0.00     0.027 A 
ATOM     16  C   UNL d   1       4.332   1.709   1.809  0.00  0.00     0.031 A 
ATOM     17  C   UNL d   1       5.280   1.262   2.739  0.00  0.00     0.034 A 
ATOM     18  C   UNL d   1       4.852   0.451   3.797  0.00  0.00     0.031 A 
ATOM     19  C   UNL d   1       3.522   0.024   3.886  0.00  0.00     0.027 A 
BRANCH  17  20
ATOM     20  N   UNL d   1       6.625   1.637   2.525  0.00  0.00    -0.328 N 
ATOM     21  C   UNL d   1       7.732   1.250   3.258  0.00  0.00     0.218 C 
ATOM     22  O   UNL d   1       7.731   0.564   4.276  0.00  0.00    -0.274 OA
ATOM     23  C   UNL d   1       9.038   1.722   2.668  0.00  0.00     0.117 C 
ATOM     24  H   UNL d   1       6.798   2.210   1.708  0.00  0.00     0.169 HD
ENDBRANCH  17  20
ENDBRANCH  11  14
ENDBRANCH   9  11
ENDBRANCH   1   9
BRANCH   2  25
ATOM     25  C   UNL d   1      -0.828  -5.286   2.566  0.00  0.00     0.024 A 
ATOM     26  C   UNL d   1      -2.223  -5.062   2.559  0.00  0.00     0.083 A 
ATOM     27  C   UNL d   1      -3.116  -5.992   3.139  0.00  0.00     0.074 A 
ATOM     28  C   UNL d   1      -2.653  -7.168   3.723  0.00  0.00     0.070 A 
ATOM     29  C   UNL d   1      -1.288  -7.413   3.734  0.00  0.00     0.038 A 
ATOM     30  C   UNL d   1      -0.399  -6.490   3.178  0.00  0.00     0.019 A 
BRANCH  26  31
ATOM     31  O   UNL d   1      -2.851  -3.917   2.132  0.00  0.00    -0.355 OA
ATOM     32  C   UNL d   1      -2.664  -3.587   0.761  0.00  0.00     0.210 C 
ENDBRANCH  26  31
BRANCH  28  33
ATOM     33  O   UNL d   1      -3.402  -8.138   4.325  0.00  0.00    -0.356 OA
ATOM     34  C   UNL d   1      -4.798  -7.901   4.438  0.00  0.00     0.210 C 
ENDBRANCH  28  33
ENDBRANCH   2  25
BRANCH   7  35
ATOM     35  C   UNL d   1       3.819  -4.226   1.024  0.00  0.00    -0.004 A 
ATOM     36  C   UNL d   1       4.868  -3.396   1.446  0.00  0.00     0.053 A 
ATOM     37  C   UNL d   1       6.217  -3.788   1.358  0.00  0.00     0.105 A 
ATOM     38  C   UNL d   1       6.566  -5.021   0.785  0.00  0.00     0.135 A 
ATOM     39  C   UNL d   1       5.522  -5.826   0.279  0.00  0.00     0.105 A 
ATOM     40  C   UNL d   1       4.179  -5.436   0.421  0.00  0.00     0.053 A 
BRANCH  37  41
ATOM     41  O   UNL d   1       7.201  -2.940   1.796  0.00  0.00    -0.353 OA
ATOM     42  C   UNL d   1       6.950  -2.395   3.091  0.00  0.00     0.210 C 
ENDBRANCH  37  41
BRANCH  38  43
ATOM     43  O   UNL d   1       7.819  -5.561   0.708  0.00  0.00    -0.351 OA
ATOM     44  C   UNL d   1       8.928  -4.896   1.292  0.00  0.00     0.210 C 
ENDBRANCH  38  43
BRANCH  39  45
ATOM     45  O   UNL d   1       5.648  -7.061  -0.313  0.00  0.00    -0.353 OA
ATOM     46  C   UNL d   1       6.804  -7.270  -1.115  0.00  0.00     0.210 C 
ENDBRANCH  39  45
ENDBRANCH   7  35
TORSDOF 11
