REMARK  4 active torsions:
REMARK  status: ('A' for Active; 'I' for Inactive)
REMARK       I    between atoms: N_3  and  C_1 
REMARK       I    between atoms: N_4  and  C_1 
REMARK    1  A    between atoms: C_2  and  N_3 
REMARK    2  A    between atoms: C_6  and  N_4 
REMARK    3  A    between atoms: N_5  and  C_7 
REMARK    4  A    between atoms: O_18  and  C_13 
ROOT
ATOM      1  C   UNL d   1       1.076  -1.672  -0.527  0.00  0.00     0.325 C 
ATOM      2  N   UNL d   1       0.523  -2.842  -0.084  0.00  0.00    -0.307 N 
ATOM      3  N   UNL d   1       0.225  -0.639  -0.771  0.00  0.00    -0.307 N 
ATOM      4  O   UNL d   1       2.283  -1.444  -0.628  0.00  0.00    -0.247 OA
ATOM      5  H   UNL d   1      -0.435  -2.781   0.245  0.00  0.00     0.170 HD
ATOM      6  H   UNL d   1       0.674   0.268  -0.775  0.00  0.00     0.170 HD
ENDROOT
BRANCH   3   7
ATOM      7  C   UNL d   1      -1.176  -0.599  -0.877  0.00  0.00     0.063 A 
ATOM      8  C   UNL d   1      -1.845   0.567  -0.426  0.00  0.00     0.057 A 
ATOM      9  C   UNL d   1      -3.233   0.619  -0.636  0.00  0.00     0.031 A 
ATOM     10  C   UNL d   1      -3.913  -0.397  -1.317  0.00  0.00     0.002 A 
ATOM     11  C   UNL d   1      -3.222  -1.502  -1.799  0.00  0.00     0.002 A 
ATOM     12  C   UNL d   1      -1.856  -1.615  -1.564  0.00  0.00     0.032 A 
BRANCH   8  13
ATOM     13  N   UNL d   1      -1.141   1.635   0.135  0.00  0.00    -0.375 N 
ATOM     14  C   UNL d   1      -1.719   2.992   0.114  0.00  0.00     0.149 C 
ATOM     15  C   UNL d   1      -0.564   4.006   0.164  0.00  0.00     0.187 C 
ATOM     16  O   UNL d   1       0.262   3.815   1.327  0.00  0.00    -0.388 OA
ATOM     17  C   UNL d   1       0.796   2.478   1.360  0.00  0.00     0.187 C 
ATOM     18  C   UNL d   1      -0.330   1.425   1.357  0.00  0.00     0.149 C 
ENDBRANCH   8  13
ENDBRANCH   3   7
BRANCH   2  19
ATOM     19  C   UNL d   1       1.179  -4.073   0.163  0.00  0.00     0.060 A 
ATOM     20  C   UNL d   1       2.501  -4.305  -0.242  0.00  0.00     0.068 A 
ATOM     21  C   UNL d   1       3.108  -5.547  -0.051  0.00  0.00     0.070 A 
ATOM     22  C   UNL d   1       2.387  -6.582   0.536  0.00  0.00     0.038 A 
ATOM     23  C   UNL d   1       1.072  -6.372   0.968  0.00  0.00     0.029 A 
ATOM     24  C   UNL d   1       0.478  -5.121   0.788  0.00  0.00     0.061 A 
ATOM     25 CL   UNL d   1      -1.138  -4.895   1.363  0.00  0.00    -0.082 Cl
BRANCH  21  26
ATOM     26  O   UNL d   1       4.391  -5.862  -0.408  0.00  0.00    -0.356 OA
ATOM     27  C   UNL d   1       5.171  -4.809  -0.971  0.00  0.00     0.210 C 
ENDBRANCH  21  26
ENDBRANCH   2  19
TORSDOF 4
