REMARK  7 active torsions:
REMARK  status: ('A' for Active; 'I' for Inactive)
REMARK    1  A    between atoms: C_7  and  C_1 
REMARK    2  A    between atoms: O_20  and  C_7 
REMARK    3  A    between atoms: C_10  and  C_18 
REMARK       I    between atoms: N_11  and  C_10 
REMARK    4  A    between atoms: C_17  and  N_11 
REMARK    5  A    between atoms: O_16  and  C_15 
REMARK    6  A    between atoms: C_18  and  O_16 
REMARK    7  A    between atoms: C_27  and  O_20 
ROOT
ATOM      1  C   UNL d   1      -1.812  -1.567  -0.063  0.00  0.00     0.154 A 
ATOM      2  C   UNL d   1      -2.346  -0.343  -0.176  0.00  0.00     0.099 A 
ATOM      3  C   UNL d   1       0.409  -0.768   0.120  0.00  0.00     0.093 A 
ATOM      4  O   UNL d   1      -0.459  -1.829   0.090  0.00  0.00    -0.303 OA
ATOM      5  C   UNL d   1      -1.454   0.824  -0.148  0.00  0.00     0.187 A 
ATOM      6  C   UNL d   1      -0.015   0.550  -0.005  0.00  0.00     0.048 A 
ATOM      7  C   UNL d   1       1.768  -1.059   0.282  0.00  0.00     0.075 A 
ATOM      8  C   UNL d   1       0.915   1.587   0.006  0.00  0.00     0.021 A 
ATOM      9  O   UNL d   1      -1.898   1.961  -0.230  0.00  0.00    -0.287 OA
ATOM     10  C   UNL d   1       2.709  -0.027   0.314  0.00  0.00     0.072 A 
ATOM     11  C   UNL d   1       2.276   1.297   0.157  0.00  0.00     0.038 A 
ENDROOT
BRANCH  10  12
ATOM     12  O   UNL d   1       4.019  -0.418   0.473  0.00  0.00    -0.342 OA
BRANCH  12  13
ATOM     13  C   UNL d   1       4.843   0.557   1.099  0.00  0.00     0.278 C 
BRANCH  13  14
ATOM     14  C   UNL d   1       6.271   0.125   1.454  0.00  0.00     0.246 C 
ATOM     15  N   UNL d   1       6.641  -1.132   1.018  0.00  0.00    -0.325 N 
ATOM     16  H   UNL d   1       5.998  -1.593   0.382  0.00  0.00     0.169 HD
ATOM     17  O   UNL d   1       6.992   0.916   2.064  0.00  0.00    -0.271 OA
BRANCH  15  18
ATOM     18  C   UNL d   1       7.851  -1.800   1.330  0.00  0.00     0.035 A 
ATOM     19  C   UNL d   1       8.737  -1.353   2.321  0.00  0.00     0.032 A 
ATOM     20  C   UNL d   1       9.901  -2.068   2.621  0.00  0.00     0.044 A 
ATOM     21  C   UNL d   1      10.187  -3.231   1.928  0.00  0.00     0.116 A 
ATOM     22  C   UNL d   1       9.330  -3.694   0.935  0.00  0.00     0.044 A 
ATOM     23  F   UNL d   1      11.297  -3.922   2.220  0.00  0.00    -0.206 F 
ATOM     24  C   UNL d   1       8.157  -2.979   0.641  0.00  0.00     0.032 A 
ENDBRANCH  15  18
ENDBRANCH  13  14
ENDBRANCH  12  13
ENDBRANCH  10  12
BRANCH   1  25
ATOM     25  C   UNL d   1      -2.753  -2.721  -0.032  0.00  0.00     0.317 C 
ATOM     26  O   UNL d   1      -3.970  -2.630  -0.075  0.00  0.00    -0.257 OA
BRANCH  25  27
ATOM     27  O   UNL d   1      -2.039  -3.861   0.151  0.00  0.00    -0.316 OA
BRANCH  27  28
ATOM     28  C   UNL d   1      -2.785  -4.988   0.627  0.00  0.00     0.175 C 
ATOM     29  C   UNL d   1      -2.803  -4.928   2.144  0.00  0.00     0.034 C 
ENDBRANCH  27  28
ENDBRANCH  25  27
ENDBRANCH   1  25
TORSDOF 7
