REMARK  2 active torsions:
REMARK  status: ('A' for Active; 'I' for Inactive)
REMARK    1  A    between atoms: C_2  and  N_1 
REMARK       I    between atoms: C_3  and  N_1 
REMARK    2  A    between atoms: C_4  and  C_3 
ROOT
ATOM      1  N   UNL d   1       1.176  -0.262  -0.186  0.00  0.00    -0.302 N 
ATOM      2  C   UNL d   1       2.547  -0.174  -0.004  0.00  0.00     0.281 C 
ATOM      3  O   UNL d   1       3.310  -1.134   0.037  0.00  0.00    -0.265 OA
ATOM      4  H   UNL d   1       0.701   0.605  -0.398  0.00  0.00     0.171 HD
ENDROOT
BRANCH   1   5
ATOM      5  C   UNL d   1       0.381  -1.365  -0.293  0.00  0.00     0.142 C 
ATOM      6  N   UNL d   1      -0.793  -1.247  -0.812  0.00  0.00    -0.370 N 
ATOM      7  C   UNL d   1      -1.453  -2.571  -0.836  0.00  0.00     0.132 C 
ATOM      8  HN  UNL d   1      -1.202  -0.377  -1.152  1.00  0.00     0.161 HD
ATOM      9  C   UNL d   1      -0.429  -3.688  -0.691  0.00  0.00     0.102 C 
ATOM     10  S   UNL d   1       0.883  -2.921   0.265  0.00  0.00    -0.092 SA
ENDBRANCH   1   5
BRANCH   2  11
ATOM     11  C   UNL d   1       3.035   1.188   0.055  0.00  0.00     0.142 A 
ATOM     12  O   UNL d   1       2.146   2.228   0.121  0.00  0.00    -0.317 OA
ATOM     13  C   UNL d   1       2.878   3.374   0.186  0.00  0.00     0.143 A 
ATOM     14  C   UNL d   1       4.223   3.091   0.141  0.00  0.00     0.027 A 
ATOM     15  C   UNL d   1       4.326   1.683   0.058  0.00  0.00     0.045 A 
ENDBRANCH   2  11
TORSDOF 2
