REMARK  3 active torsions:
REMARK  status: ('A' for Active; 'I' for Inactive)
REMARK       I    between atoms: N_2  and  C_1 
REMARK    1  A    between atoms: C_8  and  C_1 
REMARK    2  A    between atoms: N_3  and  N_2 
REMARK    3  A    between atoms: C_4  and  N_3 
ROOT
ATOM      1  C   UNL d   1       1.238  -0.261  -0.668  0.00  0.00     0.270 C 
ATOM      2  N   UNL d   1       0.392  -1.323  -0.389  0.00  0.00    -0.265 N 
ATOM      3  O   UNL d   1       2.460  -0.316  -0.536  0.00  0.00    -0.266 OA
ATOM      4  H   UNL d   1      -0.602  -1.225  -0.217  0.00  0.00     0.190 HD
ENDROOT
BRANCH   2   5
ATOM      5  N   UNL d   1       0.990  -2.543  -0.087  0.00  0.00    -0.297 N 
ATOM      6  H   UNL d   1       1.635  -2.477   0.700  0.00  0.00     0.187 HD
BRANCH   5   7
ATOM      7  C   UNL d   1       0.191  -3.707  -0.120  0.00  0.00     0.054 A 
ATOM      8  C   UNL d   1      -0.842  -3.960  -1.048  0.00  0.00    -0.033 A 
ATOM      9  C   UNL d   1      -1.520  -5.197  -1.009  0.00  0.00     0.015 A 
ATOM     10  C   UNL d   1      -1.276  -2.987  -2.110  0.00  0.00     0.050 C 
ATOM     11  C   UNL d   1      -1.153  -6.213  -0.119  0.00  0.00    -0.061 A 
ATOM     12  C   UNL d   1      -0.103  -5.979   0.764  0.00  0.00     0.009 A 
ATOM     13  C   UNL d   1      -1.865  -7.532  -0.148  0.00  0.00     0.048 C 
ATOM     14  C   UNL d   1       0.556  -4.747   0.757  0.00  0.00     0.032 A 
ENDBRANCH   5   7
ENDBRANCH   2   5
BRANCH   1  15
ATOM     15  C   UNL d   1       0.599   1.006  -1.123  0.00  0.00     0.033 A 
ATOM     16  C   UNL d   1       1.351   2.188  -1.048  0.00  0.00     0.017 A 
ATOM     17  C   UNL d   1       0.821   3.394  -1.508  0.00  0.00     0.001 A 
ATOM     18  C   UNL d   1      -0.461   3.428  -2.053  0.00  0.00     0.000 A 
ATOM     19  C   UNL d   1      -1.213   2.257  -2.140  0.00  0.00     0.001 A 
ATOM     20  C   UNL d   1      -0.686   1.047  -1.680  0.00  0.00     0.017 A 
ENDBRANCH   1  15
TORSDOF 3
