REMARK  4 active torsions:
REMARK  status: ('A' for Active; 'I' for Inactive)
REMARK    1  A    between atoms: C_4  and  C_1 
REMARK       I    between atoms: N_7  and  C_4 
REMARK    2  A    between atoms: C_5  and  N_8 
REMARK    3  A    between atoms: C_24  and  C_20 
REMARK    4  A    between atoms: C_25  and  C_24 
ROOT
ATOM      1  C   UNL d   1      -2.649  -1.519   0.025  0.00  0.00     0.272 C 
ATOM      2  N   UNL d   1      -3.830  -0.786   0.131  0.00  0.00    -0.344 N 
ATOM      3  N   UNL d   1      -6.052   0.887   0.688  0.00  0.00    -0.214 N 
ATOM      4  C   UNL d   1      -4.433   0.038  -0.934  0.00  0.00     0.146 C 
ATOM      5  C   UNL d   1      -4.772  -1.138   1.204  0.00  0.00     0.146 C 
ATOM      6  O   UNL d   1      -2.434  -2.479   0.772  0.00  0.00    -0.266 OA
ATOM      7  C   UNL d   1      -5.476   0.104   1.782  0.00  0.00     0.161 C 
ATOM      8  C   UNL d   1      -5.114   1.295  -0.360  0.00  0.00     0.161 C 
ENDROOT
BRANCH   3   9
ATOM      9  C   UNL d   1      -7.172   1.650   0.922  0.00  0.00     0.679 A 
ATOM     10  N   UNL d   1      -7.847   1.473   2.068  0.00  0.00    -0.201 N 
ATOM     11  C   UNL d   1      -9.019   2.121   2.216  0.00  0.00     0.114 A 
ATOM     12  HN  UNL d   1      -7.485   0.867   2.804  1.00  0.00     0.183 HD
ATOM     13  C   UNL d   1      -9.565   2.946   1.261  0.00  0.00    -0.026 A 
ATOM     14  C   UNL d   1      -8.786   3.095   0.139  0.00  0.00     0.114 A 
ATOM     15  N   UNL d   1      -7.607   2.470  -0.047  0.00  0.00    -0.201 N 
ATOM     16  HN  UNL d   1      -7.062   2.616  -0.898  1.00  0.00     0.183 HD
BRANCH  13  17
ATOM     17  C   UNL d   1     -10.890   3.615   1.438  0.00  0.00     0.041 C 
BRANCH  17  18
ATOM     18  C   UNL d   1     -11.941   3.222   0.393  0.00  0.00     0.000 C 
ATOM     19  C   UNL d   1     -12.309   1.745   0.432  0.00  0.00     0.005 C 
ENDBRANCH  17  18
ENDBRANCH  13  17
ENDBRANCH   3   9
BRANCH   1  20
ATOM     20  C   UNL d   1      -1.633  -1.153  -0.974  0.00  0.00     0.125 A 
ATOM     21  N   UNL d   1      -1.469   0.087  -1.467  0.00  0.00    -0.256 N 
ATOM     22  O   UNL d   1      -0.400   0.020  -2.341  0.00  0.00    -0.242 OA
ATOM     23  HN  UNL d   1      -2.023   0.913  -1.242  1.00  0.00     0.195 HD
ATOM     24  C   UNL d   1       0.105  -1.242  -2.342  0.00  0.00     0.075 A 
ATOM     25  C   UNL d   1      -0.626  -2.020  -1.483  0.00  0.00     0.071 A 
ATOM     26  C   UNL d   1       1.269  -1.482  -3.211  0.00  0.00     0.079 C 
ENDBRANCH   1  20
TORSDOF 4
