REMARK  8 active torsions:
REMARK  status: ('A' for Active; 'I' for Inactive)
REMARK    1  A    between atoms: N_2  and  S_1 
REMARK    2  A    between atoms: C_3  and  S_1 
REMARK    3  A    between atoms: C_4  and  N_2 
REMARK    4  A    between atoms: C_10  and  N_2 
REMARK    5  A    between atoms: C_5  and  C_4 
REMARK    6  A    between atoms: C_8  and  C_10 
REMARK    7  A    between atoms: C_9  and  C_8 
REMARK    8  A    between atoms: O_19  and  C_9 
ROOT
ATOM      1  N   UNL d   1       0.346  -0.338   1.542  0.00  0.00    -0.200 NA
ENDROOT
BRANCH   1   2
ATOM      2  S   UNL d   1       0.980  -0.072  -0.041  0.00  0.00     0.244 S 
ATOM      3  O   UNL d   1       0.596  -1.215  -0.841  0.00  0.00    -0.206 OA
ATOM      4  O   UNL d   1       2.375   0.301   0.095  0.00  0.00    -0.206 OA
BRANCH   2   5
ATOM      5  C   UNL d   1       0.152   1.353  -0.702  0.00  0.00     0.074 A 
ATOM      6  C   UNL d   1       0.354   2.607  -0.119  0.00  0.00     0.026 A 
ATOM      7  C   UNL d   1      -0.204   3.739  -0.721  0.00  0.00     0.025 A 
ATOM      8  C   UNL d   1      -0.946   3.610  -1.897  0.00  0.00     0.034 A 
ATOM      9  C   UNL d   1      -1.149   2.358  -2.475  0.00  0.00     0.025 A 
ATOM     10 CL   UNL d   1      -1.595   5.011  -2.656  0.00  0.00    -0.084 Cl
ATOM     11  C   UNL d   1      -0.600   1.222  -1.877  0.00  0.00     0.026 A 
ENDBRANCH   2   5
ENDBRANCH   1   2
BRANCH   1  12
ATOM     12  C   UNL d   1      -1.159  -0.352   1.563  0.00  0.00     0.172 C 
BRANCH  12  13
ATOM     13  C   UNL d   1      -1.687  -0.460   2.955  0.00  0.00     0.066 A 
ATOM     14  O   UNL d   1      -2.467  -1.551   3.215  0.00  0.00    -0.326 OA
ATOM     15  C   UNL d   1      -2.822  -1.488   4.524  0.00  0.00     0.142 A 
ATOM     16  C   UNL d   1      -2.287  -0.366   5.113  0.00  0.00     0.027 A 
ATOM     17  C   UNL d   1      -1.556   0.302   4.098  0.00  0.00     0.036 A 
ENDBRANCH  12  13
ENDBRANCH   1  12
BRANCH   1  18
ATOM     18  C   UNL d   1       0.881  -1.633   2.153  0.00  0.00     0.118 C 
BRANCH  18  19
ATOM     19  C   UNL d   1       2.398  -1.663   2.302  0.00  0.00     0.125 C 
BRANCH  19  20
ATOM     20  C   UNL d   1       2.841  -2.943   2.962  0.00  0.00     0.140 C 
ATOM     21  O   UNL d   1       2.099  -3.832   3.349  0.00  0.00    -0.650 OA
BRANCH  20  22
ATOM     22  O   UNL d   1       4.188  -3.022   3.080  0.00  0.00    -0.776 OA
ATOM     23  H   UNL d   1       4.660  -2.253   2.704  0.00  0.00     0.167 HD
ENDBRANCH  20  22
ENDBRANCH  19  20
ENDBRANCH  18  19
ENDBRANCH   1  18
TORSDOF 8
