REMARK  7 active torsions:
REMARK  status: ('A' for Active; 'I' for Inactive)
REMARK    1  A    between atoms: C_7  and  C_1 
REMARK    2  A    between atoms: C_4  and  C_9 
REMARK    3  A    between atoms: O_10  and  C_4 
REMARK    4  A    between atoms: O_6  and  C_5 
REMARK    5  A    between atoms: C_9  and  O_6 
REMARK    6  A    between atoms: O_11  and  C_7 
REMARK    7  A    between atoms: C_14  and  O_10 
ROOT
ATOM      1  N   UNL d   1       3.675  -2.788  -1.256  0.00  0.00    -0.194 NA
ATOM      2  C   UNL d   1       3.231  -1.936  -0.607  0.00  0.00     0.096 C 
ATOM      3  C   UNL d   1       2.732  -0.794   0.195  0.00  0.00     0.260 C 
ENDROOT
BRANCH   3   4
ATOM      4  C   UNL d   1       1.244  -0.487   0.047  0.00  0.00     0.017 A 
ATOM      5  C   UNL d   1       0.257  -1.495  -0.005  0.00  0.00     0.079 A 
ATOM      6  C   UNL d   1      -1.091  -1.131  -0.170  0.00  0.00     0.037 A 
ATOM      7  C   UNL d   1      -1.482   0.207  -0.191  0.00  0.00     0.003 A 
ATOM      8  C   UNL d   1      -0.531   1.205  -0.061  0.00  0.00     0.001 A 
ATOM      9  C   UNL d   1       0.817   0.862   0.050  0.00  0.00     0.013 A 
BRANCH   5  10
ATOM     10  O   UNL d   1       0.674  -2.802   0.147  0.00  0.00    -0.341 OA
BRANCH  10  11
ATOM     11  C   UNL d   1      -0.356  -3.783   0.211  0.00  0.00     0.286 C 
BRANCH  11  12
ATOM     12  C   UNL d   1       0.004  -5.203   0.630  0.00  0.00     0.283 C 
ATOM     13  O   UNL d   1      -0.845  -5.992   1.036  0.00  0.00    -0.263 OA
BRANCH  12  14
ATOM     14  O   UNL d   1       1.319  -5.499   0.471  0.00  0.00    -0.320 OA
BRANCH  14  15
ATOM     15  C   UNL d   1       1.693  -6.824   0.887  0.00  0.00     0.174 C 
ATOM     16  C   UNL d   1       1.398  -7.845  -0.199  0.00  0.00     0.034 C 
ENDBRANCH  14  15
ENDBRANCH  12  14
ENDBRANCH  11  12
ENDBRANCH  10  11
ENDBRANCH   5  10
ENDBRANCH   3   4
BRANCH   3  17
ATOM     17  O   UNL d   1       3.507   0.378  -0.142  0.00  0.00    -0.377 OA
ATOM     18  H   UNL d   1       3.571   0.395  -1.115  0.00  0.00     0.211 HD
ENDBRANCH   3  17
TORSDOF 7
