REMARK  5 active torsions:
REMARK  status: ('A' for Active; 'I' for Inactive)
REMARK    1  A    between atoms: C_3  and  C_1 
REMARK    2  A    between atoms: N_4  and  C_2 
REMARK    3  A    between atoms: O_11  and  C_3 
REMARK       I    between atoms: C_5  and  N_4 
REMARK    4  A    between atoms: C_6  and  C_5 
REMARK    5  A    between atoms: O_12  and  N_7 
ROOT
ATOM      1  C   UNL d   1       1.459  -0.271   0.529  0.00  0.00     0.066 A 
ATOM      2  C   UNL d   1       0.705  -1.411   0.174  0.00  0.00     0.051 A 
ATOM      3  C   UNL d   1       0.806   0.965   0.686  0.00  0.00     0.020 A 
ATOM      4  C   UNL d   1      -0.684  -1.290   0.005  0.00  0.00     0.030 A 
ATOM      5  C   UNL d   1      -0.572   1.073   0.494  0.00  0.00     0.001 A 
ATOM      6  C   UNL d   1      -1.314  -0.054   0.158  0.00  0.00     0.002 A 
ENDROOT
BRANCH   2   7
ATOM      7  N   UNL d   1       1.336  -2.633  -0.123  0.00  0.00    -0.321 N 
ATOM      8  C   UNL d   1       0.927  -3.921   0.128  0.00  0.00     0.263 C 
ATOM      9  O   UNL d   1       1.533  -4.887  -0.318  0.00  0.00    -0.267 OA
ATOM     10  H   UNL d   1       2.321  -2.596  -0.371  0.00  0.00     0.169 HD
BRANCH   8  11
ATOM     11  C   UNL d   1      -0.126  -4.131   1.188  0.00  0.00     0.188 C 
ATOM     12  N   UNL d   1      -1.000  -5.071   1.083  0.00  0.00    -0.275 N 
ATOM     13  HN  UNL d   1      -1.108  -5.695   0.284  1.00  0.00     0.193 HD
BRANCH  12  14
ATOM     14  O   UNL d   1      -1.777  -5.093   2.249  0.00  0.00    -0.290 OA
ATOM     15  H   UNL d   1      -2.253  -5.941   2.169  0.00  0.00     0.244 HD
ENDBRANCH  12  14
ENDBRANCH   8  11
ENDBRANCH   2   7
BRANCH   1  16
ATOM     16  C   UNL d   1       2.922  -0.282   0.856  0.00  0.00     0.295 C 
ATOM     17  O   UNL d   1       3.540   0.715   1.198  0.00  0.00    -0.259 OA
BRANCH  16  18
ATOM     18  O   UNL d   1       3.433  -1.537   0.799  0.00  0.00    -0.322 OA
ATOM     19  C   UNL d   1       4.771  -1.672   1.283  0.00  0.00     0.213 C 
ENDBRANCH  16  18
ENDBRANCH   1  16
TORSDOF 5
