REMARK  4 active torsions:
REMARK  status: ('A' for Active; 'I' for Inactive)
REMARK    1  A    between atoms: C_6  and  C_1 
REMARK    2  A    between atoms: C_11  and  C_4 
REMARK       I    between atoms: N_8  and  C_6 
REMARK    3  A    between atoms: N_9  and  N_8 
REMARK    4  A    between atoms: C_10  and  N_9 
ROOT
ATOM      1  C   UNL d   1       0.262  -2.745   0.248  0.00  0.00     0.271 C 
ATOM      2  N   UNL d   1       1.562  -3.037   0.637  0.00  0.00    -0.282 N 
ATOM      3  O   UNL d   1      -0.546  -3.646   0.036  0.00  0.00    -0.266 OA
ATOM      4  H   UNL d   1       2.315  -2.377   0.514  0.00  0.00     0.184 HD
ENDROOT
BRANCH   1   5
ATOM      5  C   UNL d   1      -0.071  -1.328   0.132  0.00  0.00     0.093 A 
ATOM      6  C   UNL d   1      -1.376  -0.709   0.128  0.00  0.00     0.083 A 
ATOM      7  N   UNL d   1      -1.255   0.617  -0.055  0.00  0.00    -0.259 N 
ATOM      8  O   UNL d   1       0.079   0.891  -0.128  0.00  0.00    -0.241 OA
ATOM      9  HN  UNL d   1      -2.017   1.291  -0.125  1.00  0.00     0.195 HD
ATOM     10  C   UNL d   1       0.795  -0.252  -0.005  0.00  0.00     0.090 A 
ATOM     11  C   UNL d   1       2.257  -0.043  -0.066  0.00  0.00     0.080 C 
BRANCH   6  12
ATOM     12  C   UNL d   1      -2.723  -1.263   0.329  0.00  0.00    -0.006 A 
ATOM     13  C   UNL d   1      -3.832  -0.638  -0.271  0.00  0.00     0.014 A 
ATOM     14  C   UNL d   1      -5.133  -1.089  -0.031  0.00  0.00     0.001 A 
ATOM     15  C   UNL d   1      -5.347  -2.179   0.807  0.00  0.00     0.000 A 
ATOM     16  C   UNL d   1      -4.262  -2.811   1.409  0.00  0.00     0.001 A 
ATOM     17  C   UNL d   1      -2.961  -2.348   1.182  0.00  0.00     0.014 A 
ENDBRANCH   6  12
ENDBRANCH   1   5
BRANCH   2  18
ATOM     18  N   UNL d   1       1.969  -4.380   0.642  0.00  0.00    -0.203 NA
ATOM     19  H   UNL d   1       1.189  -5.027   0.467  0.00  0.00     0.153 HD
BRANCH  18  20
ATOM     20  C   UNL d   1       2.763  -4.773   1.749  0.00  0.00     0.030 A 
ATOM     21  C   UNL d   1       3.232  -3.884   2.727  0.00  0.00     0.049 A 
ATOM     22  C   UNL d   1       4.095  -4.322   3.735  0.00  0.00     0.037 A 
ATOM     23 CL   UNL d   1       4.642  -3.205   4.927  0.00  0.00    -0.084 Cl
ATOM     24  C   UNL d   1       4.527  -5.642   3.780  0.00  0.00     0.047 A 
ATOM     25  C   UNL d   1       4.079  -6.527   2.807  0.00  0.00     0.037 A 
ATOM     26  C   UNL d   1       3.205  -6.103   1.801  0.00  0.00     0.049 A 
ATOM     27 CL   UNL d   1       4.627  -8.159   2.826  0.00  0.00    -0.084 Cl
ENDBRANCH  18  20
ENDBRANCH   2  18
TORSDOF 4
