REMARK  11 active torsions:
REMARK  status: ('A' for Active; 'I' for Inactive)
REMARK    1  A    between atoms: C_2  and  S_1 
REMARK    2  A    between atoms: N_5  and  S_1 
REMARK    3  A    between atoms: O_9  and  C_3 
REMARK    4  A    between atoms: C_23  and  N_5 
REMARK    5  A    between atoms: C_6  and  C_18 
REMARK    6  A    between atoms: C_7  and  C_22 
REMARK    7  A    between atoms: C_18  and  O_9 
REMARK    8  A    between atoms: C_10  and  C_16 
REMARK    9  A    between atoms: C_21  and  C_10 
REMARK   10  A    between atoms: O_17  and  C_15 
REMARK   11  A    between atoms: C_22  and  O_17 
ROOT
ATOM      1  C   UNL d   1       0.337   0.024   1.765  0.00  0.00     0.109 C 
ATOM      2  C   UNL d   1      -0.505  -0.976   2.302  0.00  0.00     0.115 C 
ATOM      3  C   UNL d   1      -1.067  -0.746   3.586  0.00  0.00     0.112 C 
ATOM      4  C   UNL d   1      -2.146  -1.538   4.118  0.00  0.00     0.105 C 
ATOM      5  N   UNL d   1      -3.007  -2.200   4.520  0.00  0.00    -0.191 NA
ATOM      6  C   UNL d   1       0.717   1.129   2.540  0.00  0.00     0.030 C 
ATOM      7  C   UNL d   1      -0.618   0.336   4.377  0.00  0.00     0.092 C 
ATOM      8  C   UNL d   1       0.251   1.280   3.836  0.00  0.00     0.040 C 
ENDROOT
BRANCH   2   9
ATOM      9  O   UNL d   1      -0.711  -2.104   1.544  0.00  0.00    -0.339 OA
BRANCH   9  10
ATOM     10  C   UNL d   1      -0.986  -3.355   2.211  0.00  0.00     0.293 C 
BRANCH  10  11
ATOM     11  C   UNL d   1      -0.381  -4.588   1.538  0.00  0.00     0.408 C 
ATOM     12  F   UNL d   1       0.305  -4.306   0.416  0.00  0.00    -0.169 F 
ATOM     13  F   UNL d   1       0.474  -5.210   2.390  0.00  0.00    -0.169 F 
ATOM     14  F   UNL d   1      -1.343  -5.487   1.223  0.00  0.00    -0.169 F 
ENDBRANCH  10  11
ENDBRANCH   9  10
ENDBRANCH   2   9
BRANCH   7  15
ATOM     15  O   UNL d   1      -1.063   0.412   5.677  0.00  0.00    -0.341 OA
BRANCH  15  16
ATOM     16  C   UNL d   1      -0.147   1.038   6.596  0.00  0.00     0.293 C 
BRANCH  16  17
ATOM     17  C   UNL d   1      -0.362   0.616   8.046  0.00  0.00     0.408 C 
ATOM     18  F   UNL d   1      -1.302  -0.339   8.187  0.00  0.00    -0.169 F 
ATOM     19  F   UNL d   1       0.791   0.132   8.568  0.00  0.00    -0.169 F 
ATOM     20  F   UNL d   1      -0.728   1.675   8.803  0.00  0.00    -0.169 F 
ENDBRANCH  16  17
ENDBRANCH  15  16
ENDBRANCH   7  15
BRANCH   1  21
ATOM     21  S   UNL d   1       0.989   0.032   0.096  0.00  0.00     0.248 S 
ATOM     22  O   UNL d   1       0.376  -1.030  -0.669  0.00  0.00    -0.205 OA
ATOM     23  O   UNL d   1       2.424   0.177   0.197  0.00  0.00    -0.205 OA
BRANCH  21  24
ATOM     24  N   UNL d   1       0.301   1.453  -0.531  0.00  0.00    -0.181 NA
ATOM     25  H   UNL d   1      -0.273   1.206  -1.342  0.00  0.00     0.146 HD
BRANCH  24  26
ATOM     26  C   UNL d   1       1.063   2.652  -0.705  0.00  0.00     0.022 A 
ATOM     27  C   UNL d   1       1.946   2.795  -1.774  0.00  0.00     0.025 A 
ATOM     28  C   UNL d   1       2.419   4.071  -2.124  0.00  0.00     0.017 A 
ATOM     29  C   UNL d   1       2.025   5.210  -1.402  0.00  0.00     0.015 A 
ATOM     30  C   UNL d   1       1.203   5.048  -0.282  0.00  0.00     0.017 A 
ATOM     31  C   UNL d   1       0.716   3.775   0.052  0.00  0.00     0.025 A 
BRANCH  29  32
ATOM     32  C   UNL d   1       2.348   6.555  -1.963  0.00  0.00     0.192 C 
ATOM     33  O   UNL d   1       2.587   6.658  -3.165  0.00  0.00    -0.287 OA
BRANCH  32  34
ATOM     34  C   UNL d   1       2.319   7.796  -1.150  0.00  0.00     0.015 A 
ATOM     35  C   UNL d   1       1.669   8.922  -1.675  0.00  0.00     0.015 A 
ATOM     36  C   UNL d   1       1.661  10.123  -0.964  0.00  0.00     0.001 A 
ATOM     37  C   UNL d   1       2.319  10.205   0.264  0.00  0.00     0.000 A 
ATOM     38  C   UNL d   1       2.984   9.090   0.778  0.00  0.00     0.001 A 
ATOM     39  C   UNL d   1       2.988   7.882   0.072  0.00  0.00     0.015 A 
ENDBRANCH  32  34
ENDBRANCH  29  32
ENDBRANCH  24  26
ENDBRANCH  21  24
ENDBRANCH   1  21
TORSDOF 11
