REMARK  1 active torsions:
REMARK  status: ('A' for Active; 'I' for Inactive)
REMARK    1  A    between atoms: C_8  and  C_2 
ROOT
ATOM      1  N   UNL d   1       0.264  -0.639   0.029  0.00  0.00    -0.332 N 
ATOM      2  C   UNL d   1       2.402   0.056   0.001  0.00  0.00    -0.008 A 
ATOM      3  C   UNL d   1       0.245   0.750   0.039  0.00  0.00     0.039 A 
ATOM      4  C   UNL d   1       1.577  -1.056   0.016  0.00  0.00     0.109 A 
ATOM      5  C   UNL d   1       1.548   1.196   0.036  0.00  0.00     0.043 A 
ATOM      6  C   UNL d   1      -0.895  -1.413   0.017  0.00  0.00     0.096 A 
ATOM      7  C   UNL d   1      -1.026   1.393   0.033  0.00  0.00     0.030 A 
ATOM      8  C   UNL d   1      -2.096  -0.808   0.008  0.00  0.00     0.018 A 
ATOM      9  C   UNL d   1      -2.148   0.647   0.016  0.00  0.00     0.004 A 
ENDROOT
BRANCH   2  10
ATOM     10  C   UNL d   1       3.858   0.010  -0.073  0.00  0.00    -0.025 A 
ATOM     11  C   UNL d   1       4.523  -1.039  -0.722  0.00  0.00     0.012 A 
ATOM     12  C   UNL d   1       5.915  -1.026  -0.855  0.00  0.00     0.001 A 
ATOM     13  C   UNL d   1       6.657   0.035  -0.339  0.00  0.00     0.000 A 
ATOM     14  C   UNL d   1       6.010   1.075   0.324  0.00  0.00     0.001 A 
ATOM     15  C   UNL d   1       4.620   1.061   0.459  0.00  0.00     0.012 A 
ENDBRANCH   2  10
TORSDOF 1
