REMARK  3 active torsions:
REMARK  status: ('A' for Active; 'I' for Inactive)
REMARK    1  A    between atoms: N_13  and  N_5 
REMARK    2  A    between atoms: C_15  and  N_6 
REMARK    3  A    between atoms: C_18  and  C_17 
ROOT
ATOM      1  C   UNL d   1      -0.157  -0.625   0.049  0.00  0.00     0.160 A 
ATOM      2  C   UNL d   1      -0.250   0.738   0.021  0.00  0.00     0.099 A 
ATOM      3  N   UNL d   1       0.995  -1.321   0.138  0.00  0.00    -0.267 N 
ATOM      4  HN  UNL d   1       0.986  -2.341   0.158  1.00  0.00     0.190 HD
ATOM      5  N   UNL d   1       2.107   0.710   0.183  0.00  0.00    -0.142 N 
ATOM      6  N   UNL d   1      -1.456  -1.112  -0.039  0.00  0.00    -0.238 N 
ATOM      7  N   UNL d   1       2.084  -0.686   0.195  0.00  0.00    -0.216 N 
ATOM      8  HN  UNL d   1       2.963  -1.201   0.251  1.00  0.00     0.210 HD
ATOM      9  C   UNL d   1       0.945   1.514   0.106  0.00  0.00     0.298 A 
ATOM     10  N   UNL d   1      -2.346  -0.072  -0.155  0.00  0.00    -0.302 N 
ATOM     11  HN  UNL d   1      -3.359  -0.132  -0.260  1.00  0.00     0.186 HD
ATOM     12  C   UNL d   1      -1.601   1.034  -0.102  0.00  0.00     0.129 A 
ATOM     13  O   UNL d   1       0.911   2.742   0.102  0.00  0.00    -0.264 OA
ENDROOT
BRANCH   5  14
ATOM     14  N   UNL d   1       3.305   1.383   0.227  0.00  0.00    -0.286 N 
ATOM     15  C   UNL d   1       4.411   0.717   0.271  0.00  0.00     0.120 C 
ATOM     16  HN  UNL d   1       3.321   2.403   0.224  1.00  0.00     0.188 HD
BRANCH  15  17
ATOM     17  C   UNL d   1       5.710   1.427   0.297  0.00  0.00    -0.019 A 
ATOM     18  C   UNL d   1       5.756   2.826   0.275  0.00  0.00     0.014 A 
ATOM     19  C   UNL d   1       6.987   3.485   0.286  0.00  0.00     0.024 A 
ATOM     20  C   UNL d   1       8.167   2.744   0.319  0.00  0.00     0.034 A 
ATOM     21  C   UNL d   1       8.126   1.349   0.344  0.00  0.00     0.024 A 
ATOM     22 CL   UNL d   1       9.684   3.555   0.328  0.00  0.00    -0.084 Cl
ATOM     23  C   UNL d   1       6.895   0.685   0.333  0.00  0.00     0.014 A 
ENDBRANCH  15  17
ENDBRANCH   5  14
BRANCH   6  24
ATOM     24  C   UNL d   1      -1.943  -2.454  -0.013  0.00  0.00     0.058 A 
ATOM     25  C   UNL d   1      -1.098  -3.553   0.178  0.00  0.00     0.031 A 
ATOM     26  C   UNL d   1      -1.626  -4.849   0.217  0.00  0.00     0.002 A 
ATOM     27  C   UNL d   1      -2.995  -5.059   0.062  0.00  0.00     0.000 A 
ATOM     28  C   UNL d   1      -3.844  -3.974  -0.132  0.00  0.00     0.002 A 
ATOM     29  C   UNL d   1      -3.324  -2.678  -0.168  0.00  0.00     0.031 A 
ENDBRANCH   6  24
TORSDOF 3
