REMARK  7 active torsions:
REMARK  status: ('A' for Active; 'I' for Inactive)
REMARK    1  A    between atoms: N_8  and  S_1 
REMARK    2  A    between atoms: C_14  and  S_1 
REMARK    3  A    between atoms: C_12  and  C_2 
REMARK    4  A    between atoms: C_9  and  C_3 
REMARK    5  A    between atoms: C_4  and  N_11 
REMARK    6  A    between atoms: O_28  and  C_12 
REMARK    7  A    between atoms: C_33  and  O_28 
ROOT
ATOM      1  C   UNL d   1      -0.417   7.350  -3.295  0.00  0.00     0.072 A 
ATOM      2  C   UNL d   1      -1.393   6.457  -2.882  0.00  0.00     0.134 A 
ATOM      3  C   UNL d   1       0.255   4.981  -1.951  0.00  0.00     0.125 A 
ATOM      4  N   UNL d   1      -1.038   5.300  -2.224  0.00  0.00    -0.337 N 
ATOM      5  HN  UNL d   1      -1.774   4.657  -1.931  1.00  0.00     0.167 HD
ATOM      6  C   UNL d   1       1.264   5.852  -2.366  0.00  0.00     0.089 A 
ATOM      7  C   UNL d   1       0.920   7.034  -3.034  0.00  0.00     0.046 A 
ATOM      8  C   UNL d   1       2.656   5.573  -2.202  0.00  0.00     0.103 C 
ATOM      9  N   UNL d   1       3.797   5.379  -2.076  0.00  0.00    -0.191 NA
ENDROOT
BRANCH   3  10
ATOM     10  N   UNL d   1       0.419   3.806  -1.256  0.00  0.00    -0.363 N 
ATOM     11  C   UNL d   1       1.552   3.473  -0.378  0.00  0.00     0.145 C 
ATOM     12  C   UNL d   1       1.098   2.552   0.780  0.00  0.00     0.155 C 
ATOM     13  N   UNL d   1       0.294   1.374   0.325  0.00  0.00    -0.304 N 
ATOM     14  C   UNL d   1      -0.833   1.792  -0.567  0.00  0.00     0.155 C 
ATOM     15  C   UNL d   1      -0.324   2.635  -1.755  0.00  0.00     0.145 C 
BRANCH  13  16
ATOM     16  S   UNL d   1       1.132  -0.034  -0.110  0.00  0.00     0.260 S 
ATOM     17  O   UNL d   1       2.426  -0.022   0.539  0.00  0.00    -0.200 OA
ATOM     18  O   UNL d   1       1.011  -0.221  -1.538  0.00  0.00    -0.200 OA
BRANCH  16  19
ATOM     19  C   UNL d   1       0.165  -1.315   0.683  0.00  0.00     0.079 A 
ATOM     20  C   UNL d   1      -0.890  -1.928  -0.003  0.00  0.00     0.027 A 
ATOM     21  C   UNL d   1      -1.593  -2.977   0.602  0.00  0.00     0.025 A 
ATOM     22  C   UNL d   1      -1.228  -3.419   1.874  0.00  0.00     0.034 A 
ATOM     23  C   UNL d   1      -0.161  -2.826   2.549  0.00  0.00     0.025 A 
ATOM     24 CL   UNL d   1      -2.090  -4.715   2.609  0.00  0.00    -0.084 Cl
ATOM     25  C   UNL d   1       0.540  -1.774   1.953  0.00  0.00     0.027 A 
ENDBRANCH  16  19
ENDBRANCH  13  16
ENDBRANCH   3  10
BRANCH   1  26
ATOM     26  C   UNL d   1      -0.717   8.605  -4.007  0.00  0.00     0.295 C 
ATOM     27  O   UNL d   1      -1.572   9.399  -3.671  0.00  0.00    -0.259 OA
BRANCH  26  28
ATOM     28  O   UNL d   1       0.100   8.659  -5.085  0.00  0.00    -0.318 OA
BRANCH  28  29
ATOM     29  C   UNL d   1      -0.187   9.660  -6.075  0.00  0.00     0.174 C 
ATOM     30  C   UNL d   1      -0.818   8.950  -7.257  0.00  0.00     0.034 C 
ENDBRANCH  28  29
ENDBRANCH  26  28
ENDBRANCH   1  26
BRANCH   2  31
ATOM     31  C   UNL d   1      -2.882   6.646  -3.134  0.00  0.00     0.433 C 
ATOM     32  F   UNL d   1      -3.224   7.606  -4.032  0.00  0.00    -0.165 F 
ATOM     33  F   UNL d   1      -3.456   5.507  -3.633  0.00  0.00    -0.165 F 
ATOM     34  F   UNL d   1      -3.574   6.927  -1.993  0.00  0.00    -0.165 F 
ENDBRANCH   2  31
TORSDOF 7
