REMARK  6 active torsions:
REMARK  status: ('A' for Active; 'I' for Inactive)
REMARK    1  A    between atoms: N_2  and  C_1 
REMARK    2  A    between atoms: N_4  and  C_1 
REMARK    3  A    between atoms: C_5  and  N_2 
REMARK    4  A    between atoms: C_10  and  N_4 
REMARK    5  A    between atoms: C_9  and  C_10 
REMARK    6  A    between atoms: O_13  and  C_11 
ROOT
ATOM      1  C   UNL d   1       1.051   0.033   0.041  0.00  0.00     0.172 C 
ATOM      2  S   UNL d   1       2.628  -0.135   0.572  0.00  0.00    -0.041 SA
ENDROOT
BRANCH   1   3
ATOM      3  N   UNL d   1       0.323   1.194  -0.099  0.00  0.00    -0.333 N 
ATOM      4  H   UNL d   1      -0.603   1.140   0.315  0.00  0.00     0.168 HD
BRANCH   3   5
ATOM      5  C   UNL d   1       0.865   2.490  -0.259  0.00  0.00     0.036 A 
ATOM      6  C   UNL d   1       1.954   2.699  -1.111  0.00  0.00     0.066 A 
ATOM      7  C   UNL d   1       2.540   3.960  -1.224  0.00  0.00     0.070 A 
ATOM      8  C   UNL d   1       1.997   5.026  -0.507  0.00  0.00     0.037 A 
ATOM      9  C   UNL d   1       0.868   4.838   0.295  0.00  0.00     0.005 A 
ATOM     10  C   UNL d   1       0.287   3.574   0.408  0.00  0.00     0.029 A 
BRANCH   7  11
ATOM     11  O   UNL d   1       3.633   4.259  -1.992  0.00  0.00    -0.356 OA
ATOM     12  C   UNL d   1       4.265   3.161  -2.644  0.00  0.00     0.210 C 
ENDBRANCH   7  11
ENDBRANCH   3   5
ENDBRANCH   1   3
BRANCH   1  13
ATOM     13  N   UNL d   1       0.374  -1.119  -0.245  0.00  0.00    -0.363 N 
ATOM     14  H   UNL d   1       0.946  -1.946  -0.104  0.00  0.00     0.162 HD
BRANCH  13  15
ATOM     15  C   UNL d   1      -0.649  -1.242  -1.266  0.00  0.00     0.162 C 
BRANCH  15  16
ATOM     16  C   UNL d   1      -2.043  -1.352  -0.728  0.00  0.00    -0.025 A 
ATOM     17  C   UNL d   1      -3.115  -0.981  -1.537  0.00  0.00     0.096 A 
ATOM     18  N   UNL d   1      -4.413  -1.105  -1.184  0.00  0.00    -0.375 N 
ATOM     19  C   UNL d   1      -4.666  -1.643   0.026  0.00  0.00     0.087 A 
ATOM     20  HN  UNL d   1      -5.166  -0.805  -1.804  1.00  0.00     0.164 HD
ATOM     21  C   UNL d   1      -3.678  -2.055   0.903  0.00  0.00     0.018 A 
ATOM     22  C   UNL d   1      -2.346  -1.910   0.514  0.00  0.00     0.011 A 
ENDBRANCH  15  16
ENDBRANCH  13  15
ENDBRANCH   1  13
TORSDOF 6
