REMARK  1 active torsions:
REMARK  status: ('A' for Active; 'I' for Inactive)
REMARK    1  A    between atoms: N_3  and  C_1 
ROOT
ATOM      1  C   UNL d   1      -0.263  -1.254   0.002  0.00  0.00     0.124 A 
ATOM      2  C   UNL d   1      -0.574  -0.473  -1.124  0.00  0.00     0.088 A 
ATOM      3  C   UNL d   1      -0.109  -0.814  -2.433  0.00  0.00     0.103 C 
ATOM      4  N   UNL d   1       0.237  -1.084  -3.510  0.00  0.00    -0.191 NA
ATOM      5  N   UNL d   1      -0.635  -0.852   1.244  0.00  0.00    -0.351 N 
ATOM      6  HN  UNL d   1      -0.392  -1.406   2.066  1.00  0.00     0.166 HD
ATOM      7  C   UNL d   1      -1.301   0.713  -0.965  0.00  0.00     0.028 A 
ATOM      8  C   UNL d   1      -1.335   0.300   1.369  0.00  0.00     0.090 A 
ATOM      9  C   UNL d   1      -1.692   1.108   0.307  0.00  0.00     0.019 A 
ENDROOT
BRANCH   1  10
ATOM     10  N   UNL d   1       0.504  -2.404  -0.122  0.00  0.00    -0.363 N 
ATOM     11  C   UNL d   1       1.280  -2.856   1.043  0.00  0.00     0.154 C 
ATOM     12  C   UNL d   1       2.421  -3.773   0.523  0.00  0.00     0.289 C 
ATOM     13  N   UNL d   1       1.965  -4.901  -0.324  0.00  0.00     0.086 N 
ATOM     14  C   UNL d   1       1.052  -4.414  -1.382  0.00  0.00     0.289 C 
ATOM     15  H   UNL d   1       2.780  -5.321  -0.771  0.00  0.00     0.316 HD
ATOM     16  C   UNL d   1      -0.102  -3.548  -0.830  0.00  0.00     0.154 C 
ENDBRANCH   1  10
TORSDOF 1
