REMARK  6 active torsions:
REMARK  status: ('A' for Active; 'I' for Inactive)
REMARK    1  A    between atoms: C_12  and  C_2 
REMARK    2  A    between atoms: S_15  and  C_5 
REMARK    3  A    between atoms: C_8  and  C_9 
REMARK    4  A    between atoms: C_13  and  C_23 
REMARK       I    between atoms: N_16  and  C_13 
REMARK    5  A    between atoms: C_23  and  S_15 
REMARK    6  A    between atoms: C_24  and  N_16 
ROOT
ATOM      1  S   UNL d   1      -0.651   0.006   1.518  0.00  0.00    -0.043 SA
ATOM      2  C   UNL d   1      -0.881   0.894   0.055  0.00  0.00     0.118 A 
ATOM      3  N   UNL d   1      -0.378   0.284  -1.006  0.00  0.00    -0.291 N 
ATOM      4  HN  UNL d   1      -0.419   0.665  -1.951  1.00  0.00     0.187 HD
ATOM      5  C   UNL d   1       0.124  -1.200   0.592  0.00  0.00     0.129 A 
ATOM      6  N   UNL d   1       0.209  -0.932  -0.690  0.00  0.00    -0.287 N 
ATOM      7  HN  UNL d   1       0.654  -1.545  -1.373  1.00  0.00     0.188 HD
ENDROOT
BRANCH   5   8
ATOM      8  S   UNL d   1       0.726  -2.681   1.303  0.00  0.00    -0.094 SA
BRANCH   8   9
ATOM      9  C   UNL d   1       2.005  -3.121   0.096  0.00  0.00     0.184 C 
BRANCH   9  10
ATOM     10  C   UNL d   1       2.764  -4.405   0.418  0.00  0.00     0.231 C 
ATOM     11  N   UNL d   1       2.194  -5.232   1.369  0.00  0.00    -0.327 N 
ATOM     12  H   UNL d   1       1.315  -4.915   1.763  0.00  0.00     0.169 HD
ATOM     13  O   UNL d   1       3.788  -4.657  -0.217  0.00  0.00    -0.272 OA
BRANCH  11  14
ATOM     14  C   UNL d   1       2.658  -6.493   1.802  0.00  0.00     0.034 A 
ATOM     15  C   UNL d   1       3.887  -7.039   1.428  0.00  0.00     0.029 A 
ATOM     16  C   UNL d   1       4.261  -8.316   1.859  0.00  0.00     0.002 A 
ATOM     17  C   UNL d   1       3.410  -9.060   2.671  0.00  0.00     0.000 A 
ATOM     18  C   UNL d   1       2.191  -8.517   3.070  0.00  0.00     0.002 A 
ATOM     19  C   UNL d   1       1.821  -7.236   2.646  0.00  0.00     0.029 A 
ENDBRANCH  11  14
ENDBRANCH   9  10
ENDBRANCH   8   9
ENDBRANCH   5   8
BRANCH   2  20
ATOM     20  C   UNL d   1      -1.589   2.184   0.049  0.00  0.00     0.067 A 
ATOM     21  N   UNL d   1      -1.962   2.676   1.261  0.00  0.00    -0.363 N 
ATOM     22  C   UNL d   1      -2.630   3.853   1.292  0.00  0.00     0.104 A 
ATOM     23  HN  UNL d   1      -1.746   2.172   2.121  1.00  0.00     0.165 HD
ATOM     24  C   UNL d   1      -2.958   4.588   0.165  0.00  0.00     0.063 A 
ATOM     25  C   UNL d   1      -2.565   4.071  -1.074  0.00  0.00     0.020 A 
ATOM     26  C   UNL d   1      -1.873   2.858  -1.136  0.00  0.00     0.033 A 
BRANCH  24  27
ATOM     27  C   UNL d   1      -3.706   5.880   0.289  0.00  0.00     0.418 C 
ATOM     28  F   UNL d   1      -4.009   6.212   1.574  0.00  0.00    -0.166 F 
ATOM     29  F   UNL d   1      -3.010   6.936  -0.214  0.00  0.00    -0.166 F 
ATOM     30  F   UNL d   1      -4.892   5.861  -0.379  0.00  0.00    -0.166 F 
ENDBRANCH  24  27
ENDBRANCH   2  20
TORSDOF 6
