REMARK  4 active torsions:
REMARK  status: ('A' for Active; 'I' for Inactive)
REMARK    1  A    between atoms: C_7  and  C_1 
REMARK    2  A    between atoms: C_4  and  C_2 
REMARK    3  A    between atoms: C_3  and  C_8 
REMARK    4  A    between atoms: C_8  and  N_6 
REMARK       I    between atoms: N_17  and  C_7 
ROOT
ATOM      1  C   UNL d   1       0.597  -1.353   0.084  0.00  0.00     0.037 C 
ATOM      2  C   UNL d   1       1.522  -0.160   0.249  0.00  0.00     0.135 C 
ATOM      3  C   UNL d   1      -0.716  -1.175  -0.121  0.00  0.00     0.099 C 
ATOM      4  N   UNL d   1      -1.350   0.059  -0.092  0.00  0.00    -0.385 N 
ATOM      5  C   UNL d   1       0.828   1.149  -0.191  0.00  0.00     0.038 C 
ATOM      6  C   UNL d   1      -0.599   1.238   0.361  0.00  0.00     0.123 C 
ENDROOT
BRANCH   4   7
ATOM      7  C   UNL d   1      -2.724   0.266  -0.589  0.00  0.00     0.164 C 
BRANCH   7   8
ATOM      8  C   UNL d   1      -3.767   0.116   0.497  0.00  0.00     0.003 A 
ATOM      9  C   UNL d   1      -4.207   1.224   1.250  0.00  0.00     0.043 A 
ATOM     10 CL   UNL d   1      -3.705   2.845   0.908  0.00  0.00    -0.084 Cl
ATOM     11  C   UNL d   1      -5.125   1.076   2.299  0.00  0.00     0.024 A 
ATOM     12  C   UNL d   1      -5.639  -0.176   2.614  0.00  0.00     0.003 A 
ATOM     13  C   UNL d   1      -5.259  -1.277   1.857  0.00  0.00     0.024 A 
ATOM     14  C   UNL d   1      -4.343  -1.134   0.805  0.00  0.00     0.043 A 
ATOM     15 CL   UNL d   1      -4.030  -2.568  -0.113  0.00  0.00    -0.084 Cl
ENDBRANCH   7   8
ENDBRANCH   4   7
BRANCH   1  16
ATOM     16  C   UNL d   1       1.249  -2.688   0.059  0.00  0.00     0.247 C 
ATOM     17  O   UNL d   1       2.457  -2.805  -0.095  0.00  0.00    -0.268 OA
ATOM     18  N   UNL d   1       0.460  -3.776   0.278  0.00  0.00    -0.366 N 
ATOM     19  H   UNL d   1      -0.508  -3.717   0.557  0.00  0.00     0.159 HD
ATOM     20  H   UNL d   1       0.920  -4.672   0.333  0.00  0.00     0.159 HD
ENDBRANCH   1  16
BRANCH   2  21
ATOM     21  C   UNL d   1       2.101  -0.055   1.663  0.00  0.00     0.395 C 
ATOM     22  F   UNL d   1       1.706  -1.053   2.485  0.00  0.00    -0.170 F 
ATOM     23  F   UNL d   1       3.455  -0.073   1.628  0.00  0.00    -0.170 F 
ATOM     24  F   UNL d   1       1.752   1.108   2.268  0.00  0.00    -0.170 F 
ENDBRANCH   2  21
TORSDOF 4
