REMARK  4 active torsions:
REMARK  status: ('A' for Active; 'I' for Inactive)
REMARK       I    between atoms: N_2  and  C_1 
REMARK       I    between atoms: N_4  and  C_1 
REMARK    1  A    between atoms: C_6  and  N_2 
REMARK    2  A    between atoms: C_3  and  C_5 
REMARK    3  A    between atoms: O_12  and  C_3 
REMARK    4  A    between atoms: C_9  and  N_4 
ROOT
ATOM      1  C   UNL d   1       1.104   0.062   0.050  0.00  0.00     0.325 C 
ATOM      2  N   UNL d   1       2.433   0.347  -0.210  0.00  0.00    -0.306 N 
ATOM      3  N   UNL d   1       0.324   0.312  -1.067  0.00  0.00    -0.309 N 
ATOM      4  O   UNL d   1       0.670  -0.331   1.127  0.00  0.00    -0.247 OA
ATOM      5  H   UNL d   1       2.573   1.129  -0.839  0.00  0.00     0.171 HD
ATOM      6  H   UNL d   1       0.784   0.154  -1.954  0.00  0.00     0.170 HD
ENDROOT
BRANCH   3   7
ATOM      7  C   UNL d   1      -1.083   0.363  -1.066  0.00  0.00     0.037 A 
ATOM      8  C   UNL d   1      -1.815   0.675   0.086  0.00  0.00     0.048 A 
ATOM      9  C   UNL d   1      -3.214   0.669   0.057  0.00  0.00     0.039 A 
ATOM     10  C   UNL d   1      -3.883   0.410  -1.142  0.00  0.00     0.018 A 
ATOM     11  C   UNL d   1      -3.156   0.145  -2.303  0.00  0.00     0.003 A 
ATOM     12  C   UNL d   1      -1.760   0.126  -2.266  0.00  0.00     0.029 A 
BRANCH   9  13
ATOM     13  C   UNL d   1      -4.021   0.975   1.266  0.00  0.00     0.176 C 
ATOM     14  O   UNL d   1      -5.122   1.498   1.204  0.00  0.00    -0.646 OA
BRANCH  13  15
ATOM     15  O   UNL d   1      -3.454   0.582   2.422  0.00  0.00    -0.773 OA
ATOM     16  H   UNL d   1      -2.637   0.054   2.341  0.00  0.00     0.167 HD
ENDBRANCH  13  15
ENDBRANCH   9  13
ENDBRANCH   3   7
BRANCH   2  17
ATOM     17  C   UNL d   1       3.453   0.172   0.751  0.00  0.00     0.075 A 
ATOM     18  C   UNL d   1       4.452   1.146   0.838  0.00  0.00     0.143 A 
ATOM     19  F   UNL d   1       4.418   2.204   0.012  0.00  0.00    -0.204 F 
ATOM     20  C   UNL d   1       5.451   1.069   1.803  0.00  0.00     0.044 A 
ATOM     21  C   UNL d   1       5.483  -0.021   2.671  0.00  0.00     0.003 A 
ATOM     22  C   UNL d   1       4.517  -1.025   2.565  0.00  0.00     0.002 A 
ATOM     23  C   UNL d   1       3.499  -0.926   1.612  0.00  0.00     0.033 A 
ENDBRANCH   2  17
TORSDOF 4
