REMARK  7 active torsions:
REMARK  status: ('A' for Active; 'I' for Inactive)
REMARK    1  A    between atoms: O_9  and  C_1 
REMARK    2  A    between atoms: O_8  and  N_2 
REMARK    3  A    between atoms: C_4  and  C_12 
REMARK    4  A    between atoms: N_19  and  C_4 
REMARK    5  A    between atoms: C_5  and  O_8 
REMARK    6  A    between atoms: C_13  and  C_5 
REMARK    7  A    between atoms: C_20  and  O_9 
ROOT
ATOM      1  C   UNL d   1      -5.749  -4.696  -1.084  0.00  0.00     0.004 A 
ATOM      2  C   UNL d   1      -5.275  -4.171  -2.296  0.00  0.00     0.017 A 
ATOM      3  C   UNL d   1      -7.130  -4.775  -0.869  0.00  0.00     0.017 A 
ATOM      4  C   UNL d   1      -7.541  -3.878  -3.089  0.00  0.00     0.076 A 
ATOM      5  C   UNL d   1      -6.165  -3.736  -3.282  0.00  0.00     0.038 A 
ATOM      6  C   UNL d   1      -8.022  -4.359  -1.867  0.00  0.00     0.038 A 
ENDROOT
BRANCH   1   7
ATOM      7  C   UNL d   1      -4.770  -5.159  -0.040  0.00  0.00     0.109 C 
ATOM      8  N   UNL d   1      -5.176  -5.969   0.896  0.00  0.00    -0.246 N 
ATOM      9  HN  UNL d   1      -6.131  -6.313   0.988  1.00  0.00     0.196 HD
BRANCH   8  10
ATOM     10  O   UNL d   1      -4.112  -6.308   1.769  0.00  0.00    -0.193 OA
BRANCH  10  11
ATOM     11  C   UNL d   1      -4.534  -7.201   2.716  0.00  0.00     0.315 C 
ATOM     12  O   UNL d   1      -5.659  -7.658   2.861  0.00  0.00    -0.257 OA
BRANCH  11  13
ATOM     13  C   UNL d   1      -3.404  -7.561   3.626  0.00  0.00     0.041 A 
ATOM     14  C   UNL d   1      -3.684  -8.394   4.718  0.00  0.00     0.018 A 
ATOM     15  C   UNL d   1      -2.677  -8.762   5.616  0.00  0.00     0.007 A 
ATOM     16  C   UNL d   1      -1.367  -8.302   5.440  0.00  0.00    -0.062 A 
ATOM     17  C   UNL d   1      -1.082  -7.473   4.344  0.00  0.00     0.007 A 
ATOM     18  C   UNL d   1      -0.300  -8.697   6.417  0.00  0.00     0.048 C 
ATOM     19  C   UNL d   1      -2.089  -7.107   3.443  0.00  0.00     0.018 A 
ENDBRANCH  11  13
ENDBRANCH  10  11
ENDBRANCH   8  10
BRANCH   7  20
ATOM     20  N   UNL d   1      -3.474  -4.694  -0.112  0.00  0.00    -0.286 NA
ATOM     21  H   UNL d   1      -2.973  -4.853   0.755  0.00  0.00     0.125 HD
ATOM     22  H   UNL d   1      -3.375  -3.740  -0.436  0.00  0.00     0.125 HD
ENDBRANCH   7  20
ENDBRANCH   1   7
BRANCH   4  23
ATOM     23  O   UNL d   1      -8.487  -3.595  -4.053  0.00  0.00    -0.307 OA
BRANCH  23  24
ATOM     24  C   UNL d   1      -8.144  -3.763  -5.381  0.00  0.00     0.122 A 
ATOM     25  C   UNL d   1      -7.619  -4.952  -5.906  0.00  0.00     0.085 A 
ATOM     26 CL   UNL d   1      -7.428  -6.407  -4.999  0.00  0.00    -0.080 Cl
ATOM     27  C   UNL d   1      -7.267  -4.976  -7.250  0.00  0.00     0.114 A 
ATOM     28  N   UNL d   1      -7.455  -3.944  -8.106  0.00  0.00    -0.372 N 
ATOM     29  C   UNL d   1      -8.043  -2.839  -7.592  0.00  0.00     0.114 A 
ATOM     30  HN  UNL d   1      -7.169  -3.997  -9.083  1.00  0.00     0.164 HD
ATOM     31  C   UNL d   1      -8.399  -2.700  -6.256  0.00  0.00     0.085 A 
ATOM     32 CL   UNL d   1      -9.141  -1.234  -5.737  0.00  0.00    -0.080 Cl
ENDBRANCH  23  24
ENDBRANCH   4  23
TORSDOF 7
