REMARK  5 active torsions:
REMARK  status: ('A' for Active; 'I' for Inactive)
REMARK    1  A    between atoms: C_5  and  C_1 
REMARK    2  A    between atoms: C_8  and  C_2 
REMARK    3  A    between atoms: O_10  and  C_8 
REMARK    4  A    between atoms: C_9  and  O_10 
REMARK    5  A    between atoms: C_13  and  C_9 
ROOT
ATOM      1  C   UNL d   1      -1.307  -0.828   0.242  0.00  0.00     0.079 A 
ATOM      2  C   UNL d   1       0.063  -1.266   0.041  0.00  0.00     0.027 A 
ATOM      3  N   UNL d   1      -1.326   0.491   0.489  0.00  0.00    -0.260 N 
ATOM      4  HN  UNL d   1      -2.146   1.051   0.719  1.00  0.00     0.195 HD
ATOM      5  O   UNL d   1      -0.042   0.943   0.375  0.00  0.00    -0.242 OA
ATOM      6  C   UNL d   1       0.794  -0.090   0.115  0.00  0.00     0.083 A 
ATOM      7  C   UNL d   1       2.211   0.307  -0.018  0.00  0.00     0.079 C 
ENDROOT
BRANCH   2   8
ATOM      8  C   UNL d   1       0.568  -2.647  -0.229  0.00  0.00     0.222 C 
BRANCH   8   9
ATOM      9  O   UNL d   1       2.004  -2.785  -0.232  0.00  0.00    -0.313 OA
BRANCH   9  10
ATOM     10  C   UNL d   1       2.572  -2.982   0.988  0.00  0.00     0.293 C 
ATOM     11  O   UNL d   1       1.991  -2.976   2.064  0.00  0.00    -0.259 OA
BRANCH  10  12
ATOM     12  C   UNL d   1       4.039  -3.179   0.856  0.00  0.00     0.039 A 
ATOM     13  C   UNL d   1       4.818  -3.176   2.024  0.00  0.00     0.019 A 
ATOM     14  C   UNL d   1       6.198  -3.392   1.957  0.00  0.00     0.025 A 
ATOM     15  C   UNL d   1       6.797  -3.611   0.718  0.00  0.00     0.034 A 
ATOM     16  C   UNL d   1       6.033  -3.606  -0.446  0.00  0.00     0.025 A 
ATOM     17 CL   UNL d   1       8.489  -3.902   0.625  0.00  0.00    -0.084 Cl
ATOM     18  C   UNL d   1       4.660  -3.386  -0.381  0.00  0.00     0.019 A 
ENDBRANCH  10  12
ENDBRANCH   9  10
ENDBRANCH   8   9
ENDBRANCH   2   8
BRANCH   1  19
ATOM     19  C   UNL d   1      -2.588  -1.564   0.175  0.00  0.00     0.037 A 
ATOM     20  C   UNL d   1      -2.806  -2.769   0.871  0.00  0.00     0.048 A 
ATOM     21 CL   UNL d   1      -1.759  -3.354   2.120  0.00  0.00    -0.083 Cl
ATOM     22  C   UNL d   1      -3.982  -3.518   0.690  0.00  0.00     0.025 A 
ATOM     23  C   UNL d   1      -5.025  -3.024  -0.080  0.00  0.00     0.003 A 
ATOM     24  C   UNL d   1      -4.890  -1.778  -0.676  0.00  0.00     0.025 A 
ATOM     25  C   UNL d   1      -3.682  -1.066  -0.577  0.00  0.00     0.048 A 
ATOM     26 CL   UNL d   1      -3.657   0.437  -1.448  0.00  0.00    -0.083 Cl
ENDBRANCH   1  19
TORSDOF 5
