REMARK  2 active torsions:
REMARK  status: ('A' for Active; 'I' for Inactive)
REMARK       I    between atoms: N_2  and  C_1 
REMARK       I    between atoms: N_6  and  C_1 
REMARK    1  A    between atoms: C_5  and  N_2 
REMARK    2  A    between atoms: C_12  and  N_6 
ROOT
ATOM      1  C   UNL d   1       0.934  -0.158  -0.112  0.00  0.00     0.326 C 
ATOM      2  N   UNL d   1       0.434   1.006  -0.658  0.00  0.00    -0.294 N 
ATOM      3  N   UNL d   1       2.237  -0.433  -0.416  0.00  0.00    -0.309 N 
ATOM      4  O   UNL d   1       0.201  -0.823   0.618  0.00  0.00    -0.247 OA
ATOM      5  H   UNL d   1      -0.502   1.221  -0.346  0.00  0.00     0.172 HD
ATOM      6  H   UNL d   1       2.647   0.245  -1.052  0.00  0.00     0.170 HD
ENDROOT
BRANCH   2   7
ATOM      7  C   UNL d   1       1.090   1.913  -1.501  0.00  0.00     0.109 A 
ATOM      8  N   UNL d   1       2.310   1.586  -1.980  0.00  0.00    -0.342 N 
ATOM      9  C   UNL d   1       2.985   2.467  -2.729  0.00  0.00     0.043 A 
ATOM     10  HN  UNL d   1       2.715   0.673  -1.772  1.00  0.00     0.167 HD
ATOM     11  C   UNL d   1       4.235   2.112  -3.212  0.00  0.00     0.030 A 
ATOM     12  C   UNL d   1       2.476   3.742  -3.027  0.00  0.00    -0.009 A 
ATOM     13  C   UNL d   1       5.011   3.004  -3.952  0.00  0.00     0.002 A 
ATOM     14  C   UNL d   1       4.525   4.277  -4.222  0.00  0.00     0.001 A 
ATOM     15  C   UNL d   1       3.257   4.646  -3.770  0.00  0.00     0.013 A 
ATOM     16  C   UNL d   1       1.193   4.054  -2.551  0.00  0.00     0.017 A 
ATOM     17  C   UNL d   1       0.485   3.125  -1.788  0.00  0.00     0.049 A 
ENDBRANCH   2   7
BRANCH   3  18
ATOM     18  C   UNL d   1       3.075  -1.476  -0.007  0.00  0.00     0.036 A 
ATOM     19  C   UNL d   1       2.679  -2.521   0.822  0.00  0.00     0.029 A 
ATOM     20  C   UNL d   1       3.592  -3.523   1.166  0.00  0.00     0.002 A 
ATOM     21  C   UNL d   1       4.902  -3.481   0.686  0.00  0.00     0.000 A 
ATOM     22  C   UNL d   1       5.307  -2.434  -0.138  0.00  0.00     0.002 A 
ATOM     23  C   UNL d   1       4.395  -1.437  -0.481  0.00  0.00     0.029 A 
ENDBRANCH   3  18
TORSDOF 2
