REMARK  5 active torsions:
REMARK  status: ('A' for Active; 'I' for Inactive)
REMARK    1  A    between atoms: N_13  and  C_3 
REMARK    2  A    between atoms: C_12  and  C_10 
REMARK    3  A    between atoms: C_14  and  C_11 
REMARK    4  A    between atoms: N_15  and  N_13 
REMARK    5  A    between atoms: C_21  and  C_20 
ROOT
ATOM      1  N   UNL d   1       0.245   0.677   0.009  0.00  0.00    -0.222 N 
ATOM      2  C   UNL d   1       0.123  -0.717   0.015  0.00  0.00     0.131 A 
ATOM      3  C   UNL d   1      -0.912   1.489   0.015  0.00  0.00     0.145 A 
ATOM      4  N   UNL d   1       1.559   1.060  -0.004  0.00  0.00    -0.294 N 
ATOM      5  HN  UNL d   1       1.929   2.011  -0.009  1.00  0.00     0.187 HD
ATOM      6  N   UNL d   1      -1.080  -1.362   0.044  0.00  0.00    -0.337 N 
ATOM      7  HN  UNL d   1      -1.140  -2.380   0.053  1.00  0.00     0.167 HD
ATOM      8  C   UNL d   1       1.401  -1.213  -0.008  0.00  0.00     0.077 A 
ATOM      9  C   UNL d   1      -2.113   0.881   0.035  0.00  0.00     0.086 A 
ATOM     10  C   UNL d   1      -2.151  -0.612   0.060  0.00  0.00     0.121 A 
ATOM     11  C   UNL d   1       2.257  -0.088  -0.010  0.00  0.00     0.037 A 
ENDROOT
BRANCH   3  12
ATOM     12  N   UNL d   1      -0.776   2.874   0.001  0.00  0.00    -0.284 N 
ATOM     13  H   UNL d   1       0.189   3.217   0.001  0.00  0.00     0.188 HD
BRANCH  12  14
ATOM     14  N   UNL d   1      -1.862   3.684  -0.024  0.00  0.00    -0.309 N 
ATOM     15  C   UNL d   1      -1.676   4.963  -0.022  0.00  0.00     0.118 C 
ATOM     16  HN  UNL d   1      -2.805   3.294  -0.044  1.00  0.00     0.186 HD
BRANCH  15  17
ATOM     17  C   UNL d   1      -2.846   5.875  -0.044  0.00  0.00    -0.019 A 
ATOM     18  C   UNL d   1      -4.146   5.350  -0.096  0.00  0.00     0.014 A 
ATOM     19  C   UNL d   1      -5.252   6.203  -0.106  0.00  0.00     0.024 A 
ATOM     20  C   UNL d   1      -5.057   7.581  -0.063  0.00  0.00     0.034 A 
ATOM     21  C   UNL d   1      -3.766   8.111  -0.015  0.00  0.00     0.024 A 
ATOM     22 CL   UNL d   1      -6.418   8.634  -0.066  0.00  0.00    -0.084 Cl
ATOM     23  C   UNL d   1      -2.655   7.258  -0.006  0.00  0.00     0.014 A 
ENDBRANCH  15  17
ENDBRANCH  12  14
ENDBRANCH   3  12
BRANCH  10  24
ATOM     24  C   UNL d   1      -3.537  -1.257   0.113  0.00  0.00     0.432 C 
ATOM     25  F   UNL d   1      -4.550  -0.344   0.124  0.00  0.00    -0.165 F 
ATOM     26  F   UNL d   1      -3.772  -2.067  -0.955  0.00  0.00    -0.165 F 
ATOM     27  F   UNL d   1      -3.707  -2.020   1.227  0.00  0.00    -0.165 F 
ENDBRANCH  10  24
BRANCH  11  28
ATOM     28  C   UNL d   1       3.780  -0.123  -0.012  0.00  0.00    -0.007 C 
ATOM     29  C   UNL d   1       4.401   1.287   0.011  0.00  0.00     0.021 C 
ATOM     30  C   UNL d   1       4.289  -0.889   1.230  0.00  0.00     0.021 C 
ATOM     31  C   UNL d   1       4.291  -0.850  -1.275  0.00  0.00     0.021 C 
ENDBRANCH  11  28
TORSDOF 5
