REMARK  7 active torsions:
REMARK  status: ('A' for Active; 'I' for Inactive)
REMARK    1  A    between atoms: O_15  and  C_1 
REMARK    2  A    between atoms: O_17  and  C_2 
REMARK    3  A    between atoms: O_16  and  C_3 
REMARK    4  A    between atoms: C_4  and  C_13 
REMARK    5  A    between atoms: N_5  and  N_7 
REMARK    6  A    between atoms: C_14  and  C_11 
REMARK    7  A    between atoms: O_18  and  C_12 
ROOT
ATOM      1  N   UNL d   1      -3.317   1.628  -0.331  0.00  0.00    -0.311 N 
ATOM      2  HN  UNL d   1      -2.756   2.473  -0.444  1.00  0.00     0.186 HD
ATOM      3  C   UNL d   1      -2.830   0.437  -0.191  0.00  0.00     0.118 C 
ENDROOT
BRANCH   1   4
ATOM      4  N   UNL d   1      -4.705   1.602  -0.305  0.00  0.00    -0.311 N 
ATOM      5  C   UNL d   1      -5.183   2.799  -0.447  0.00  0.00     0.121 C 
ATOM      6  HN  UNL d   1      -5.269   0.760  -0.191  1.00  0.00     0.186 HD
BRANCH   5   7
ATOM      7  C   UNL d   1      -6.632   3.055  -0.421  0.00  0.00     0.014 A 
ATOM      8  C   UNL d   1      -7.572   2.032  -0.230  0.00  0.00     0.077 A 
ATOM      9  C   UNL d   1      -8.932   2.330  -0.182  0.00  0.00     0.037 A 
ATOM     10  C   UNL d   1      -9.361   3.650  -0.326  0.00  0.00     0.003 A 
ATOM     11  C   UNL d   1      -8.431   4.673  -0.525  0.00  0.00     0.001 A 
ATOM     12  C   UNL d   1      -7.069   4.376  -0.573  0.00  0.00     0.015 A 
BRANCH   8  13
ATOM     13  O   UNL d   1      -7.226   0.718  -0.080  0.00  0.00    -0.360 OA
ATOM     14  H   UNL d   1      -6.247   0.669  -0.130  0.00  0.00     0.217 HD
ENDBRANCH   8  13
ENDBRANCH   5   7
ENDBRANCH   1   4
BRANCH   3  15
ATOM     15  C   UNL d   1      -1.380   0.181  -0.152  0.00  0.00    -0.014 A 
ATOM     16  C   UNL d   1      -0.458   1.224  -0.197  0.00  0.00     0.052 A 
ATOM     17  C   UNL d   1       0.919   0.967  -0.155  0.00  0.00     0.105 A 
ATOM     18  C   UNL d   1       1.368  -0.364  -0.053  0.00  0.00     0.135 A 
ATOM     19  C   UNL d   1       0.422  -1.412   0.072  0.00  0.00     0.105 A 
ATOM     20  C   UNL d   1      -0.945  -1.136  -0.029  0.00  0.00     0.052 A 
BRANCH  17  21
ATOM     21  O   UNL d   1       1.646   2.126  -0.215  0.00  0.00    -0.353 OA
ATOM     22  C   UNL d   1       3.061   2.068  -0.204  0.00  0.00     0.210 C 
ENDBRANCH  17  21
BRANCH  18  23
ATOM     23  O   UNL d   1       2.712  -0.617   0.067  0.00  0.00    -0.351 OA
ATOM     24  C   UNL d   1       3.237  -1.522  -0.907  0.00  0.00     0.210 C 
ENDBRANCH  18  23
BRANCH  19  25
ATOM     25  O   UNL d   1       0.907  -2.676   0.311  0.00  0.00    -0.353 OA
ATOM     26  C   UNL d   1      -0.013  -3.629   0.834  0.00  0.00     0.210 C 
ENDBRANCH  19  25
ENDBRANCH   3  15
TORSDOF 7
