REMARK  1 active torsions:
REMARK  status: ('A' for Active; 'I' for Inactive)
REMARK       I    between atoms: N_11  and  C_1 
REMARK       I    between atoms: N_12  and  C_1 
REMARK    1  A    between atoms: C_10  and  N_12 
ROOT
ATOM      1  C   UNL d   1       2.465   0.623  -3.926  0.00  0.00     0.087 A 
ATOM      2  C   UNL d   1       1.806  -0.127  -4.981  0.00  0.00     0.085 A 
ATOM      3  C   UNL d   1       1.933   0.723  -2.627  0.00  0.00     0.063 A 
ATOM      4  O   UNL d   1       3.666   0.702  -5.734  0.00  0.00    -0.156 OA
ATOM      5  N   UNL d   1       3.596   1.140  -4.422  0.00  0.00    -0.239 N 
ATOM      6  HN  UNL d   1       4.267   1.733  -3.935  1.00  0.00     0.197 HD
ATOM      7  N   UNL d   1       2.564  -0.062  -6.082  0.00  0.00    -0.240 N 
ATOM      8  HN  UNL d   1       2.371  -0.488  -6.989  1.00  0.00     0.197 HD
ATOM      9  C   UNL d   1       0.746  -0.007  -2.403  0.00  0.00     0.038 A 
ATOM     10  C   UNL d   1       0.578  -0.781  -4.780  0.00  0.00     0.036 A 
ATOM     11  C   UNL d   1       0.077  -0.691  -3.463  0.00  0.00     0.032 A 
ENDROOT
BRANCH   9  12
ATOM     12  N   UNL d   1       0.179  -0.149  -1.107  0.00  0.00    -0.309 N 
ATOM     13  C   UNL d   1       0.850   0.045   0.080  0.00  0.00     0.322 C 
ATOM     14  N   UNL d   1       0.141  -0.250   1.237  0.00  0.00    -0.334 N 
ATOM     15  O   UNL d   1       2.023   0.414   0.145  0.00  0.00    -0.247 OA
ATOM     16  C   UNL d   1      -1.283  -0.564   1.369  0.00  0.00     0.127 C 
ATOM     17  C   UNL d   1       0.882  -0.268   2.498  0.00  0.00     0.127 C 
ATOM     18  C   UNL d   1      -1.962   0.341   2.398  0.00  0.00     0.020 C 
ATOM     19  C   UNL d   1      -1.191   0.428   3.716  0.00  0.00     0.003 C 
ATOM     20  C   UNL d   1       0.286   0.729   3.482  0.00  0.00     0.020 C 
ATOM     21  H   UNL d   1      -0.648  -0.719  -1.056  0.00  0.00     0.170 HD
ENDBRANCH   9  12
TORSDOF 1
