REMARK  2 active torsions:
REMARK  status: ('A' for Active; 'I' for Inactive)
REMARK    1  A    between atoms: O_10  and  C_5 
REMARK    2  A    between atoms: C_11  and  O_10 
ROOT
ATOM      1  C   UNL d   1       1.573  -0.866   0.002  0.00  0.00     0.048 A 
ATOM      2  C   UNL d   1       0.922   0.364  -0.041  0.00  0.00     0.108 A 
ATOM      3  C   UNL d   1       3.063   1.085  -0.096  0.00  0.00     0.332 A 
ATOM      4  S   UNL d   1       3.314  -0.661  -0.033  0.00  0.00    -0.018 SA
ATOM      5  C   UNL d   1      -0.534  -1.974   0.099  0.00  0.00     0.091 A 
ATOM      6  O   UNL d   1       1.736   1.503  -0.105  0.00  0.00    -0.268 OA
ATOM      7  C   UNL d   1      -0.475   0.468  -0.002  0.00  0.00     0.012 A 
ATOM      8  C   UNL d   1       0.862  -2.047   0.081  0.00  0.00     0.060 A 
ATOM      9  C   UNL d   1      -1.228  -0.731   0.077  0.00  0.00     0.011 A 
ATOM     10  O   UNL d   1       4.000   1.873  -0.126  0.00  0.00    -0.251 OA
ATOM     11  C   UNL d   1      -1.143   1.710  -0.026  0.00  0.00     0.015 A 
ATOM     12  C   UNL d   1      -2.635  -0.631   0.137  0.00  0.00     0.015 A 
ATOM     13  C   UNL d   1      -2.533   1.777   0.034  0.00  0.00     0.001 A 
ATOM     14  C   UNL d   1      -3.279   0.608   0.118  0.00  0.00     0.001 A 
ENDROOT
BRANCH   5  15
ATOM     15  O   UNL d   1      -1.324  -3.147   0.235  0.00  0.00    -0.278 OA
BRANCH  15  16
ATOM     16  C   UNL d   1      -0.981  -4.347  -0.388  0.00  0.00     0.260 C 
ATOM     17  O   UNL d   1      -0.025  -4.540  -1.125  0.00  0.00    -0.265 OA
ATOM     18  C   UNL d   1      -2.011  -5.388  -0.058  0.00  0.00     0.126 C 
ENDBRANCH  15  16
ENDBRANCH   5  15
TORSDOF 2
