REMARK  5 active torsions:
REMARK  status: ('A' for Active; 'I' for Inactive)
REMARK    1  A    between atoms: C_2  and  S_1 
REMARK    2  A    between atoms: N_3  and  S_1 
REMARK    3  A    between atoms: C_10  and  N_3 
REMARK    4  A    between atoms: C_11  and  C_8 
REMARK    5  A    between atoms: O_15  and  C_11 
ROOT
ATOM      1  N   UNL d   1       0.884  -0.776  -1.298  0.00  0.00    -0.180 NA
ATOM      2  H   UNL d   1       0.284  -1.602  -1.355  0.00  0.00     0.146 HD
ENDROOT
BRANCH   1   3
ATOM      3  S   UNL d   1       0.411   0.127   0.045  0.00  0.00     0.250 S 
ATOM      4  O   UNL d   1      -0.811   0.823  -0.302  0.00  0.00    -0.205 OA
ATOM      5  O   UNL d   1       0.449  -0.758   1.188  0.00  0.00    -0.205 OA
BRANCH   3   6
ATOM      6  C   UNL d   1       1.555   1.345   0.394  0.00  0.00     0.130 A 
ATOM      7  C   UNL d   1       2.799   1.194   0.960  0.00  0.00     0.097 A 
ATOM      8  O   UNL d   1       3.383   2.420   1.061  0.00  0.00    -0.241 OA
ATOM      9  C   UNL d   1       3.606   0.072   1.477  0.00  0.00     0.081 C 
ATOM     10  N   UNL d   1       2.520   3.387   0.589  0.00  0.00    -0.264 N 
ATOM     11  C   UNL d   1       1.410   2.739   0.209  0.00  0.00     0.054 A 
ATOM     12  HN  UNL d   1       2.691   4.391   0.539  1.00  0.00     0.194 HD
ATOM     13  C   UNL d   1       0.257   3.517  -0.303  0.00  0.00     0.072 C 
ENDBRANCH   3   6
ENDBRANCH   1   3
BRANCH   1  14
ATOM     14  C   UNL d   1       1.057  -0.118  -2.563  0.00  0.00     0.039 A 
ATOM     15  C   UNL d   1       2.333   0.143  -3.094  0.00  0.00     0.061 A 
ATOM     16  C   UNL d   1       2.441   0.685  -4.391  0.00  0.00     0.019 A 
ATOM     17  C   UNL d   1       1.304   0.978  -5.140  0.00  0.00     0.001 A 
ATOM     18  C   UNL d   1       0.044   0.750  -4.598  0.00  0.00     0.002 A 
ATOM     19  C   UNL d   1      -0.081   0.206  -3.317  0.00  0.00     0.025 A 
BRANCH  15  20
ATOM     20  C   UNL d   1       3.579  -0.215  -2.361  0.00  0.00     0.294 C 
ATOM     21  O   UNL d   1       3.673  -1.078  -1.506  0.00  0.00    -0.259 OA
BRANCH  20  22
ATOM     22  O   UNL d   1       4.596   0.571  -2.801  0.00  0.00    -0.322 OA
ATOM     23  C   UNL d   1       5.872   0.262  -2.243  0.00  0.00     0.213 C 
ENDBRANCH  20  22
ENDBRANCH  15  20
ENDBRANCH   1  14
TORSDOF 5
