REMARK  2 active torsions:
REMARK  status: ('A' for Active; 'I' for Inactive)
REMARK       I    between atoms: N_2  and  C_1 
REMARK    1  A    between atoms: C_12  and  C_1 
REMARK    2  A    between atoms: N_3  and  C_4 
ROOT
ATOM      1  C   UNL d   1       1.020  -0.012  -0.066  0.00  0.00     0.253 C 
ATOM      2  N   UNL d   1       0.144  -1.107  -0.181  0.00  0.00    -0.348 N 
ATOM      3  C   UNL d   1      -1.962  -3.120  -0.479  0.00  0.00     0.091 C 
ATOM      4  C   UNL d   1      -1.865  -1.904  -1.404  0.00  0.00     0.045 C 
ATOM      5  C   UNL d   1      -1.334  -2.826   0.882  0.00  0.00     0.045 C 
ATOM      6  C   UNL d   1      -0.456  -1.336  -1.496  0.00  0.00     0.128 C 
ATOM      7  C   UNL d   1       0.048  -2.197   0.793  0.00  0.00     0.128 C 
ATOM      8  O   UNL d   1       1.093   0.877  -0.911  0.00  0.00    -0.267 OA
ENDROOT
BRANCH   1   9
ATOM      9  C   UNL d   1       1.881   0.124   1.138  0.00  0.00     0.032 A 
ATOM     10  C   UNL d   1       2.665  -0.937   1.609  0.00  0.00     0.017 A 
ATOM     11  C   UNL d   1       3.379  -0.807   2.798  0.00  0.00     0.001 A 
ATOM     12  C   UNL d   1       3.380   0.409   3.478  0.00  0.00     0.000 A 
ATOM     13  C   UNL d   1       2.678   1.500   2.963  0.00  0.00     0.001 A 
ATOM     14  C   UNL d   1       1.926   1.359   1.795  0.00  0.00     0.017 A 
ENDBRANCH   1   9
BRANCH   3  15
ATOM     15  N   UNL d   1      -1.510  -4.366  -1.098  0.00  0.00    -0.362 N 
ATOM     16  C   UNL d   1      -0.239  -4.707  -1.480  0.00  0.00     0.091 A 
ATOM     17  C   UNL d   1      -0.276  -5.954  -2.064  0.00  0.00     0.019 A 
ATOM     18  C   UNL d   1      -1.616  -6.396  -2.026  0.00  0.00     0.019 A 
ATOM     19  C   UNL d   1      -2.354  -5.404  -1.418  0.00  0.00     0.091 A 
ENDBRANCH   3  15
TORSDOF 2
