REMARK  6 active torsions:
REMARK  status: ('A' for Active; 'I' for Inactive)
REMARK    1  A    between atoms: C_2  and  N_1 
REMARK    2  A    between atoms: C_12  and  C_23 
REMARK    3  A    between atoms: O_22  and  C_14 
REMARK    4  A    between atoms: N_21  and  C_15 
REMARK    5  A    between atoms: C_25  and  O_22 
REMARK    6  A    between atoms: O_24  and  C_23 
ROOT
ATOM      1  N   UNL d   1       1.455   1.116  -0.195  0.00  0.00    -0.297 N 
ATOM      2  C   UNL d   1       0.362   0.757  -0.936  0.00  0.00     0.142 A 
ATOM      3  C   UNL d   1       0.173  -0.588  -0.660  0.00  0.00     0.122 A 
ATOM      4  N   UNL d   1       1.180  -1.074   0.150  0.00  0.00    -0.346 N 
ATOM      5  HN  UNL d   1       1.310  -2.031   0.478  1.00  0.00     0.167 HD
ATOM      6  C   UNL d   1       1.933  -0.026   0.402  0.00  0.00     0.188 A 
ATOM      7  C   UNL d   1      -0.971  -1.192  -1.203  0.00  0.00     0.131 A 
ATOM      8  N   UNL d   1      -0.414   1.542  -1.704  0.00  0.00    -0.336 N 
ATOM      9  HN  UNL d   1      -0.251   2.535  -1.869  1.00  0.00     0.168 HD
ATOM     10  N   UNL d   1      -1.763  -0.457  -2.018  0.00  0.00    -0.337 N 
ATOM     11  HN  UNL d   1      -2.583  -0.870  -2.463  1.00  0.00     0.168 HD
ATOM     12  C   UNL d   1      -1.440   0.836  -2.226  0.00  0.00     0.183 A 
ENDROOT
BRANCH   1  13
ATOM     13  C   UNL d   1       1.950   2.439   0.116  0.00  0.00     0.262 C 
ATOM     14  C   UNL d   1       1.626   3.601  -0.817  0.00  0.00     0.208 C 
ATOM     15  C   UNL d   1       0.464   4.312  -0.168  0.00  0.00     0.191 C 
ATOM     16  O   UNL d   1       2.719   4.542  -0.814  0.00  0.00    -0.326 OA
ATOM     17  O   UNL d   1       0.851   5.684  -0.099  0.00  0.00    -0.328 OA
ATOM     18  C   UNL d   1       0.351   3.734   1.241  0.00  0.00     0.179 C 
ATOM     19  C   UNL d   1       2.273   5.666  -0.061  0.00  0.00     0.414 C 
ATOM     20  O   UNL d   1       1.422   2.785   1.417  0.00  0.00    -0.353 OA
BRANCH  19  21
ATOM     21  O   UNL d   1       2.817   6.866  -0.580  0.00  0.00    -0.339 OA
BRANCH  21  22
ATOM     22  C   UNL d   1       2.585   7.958   0.307  0.00  0.00     0.169 C 
ATOM     23  C   UNL d   1       3.175   9.217  -0.296  0.00  0.00     0.033 C 
ENDBRANCH  21  22
ENDBRANCH  19  21
BRANCH  18  24
ATOM     24  C   UNL d   1      -0.997   3.054   1.499  0.00  0.00     0.198 C 
BRANCH  24  25
ATOM     25  O   UNL d   1      -1.037   2.561   2.837  0.00  0.00    -0.398 OA
ATOM     26  H   UNL d   1      -0.251   1.993   2.946  0.00  0.00     0.209 HD
ENDBRANCH  24  25
ENDBRANCH  18  24
ENDBRANCH   1  13
BRANCH   7  27
ATOM     27  N   UNL d   1      -1.341  -2.498  -0.922  0.00  0.00    -0.383 N 
ATOM     28  H   UNL d   1      -0.596  -3.079  -0.558  0.00  0.00     0.157 HD
ATOM     29  H   UNL d   1      -1.984  -2.893  -1.593  0.00  0.00     0.157 HD
ENDBRANCH   7  27
TORSDOF 6
