REMARK  5 active torsions:
REMARK  status: ('A' for Active; 'I' for Inactive)
REMARK    1  A    between atoms: C_3  and  C_1 
REMARK       I    between atoms: C_4  and  N_5 
REMARK    2  A    between atoms: C_13  and  C_4 
REMARK    3  A    between atoms: N_5  and  C_9 
REMARK    4  A    between atoms: O_19  and  C_11 
REMARK    5  A    between atoms: O_20  and  C_14 
ROOT
ATOM      1  C   UNL d   1       1.684   3.069  -0.692  0.00  0.00     0.018 A 
ATOM      2  C   UNL d   1       2.558   3.525  -1.699  0.00  0.00     0.047 A 
ATOM      3  C   UNL d   1       0.889   3.984   0.015  0.00  0.00     0.016 A 
ATOM      4  C   UNL d   1       2.526   4.877  -2.062  0.00  0.00     0.030 A 
ATOM      5  C   UNL d   1       0.862   5.325  -0.357  0.00  0.00     0.001 A 
ATOM      6  C   UNL d   1       1.667   5.766  -1.405  0.00  0.00     0.002 A 
ENDROOT
BRANCH   1   7
ATOM      7  C   UNL d   1       1.601   1.611  -0.351  0.00  0.00     0.051 C 
ATOM      8  C   UNL d   1       0.272   0.915  -0.334  0.00  0.00     0.000 A 
ATOM      9  C   UNL d   1      -0.934   1.563  -0.630  0.00  0.00     0.054 A 
ATOM     10  C   UNL d   1       0.250  -0.453  -0.062  0.00  0.00    -0.041 A 
ATOM     11  C   UNL d   1      -2.167   0.909  -0.508  0.00  0.00     0.102 A 
ATOM     12  C   UNL d   1      -2.190  -0.459  -0.222  0.00  0.00     0.102 A 
ATOM     13  C   UNL d   1      -0.979  -1.134  -0.033  0.00  0.00     0.047 A 
ATOM     14  C   UNL d   1       1.535  -1.213   0.051  0.00  0.00     0.059 C 
ATOM     15  C   UNL d   1       2.717  -0.345   0.458  0.00  0.00     0.124 C 
ATOM     16  N   UNL d   1       2.716   1.020  -0.073  0.00  0.00    -0.388 N 
ATOM     17  HN  UNL d   1       3.600   1.507  -0.224  1.00  0.00     0.159 HD
BRANCH  11  18
ATOM     18  O   UNL d   1      -3.341   1.580  -0.738  0.00  0.00    -0.353 OA
ATOM     19  C   UNL d   1      -3.377   2.903  -0.201  0.00  0.00     0.210 C 
ENDBRANCH  11  18
BRANCH  12  20
ATOM     20  O   UNL d   1      -3.293  -1.268  -0.167  0.00  0.00    -0.353 OA
ATOM     21  C   UNL d   1      -4.465  -0.695   0.402  0.00  0.00     0.210 C 
ENDBRANCH  12  20
ENDBRANCH   1   7
BRANCH   2  22
ATOM     22  N   UNL d   1       3.483   2.605  -2.262  0.00  0.00    -0.322 N 
ATOM     23  C   UNL d   1       4.486   2.920  -3.144  0.00  0.00     0.256 C 
ATOM     24  O   UNL d   1       5.669   2.896  -2.814  0.00  0.00    -0.267 OA
ATOM     25  H   UNL d   1       3.770   1.920  -1.555  0.00  0.00     0.169 HD
BRANCH  23  26
ATOM     26  C   UNL d   1       4.114   3.085  -4.586  0.00  0.00     0.034 A 
ATOM     27  C   UNL d   1       2.789   2.988  -5.033  0.00  0.00     0.041 A 
ATOM     28  C   UNL d   1       2.514   3.027  -6.397  0.00  0.00     0.035 A 
ATOM     29 CL   UNL d   1       0.883   2.898  -6.939  0.00  0.00    -0.084 Cl
ATOM     30  C   UNL d   1       3.540   3.144  -7.330  0.00  0.00     0.024 A 
ATOM     31  C   UNL d   1       4.862   3.247  -6.894  0.00  0.00     0.003 A 
ATOM     32  C   UNL d   1       5.144   3.221  -5.529  0.00  0.00     0.017 A 
ENDBRANCH  23  26
ENDBRANCH   2  22
TORSDOF 5
