REMARK  5 active torsions:
REMARK  status: ('A' for Active; 'I' for Inactive)
REMARK    1  A    between atoms: C_7  and  C_1 
REMARK    2  A    between atoms: C_10  and  C_1 
REMARK    3  A    between atoms: C_11  and  C_7 
REMARK    4  A    between atoms: C_16  and  C_10 
REMARK    5  A    between atoms: C_17  and  C_16 
ROOT
ATOM      1  C   UNL d   1      -2.418   0.563  -0.360  0.00  0.00     0.110 C 
ATOM      2  C   UNL d   1      -2.343  -0.751   0.420  0.00  0.00     0.239 C 
ATOM      3  C   UNL d   1      -1.218   1.463  -0.063  0.00  0.00     0.180 C 
ATOM      4  N   UNL d   1      -1.094  -1.278   0.619  0.00  0.00    -0.325 N 
ATOM      5  C   UNL d   1       0.082   0.791   0.151  0.00  0.00     0.038 A 
ATOM      6  C   UNL d   1       0.096  -0.573   0.441  0.00  0.00     0.048 A 
ATOM      7  O   UNL d   1      -3.322  -1.391   0.789  0.00  0.00    -0.272 OA
ATOM      8  O   UNL d   1      -1.260   2.689  -0.112  0.00  0.00    -0.291 OA
ATOM      9  C   UNL d   1       1.279   1.502   0.030  0.00  0.00     0.017 A 
ATOM     10  C   UNL d   1       1.313  -1.240   0.588  0.00  0.00     0.030 A 
ATOM     11  C   UNL d   1       2.494   0.828   0.154  0.00  0.00     0.001 A 
ATOM     12  C   UNL d   1       2.510  -0.542   0.421  0.00  0.00     0.002 A 
ATOM     13  H   UNL d   1      -1.079  -2.208   1.025  0.00  0.00     0.169 HD
ENDROOT
BRANCH   1  14
ATOM     14  C   UNL d   1      -2.301   0.258  -1.891  0.00  0.00     0.066 C 
BRANCH  14  15
ATOM     15  C   UNL d   1      -3.398  -0.604  -2.475  0.00  0.00    -0.057 A 
ATOM     16  C   UNL d   1      -4.570  -0.019  -2.974  0.00  0.00     0.007 A 
ATOM     17  C   UNL d   1      -5.638  -0.815  -3.383  0.00  0.00     0.001 A 
ATOM     18  C   UNL d   1      -5.538  -2.203  -3.321  0.00  0.00     0.000 A 
ATOM     19  C   UNL d   1      -4.358  -2.796  -2.878  0.00  0.00     0.001 A 
ATOM     20  C   UNL d   1      -3.290  -2.002  -2.463  0.00  0.00     0.007 A 
ENDBRANCH  14  15
ENDBRANCH   1  14
BRANCH   1  21
ATOM     21  C   UNL d   1      -3.746   1.308  -0.049  0.00  0.00     0.028 C 
BRANCH  21  22
ATOM     22  C   UNL d   1      -3.926   1.717   1.418  0.00  0.00     0.001 C 
BRANCH  22  23
ATOM     23  C   UNL d   1      -5.260   2.439   1.624  0.00  0.00    -0.005 C 
ATOM     24  C   UNL d   1      -5.449   2.832   3.079  0.00  0.00     0.005 C 
ENDBRANCH  22  23
ENDBRANCH  21  22
ENDBRANCH   1  21
TORSDOF 5
