REMARK  10 active torsions:
REMARK  status: ('A' for Active; 'I' for Inactive)
REMARK    1  A    between atoms: O_4  and  C_1 
REMARK    2  A    between atoms: C_3  and  C_2 
REMARK       I    between atoms: N_5  and  C_3 
REMARK    3  A    between atoms: C_9  and  O_4 
REMARK    4  A    between atoms: C_11  and  N_5 
REMARK    5  A    between atoms: O_10  and  C_15 
REMARK    6  A    between atoms: C_13  and  O_10 
REMARK    7  A    between atoms: C_12  and  C_11 
REMARK    8  A    between atoms: C_15  and  C_12 
REMARK    9  A    between atoms: O_27  and  C_12 
REMARK   10  A    between atoms: O_28  and  C_16 
ROOT
ATOM      1  C   UNL d   1       0.778   2.850   1.673  0.00  0.00     0.256 C 
ATOM      2  N   UNL d   1       0.642   4.059   0.993  0.00  0.00    -0.354 N 
ATOM      3  O   UNL d   1      -0.156   2.087   1.878  0.00  0.00    -0.268 OA
ATOM      4  H   UNL d   1       1.487   4.561   0.747  0.00  0.00     0.162 HD
ENDROOT
BRANCH   1   5
ATOM      5  C   UNL d   1       2.134   2.381   2.029  0.00  0.00     0.083 A 
ATOM      6  C   UNL d   1       3.131   3.144   2.614  0.00  0.00     0.163 A 
ATOM      7  N   UNL d   1       4.375   2.655   2.890  0.00  0.00    -0.346 N 
ATOM      8  C   UNL d   1       4.600   1.343   2.669  0.00  0.00     0.090 A 
ATOM      9  HN  UNL d   1       5.111   3.261   3.253  1.00  0.00     0.167 HD
ATOM     10  C   UNL d   1       3.649   0.487   2.150  0.00  0.00     0.018 A 
ATOM     11  C   UNL d   1       2.407   1.020   1.814  0.00  0.00     0.023 A 
BRANCH   6  12
ATOM     12  O   UNL d   1       2.863   4.453   2.993  0.00  0.00    -0.293 OA
BRANCH  12  13
ATOM     13  C   UNL d   1       3.514   4.889   4.132  0.00  0.00     0.077 A 
ATOM     14  C   UNL d   1       4.180   6.115   4.071  0.00  0.00     0.039 A 
ATOM     15  C   UNL d   1       4.880   6.583   5.188  0.00  0.00     0.026 A 
ATOM     16  C   UNL d   1       4.897   5.831   6.362  0.00  0.00     0.034 A 
ATOM     17  C   UNL d   1       4.209   4.621   6.438  0.00  0.00     0.026 A 
ATOM     18 CL   UNL d   1       5.790   6.391   7.725  0.00  0.00    -0.084 Cl
ATOM     19  C   UNL d   1       3.503   4.159   5.328  0.00  0.00     0.039 A 
ENDBRANCH  12  13
ENDBRANCH   6  12
ENDBRANCH   1   5
BRANCH   2  20
ATOM     20  C   UNL d   1      -0.536   4.219   0.149  0.00  0.00     0.156 C 
BRANCH  20  21
ATOM     21  C   UNL d   1      -1.151   5.618   0.009  0.00  0.00     0.160 C 
BRANCH  21  22
ATOM     22  C   UNL d   1      -0.359   6.572  -0.904  0.00  0.00     0.209 C 
BRANCH  22  23
ATOM     23  O   UNL d   1      -1.148   7.764  -1.042  0.00  0.00    -0.349 OA
BRANCH  23  24
ATOM     24  C   UNL d   1      -0.692   8.771  -1.843  0.00  0.00     0.069 A 
ATOM     25  C   UNL d   1       0.521   8.799  -2.525  0.00  0.00     0.039 A 
ATOM     26  C   UNL d   1       0.877   9.920  -3.294  0.00  0.00     0.039 A 
ATOM     27  C   UNL d   1       0.021  11.021  -3.383  0.00  0.00     0.068 A 
ATOM     28  C   UNL d   1      -1.204  10.979  -2.719  0.00  0.00     0.039 A 
ATOM     29  C   UNL d   1      -1.555   9.865  -1.952  0.00  0.00     0.039 A 
BRANCH  27  30
ATOM     30  O   UNL d   1       0.257  12.173  -4.079  0.00  0.00    -0.356 OA
ATOM     31  C   UNL d   1       1.563  12.348  -4.614  0.00  0.00     0.210 C 
ENDBRANCH  27  30
ENDBRANCH  23  24
ENDBRANCH  22  23
ENDBRANCH  21  22
BRANCH  21  32
ATOM     32  O   UNL d   1      -2.473   5.417  -0.540  0.00  0.00    -0.392 OA
ATOM     33  H   UNL d   1      -2.552   5.949  -1.351  0.00  0.00     0.210 HD
ENDBRANCH  21  32
ENDBRANCH  20  21
ENDBRANCH   2  20
TORSDOF 10
