REMARK  7 active torsions:
REMARK  status: ('A' for Active; 'I' for Inactive)
REMARK    1  A    between atoms: C_13  and  C_1 
REMARK    2  A    between atoms: C_7  and  C_2 
REMARK    3  A    between atoms: N_10  and  C_3 
REMARK       I    between atoms: C_8  and  N_12 
REMARK    4  A    between atoms: C_14  and  C_8 
REMARK    5  A    between atoms: C_11  and  C_17 
REMARK    6  A    between atoms: O_31  and  C_13 
REMARK    7  A    between atoms: C_35  and  O_31 
ROOT
ATOM      1  C   UNL d   1      -1.577   1.265   0.393  0.00  0.00     0.072 A 
ATOM      2  C   UNL d   1      -1.366   0.384   1.453  0.00  0.00     0.134 A 
ATOM      3  C   UNL d   1      -0.150  -1.082   0.054  0.00  0.00     0.104 A 
ATOM      4  N   UNL d   1      -0.635  -0.768   1.276  0.00  0.00    -0.341 N 
ATOM      5  HN  UNL d   1      -0.458  -1.386   2.068  1.00  0.00     0.167 HD
ATOM      6  C   UNL d   1      -0.368  -0.241  -1.046  0.00  0.00     0.084 A 
ATOM      7  C   UNL d   1      -1.076   0.941  -0.870  0.00  0.00     0.046 A 
ATOM      8  C   UNL d   1       0.132  -0.559  -2.352  0.00  0.00     0.102 C 
ATOM      9  N   UNL d   1       0.491  -0.819  -3.425  0.00  0.00    -0.191 NA
ENDROOT
BRANCH   3  10
ATOM     10  N   UNL d   1       0.559  -2.266  -0.112  0.00  0.00    -0.265 NA
ATOM     11  C   UNL d   1       1.310  -2.793   1.044  0.00  0.00     0.117 C 
ATOM     12  C   UNL d   1       2.321  -3.847   0.523  0.00  0.00     0.141 C 
ATOM     13  N   UNL d   1       1.694  -4.876  -0.336  0.00  0.00    -0.346 N 
ATOM     14  C   UNL d   1       2.196  -6.179  -0.287  0.00  0.00     0.253 C 
ATOM     15  C   UNL d   1       0.740  -4.356  -1.333  0.00  0.00     0.141 C 
ATOM     16  O   UNL d   1       3.034  -6.535   0.541  0.00  0.00    -0.267 OA
ATOM     17  C   UNL d   1      -0.232  -3.330  -0.747  0.00  0.00     0.117 C 
BRANCH  14  18
ATOM     18  C   UNL d   1       1.649  -7.226  -1.197  0.00  0.00     0.033 C 
ATOM     19  C   UNL d   1       1.428  -7.003  -2.560  0.00  0.00     0.033 C 
ATOM     20  C   UNL d   1       0.688  -7.919  -3.322  0.00  0.00     0.048 C 
ATOM     21  C   UNL d   1       0.326  -9.145  -2.743  0.00  0.00     0.016 C 
ATOM     22  C   UNL d   1       0.664  -9.429  -1.419  0.00  0.00     0.002 C 
ATOM     23  C   UNL d   1       1.305  -8.464  -0.641  0.00  0.00     0.017 C 
BRANCH  20  24
ATOM     24  C   UNL d   1       0.220  -7.564  -4.712  0.00  0.00     0.417 C 
ATOM     25  F   UNL d   1       0.484  -6.268  -5.051  0.00  0.00    -0.166 F 
ATOM     26  F   UNL d   1       0.786  -8.332  -5.678  0.00  0.00    -0.166 F 
ATOM     27  F   UNL d   1      -1.128  -7.706  -4.851  0.00  0.00    -0.166 F 
ENDBRANCH  20  24
ENDBRANCH  14  18
ENDBRANCH   3  10
BRANCH   1  28
ATOM     28  C   UNL d   1      -2.279   2.548   0.551  0.00  0.00     0.295 C 
ATOM     29  O   UNL d   1      -2.073   3.324   1.456  0.00  0.00    -0.259 OA
BRANCH  28  30
ATOM     30  O   UNL d   1      -3.178   2.646  -0.457  0.00  0.00    -0.318 OA
BRANCH  30  31
ATOM     31  C   UNL d   1      -4.138   3.708  -0.360  0.00  0.00     0.174 C 
ATOM     32  C   UNL d   1      -5.461   3.079   0.029  0.00  0.00     0.034 C 
ENDBRANCH  30  31
ENDBRANCH  28  30
ENDBRANCH   1  28
BRANCH   2  33
ATOM     33  C   UNL d   1      -1.974   0.592   2.833  0.00  0.00     0.433 C 
ATOM     34  F   UNL d   1      -2.975   1.511   2.908  0.00  0.00    -0.165 F 
ATOM     35  F   UNL d   1      -2.549  -0.557   3.306  0.00  0.00    -0.165 F 
ATOM     36  F   UNL d   1      -1.052   0.948   3.769  0.00  0.00    -0.165 F 
ENDBRANCH   2  33
TORSDOF 7
