REMARK  1 active torsions:
REMARK  status: ('A' for Active; 'I' for Inactive)
REMARK    1  A    between atoms: C_7  and  C_4 
ROOT
ATOM      1  C   UNL d   1      -0.740  -0.776   0.021  0.00  0.00     0.058 C 
ATOM      2  C   UNL d   1      -0.910   0.741   0.012  0.00  0.00     0.174 C 
ATOM      3  N   UNL d   1       0.636  -1.120   0.055  0.00  0.00    -0.280 NA
ATOM      4  C   UNL d   1      -1.740  -1.667  -0.031  0.00  0.00     0.038 C 
ATOM      5  C   UNL d   1       0.453   1.428  -0.022  0.00  0.00     0.064 C 
ATOM      6  C   UNL d   1       1.367  -0.639  -1.157  0.00  0.00     0.096 C 
ATOM      7  C   UNL d   1       1.331  -0.566   1.258  0.00  0.00     0.096 C 
ATOM      8  O   UNL d   1      -1.971   1.345   0.041  0.00  0.00    -0.291 OA
ATOM      9  C   UNL d   1       1.184   0.891  -1.268  0.00  0.00     0.027 C 
ATOM     10  C   UNL d   1       1.202   0.973   1.244  0.00  0.00     0.027 C 
ENDROOT
BRANCH   4  11
ATOM     11  C   UNL d   1      -3.159  -1.325  -0.102  0.00  0.00    -0.033 A 
ATOM     12  C   UNL d   1      -3.771  -1.127  -1.345  0.00  0.00     0.037 A 
ATOM     13  C   UNL d   1      -5.106  -0.719  -1.414  0.00  0.00     0.056 A 
ATOM     14 CL   UNL d   1      -5.792  -0.476  -2.983  0.00  0.00    -0.083 Cl
ATOM     15  C   UNL d   1      -5.836  -0.515  -0.237  0.00  0.00     0.055 A 
ATOM     16  C   UNL d   1      -5.230  -0.732   1.003  0.00  0.00     0.026 A 
ATOM     17 CL   UNL d   1      -7.484   0.006  -0.246  0.00  0.00    -0.083 Cl
ATOM     18  C   UNL d   1      -3.895  -1.137   1.071  0.00  0.00     0.013 A 
ENDBRANCH   4  11
TORSDOF 1
