REMARK  2 active torsions:
REMARK  status: ('A' for Active; 'I' for Inactive)
REMARK       I    between atoms: N_2  and  C_1 
REMARK    1  A    between atoms: C_3  and  C_1 
REMARK    2  A    between atoms: C_7  and  N_2 
ROOT
ATOM      1  C   UNL d   1       1.120   0.183  -0.144  0.00  0.00     0.229 C 
ATOM      2  N   UNL d   1       0.538   0.015   1.104  0.00  0.00    -0.326 N 
ATOM      3  O   UNL d   1       2.294   0.494  -0.330  0.00  0.00    -0.272 OA
ATOM      4  H   UNL d   1      -0.404  -0.351   1.130  0.00  0.00     0.169 HD
ENDROOT
BRANCH   2   5
ATOM      5  C   UNL d   1       1.155   0.215   2.360  0.00  0.00     0.037 A 
ATOM      6  C   UNL d   1       2.394   0.828   2.525  0.00  0.00     0.046 A 
ATOM      7  C   UNL d   1       2.901   0.964   3.808  0.00  0.00     0.090 A 
ATOM      8  N   UNL d   1       2.265   0.536   4.919  0.00  0.00    -0.375 N 
ATOM      9  C   UNL d   1       1.064  -0.048   4.736  0.00  0.00     0.090 A 
ATOM     10  HN  UNL d   1       2.671   0.649   5.847  1.00  0.00     0.164 HD
ATOM     11  C   UNL d   1       0.470  -0.220   3.495  0.00  0.00     0.046 A 
ENDBRANCH   2   5
BRANCH   1  12
ATOM     12  C   UNL d   1       0.159  -0.051  -1.333  0.00  0.00     0.030 C 
ATOM     13  C   UNL d   1      -0.965   0.995  -1.301  0.00  0.00     0.025 C 
ATOM     14  C   UNL d   1       0.941   0.107  -2.651  0.00  0.00     0.025 C 
ATOM     15  C   UNL d   1      -0.435  -1.467  -1.291  0.00  0.00     0.025 C 
ENDBRANCH   1  12
TORSDOF 2
