REMARK  4 active torsions:
REMARK  status: ('A' for Active; 'I' for Inactive)
REMARK    1  A    between atoms: C_5  and  C_1 
REMARK    2  A    between atoms: C_3  and  C_2 
REMARK       I    between atoms: N_14  and  C_5 
REMARK    3  A    between atoms: C_10  and  N_6 
REMARK    4  A    between atoms: C_15  and  C_10 
ROOT
ATOM      1  C   UNL d   1       0.599  -1.353  -0.003  0.00  0.00     0.037 C 
ATOM      2  C   UNL d   1       1.524  -0.168   0.195  0.00  0.00     0.135 C 
ATOM      3  C   UNL d   1      -0.711  -1.175  -0.233  0.00  0.00     0.099 C 
ATOM      4  N   UNL d   1      -1.328   0.068  -0.233  0.00  0.00    -0.385 N 
ATOM      5  C   UNL d   1       0.854   1.154  -0.254  0.00  0.00     0.038 C 
ATOM      6  C   UNL d   1      -0.589   1.246   0.241  0.00  0.00     0.123 C 
ENDROOT
BRANCH   4   7
ATOM      7  C   UNL d   1      -2.765   0.244  -0.463  0.00  0.00     0.160 C 
BRANCH   7   8
ATOM      8  C   UNL d   1      -3.077   0.440  -1.932  0.00  0.00    -0.040 A 
ATOM      9  C   UNL d   1      -3.280  -0.665  -2.774  0.00  0.00     0.010 A 
ATOM     10  C   UNL d   1      -3.636  -0.485  -4.114  0.00  0.00     0.024 A 
ATOM     11  C   UNL d   1      -3.780   0.802  -4.625  0.00  0.00     0.034 A 
ATOM     12  C   UNL d   1      -3.549   1.911  -3.814  0.00  0.00     0.024 A 
ATOM     13 CL   UNL d   1      -4.259   1.024  -6.263  0.00  0.00    -0.084 Cl
ATOM     14  C   UNL d   1      -3.193   1.730  -2.474  0.00  0.00     0.010 A 
ENDBRANCH   7   8
ENDBRANCH   4   7
BRANCH   1  15
ATOM     15  C   UNL d   1       1.256  -2.691   0.008  0.00  0.00     0.247 C 
ATOM     16  O   UNL d   1       2.467  -2.806  -0.127  0.00  0.00    -0.268 OA
ATOM     17  N   UNL d   1       0.469  -3.770   0.245  0.00  0.00    -0.366 N 
ATOM     18  H   UNL d   1      -0.491  -3.706   0.547  0.00  0.00     0.159 HD
ATOM     19  H   UNL d   1       0.940  -4.661   0.345  0.00  0.00     0.159 HD
ENDBRANCH   1  15
BRANCH   2  20
ATOM     20  C   UNL d   1       2.066  -0.074   1.626  0.00  0.00     0.395 C 
ATOM     21  F   UNL d   1       1.695  -1.111   2.410  0.00  0.00    -0.170 F 
ATOM     22  F   UNL d   1       3.419  -0.033   1.624  0.00  0.00    -0.170 F 
ATOM     23  F   UNL d   1       1.647   1.053   2.254  0.00  0.00    -0.170 F 
ENDBRANCH   2  20
TORSDOF 4
