REMARK  6 active torsions:
REMARK  status: ('A' for Active; 'I' for Inactive)
REMARK    1  A    between atoms: N_2  and  C_1 
REMARK    2  A    between atoms: N_3  and  C_1 
REMARK    3  A    between atoms: C_5  and  N_2 
REMARK    4  A    between atoms: C_12  and  N_2 
REMARK    5  A    between atoms: C_6  and  N_3 
REMARK    6  A    between atoms: O_13  and  C_7 
ROOT
ATOM      1  C   UNL d   1       0.771   0.130   0.126  0.00  0.00     0.179 C 
ATOM      2  S   UNL d   1      -0.138   1.542  -0.086  0.00  0.00    -0.040 SA
ENDROOT
BRANCH   1   3
ATOM      3  N   UNL d   1       0.242  -1.085   0.656  0.00  0.00    -0.324 N 
BRANCH   3   4
ATOM      4  C   UNL d   1      -1.167  -1.392   0.606  0.00  0.00     0.036 A 
ATOM      5  C   UNL d   1      -1.899  -1.166  -0.571  0.00  0.00     0.029 A 
ATOM      6  C   UNL d   1      -3.273  -1.418  -0.629  0.00  0.00     0.002 A 
ATOM      7  C   UNL d   1      -3.935  -1.924   0.485  0.00  0.00     0.000 A 
ATOM      8  C   UNL d   1      -3.220  -2.187   1.650  0.00  0.00     0.002 A 
ATOM      9  C   UNL d   1      -1.845  -1.932   1.707  0.00  0.00     0.029 A 
ENDBRANCH   3   4
BRANCH   3  10
ATOM     10  C   UNL d   1       1.114  -2.030   1.383  0.00  0.00     0.127 C 
ATOM     11  C   UNL d   1       1.406  -3.282   0.566  0.00  0.00     0.027 C 
ENDBRANCH   3  10
ENDBRANCH   1   3
BRANCH   1  12
ATOM     12  N   UNL d   1       2.132   0.019  -0.199  0.00  0.00    -0.333 N 
ATOM     13  H   UNL d   1       2.368  -0.869  -0.625  0.00  0.00     0.168 HD
BRANCH  12  14
ATOM     14  C   UNL d   1       3.037   1.073  -0.465  0.00  0.00     0.034 A 
ATOM     15  C   UNL d   1       3.018   2.268   0.258  0.00  0.00     0.032 A 
ATOM     16  C   UNL d   1       3.837   3.338  -0.108  0.00  0.00     0.039 A 
ATOM     17  C   UNL d   1       4.705   3.214  -1.190  0.00  0.00     0.068 A 
ATOM     18  C   UNL d   1       4.809   1.983  -1.840  0.00  0.00     0.039 A 
ATOM     19  C   UNL d   1       3.989   0.907  -1.473  0.00  0.00     0.032 A 
BRANCH  17  20
ATOM     20  O   UNL d   1       5.493   4.211  -1.693  0.00  0.00    -0.356 OA
ATOM     21  C   UNL d   1       5.212   5.528  -1.228  0.00  0.00     0.210 C 
ENDBRANCH  17  20
ENDBRANCH  12  14
ENDBRANCH   1  12
TORSDOF 6
