REMARK  9 active torsions:
REMARK  status: ('A' for Active; 'I' for Inactive)
REMARK    1  A    between atoms: S_10  and  C_3 
REMARK    2  A    between atoms: C_4  and  C_5 
REMARK    3  A    between atoms: C_9  and  C_14 
REMARK    4  A    between atoms: C_11  and  C_9 
REMARK    5  A    between atoms: C_14  and  S_10 
REMARK    6  A    between atoms: C_24  and  C_23 
REMARK    7  A    between atoms: C_25  and  C_24 
REMARK    8  A    between atoms: C_27  and  C_25 
REMARK    9  A    between atoms: C_26  and  C_27 
ROOT
ATOM      1  S   UNL d   1      -2.998   2.893   0.223  0.00  0.00    -0.086 SA
ENDROOT
BRANCH   1   2
ATOM      2  C   UNL d   1      -2.591   1.201  -0.125  0.00  0.00     0.144 A 
ATOM      3  N   UNL d   1      -1.359   0.898  -0.562  0.00  0.00    -0.336 N 
ATOM      4  C   UNL d   1      -1.098  -0.409  -0.789  0.00  0.00     0.052 A 
ATOM      5  HN  UNL d   1      -0.653   1.619  -0.715  1.00  0.00     0.168 HD
ATOM      6  C   UNL d   1      -2.028  -1.404  -0.567  0.00  0.00     0.048 A 
ATOM      7  C   UNL d   1      -3.258  -0.985  -0.126  0.00  0.00     0.092 A 
ATOM      8  N   UNL d   1      -3.563   0.303   0.097  0.00  0.00    -0.347 N 
ATOM      9  HN  UNL d   1      -4.489   0.585   0.419  1.00  0.00     0.167 HD
BRANCH   4  10
ATOM     10  C   UNL d   1       0.264  -0.670  -1.279  0.00  0.00     0.031 A 
ATOM     11  S   UNL d   1       0.615  -2.040  -2.259  0.00  0.00    -0.100 SA
ATOM     12  C   UNL d   1       2.262  -1.616  -2.402  0.00  0.00     0.050 A 
ATOM     13  C   UNL d   1       2.556  -0.455  -1.727  0.00  0.00     0.008 A 
ATOM     14  C   UNL d   1       1.406   0.092  -1.087  0.00  0.00     0.021 A 
ENDBRANCH   4  10
ENDBRANCH   1   2
BRANCH   1  15
ATOM     15  C   UNL d   1      -1.409   3.692  -0.158  0.00  0.00     0.166 C 
BRANCH  15  16
ATOM     16  C   UNL d   1      -1.425   5.181   0.155  0.00  0.00     0.169 C 
ATOM     17  O   UNL d   1      -2.405   5.800   0.578  0.00  0.00    -0.291 OA
BRANCH  16  18
ATOM     18  C   UNL d   1      -0.146   5.926  -0.016  0.00  0.00     0.011 A 
ATOM     19  C   UNL d   1       0.811   5.552  -0.962  0.00  0.00     0.015 A 
ATOM     20  C   UNL d   1       2.030   6.233  -1.033  0.00  0.00     0.008 A 
ATOM     21  C   UNL d   1       2.311   7.289  -0.156  0.00  0.00    -0.058 A 
ATOM     22  C   UNL d   1       1.324   7.699   0.749  0.00  0.00     0.008 A 
ATOM     23  C   UNL d   1       0.102   7.021   0.821  0.00  0.00     0.015 A 
BRANCH  21  24
ATOM     24  C   UNL d   1       3.666   7.957  -0.177  0.00  0.00     0.038 C 
BRANCH  24  25
ATOM     25  C   UNL d   1       4.426   7.862   1.153  0.00  0.00     0.005 C 
BRANCH  25  26
ATOM     26  C   UNL d   1       4.731   6.421   1.581  0.00  0.00    -0.000 C 
BRANCH  26  27
ATOM     27  C   UNL d   1       5.485   6.396   2.913  0.00  0.00    -0.005 C 
ATOM     28  C   UNL d   1       5.780   4.976   3.368  0.00  0.00     0.005 C 
ENDBRANCH  26  27
ENDBRANCH  25  26
ENDBRANCH  24  25
ENDBRANCH  21  24
ENDBRANCH  16  18
ENDBRANCH  15  16
ENDBRANCH   1  15
TORSDOF 9
