REMARK  4 active torsions:
REMARK  status: ('A' for Active; 'I' for Inactive)
REMARK    1  A    between atoms: C_12  and  N_1 
REMARK    2  A    between atoms: C_11  and  N_3 
REMARK    3  A    between atoms: C_22  and  C_12 
REMARK    4  A    between atoms: S_13  and  C_16 
ROOT
ATOM      1  N   UNL d   1       2.118   0.663   0.050  0.00  0.00    -0.260 N 
ATOM      2  C   UNL d   1       2.159  -0.743   0.171  0.00  0.00     0.338 A 
ATOM      3  N   UNL d   1       0.929  -1.427   0.159  0.00  0.00    -0.247 N 
ATOM      4  C   UNL d   1      -0.248  -0.704   0.099  0.00  0.00     0.150 A 
ATOM      5  C   UNL d   1      -0.223   0.657   0.002  0.00  0.00     0.147 A 
ATOM      6  C   UNL d   1       0.961   1.435  -0.034  0.00  0.00     0.282 A 
ATOM      7  N   UNL d   1      -1.538  -1.164   0.063  0.00  0.00    -0.336 N 
ATOM      8  HN  UNL d   1      -1.852  -2.134   0.108  1.00  0.00     0.168 HD
ATOM      9  N   UNL d   1      -1.528   1.053  -0.074  0.00  0.00    -0.345 N 
ATOM     10  C   UNL d   1      -2.285  -0.086  -0.042  0.00  0.00     0.182 A 
ATOM     11  O   UNL d   1       3.237  -1.326   0.338  0.00  0.00    -0.246 OA
ATOM     12  O   UNL d   1       0.933   2.658  -0.117  0.00  0.00    -0.265 OA
ATOM     13  H   UNL d   1      -1.859   2.006  -0.159  0.00  0.00     0.167 HD
ENDROOT
BRANCH   3  14
ATOM     14  C   UNL d   1       0.868  -2.852   0.190  0.00  0.00     0.045 A 
ATOM     15  C   UNL d   1      -0.046  -3.538   1.002  0.00  0.00     0.031 A 
ATOM     16  C   UNL d   1      -0.043  -4.939   1.065  0.00  0.00     0.023 A 
ATOM     17  C   UNL d   1       0.858  -5.682   0.295  0.00  0.00     0.031 A 
ATOM     18  C   UNL d   1       1.751  -5.009  -0.540  0.00  0.00     0.023 A 
ATOM     19  C   UNL d   1       1.765  -3.611  -0.580  0.00  0.00     0.031 A 
BRANCH  17  20
ATOM     20  S   UNL d   1       0.815  -7.490   0.338  0.00  0.00     0.045 S 
ATOM     21  O   UNL d   1       1.821  -7.954  -0.674  0.00  0.00    -0.253 OA
ATOM     22  C   UNL d   1       1.556  -7.722   1.973  0.00  0.00     0.133 C 
ENDBRANCH  17  20
ENDBRANCH   3  14
BRANCH   1  23
ATOM     23  C   UNL d   1       3.395   1.368   0.041  0.00  0.00     0.175 C 
BRANCH  23  24
ATOM     24  C   UNL d   1       4.008   1.415  -1.341  0.00  0.00    -0.040 A 
ATOM     25  C   UNL d   1       3.715   2.469  -2.218  0.00  0.00     0.009 A 
ATOM     26  C   UNL d   1       4.254   2.488  -3.506  0.00  0.00     0.001 A 
ATOM     27  C   UNL d   1       5.084   1.453  -3.933  0.00  0.00     0.000 A 
ATOM     28  C   UNL d   1       5.384   0.401  -3.071  0.00  0.00     0.001 A 
ATOM     29  C   UNL d   1       4.852   0.384  -1.782  0.00  0.00     0.009 A 
ENDBRANCH  23  24
ENDBRANCH   1  23
TORSDOF 4
