REMARK  6 active torsions:
REMARK  status: ('A' for Active; 'I' for Inactive)
REMARK    1  A    between atoms: N_5  and  C_1 
REMARK    2  A    between atoms: N_8  and  C_1 
REMARK    3  A    between atoms: N_3  and  N_5 
REMARK    4  A    between atoms: C_6  and  C_9 
REMARK    5  A    between atoms: C_7  and  C_6 
REMARK    6  A    between atoms: C_10  and  C_7 
ROOT
ATOM      1  N   UNL d   1      -1.201  -0.087   1.171  0.00  0.00    -0.310 N 
ATOM      2  HN  UNL d   1      -1.710  -0.068   0.287  1.00  0.00     0.186 HD
ATOM      3  C   UNL d   1      -1.808  -0.108   2.313  0.00  0.00     0.107 C 
ENDROOT
BRANCH   1   4
ATOM      4  N   UNL d   1       0.163  -0.094   1.224  0.00  0.00    -0.277 N 
ATOM      5  H   UNL d   1       0.651  -0.116   2.113  0.00  0.00     0.189 HD
BRANCH   4   6
ATOM      6  C   UNL d   1       0.902  -0.099   0.071  0.00  0.00     0.184 C 
ATOM      7  S   UNL d   1       2.559  -0.127   0.075  0.00  0.00    -0.040 SA
BRANCH   6   8
ATOM      8  N   UNL d   1       0.184  -0.082  -1.077  0.00  0.00    -0.375 N 
ATOM      9  H   UNL d   1       0.623  -0.085  -1.985  0.00  0.00     0.158 HD
ATOM     10  H   UNL d   1      -0.825  -0.067  -0.984  0.00  0.00     0.158 HD
ENDBRANCH   6   8
ENDBRANCH   4   6
ENDBRANCH   1   4
BRANCH   3  11
ATOM     11  C   UNL d   1      -3.282  -0.129   2.353  0.00  0.00     0.019 C 
BRANCH  11  12
ATOM     12  C   UNL d   1      -3.951  -0.208   3.511  0.00  0.00     0.013 C 
BRANCH  12  13
ATOM     13  C   UNL d   1      -5.421  -0.275   3.572  0.00  0.00    -0.036 A 
ATOM     14  C   UNL d   1      -6.177  -0.924   2.584  0.00  0.00     0.011 A 
ATOM     15  C   UNL d   1      -7.569  -0.988   2.676  0.00  0.00     0.001 A 
ATOM     16  C   UNL d   1      -8.221  -0.419   3.766  0.00  0.00     0.000 A 
ATOM     17  C   UNL d   1      -7.482   0.210   4.766  0.00  0.00     0.001 A 
ATOM     18  C   UNL d   1      -6.088   0.277   4.672  0.00  0.00     0.011 A 
ENDBRANCH  12  13
ENDBRANCH  11  12
ENDBRANCH   3  11
TORSDOF 6
