REMARK  5 active torsions:
REMARK  status: ('A' for Active; 'I' for Inactive)
REMARK    1  A    between atoms: C_7  and  C_1 
REMARK    2  A    between atoms: N_21  and  C_3 
REMARK       I    between atoms: N_14  and  C_7 
REMARK    3  A    between atoms: N_11  and  C_8 
REMARK    4  A    between atoms: C_27  and  N_14 
REMARK    5  A    between atoms: C_19  and  N_15 
ROOT
ATOM      1  C   UNL d   1      -8.972  -1.756   0.053  0.00  0.00    -0.078 C 
ATOM      2  C   UNL d   1      -9.905  -1.018   0.153  0.00  0.00     0.018 C 
ATOM      3  C   UNL d   1      -5.397  -2.766  -0.117  0.00  0.00     0.036 A 
ATOM      4  C   UNL d   1      -7.810  -2.590   0.001  0.00  0.00     0.019 A 
ATOM      5  C   UNL d   1      -6.559  -2.000  -0.199  0.00  0.00     0.050 A 
ATOM      6  C   UNL d   1      -6.759  -4.746   0.241  0.00  0.00     0.004 A 
ATOM      7  C   UNL d   1      -5.507  -4.150   0.063  0.00  0.00     0.029 A 
ATOM      8  C   UNL d   1      -7.912  -3.963   0.228  0.00  0.00     0.021 A 
ENDROOT
BRANCH   3   9
ATOM      9  N   UNL d   1      -4.102  -2.209  -0.158  0.00  0.00    -0.322 N 
ATOM     10  C   UNL d   1      -3.753  -0.875   0.041  0.00  0.00     0.265 C 
ATOM     11  O   UNL d   1      -4.569   0.019   0.257  0.00  0.00    -0.267 OA
ATOM     12  H   UNL d   1      -3.329  -2.863  -0.187  0.00  0.00     0.169 HD
BRANCH  10  13
ATOM     13  C   UNL d   1      -2.312  -0.602   0.021  0.00  0.00     0.102 A 
ATOM     14  C   UNL d   1      -1.660   0.613   0.210  0.00  0.00     0.062 A 
ATOM     15  C   UNL d   1      -0.216   0.529   0.065  0.00  0.00     0.034 A 
ATOM     16  C   UNL d   1       0.881   1.457   0.085  0.00  0.00    -0.017 A 
ATOM     17  C   UNL d   1       0.127  -0.808  -0.104  0.00  0.00     0.088 A 
ATOM     18  C   UNL d   1       2.207   0.928   0.061  0.00  0.00     0.077 A 
ATOM     19  C   UNL d   1       0.732   2.959   0.109  0.00  0.00     0.052 C 
ATOM     20  C   UNL d   1       2.368  -0.464  -0.037  0.00  0.00     0.035 A 
ATOM     21  N   UNL d   1       1.355  -1.341  -0.173  0.00  0.00    -0.351 N 
ATOM     22  C   UNL d   1       3.723  -1.114  -0.001  0.00  0.00     0.070 C 
ATOM     23  HN  UNL d   1       1.512  -2.338  -0.318  1.00  0.00     0.166 HD
ATOM     24  S   UNL d   1      -1.192  -1.861  -0.241  0.00  0.00    -0.064 SA
BRANCH  14  25
ATOM     25  N   UNL d   1      -2.355   1.730   0.519  0.00  0.00    -0.397 N 
ATOM     26  H   UNL d   1      -1.972   2.655   0.654  0.00  0.00     0.156 HD
ATOM     27  H   UNL d   1      -3.369   1.686   0.670  0.00  0.00     0.156 HD
ENDBRANCH  14  25
BRANCH  18  28
ATOM     28  N   UNL d   1       3.316   1.805   0.228  0.00  0.00    -0.298 N 
ATOM     29  N   UNL d   1       4.135   1.675  -0.706  0.00  0.00    -0.300 N 
ATOM     30  HN  UNL d   1       3.962   1.066  -1.506  1.00  0.00     0.187 HD
ATOM     31  HN  UNL d   1       3.427   2.453   1.008  1.00  0.00     0.187 HD
BRANCH  29  32
ATOM     32  C   UNL d   1       5.319   2.434  -0.572  0.00  0.00     0.051 A 
ATOM     33  C   UNL d   1       5.611   3.304   0.488  0.00  0.00     0.054 A 
ATOM     34  C   UNL d   1       6.798   4.046   0.487  0.00  0.00     0.037 A 
ATOM     35 CL   UNL d   1       7.126   5.132   1.783  0.00  0.00    -0.084 Cl
ATOM     36  C   UNL d   1       7.715   3.928  -0.552  0.00  0.00     0.048 A 
ATOM     37  C   UNL d   1       7.446   3.043  -1.589  0.00  0.00     0.037 A 
ATOM     38  C   UNL d   1       6.266   2.299  -1.597  0.00  0.00     0.054 A 
ATOM     39 CL   UNL d   1       8.570   2.871  -2.880  0.00  0.00    -0.084 Cl
ENDBRANCH  29  32
ENDBRANCH  18  28
ENDBRANCH  10  13
ENDBRANCH   3   9
TORSDOF 5
