REMARK  7 active torsions:
REMARK  status: ('A' for Active; 'I' for Inactive)
REMARK    1  A    between atoms: C_7  and  C_1 
REMARK    2  A    between atoms: C_2  and  C_6 
REMARK    3  A    between atoms: C_3  and  N_4 
REMARK    4  A    between atoms: C_8  and  C_3 
REMARK    5  A    between atoms: N_4  and  C_24 
REMARK    6  A    between atoms: C_11  and  C_5 
REMARK    7  A    between atoms: C_25  and  N_9 
ROOT
ATOM      1  C   UNL d   1      -1.059  -0.787   6.191  0.00  0.00     0.044 C 
ATOM      2  C   UNL d   1      -0.593  -1.880   5.562  0.00  0.00     0.047 C 
ENDROOT
BRANCH   1   3
ATOM      3  N   UNL d   1      -1.556  -0.802   7.490  0.00  0.00    -0.356 N 
ATOM      4  H   UNL d   1      -1.477   0.111   7.938  0.00  0.00     0.166 HD
BRANCH   3   5
ATOM      5  C   UNL d   1      -2.765  -1.415   7.905  0.00  0.00     0.032 A 
ATOM      6  C   UNL d   1      -3.525  -2.270   7.100  0.00  0.00     0.030 A 
ATOM      7  C   UNL d   1      -4.710  -2.842   7.578  0.00  0.00     0.018 A 
ATOM      8  C   UNL d   1      -5.153  -2.591   8.884  0.00  0.00     0.048 A 
ATOM      9  C   UNL d   1      -4.369  -1.779   9.711  0.00  0.00     0.018 A 
ATOM     10  C   UNL d   1      -3.185  -1.211   9.228  0.00  0.00     0.030 A 
BRANCH   8  11
ATOM     11  C   UNL d   1      -6.451  -3.186   9.372  0.00  0.00     0.417 C 
ATOM     12  F   UNL d   1      -6.750  -2.862  10.661  0.00  0.00    -0.166 F 
ATOM     13  F   UNL d   1      -6.459  -4.546   9.317  0.00  0.00    -0.166 F 
ATOM     14  F   UNL d   1      -7.518  -2.776   8.630  0.00  0.00    -0.166 F 
ENDBRANCH   8  11
ENDBRANCH   3   5
ENDBRANCH   1   3
BRANCH   1  15
ATOM     15  C   UNL d   1      -0.951   0.567   5.606  0.00  0.00    -0.009 A 
ATOM     16  C   UNL d   1      -1.937   1.051   4.736  0.00  0.00     0.015 A 
ATOM     17  C   UNL d   1      -1.887   2.372   4.281  0.00  0.00     0.020 A 
ATOM     18  C   UNL d   1      -0.855   3.211   4.701  0.00  0.00     0.011 A 
ATOM     19  C   UNL d   1       0.142   2.736   5.551  0.00  0.00     0.020 A 
ATOM     20 BR   UNL d   1      -0.825   5.015   4.139  0.00  0.00    -0.051 Br
ATOM     21  C   UNL d   1       0.096   1.414   6.000  0.00  0.00     0.015 A 
ENDBRANCH   1  15
BRANCH   2  22
ATOM     22  C   UNL d   1      -0.023  -1.917   4.200  0.00  0.00     0.090 C 
ATOM     23  N   UNL d   1       0.603  -2.971   3.785  0.00  0.00    -0.366 N 
ATOM     24  HN  UNL d   1       0.732  -3.777   4.397  1.00  0.00     0.165 HD
BRANCH  23  25
ATOM     25  C   UNL d   1       1.101  -2.978   2.473  0.00  0.00     0.031 A 
ATOM     26  C   UNL d   1       2.421  -3.384   2.252  0.00  0.00     0.030 A 
ATOM     27  C   UNL d   1       2.934  -3.474   0.951  0.00  0.00     0.018 A 
ATOM     28  C   UNL d   1       2.131  -3.163  -0.153  0.00  0.00     0.048 A 
ATOM     29  C   UNL d   1       0.806  -2.761   0.071  0.00  0.00     0.018 A 
ATOM     30  C   UNL d   1       0.298  -2.680   1.369  0.00  0.00     0.030 A 
BRANCH  28  31
ATOM     31  C   UNL d   1       2.680  -3.281  -1.553  0.00  0.00     0.417 C 
ATOM     32  F   UNL d   1       1.790  -2.915  -2.518  0.00  0.00    -0.166 F 
ATOM     33  F   UNL d   1       3.781  -2.505  -1.750  0.00  0.00    -0.166 F 
ATOM     34  F   UNL d   1       3.058  -4.553  -1.861  0.00  0.00    -0.166 F 
ENDBRANCH  28  31
ENDBRANCH  23  25
ENDBRANCH   2  22
TORSDOF 7
