REMARK  5 active torsions:
REMARK  status: ('A' for Active; 'I' for Inactive)
REMARK       I    between atoms: N_5  and  C_1 
REMARK       I    between atoms: N_6  and  C_1 
REMARK    1  A    between atoms: O_8  and  C_2 
REMARK    2  A    between atoms: C_11  and  N_5 
REMARK    3  A    between atoms: C_10  and  N_6 
REMARK    4  A    between atoms: C_20  and  O_8 
REMARK    5  A    between atoms: O_21  and  C_12 
ROOT
ATOM      1  C   UNL d   1       1.141   0.324   0.549  0.00  0.00     0.325 C 
ATOM      2  N   UNL d   1       2.402   0.889   0.510  0.00  0.00    -0.309 N 
ATOM      3  N   UNL d   1       0.195   1.274   0.174  0.00  0.00    -0.309 N 
ATOM      4  O   UNL d   1       0.916  -0.815   0.923  0.00  0.00    -0.247 OA
ATOM      5  H   UNL d   1       2.414   1.899   0.532  0.00  0.00     0.170 HD
ATOM      6  H   UNL d   1       0.542   2.100  -0.287  0.00  0.00     0.170 HD
ENDROOT
BRANCH   3   7
ATOM      7  C   UNL d   1      -1.200   1.161   0.293  0.00  0.00     0.039 A 
ATOM      8  C   UNL d   1      -1.823   0.037   0.829  0.00  0.00     0.069 A 
ATOM      9  C   UNL d   1      -3.215  -0.078   0.895  0.00  0.00     0.104 A 
ATOM     10  C   UNL d   1      -4.000   1.014   0.493  0.00  0.00     0.101 A 
ATOM     11  C   UNL d   1      -3.373   2.154  -0.030  0.00  0.00     0.042 A 
ATOM     12  C   UNL d   1      -1.983   2.228  -0.137  0.00  0.00     0.032 A 
BRANCH   9  13
ATOM     13  O   UNL d   1      -3.817  -1.225   1.345  0.00  0.00    -0.343 OA
BRANCH  13  14
ATOM     14  C   UNL d   1      -3.120  -2.459   1.142  0.00  0.00     0.129 C 
ATOM     15  C   UNL d   1      -2.978  -2.831  -0.338  0.00  0.00     0.032 C 
ATOM     16  C   UNL d   1      -3.046  -4.353  -0.403  0.00  0.00     0.002 C 
ATOM     17  C   UNL d   1      -3.438  -4.830   0.991  0.00  0.00     0.002 C 
ATOM     18  C   UNL d   1      -3.967  -3.596   1.708  0.00  0.00     0.032 C 
ENDBRANCH  13  14
ENDBRANCH   9  13
BRANCH  10  19
ATOM     19  O   UNL d   1      -5.363   1.106   0.490  0.00  0.00    -0.353 OA
ATOM     20  C   UNL d   1      -6.064   0.312   1.438  0.00  0.00     0.210 C 
ENDBRANCH  10  19
ENDBRANCH   3   7
BRANCH   2  21
ATOM     21  C   UNL d   1       3.567   0.244   0.932  0.00  0.00     0.039 A 
ATOM     22  C   UNL d   1       4.513   1.065   1.538  0.00  0.00     0.069 A 
ATOM     23  C   UNL d   1       5.749   0.541   1.877  0.00  0.00     0.104 A 
ATOM     24  O   UNL d   1       6.650   1.400   2.439  0.00  0.00    -0.346 OA
ATOM     25  C   UNL d   1       6.061  -0.784   1.605  0.00  0.00     0.102 A 
ATOM     26  C   UNL d   1       7.918   1.114   1.857  0.00  0.00     0.202 C 
ATOM     27  C   UNL d   1       8.319  -0.337   2.095  0.00  0.00     0.202 C 
ATOM     28  O   UNL d   1       7.314  -1.312   1.774  0.00  0.00    -0.346 OA
ATOM     29  C   UNL d   1       5.083  -1.637   1.086  0.00  0.00     0.042 A 
ATOM     30  C   UNL d   1       3.825  -1.114   0.747  0.00  0.00     0.032 A 
ENDBRANCH   2  21
TORSDOF 5
