REMARK  4 active torsions:
REMARK  status: ('A' for Active; 'I' for Inactive)
REMARK    1  A    between atoms: C_2  and  N_1 
REMARK    2  A    between atoms: N_3  and  C_2 
REMARK    3  A    between atoms: C_12  and  N_3 
REMARK    4  A    between atoms: C_5  and  C_12 
ROOT
ATOM      1  C   UNL d   1       0.995   2.205  -1.105  0.00  0.00     0.170 C 
ATOM      2  S   UNL d   1       0.039   3.413  -1.786  0.00  0.00    -0.041 SA
ENDROOT
BRANCH   1   3
ATOM      3  N   UNL d   1       0.559   1.222  -0.173  0.00  0.00    -0.350 N 
ATOM      4  C   UNL d   1       1.452   0.085   0.217  0.00  0.00     0.083 C 
ATOM      5  C   UNL d   1       0.876  -1.261  -0.262  0.00  0.00     0.025 C 
ATOM      6  C   UNL d   1       1.758   0.095   1.720  0.00  0.00     0.032 C 
ATOM      7  C   UNL d   1      -0.568  -1.481   0.160  0.00  0.00     0.004 C 
ATOM      8  C   UNL d   1      -1.426  -0.293  -0.254  0.00  0.00     0.025 C 
ATOM      9  C   UNL d   1      -0.855   1.016   0.322  0.00  0.00     0.083 C 
ATOM     10  C   UNL d   1      -1.927   2.103   0.217  0.00  0.00     0.032 C 
ENDBRANCH   1   3
BRANCH   1  11
ATOM     11  N   UNL d   1       2.338   2.101  -1.477  0.00  0.00    -0.361 N 
ATOM     12  H   UNL d   1       2.988   1.869  -0.738  0.00  0.00     0.162 HD
BRANCH  11  13
ATOM     13  C   UNL d   1       2.950   2.902  -2.535  0.00  0.00     0.187 C 
BRANCH  13  14
ATOM     14  C   UNL d   1       4.297   2.432  -2.958  0.00  0.00     0.070 A 
ATOM     15  O   UNL d   1       5.105   1.808  -2.053  0.00  0.00    -0.325 OA
ATOM     16  C   UNL d   1       6.289   1.570  -2.693  0.00  0.00     0.142 A 
ATOM     17  C   UNL d   1       6.255   2.039  -3.983  0.00  0.00     0.027 A 
ATOM     18  C   UNL d   1       4.965   2.587  -4.160  0.00  0.00     0.036 A 
ENDBRANCH  13  14
ENDBRANCH  11  13
ENDBRANCH   1  11
TORSDOF 4
