REMARK  3 active torsions:
REMARK  status: ('A' for Active; 'I' for Inactive)
REMARK    1  A    between atoms: N_7  and  C_1 
REMARK    2  A    between atoms: C_2  and  C_9 
REMARK    3  A    between atoms: O_17  and  C_6 
ROOT
ATOM      1  C   UNL d   1       0.823  -4.870  -0.002  0.00  0.00     0.016 A 
ATOM      2  C   UNL d   1       1.445  -7.081   0.758  0.00  0.00     0.069 A 
ATOM      3  C   UNL d   1       1.611  -5.692   0.809  0.00  0.00     0.099 A 
ATOM      4  C   UNL d   1       0.502  -7.652  -0.095  0.00  0.00     0.050 A 
ATOM      5  C   UNL d   1      -0.125  -5.440  -0.861  0.00  0.00     0.039 A 
ATOM      6  C   UNL d   1      -0.278  -6.825  -0.901  0.00  0.00     0.036 A 
ATOM      7 CL   UNL d   1       2.407  -8.109   1.756  0.00  0.00    -0.081 Cl
ATOM      8 CL   UNL d   1      -1.444  -7.525  -1.956  0.00  0.00    -0.084 Cl
ENDROOT
BRANCH   1   9
ATOM      9  C   UNL d   1       0.983  -3.399   0.049  0.00  0.00     0.104 C 
ATOM     10  N   UNL d   1       0.255  -2.621  -0.686  0.00  0.00    -0.346 N 
ATOM     11  HN  UNL d   1      -0.451  -2.981  -1.328  1.00  0.00     0.167 HD
BRANCH  10  12
ATOM     12  C   UNL d   1       0.496  -1.291  -0.546  0.00  0.00     0.148 A 
ATOM     13  N   UNL d   1       1.358  -0.694   0.255  0.00  0.00    -0.346 N 
ATOM     14  C   UNL d   1       1.301   0.676   0.099  0.00  0.00     0.097 A 
ATOM     15  HN  UNL d   1       1.981  -1.178   0.901  1.00  0.00     0.167 HD
ATOM     16  C   UNL d   1       0.390   1.131  -0.825  0.00  0.00     0.070 A 
ATOM     17  S   UNL d   1      -0.428  -0.199  -1.525  0.00  0.00    -0.064 SA
ENDBRANCH  10  12
ENDBRANCH   1   9
BRANCH   3  18
ATOM     18  O   UNL d   1       2.538  -5.133   1.648  0.00  0.00    -0.358 OA
ATOM     19  H   UNL d   1       2.984  -5.855   2.132  0.00  0.00     0.217 HD
ENDBRANCH   3  18
TORSDOF 3
