REMARK  6 active torsions:
REMARK  status: ('A' for Active; 'I' for Inactive)
REMARK    1  A    between atoms: N_2  and  C_1 
REMARK    2  A    between atoms: N_3  and  C_1 
REMARK    3  A    between atoms: C_11  and  N_2 
REMARK    4  A    between atoms: C_17  and  N_2 
REMARK    5  A    between atoms: C_9  and  N_3 
REMARK    6  A    between atoms: C_14  and  C_17 
ROOT
ATOM      1  N   UNL d   1       1.837   0.485   3.970  0.00  0.00    -0.197 NA
ATOM      2  C   UNL d   1       2.070  -0.323   3.174  0.00  0.00     0.060 C 
ATOM      3  C   UNL d   1       2.376  -1.348   2.168  0.00  0.00     0.143 C 
ENDROOT
BRANCH   3   4
ATOM      4  C   UNL d   1       1.103  -1.903   1.512  0.00  0.00     0.139 C 
BRANCH   4   5
ATOM      5  N   UNL d   1       0.249  -0.931   0.799  0.00  0.00    -0.352 N 
BRANCH   5   6
ATOM      6  C   UNL d   1       0.875   0.023  -0.040  0.00  0.00     0.174 C 
ATOM      7  S   UNL d   1       2.023  -0.365  -1.204  0.00  0.00    -0.041 SA
BRANCH   6   8
ATOM      8  N   UNL d   1       0.439   1.306   0.259  0.00  0.00    -0.333 N 
ATOM      9  H   UNL d   1      -0.511   1.375   0.600  0.00  0.00     0.168 HD
BRANCH   8  10
ATOM     10  C   UNL d   1       1.185   2.505   0.332  0.00  0.00     0.035 A 
ATOM     11  C   UNL d   1       2.570   2.536   0.518  0.00  0.00     0.055 A 
ATOM     12  C   UNL d   1       3.232   3.749   0.753  0.00  0.00     0.058 A 
ATOM     13 CL   UNL d   1       4.934   3.690   1.051  0.00  0.00    -0.082 Cl
ATOM     14  C   UNL d   1       2.512   4.946   0.777  0.00  0.00     0.055 A 
ATOM     15  C   UNL d   1       1.133   4.924   0.560  0.00  0.00     0.028 A 
ATOM     16 CL   UNL d   1       3.254   6.473   1.097  0.00  0.00    -0.083 Cl
ATOM     17  C   UNL d   1       0.472   3.708   0.356  0.00  0.00     0.031 A 
ENDBRANCH   8  10
ENDBRANCH   6   8
ENDBRANCH   5   6
BRANCH   5  18
ATOM     18  C   UNL d   1      -1.167  -1.300   0.487  0.00  0.00     0.086 C 
ATOM     19  C   UNL d   1      -1.984  -1.859   1.673  0.00  0.00     0.025 C 
ATOM     20  C   UNL d   1      -1.915  -3.377   1.874  0.00  0.00     0.002 C 
ATOM     21  C   UNL d   1      -2.114  -4.155   0.582  0.00  0.00     0.000 C 
ATOM     22  C   UNL d   1      -1.176  -3.675  -0.517  0.00  0.00     0.002 C 
ATOM     23  C   UNL d   1      -1.330  -2.179  -0.770  0.00  0.00     0.025 C 
ENDBRANCH   5  18
ENDBRANCH   4   5
ENDBRANCH   3   4
TORSDOF 6
