REMARK  6 active torsions:
REMARK  status: ('A' for Active; 'I' for Inactive)
REMARK    1  A    between atoms: N_5  and  C_1 
REMARK    2  A    between atoms: O_13  and  C_2 
REMARK    3  A    between atoms: O_14  and  C_3 
REMARK    4  A    between atoms: C_4  and  N_5 
REMARK    5  A    between atoms: N_9  and  C_4 
REMARK    6  A    between atoms: C_15  and  N_9 
ROOT
ATOM      1  N   UNL d   1      -0.282  -3.386  -0.510  0.00  0.00    -0.328 N 
ATOM      2  H   UNL d   1       0.637  -3.732  -0.782  0.00  0.00     0.168 HD
ENDROOT
BRANCH   1   3
ATOM      3  C   UNL d   1      -1.222  -4.300  -0.852  0.00  0.00     0.176 C 
ATOM      4  S   UNL d   1      -0.620  -5.738  -1.487  0.00  0.00    -0.041 SA
BRANCH   3   5
ATOM      5  N   UNL d   1      -2.530  -4.024  -0.648  0.00  0.00    -0.333 N 
ATOM      6  H   UNL d   1      -2.731  -3.506   0.204  0.00  0.00     0.168 HD
BRANCH   5   7
ATOM      7  C   UNL d   1      -3.634  -4.402  -1.441  0.00  0.00     0.034 A 
ATOM      8  C   UNL d   1      -4.899  -4.445  -0.848  0.00  0.00     0.032 A 
ATOM      9  C   UNL d   1      -6.026  -4.734  -1.622  0.00  0.00     0.044 A 
ATOM     10  C   UNL d   1      -5.886  -4.946  -2.988  0.00  0.00     0.116 A 
ATOM     11  C   UNL d   1      -4.641  -4.882  -3.596  0.00  0.00     0.044 A 
ATOM     12  F   UNL d   1      -6.970  -5.201  -3.732  0.00  0.00    -0.206 F 
ATOM     13  C   UNL d   1      -3.513  -4.611  -2.821  0.00  0.00     0.032 A 
ENDBRANCH   5   7
ENDBRANCH   3   5
ENDBRANCH   1   3
BRANCH   1  14
ATOM     14  C   UNL d   1      -0.221  -2.060  -0.009  0.00  0.00     0.105 A 
ATOM     15  C   UNL d   1      -1.263  -1.242   0.464  0.00  0.00     0.119 A 
ATOM     16  C   UNL d   1      -0.953   0.043   0.973  0.00  0.00     0.071 A 
ATOM     17 CL   UNL d   1      -2.131   1.045   1.757  0.00  0.00    -0.081 Cl
ATOM     18  C   UNL d   1       0.343   0.559   0.907  0.00  0.00     0.053 A 
ATOM     19  C   UNL d   1       1.369  -0.221   0.396  0.00  0.00     0.071 A 
ATOM     20  C   UNL d   1       1.097  -1.530  -0.011  0.00  0.00     0.119 A 
ATOM     21 CL   UNL d   1       2.948   0.463   0.289  0.00  0.00    -0.081 Cl
BRANCH  15  22
ATOM     22  O   UNL d   1      -2.548  -1.720   0.512  0.00  0.00    -0.352 OA
ATOM     23  C   UNL d   1      -3.462  -0.936  -0.272  0.00  0.00     0.210 C 
ENDBRANCH  15  22
BRANCH  20  24
ATOM     24  O   UNL d   1       2.105  -2.334  -0.511  0.00  0.00    -0.352 OA
ATOM     25  C   UNL d   1       2.860  -2.934   0.546  0.00  0.00     0.210 C 
ENDBRANCH  20  24
ENDBRANCH   1  14
TORSDOF 6
