REMARK  7 active torsions:
REMARK  status: ('A' for Active; 'I' for Inactive)
REMARK    1  A    between atoms: N_6  and  C_1 
REMARK    2  A    between atoms: N_2  and  C_7 
REMARK       I    between atoms: C_4  and  N_6 
REMARK       I    between atoms: N_20  and  C_4 
REMARK    3  A    between atoms: N_12  and  C_8 
REMARK    4  A    between atoms: C_17  and  N_9 
REMARK    5  A    between atoms: N_13  and  C_11 
REMARK    6  A    between atoms: C_23  and  N_12 
REMARK    7  A    between atoms: C_24  and  N_12 
ROOT
ATOM      1  C   UNL d   1       1.497  -0.345   0.144  0.00  0.00     0.066 A 
ATOM      2  C   UNL d   1       0.500  -1.337   0.080  0.00  0.00     0.061 A 
ATOM      3  C   UNL d   1       1.127   1.016   0.116  0.00  0.00     0.075 A 
ATOM      4  C   UNL d   1      -0.868  -1.039  -0.045  0.00  0.00     0.032 A 
ATOM      5  C   UNL d   1      -0.241   1.321   0.041  0.00  0.00     0.035 A 
ATOM      6  C   UNL d   1      -1.211   0.316  -0.055  0.00  0.00     0.032 A 
ENDROOT
BRANCH   3   7
ATOM      7  N   UNL d   1       2.113   2.040   0.214  0.00  0.00    -0.298 N 
ATOM      8  N   UNL d   1       1.797   3.033  -0.479  0.00  0.00    -0.300 N 
ATOM      9  HN  UNL d   1       0.986   3.032  -1.098  1.00  0.00     0.187 HD
ATOM     10  HN  UNL d   1       2.963   1.973   0.775  1.00  0.00     0.187 HD
BRANCH   8  11
ATOM     11  C   UNL d   1       2.644   4.152  -0.342  0.00  0.00     0.048 A 
ATOM     12  C   UNL d   1       2.671   5.074  -1.390  0.00  0.00     0.033 A 
ATOM     13  C   UNL d   1       3.422   6.261  -1.309  0.00  0.00     0.031 A 
ATOM     14  C   UNL d   1       4.172   6.592  -0.172  0.00  0.00     0.029 A 
ATOM     15  C   UNL d   1       4.127   5.656   0.877  0.00  0.00     0.031 A 
ATOM     16  C   UNL d   1       3.383   4.463   0.800  0.00  0.00     0.033 A 
BRANCH  14  17
ATOM     17  N   UNL d   1       4.851   7.800  -0.040  0.00  0.00    -0.390 N 
ATOM     18  C   UNL d   1       6.129   7.851   0.673  0.00  0.00     0.149 C 
ATOM     19  C   UNL d   1       4.661   8.891  -0.995  0.00  0.00     0.149 C 
ENDBRANCH  14  17
ENDBRANCH   8  11
ENDBRANCH   3   7
BRANCH   1  20
ATOM     20  N   UNL d   1       2.879  -0.660   0.215  0.00  0.00    -0.307 N 
ATOM     21  C   UNL d   1       3.462  -1.898   0.221  0.00  0.00     0.318 C 
ATOM     22  O   UNL d   1       2.930  -3.000   0.169  0.00  0.00    -0.247 OA
ATOM     23  N   UNL d   1       4.823  -1.827   0.285  0.00  0.00    -0.352 N 
ATOM     24  H   UNL d   1       5.227  -1.101   0.856  0.00  0.00     0.160 HD
ATOM     25  H   UNL d   1       5.254  -2.738   0.389  0.00  0.00     0.160 HD
ATOM     26  H   UNL d   1       3.502   0.134   0.171  0.00  0.00     0.170 HD
ENDBRANCH   1  20
BRANCH   4  27
ATOM     27  N   UNL d   1      -1.823  -2.041  -0.176  0.00  0.00    -0.382 N 
BRANCH  27  28
ATOM     28  C   UNL d   1      -1.693  -3.291   0.582  0.00  0.00     0.118 C 
ATOM     29  C   UNL d   1      -1.226  -4.440  -0.299  0.00  0.00     0.026 C 
ENDBRANCH  27  28
BRANCH  27  30
ATOM     30  C   UNL d   1      -3.062  -1.829  -0.931  0.00  0.00     0.118 C 
ATOM     31  C   UNL d   1      -2.779  -1.637  -2.416  0.00  0.00     0.026 C 
ENDBRANCH  27  30
ENDBRANCH   4  27
TORSDOF 7
