REMARK  2 active torsions:
REMARK  status: ('A' for Active; 'I' for Inactive)
REMARK    1  A    between atoms: C_6  and  N_1 
REMARK    2  A    between atoms: C_14  and  C_5 
ROOT
ATOM      1  N   UNL d   1       2.310  -0.670  -0.054  0.00  0.00    -0.219 N 
ATOM      2  N   UNL d   1       2.295   0.703   0.029  0.00  0.00    -0.289 N 
ATOM      3  HN  UNL d   1       3.175   1.216   0.081  1.00  0.00     0.188 HD
ATOM      4  C   UNL d   1       1.153  -1.450   0.050  0.00  0.00     0.278 C 
ATOM      5  C   UNL d   1       1.169   1.355   0.042  0.00  0.00     0.070 C 
ATOM      6  C   UNL d   1      -0.129  -0.723   0.020  0.00  0.00     0.046 A 
ATOM      7  C   UNL d   1      -0.141   0.664  -0.067  0.00  0.00     0.009 A 
ATOM      8  O   UNL d   1       1.110  -2.674   0.150  0.00  0.00    -0.265 OA
ATOM      9  C   UNL d   1      -1.332  -1.448   0.005  0.00  0.00     0.018 A 
ATOM     10  C   UNL d   1      -1.364   1.317  -0.277  0.00  0.00     0.015 A 
ATOM     11  C   UNL d   1      -2.549  -0.785  -0.131  0.00  0.00     0.001 A 
ATOM     12  C   UNL d   1      -2.562   0.597  -0.291  0.00  0.00     0.001 A 
ENDROOT
BRANCH   1  13
ATOM     13  C   UNL d   1       3.621  -1.228  -0.230  0.00  0.00     0.063 A 
ATOM     14  C   UNL d   1       3.815  -2.512  -0.765  0.00  0.00     0.055 A 
ATOM     15  C   UNL d   1       5.101  -3.023  -0.958  0.00  0.00     0.037 A 
ATOM     16 CL   UNL d   1       5.302  -4.587  -1.651  0.00  0.00    -0.084 Cl
ATOM     17  C   UNL d   1       6.221  -2.278  -0.613  0.00  0.00     0.048 A 
ATOM     18  C   UNL d   1       6.045  -1.006  -0.085  0.00  0.00     0.037 A 
ATOM     19  C   UNL d   1       4.764  -0.476   0.093  0.00  0.00     0.055 A 
ATOM     20 CL   UNL d   1       7.422  -0.071   0.355  0.00  0.00    -0.084 Cl
ENDBRANCH   1  13
BRANCH   5  21
ATOM     21  C   UNL d   1       1.266   2.846   0.159  0.00  0.00    -0.007 A 
ATOM     22  C   UNL d   1       2.297   3.502  -0.529  0.00  0.00     0.014 A 
ATOM     23  C   UNL d   1       2.412   4.892  -0.471  0.00  0.00     0.001 A 
ATOM     24  C   UNL d   1       1.498   5.636   0.274  0.00  0.00     0.000 A 
ATOM     25  C   UNL d   1       0.495   4.989   0.994  0.00  0.00     0.001 A 
ATOM     26  C   UNL d   1       0.395   3.595   0.959  0.00  0.00     0.014 A 
ENDBRANCH   5  21
TORSDOF 2
