REMARK  6 active torsions:
REMARK  status: ('A' for Active; 'I' for Inactive)
REMARK    1  A    between atoms: C_6  and  C_1 
REMARK    2  A    between atoms: C_17  and  C_2 
REMARK    3  A    between atoms: C_4  and  C_5 
REMARK    4  A    between atoms: C_5  and  O_11 
REMARK    5  A    between atoms: C_16  and  C_7 
REMARK    6  A    between atoms: O_11  and  C_16 
ROOT
ATOM      1  S   UNL d   1      -2.981   1.070   0.058  0.00  0.00    -0.084 SA
ATOM      2  C   UNL d   1      -1.965  -0.295   0.021  0.00  0.00     0.059 A 
ATOM      3  C   UNL d   1      -4.401   0.111   0.074  0.00  0.00     0.008 A 
ATOM      4  C   UNL d   1      -2.683  -1.471   0.025  0.00  0.00     0.029 A 
ATOM      5  C   UNL d   1      -4.094  -1.241   0.057  0.00  0.00     0.019 A 
ENDROOT
BRANCH   3   6
ATOM      6  C   UNL d   1      -5.743   0.791   0.064  0.00  0.00     0.225 C 
BRANCH   6   7
ATOM      7  O   UNL d   1      -5.857   1.605   1.266  0.00  0.00    -0.312 OA
BRANCH   7   8
ATOM      8  C   UNL d   1      -6.030   2.961   1.107  0.00  0.00     0.300 C 
ATOM      9  O   UNL d   1      -6.124   3.503   0.011  0.00  0.00    -0.259 OA
BRANCH   8  10
ATOM     10  C   UNL d   1      -6.090   3.670   2.389  0.00  0.00     0.080 A 
ATOM     11  S   UNL d   1      -6.306   5.388   2.360  0.00  0.00    -0.096 SA
ATOM     12  C   UNL d   1      -6.315   5.506   4.064  0.00  0.00     0.050 A 
ATOM     13  C   UNL d   1      -6.142   4.279   4.661  0.00  0.00     0.009 A 
ATOM     14  C   UNL d   1      -5.964   3.233   3.698  0.00  0.00     0.025 A 
ENDBRANCH   8  10
ENDBRANCH   7   8
ENDBRANCH   6   7
ENDBRANCH   3   6
BRANCH   2  15
ATOM     15  C   UNL d   1      -0.550  -0.206  -0.012  0.00  0.00    -0.054 C 
ATOM     16  C   UNL d   1       0.660  -0.134  -0.028  0.00  0.00    -0.061 C 
BRANCH  16  17
ATOM     17  C   UNL d   1       2.082  -0.058  -0.024  0.00  0.00     0.018 A 
ATOM     18  C   UNL d   1       2.718   1.187  -0.014  0.00  0.00     0.020 A 
ATOM     19  C   UNL d   1       4.112   1.259   0.015  0.00  0.00     0.001 A 
ATOM     20  C   UNL d   1       4.872   0.089   0.034  0.00  0.00     0.000 A 
ATOM     21  C   UNL d   1       4.240  -1.154   0.017  0.00  0.00     0.001 A 
ATOM     22  C   UNL d   1       2.846  -1.228  -0.013  0.00  0.00     0.020 A 
ENDBRANCH  16  17
ENDBRANCH   2  15
TORSDOF 6
