REMARK  2 active torsions:
REMARK  status: ('A' for Active; 'I' for Inactive)
REMARK    1  A    between atoms: C_13  and  C_3 
REMARK    2  A    between atoms: C_11  and  C_7 
ROOT
ATOM      1  N   UNL d   1       1.557  -0.095  -0.011  0.00  0.00    -0.331 N 
ATOM      2  HN  UNL d   1       2.501  -0.478  -0.050  1.00  0.00     0.168 HD
ATOM      3  C   UNL d   1       1.189   1.147   0.010  0.00  0.00     0.162 A 
ATOM      4  C   UNL d   1       0.360  -0.767   0.033  0.00  0.00     0.111 A 
ATOM      5  O   UNL d   1      -0.136   1.410   0.075  0.00  0.00    -0.256 OA
ATOM      6  C   UNL d   1      -0.772   0.206   0.092  0.00  0.00     0.316 A 
ATOM      7  C   UNL d   1       0.263  -2.102   0.003  0.00  0.00     0.047 C 
ATOM      8  O   UNL d   1      -1.971   0.026   0.139  0.00  0.00    -0.257 OA
ENDROOT
BRANCH   7   9
ATOM      9  C   UNL d   1      -0.990  -2.857   0.016  0.00  0.00    -0.031 A 
ATOM     10  C   UNL d   1      -1.596  -3.196   1.232  0.00  0.00     0.051 A 
ATOM     11  C   UNL d   1      -2.788  -3.890   1.184  0.00  0.00     0.105 A 
ATOM     12  O   UNL d   1      -3.517  -4.293   2.259  0.00  0.00    -0.323 OA
ATOM     13  C   UNL d   1      -3.370  -4.251  -0.009  0.00  0.00     0.105 A 
ATOM     14  C   UNL d   1      -4.655  -4.889   1.605  0.00  0.00     0.352 A 
ATOM     15  O   UNL d   1      -4.540  -4.923   0.167  0.00  0.00    -0.323 OA
ATOM     16  C   UNL d   1      -2.795  -3.942  -1.221  0.00  0.00     0.040 A 
ATOM     17  C   UNL d   1      -1.589  -3.233  -1.205  0.00  0.00     0.014 A 
ENDBRANCH   7   9
BRANCH   3  18
ATOM     18  C   UNL d   1       2.060   2.331  -0.051  0.00  0.00     0.015 A 
ATOM     19  C   UNL d   1       3.444   2.153  -0.167  0.00  0.00     0.016 A 
ATOM     20  C   UNL d   1       4.286   3.262  -0.269  0.00  0.00     0.001 A 
ATOM     21  C   UNL d   1       3.750   4.550  -0.252  0.00  0.00     0.000 A 
ATOM     22  C   UNL d   1       2.373   4.732  -0.124  0.00  0.00     0.001 A 
ATOM     23  C   UNL d   1       1.527   3.626  -0.022  0.00  0.00     0.016 A 
ENDBRANCH   3  18
TORSDOF 2
