REMARK  4 active torsions:
REMARK  status: ('A' for Active; 'I' for Inactive)
REMARK    1  A    between atoms: C_10  and  N_2 
REMARK    2  A    between atoms: C_9  and  N_3 
REMARK    3  A    between atoms: C_7  and  C_6 
REMARK    4  A    between atoms: C_13  and  C_7 
ROOT
ATOM      1  C   UNL d   1      -0.015   1.371  -0.176  0.00  0.00     0.343 C 
ATOM      2  N   UNL d   1      -1.204   0.636  -0.028  0.00  0.00    -0.232 N 
ATOM      3  N   UNL d   1       1.176   0.637  -0.117  0.00  0.00    -0.232 N 
ATOM      4  C   UNL d   1      -1.254  -0.739   0.170  0.00  0.00     0.253 C 
ATOM      5  C   UNL d   1       1.258  -0.735   0.070  0.00  0.00     0.253 C 
ATOM      6  C   UNL d   1      -0.004  -1.510  -0.089  0.00  0.00     0.246 C 
ATOM      7  O   UNL d   1      -0.014   2.602  -0.294  0.00  0.00    -0.245 OA
ATOM      8  O   UNL d   1      -2.272  -1.366   0.470  0.00  0.00    -0.271 OA
ATOM      9  O   UNL d   1       2.287  -1.339   0.387  0.00  0.00    -0.271 OA
ENDROOT
BRANCH   6  10
ATOM     10  C   UNL d   1      -0.054  -2.195  -1.437  0.00  0.00     0.181 C 
ATOM     11  O   UNL d   1       0.452  -1.658  -2.425  0.00  0.00    -0.291 OA
BRANCH  10  12
ATOM     12  C   UNL d   1      -0.760  -3.509  -1.597  0.00  0.00     0.011 A 
ATOM     13  C   UNL d   1      -1.430  -4.147  -0.547  0.00  0.00     0.015 A 
ATOM     14  C   UNL d   1      -2.099  -5.356  -0.761  0.00  0.00     0.007 A 
ATOM     15  C   UNL d   1      -2.103  -5.956  -2.023  0.00  0.00    -0.062 A 
ATOM     16  C   UNL d   1      -1.425  -5.328  -3.072  0.00  0.00     0.007 A 
ATOM     17  C   UNL d   1      -2.817  -7.260  -2.222  0.00  0.00     0.048 C 
ATOM     18  C   UNL d   1      -0.761  -4.114  -2.861  0.00  0.00     0.015 A 
ENDBRANCH  10  12
ENDBRANCH   6  10
BRANCH   3  19
ATOM     19  C   UNL d   1       2.410   1.360  -0.071  0.00  0.00     0.047 A 
ATOM     20  C   UNL d   1       2.646   2.306   0.937  0.00  0.00     0.030 A 
ATOM     21  C   UNL d   1       3.879   2.954   1.017  0.00  0.00     0.002 A 
ATOM     22  C   UNL d   1       4.869   2.690   0.072  0.00  0.00     0.000 A 
ATOM     23  C   UNL d   1       4.634   1.767  -0.947  0.00  0.00     0.002 A 
ATOM     24  C   UNL d   1       3.415   1.090  -1.009  0.00  0.00     0.030 A 
ENDBRANCH   3  19
BRANCH   2  25
ATOM     25  C   UNL d   1      -2.448   1.362  -0.008  0.00  0.00     0.047 A 
ATOM     26  C   UNL d   1      -2.754   2.277  -1.027  0.00  0.00     0.030 A 
ATOM     27  C   UNL d   1      -3.982   2.947  -1.037  0.00  0.00     0.002 A 
ATOM     28  C   UNL d   1      -4.905   2.730  -0.017  0.00  0.00     0.000 A 
ATOM     29  C   UNL d   1      -4.608   1.839   1.011  0.00  0.00     0.002 A 
ATOM     30  C   UNL d   1      -3.390   1.153   1.010  0.00  0.00     0.030 A 
ENDBRANCH   2  25
TORSDOF 4
