REMARK  3 active torsions:
REMARK  status: ('A' for Active; 'I' for Inactive)
REMARK    1  A    between atoms: C_13  and  C_1 
REMARK       I    between atoms: C_4  and  N_12 
REMARK    2  A    between atoms: C_6  and  C_4 
REMARK    3  A    between atoms: N_12  and  N_9 
ROOT
ATOM      1  N   UNL d   1      -4.661  -1.027   0.002  0.00  0.00    -0.308 N 
ATOM      2  HN  UNL d   1      -4.324  -1.990   0.020  1.00  0.00     0.186 HD
ATOM      3  C   UNL d   1      -3.834  -0.033  -0.015  0.00  0.00     0.124 C 
ENDROOT
BRANCH   3   4
ATOM      4  C   UNL d   1      -2.363  -0.241  -0.014  0.00  0.00     0.054 A 
ATOM      5  C   UNL d   1      -1.397   0.875  -0.023  0.00  0.00     0.198 A 
ATOM      6  C   UNL d   1       0.033   0.503  -0.016  0.00  0.00     0.049 A 
ATOM      7  O   UNL d   1      -1.763   2.045  -0.035  0.00  0.00    -0.286 OA
ATOM      8  C   UNL d   1       1.032   1.483  -0.014  0.00  0.00     0.018 A 
ATOM      9  C   UNL d   1       0.380  -0.847  -0.010  0.00  0.00     0.089 A 
ATOM     10  C   UNL d   1       2.376   1.101  -0.008  0.00  0.00     0.001 A 
ATOM     11  C   UNL d   1       2.720  -0.252  -0.003  0.00  0.00     0.003 A 
ATOM     12  C   UNL d   1       1.722  -1.228  -0.005  0.00  0.00     0.038 A 
ATOM     13  O   UNL d   1      -0.553  -1.852  -0.009  0.00  0.00    -0.321 OA
ATOM     14  C   UNL d   1      -1.878  -1.491  -0.008  0.00  0.00     0.159 A 
ENDBRANCH   3   4
BRANCH   1  15
ATOM     15  N   UNL d   1      -5.996  -0.753  -0.005  0.00  0.00    -0.265 N 
ATOM     16  C   UNL d   1      -6.899  -1.814   0.043  0.00  0.00     0.293 C 
ATOM     17  O   UNL d   1      -6.553  -2.993   0.101  0.00  0.00    -0.264 OA
ATOM     18  H   UNL d   1      -6.342   0.198  -0.068  0.00  0.00     0.190 HD
BRANCH  16  19
ATOM     19  C   UNL d   1      -8.295  -1.425   0.019  0.00  0.00     0.144 A 
ATOM     20  O   UNL d   1      -8.647  -0.100  -0.014  0.00  0.00    -0.317 OA
ATOM     21  C   UNL d   1     -10.007  -0.053  -0.038  0.00  0.00     0.143 A 
ATOM     22  C   UNL d   1     -10.538  -1.320  -0.024  0.00  0.00     0.027 A 
ATOM     23  C   UNL d   1      -9.436  -2.204   0.019  0.00  0.00     0.045 A 
ENDBRANCH  16  19
ENDBRANCH   1  15
TORSDOF 3
