REMARK  4 active torsions:
REMARK  status: ('A' for Active; 'I' for Inactive)
REMARK    1  A    between atoms: S_7  and  C_1 
REMARK       I    between atoms: C_6  and  N_8 
REMARK    2  A    between atoms: C_9  and  C_6 
REMARK    3  A    between atoms: C_14  and  S_7 
REMARK    4  A    between atoms: N_8  and  C_15 
ROOT
ATOM      1  C   UNL d   1       2.492  -0.506  -0.642  0.00  0.00     0.096 A 
ATOM      2  C   UNL d   1       1.172  -0.755  -0.266  0.00  0.00     0.085 A 
ATOM      3  N   UNL d   1       2.824   0.455  -1.536  0.00  0.00    -0.349 N 
ATOM      4  HN  UNL d   1       3.797   0.591  -1.809  1.00  0.00     0.166 HD
ATOM      5  C   UNL d   1       0.138  -0.027  -0.899  0.00  0.00    -0.026 A 
ATOM      6  C   UNL d   1       0.492   1.028  -1.786  0.00  0.00    -0.002 A 
ATOM      7  C   UNL d   1       0.881  -1.683   0.786  0.00  0.00     0.103 C 
ATOM      8  C   UNL d   1       1.860   1.226  -2.058  0.00  0.00     0.043 A 
ATOM      9  N   UNL d   1       0.627  -2.395   1.669  0.00  0.00    -0.191 NA
ATOM     10  C   UNL d   1      -1.314  -0.344  -0.641  0.00  0.00     0.050 C 
ATOM     11  C   UNL d   1      -0.448   1.899  -2.389  0.00  0.00     0.014 A 
ATOM     12  C   UNL d   1       2.244   2.268  -2.892  0.00  0.00     0.030 A 
ATOM     13  C   UNL d   1      -0.035   2.947  -3.214  0.00  0.00     0.001 A 
ATOM     14  C   UNL d   1       1.312   3.134  -3.465  0.00  0.00     0.002 A 
ENDROOT
BRANCH   1  15
ATOM     15  S   UNL d   1       3.857  -1.502  -0.016  0.00  0.00    -0.069 SA
BRANCH  15  16
ATOM     16  C   UNL d   1       5.247  -0.386  -0.202  0.00  0.00     0.033 A 
ATOM     17  C   UNL d   1       5.611   0.511   0.817  0.00  0.00     0.052 A 
ATOM     18  C   UNL d   1       6.691   1.381   0.622  0.00  0.00     0.031 A 
ATOM     19  C   UNL d   1       7.389   1.381  -0.586  0.00  0.00     0.002 A 
ATOM     20  C   UNL d   1       7.006   0.520  -1.611  0.00  0.00     0.002 A 
ATOM     21  C   UNL d   1       5.944  -0.365  -1.418  0.00  0.00     0.021 A 
BRANCH  17  22
ATOM     22  N   UNL d   1       4.898   0.507   2.034  0.00  0.00    -0.321 N 
ATOM     23  C   UNL d   1       4.554   1.651   2.735  0.00  0.00     0.263 C 
ATOM     24  O   UNL d   1       4.800   2.787   2.336  0.00  0.00    -0.267 OA
ATOM     25  H   UNL d   1       4.364  -0.327   2.248  0.00  0.00     0.169 HD
BRANCH  23  26
ATOM     26  C   UNL d   1       3.811   1.425   3.969  0.00  0.00     0.072 A 
ATOM     27  S   UNL d   1       3.674  -0.120   4.697  0.00  0.00    -0.097 SA
ATOM     28  C   UNL d   1       2.853   0.518   6.054  0.00  0.00     0.050 A 
ATOM     29  C   UNL d   1       2.632   1.871   5.936  0.00  0.00     0.009 A 
ATOM     30  C   UNL d   1       3.169   2.390   4.724  0.00  0.00     0.025 A 
ENDBRANCH  23  26
ENDBRANCH  17  22
ENDBRANCH  15  16
ENDBRANCH   1  15
TORSDOF 4
