REMARK  3 active torsions:
REMARK  status: ('A' for Active; 'I' for Inactive)
REMARK    1  A    between atoms: N_2  and  C_1 
REMARK    2  A    between atoms: N_3  and  C_4 
REMARK    3  A    between atoms: C_13  and  C_7 
ROOT
ATOM      1  C   UNL d   1       0.421  -0.861  -0.912  0.00  0.00     0.125 A 
ATOM      2  C   UNL d   1       1.636  -1.054  -0.224  0.00  0.00     0.044 A 
ATOM      3  C   UNL d   1      -0.432   0.231  -0.676  0.00  0.00     0.053 A 
ATOM      4  C   UNL d   1      -0.069   1.211   0.251  0.00  0.00     0.012 A 
ATOM      5  C   UNL d   1       1.991  -0.024   0.665  0.00  0.00     0.027 A 
ATOM      6  C   UNL d   1       1.161   1.089   0.900  0.00  0.00     0.017 A 
ENDROOT
BRANCH   2   7
ATOM      7  N   UNL d   1       2.417  -2.223  -0.369  0.00  0.00    -0.277 NA
ATOM      8  C   UNL d   1       3.869  -2.097  -0.113  0.00  0.00     0.134 C 
ATOM      9  C   UNL d   1       4.616  -3.399  -0.288  0.00  0.00    -0.038 A 
ATOM     10  C   UNL d   1       6.019  -3.372  -0.412  0.00  0.00     0.009 A 
ATOM     11  C   UNL d   1       3.959  -4.638  -0.230  0.00  0.00    -0.050 A 
ATOM     12  C   UNL d   1       6.748  -4.559  -0.489  0.00  0.00     0.001 A 
ATOM     13  C   UNL d   1       6.088  -5.785  -0.436  0.00  0.00     0.001 A 
ATOM     14  C   UNL d   1       4.700  -5.825  -0.312  0.00  0.00     0.007 A 
ATOM     15  C   UNL d   1       2.455  -4.696  -0.157  0.00  0.00     0.054 C 
ATOM     16  C   UNL d   1       1.816  -3.389   0.319  0.00  0.00     0.101 C 
ENDBRANCH   2   7
BRANCH   1  17
ATOM     17  N   UNL d   1       0.012  -1.785  -1.951  0.00  0.00    -0.114 N 
ATOM     18  O   UNL d   1       0.620  -1.737  -3.029  0.00  0.00    -0.532 OA
ATOM     19  O   UNL d   1      -0.969  -2.503  -1.704  0.00  0.00    -0.532 OA
ENDBRANCH   1  17
BRANCH   4  20
ATOM     20  C   UNL d   1      -1.026   2.330   0.508  0.00  0.00     0.155 C 
ATOM     21  O   UNL d   1      -2.127   2.308  -0.046  0.00  0.00    -0.293 OA
ATOM     22  C   UNL d   1      -0.649   3.488   1.397  0.00  0.00     0.096 C 
ENDBRANCH   4  20
TORSDOF 3
