REMARK  4 active torsions:
REMARK  status: ('A' for Active; 'I' for Inactive)
REMARK    1  A    between atoms: C_8  and  N_1 
REMARK    2  A    between atoms: S_12  and  C_5 
REMARK    3  A    between atoms: C_22  and  S_12 
REMARK    4  A    between atoms: C_23  and  C_22 
ROOT
ATOM      1  N   UNL d   1      -0.344  -1.322  -0.017  0.00  0.00    -0.273 N 
ATOM      2  C   UNL d   1       0.900  -0.693   0.023  0.00  0.00     0.163 A 
ATOM      3  N   UNL d   1       0.744   0.616   0.010  0.00  0.00    -0.281 N 
ATOM      4  HN  UNL d   1       1.490   1.308   0.074  1.00  0.00     0.188 HD
ATOM      5  C   UNL d   1      -1.238  -0.260  -0.124  0.00  0.00     0.168 A 
ATOM      6  N   UNL d   1      -0.592   0.886  -0.103  0.00  0.00    -0.278 N 
ATOM      7  HN  UNL d   1      -1.013   1.813  -0.162  1.00  0.00     0.189 HD
ATOM      8  C   UNL d   1       2.191  -1.316  -0.028  0.00  0.00     0.120 A 
ATOM      9  O   UNL d   1       2.447  -2.464  -0.737  0.00  0.00    -0.319 OA
ATOM     10  C   UNL d   1       3.368  -0.909   0.580  0.00  0.00     0.043 A 
ATOM     11  C   UNL d   1       3.750  -2.790  -0.552  0.00  0.00     0.142 A 
ATOM     12  C   UNL d   1       4.362  -1.868   0.260  0.00  0.00     0.027 A 
ENDROOT
BRANCH   1  13
ATOM     13  C   UNL d   1      -0.608  -2.725   0.057  0.00  0.00     0.046 A 
ATOM     14  C   UNL d   1      -1.653  -3.298  -0.678  0.00  0.00     0.069 A 
ATOM     15  C   UNL d   1      -1.873  -4.676  -0.624  0.00  0.00     0.104 A 
ATOM     16  O   UNL d   1      -2.931  -5.156  -1.355  0.00  0.00    -0.346 OA
ATOM     17  C   UNL d   1      -1.030  -5.500   0.125  0.00  0.00     0.102 A 
ATOM     18  C   UNL d   1      -3.267  -6.491  -0.960  0.00  0.00     0.202 C 
ATOM     19  C   UNL d   1      -2.014  -7.345  -0.869  0.00  0.00     0.202 C 
ATOM     20  O   UNL d   1      -1.154  -6.864   0.172  0.00  0.00    -0.346 OA
ATOM     21  C   UNL d   1      -0.004  -4.939   0.877  0.00  0.00     0.042 A 
ATOM     22  C   UNL d   1       0.200  -3.556   0.853  0.00  0.00     0.033 A 
ENDBRANCH   1  13
BRANCH   5  23
ATOM     23  S   UNL d   1      -2.973  -0.370  -0.041  0.00  0.00    -0.087 SA
BRANCH  23  24
ATOM     24  C   UNL d   1      -3.454   1.131  -0.949  0.00  0.00     0.121 C 
BRANCH  24  25
ATOM     25  C   UNL d   1      -4.955   1.258  -1.082  0.00  0.00    -0.049 A 
ATOM     26  C   UNL d   1      -5.693   2.006  -0.154  0.00  0.00     0.008 A 
ATOM     27  C   UNL d   1      -7.078   2.144  -0.288  0.00  0.00     0.007 A 
ATOM     28  C   UNL d   1      -7.756   1.532  -1.348  0.00  0.00    -0.062 A 
ATOM     29  C   UNL d   1      -7.026   0.772  -2.267  0.00  0.00     0.007 A 
ATOM     30  C   UNL d   1      -9.241   1.699  -1.485  0.00  0.00     0.048 C 
ATOM     31  C   UNL d   1      -5.640   0.634  -2.135  0.00  0.00     0.008 A 
ENDBRANCH  24  25
ENDBRANCH  23  24
ENDBRANCH   5  23
TORSDOF 4
