REMARK  4 active torsions:
REMARK  status: ('A' for Active; 'I' for Inactive)
REMARK    1  A    between atoms: C_6  and  C_1 
REMARK       I    between atoms: N_8  and  C_6 
REMARK    2  A    between atoms: C_14  and  N_8 
REMARK    3  A    between atoms: C_15  and  N_9 
REMARK    4  A    between atoms: C_20  and  C_15 
ROOT
ATOM      1  C   UNL d   1      -5.553  -1.365   0.570  0.00  0.00     0.268 C 
ATOM      2  N   UNL d   1      -4.618  -1.175  -0.424  0.00  0.00    -0.351 N 
ATOM      3  O   UNL d   1      -5.633  -2.398   1.236  0.00  0.00    -0.266 OA
ATOM      4  H   UNL d   1      -4.379  -0.212  -0.600  0.00  0.00     0.163 HD
ENDROOT
BRANCH   2   5
ATOM      5  C   UNL d   1      -3.617  -2.187  -0.782  0.00  0.00     0.088 C 
ATOM      6  C   UNL d   1      -2.573  -1.573  -1.715  0.00  0.00     0.055 C 
ATOM      7  C   UNL d   1      -3.119  -1.442  -3.131  0.00  0.00     0.275 C 
ATOM      8  N   UNL d   1      -3.325  -2.788  -3.670  0.00  0.00     0.092 N 
ATOM      9  C   UNL d   1      -4.410  -3.457  -2.932  0.00  0.00     0.275 C 
ATOM     10  C   UNL d   1      -4.201  -3.473  -1.404  0.00  0.00     0.055 C 
BRANCH   8  11
ATOM     11  C   UNL d   1      -3.588  -2.710  -5.120  0.00  0.00     0.311 C 
BRANCH  11  12
ATOM     12  C   UNL d   1      -3.640  -4.054  -5.815  0.00  0.00    -0.030 A 
ATOM     13  C   UNL d   1      -4.784  -4.441  -6.526  0.00  0.00     0.009 A 
ATOM     14  C   UNL d   1      -4.840  -5.686  -7.154  0.00  0.00     0.001 A 
ATOM     15  C   UNL d   1      -3.751  -6.552  -7.087  0.00  0.00     0.000 A 
ATOM     16  C   UNL d   1      -2.598  -6.169  -6.403  0.00  0.00     0.001 A 
ATOM     17  C   UNL d   1      -2.541  -4.925  -5.774  0.00  0.00     0.009 A 
ENDBRANCH  11  12
ENDBRANCH   8  11
ENDBRANCH   2   5
BRANCH   1  18
ATOM     18  C   UNL d   1      -6.486  -0.270   0.745  0.00  0.00     0.102 C 
ATOM     19  N   UNL d   1      -7.515  -0.310   1.671  0.00  0.00    -0.351 N 
ATOM     20  C   UNL d   1      -8.439   0.669   1.412  0.00  0.00     0.044 A 
ATOM     21  H   UNL d   1      -7.632  -1.068   2.333  0.00  0.00     0.166 HD
ATOM     22  C   UNL d   1      -9.687   0.928   1.999  0.00  0.00     0.037 A 
ATOM     23  C   UNL d   1      -7.945   1.415   0.341  0.00  0.00    -0.001 A 
ATOM     24  C   UNL d   1     -10.477   1.946   1.440  0.00  0.00    -0.059 A 
ATOM     25  C   UNL d   1     -11.832   2.271   1.997  0.00  0.00     0.048 C 
ATOM     26  C   UNL d   1     -10.019   2.647   0.317  0.00  0.00     0.014 A 
ATOM     27  C   UNL d   1      -8.761   2.396  -0.261  0.00  0.00    -0.049 A 
ATOM     28  C   UNL d   1      -8.393   3.108  -1.531  0.00  0.00     0.049 C 
ATOM     29  C   UNL d   1      -6.649   0.910   0.044  0.00  0.00     0.049 C 
ENDBRANCH   1  18
TORSDOF 4
