REMARK  5 active torsions:
REMARK  status: ('A' for Active; 'I' for Inactive)
REMARK    1  A    between atoms: S_11  and  C_2 
REMARK    2  A    between atoms: C_8  and  C_3 
REMARK    3  A    between atoms: C_19  and  S_11 
REMARK    4  A    between atoms: C_12  and  C_16 
REMARK    5  A    between atoms: C_16  and  C_19 
ROOT
ATOM      1  C   UNL d   1       2.505   0.727   0.045  0.00  0.00     0.090 A 
ATOM      2  C   UNL d   1       2.464  -0.661  -0.129  0.00  0.00     0.092 A 
ATOM      3  C   UNL d   1       1.294   1.464   0.084  0.00  0.00     0.013 A 
ATOM      4  N   UNL d   1       1.304  -1.351  -0.157  0.00  0.00    -0.352 N 
ATOM      5  HN  UNL d   1       1.305  -2.367  -0.247  1.00  0.00     0.166 HD
ATOM      6  C   UNL d   1       0.072   0.739  -0.001  0.00  0.00    -0.022 A 
ATOM      7  C   UNL d   1       0.138  -0.664  -0.063  0.00  0.00     0.017 A 
ATOM      8  C   UNL d   1       3.776   1.370   0.210  0.00  0.00     0.103 C 
ATOM      9  N   UNL d   1       4.798   1.907   0.339  0.00  0.00    -0.191 NA
ATOM     10  C   UNL d   1      -1.285   1.417   0.014  0.00  0.00     0.041 C 
ATOM     11  C   UNL d   1      -1.103  -1.526  -0.097  0.00  0.00     0.057 C 
ATOM     12  C   UNL d   1      -2.456   0.529  -0.405  0.00  0.00     0.005 C 
ATOM     13  C   UNL d   1      -2.375  -0.799   0.323  0.00  0.00     0.006 C 
ENDROOT
BRANCH   2  14
ATOM     14  S   UNL d   1       3.971  -1.614  -0.369  0.00  0.00    -0.103 SA
BRANCH  14  15
ATOM     15  C   UNL d   1       3.334  -3.287  -0.698  0.00  0.00     0.164 C 
BRANCH  15  16
ATOM     16  C   UNL d   1       4.477  -4.174  -1.170  0.00  0.00     0.169 C 
ATOM     17  O   UNL d   1       4.611  -4.450  -2.366  0.00  0.00    -0.291 OA
BRANCH  16  18
ATOM     18  C   UNL d   1       5.466  -4.737  -0.191  0.00  0.00     0.014 A 
ATOM     19  C   UNL d   1       5.369  -4.517   1.189  0.00  0.00     0.060 A 
ATOM     20  C   UNL d   1       6.331  -5.059   2.042  0.00  0.00     0.155 A 
ATOM     21  F   UNL d   1       6.226  -4.842   3.360  0.00  0.00    -0.203 F 
ATOM     22  C   UNL d   1       7.386  -5.813   1.543  0.00  0.00     0.154 A 
ATOM     23  C   UNL d   1       7.497  -6.044   0.179  0.00  0.00     0.046 A 
ATOM     24  F   UNL d   1       8.304  -6.324   2.374  0.00  0.00    -0.203 F 
ATOM     25  C   UNL d   1       6.534  -5.506  -0.687  0.00  0.00     0.018 A 
ENDBRANCH  16  18
ENDBRANCH  15  16
ENDBRANCH  14  15
ENDBRANCH   2  14
BRANCH   3  26
ATOM     26  C   UNL d   1       1.339   2.958   0.143  0.00  0.00     0.017 C 
ATOM     27  S   UNL d   1       0.382   3.853   1.264  0.00  0.00    -0.101 SA
ATOM     28  C   UNL d   1       0.893   5.356   0.638  0.00  0.00     0.050 C 
ATOM     29  C   UNL d   1       1.902   5.205  -0.281  0.00  0.00     0.008 C 
ATOM     30  C   UNL d   1       2.146   3.832  -0.576  0.00  0.00     0.020 C 
ENDBRANCH   3  26
TORSDOF 5
