REMARK  8 active torsions:
REMARK  status: ('A' for Active; 'I' for Inactive)
REMARK    1  A    between atoms: C_5  and  C_1 
REMARK    2  A    between atoms: C_8  and  C_1 
REMARK    3  A    between atoms: C_3  and  C_2 
REMARK    4  A    between atoms: C_4  and  C_9 
REMARK    5  A    between atoms: C_15  and  C_5 
REMARK    6  A    between atoms: C_19  and  C_6 
REMARK    7  A    between atoms: N_10  and  C_8 
REMARK    8  A    between atoms: O_23  and  C_20 
ROOT
ATOM      1  C   UNL d   1       0.972  -0.051   0.081  0.00  0.00     0.078 C 
ATOM      2  C   UNL d   1       0.289  -1.060  -0.499  0.00  0.00     0.044 C 
ENDROOT
BRANCH   1   3
ATOM      3  C   UNL d   1       0.234   1.028   0.802  0.00  0.00     0.201 C 
ATOM      4  O   UNL d   1      -0.932   1.298   0.529  0.00  0.00    -0.286 OA
BRANCH   3   5
ATOM      5  C   UNL d   1       0.944   1.800   1.863  0.00  0.00     0.016 A 
ATOM      6  C   UNL d   1       0.660   3.160   2.012  0.00  0.00     0.018 A 
ATOM      7  C   UNL d   1       1.379   3.925   2.939  0.00  0.00     0.037 A 
ATOM      8  C   UNL d   1       2.382   3.345   3.722  0.00  0.00     0.068 A 
ATOM      9  C   UNL d   1       2.619   1.976   3.616  0.00  0.00     0.037 A 
ATOM     10  C   UNL d   1       1.885   1.203   2.712  0.00  0.00     0.018 A 
BRANCH   8  11
ATOM     11  O   UNL d   1       3.051   4.206   4.546  0.00  0.00    -0.356 OA
ATOM     12  C   UNL d   1       4.147   3.668   5.279  0.00  0.00     0.210 C 
ENDBRANCH   8  11
ENDBRANCH   3   5
ENDBRANCH   1   3
BRANCH   1  13
ATOM     13  C   UNL d   1       2.492  -0.051   0.081  0.00  0.00    -0.033 C 
BRANCH  13  14
ATOM     14  N   UNL d   1       3.753  -0.051   0.081  0.00  0.00    -0.365 N 
ATOM     15  HN2 UNL d   1       2.733  -0.051   0.081  1.00  0.00     0.165 HD
ATOM     16  HN1 UNL d   1       4.773  -0.051   0.081  1.00  0.00     0.165 HD
ENDBRANCH  13  14
ENDBRANCH   1  13
BRANCH   2  17
ATOM     17  C   UNL d   1       0.962  -2.164  -1.106  0.00  0.00     0.007 A 
ATOM     18  S   UNL d   1       1.371  -2.115  -2.776  0.00  0.00    -0.101 SA
ATOM     19  C   UNL d   1       2.164  -3.628  -2.704  0.00  0.00     0.071 A 
ATOM     20  C   UNL d   1       2.095  -4.192  -1.451  0.00  0.00     0.025 A 
ATOM     21  C   UNL d   1       1.387  -3.357  -0.535  0.00  0.00     0.040 A 
BRANCH  20  22
ATOM     22  C   UNL d   1       2.688  -5.465  -1.146  0.00  0.00    -0.061 C 
ATOM     23  C   UNL d   1       3.210  -6.527  -0.937  0.00  0.00    -0.061 C 
BRANCH  23  24
ATOM     24  C   UNL d   1       3.855  -7.793  -0.739  0.00  0.00     0.018 A 
ATOM     25  C   UNL d   1       4.959  -7.896   0.112  0.00  0.00     0.020 A 
ATOM     26  C   UNL d   1       5.601  -9.126   0.285  0.00  0.00     0.001 A 
ATOM     27  C   UNL d   1       5.142 -10.256  -0.392  0.00  0.00     0.000 A 
ATOM     28  C   UNL d   1       4.040 -10.158  -1.240  0.00  0.00     0.001 A 
ATOM     29  C   UNL d   1       3.397  -8.929  -1.414  0.00  0.00     0.020 A 
ENDBRANCH  23  24
ENDBRANCH  20  22
ENDBRANCH   2  17
TORSDOF 8
