REMARK  4 active torsions:
REMARK  status: ('A' for Active; 'I' for Inactive)
REMARK    1  A    between atoms: N_2  and  C_1 
REMARK       I    between atoms: C_5  and  N_2 
REMARK    2  A    between atoms: C_14  and  C_5 
REMARK    3  A    between atoms: C_9  and  O_10 
REMARK    4  A    between atoms: O_10  and  C_14 
ROOT
ATOM      1  N   UNL d   1       2.718  -2.526   0.208  0.00  0.00    -0.306 N 
ATOM      2  C   UNL d   1       1.453  -3.083   0.349  0.00  0.00     0.247 C 
ATOM      3  O   UNL d   1       0.387  -2.475   0.357  0.00  0.00    -0.271 OA
ATOM      4  H   UNL d   1       3.488  -3.185   0.176  0.00  0.00     0.171 HD
ENDROOT
BRANCH   2   5
ATOM      5  C   UNL d   1       1.484  -4.601   0.530  0.00  0.00     0.278 C 
BRANCH   5   6
ATOM      6  O   UNL d   1       2.808  -5.109   0.390  0.00  0.00    -0.340 OA
BRANCH   6   7
ATOM      7  C   UNL d   1       2.975  -6.458   0.567  0.00  0.00     0.091 A 
ATOM      8  C   UNL d   1       4.040  -7.072  -0.116  0.00  0.00     0.069 A 
ATOM      9  C   UNL d   1       4.317  -8.430   0.058  0.00  0.00     0.050 A 
ATOM     10 CL   UNL d   1       5.036  -6.170  -1.204  0.00  0.00    -0.081 Cl
ATOM     11  C   UNL d   1       3.534  -9.179   0.930  0.00  0.00     0.035 A 
ATOM     12  C   UNL d   1       2.481  -8.587   1.620  0.00  0.00     0.026 A 
ATOM     13 CL   UNL d   1       3.878 -10.847   1.170  0.00  0.00    -0.084 Cl
ATOM     14  C   UNL d   1       2.200  -7.227   1.441  0.00  0.00     0.040 A 
ENDBRANCH   6   7
ENDBRANCH   5   6
ENDBRANCH   2   5
BRANCH   1  15
ATOM     15  C   UNL d   1       3.131  -1.229   0.114  0.00  0.00     0.142 C 
ATOM     16  N   UNL d   1       4.390  -0.984  -0.026  0.00  0.00    -0.370 N 
ATOM     17  C   UNL d   1       4.590   0.481  -0.049  0.00  0.00     0.132 C 
ATOM     18  HN  UNL d   1       5.126  -1.686  -0.107  1.00  0.00     0.161 HD
ATOM     19  C   UNL d   1       3.316   1.173  -0.509  0.00  0.00     0.102 C 
ATOM     20  S   UNL d   1       2.033   0.104   0.160  0.00  0.00    -0.092 SA
ENDBRANCH   1  15
TORSDOF 4
