REMARK  5 active torsions:
REMARK  status: ('A' for Active; 'I' for Inactive)
REMARK    1  A    between atoms: C_5  and  C_1 
REMARK    2  A    between atoms: O_14  and  C_1 
REMARK    3  A    between atoms: C_7  and  C_5 
REMARK    4  A    between atoms: C_9  and  C_7 
REMARK    5  A    between atoms: C_19  and  C_11 
ROOT
ATOM      1  C   UNL d   1      -1.340  -1.940  -1.349  0.00  0.00     0.137 C 
ENDROOT
BRANCH   1   2
ATOM      2  C   UNL d   1      -1.317  -3.459  -1.484  0.00  0.00     0.174 A 
ATOM      3  C   UNL d   1      -0.070  -3.991  -2.269  0.00  0.00     0.262 A 
ATOM      4  N   UNL d   1      -0.554  -4.841  -3.264  0.00  0.00    -0.324 N 
ATOM      5  O   UNL d   1       1.105  -3.776  -2.030  0.00  0.00    -0.269 OA
ATOM      6  C   UNL d   1      -1.941  -4.823  -3.316  0.00  0.00     0.044 A 
ATOM      7  H   UNL d   1       0.054  -5.288  -3.934  0.00  0.00     0.169 HD
ATOM      8  C   UNL d   1      -2.454  -4.048  -2.275  0.00  0.00     0.014 A 
ATOM      9  C   UNL d   1      -2.749  -5.395  -4.275  0.00  0.00     0.031 A 
ATOM     10  C   UNL d   1      -3.817  -3.838  -2.147  0.00  0.00     0.032 A 
ATOM     11  C   UNL d   1      -4.645  -4.373  -3.132  0.00  0.00     0.011 A 
ATOM     12  C   UNL d   1      -4.122  -5.142  -4.189  0.00  0.00     0.021 A 
ATOM     13 BR   UNL d   1      -6.499  -3.999  -3.078  0.00  0.00    -0.051 Br
BRANCH   2  14
ATOM     14  O   UNL d   1      -1.356  -4.015  -0.165  0.00  0.00    -0.375 OA
ATOM     15  H   UNL d   1      -1.370  -4.984  -0.264  0.00  0.00     0.211 HD
ENDBRANCH   2  14
ENDBRANCH   1   2
BRANCH   1  16
ATOM     16  C   UNL d   1      -1.432  -1.153  -2.646  0.00  0.00     0.163 C 
ATOM     17  O   UNL d   1      -1.410  -1.669  -3.762  0.00  0.00    -0.292 OA
BRANCH  16  18
ATOM     18  C   UNL d   1      -1.448   0.337  -2.542  0.00  0.00     0.010 A 
ATOM     19  C   UNL d   1      -0.822   1.085  -3.541  0.00  0.00     0.016 A 
ATOM     20  C   UNL d   1      -0.604   2.458  -3.361  0.00  0.00     0.013 A 
ATOM     21  C   UNL d   1      -1.025   3.125  -2.195  0.00  0.00    -0.026 A 
ATOM     22  C   UNL d   1      -1.786   2.376  -1.278  0.00  0.00     0.013 A 
ATOM     23  C   UNL d   1      -1.987   0.998  -1.438  0.00  0.00     0.016 A 
BRANCH  21  24
ATOM     24  C   UNL d   1      -0.615   4.525  -1.902  0.00  0.00    -0.026 A 
ATOM     25  C   UNL d   1      -0.390   4.953  -0.576  0.00  0.00     0.012 A 
ATOM     26  C   UNL d   1       0.055   6.247  -0.281  0.00  0.00     0.001 A 
ATOM     27  C   UNL d   1       0.302   7.148  -1.309  0.00  0.00     0.000 A 
ATOM     28  C   UNL d   1       0.096   6.756  -2.628  0.00  0.00     0.001 A 
ATOM     29  C   UNL d   1      -0.363   5.465  -2.918  0.00  0.00     0.012 A 
ENDBRANCH  21  24
ENDBRANCH  16  18
ENDBRANCH   1  16
TORSDOF 5
