REMARK  5 active torsions:
REMARK  status: ('A' for Active; 'I' for Inactive)
REMARK    1  A    between atoms: C_4  and  C_1 
REMARK    2  A    between atoms: O_8  and  C_1 
REMARK    3  A    between atoms: C_14  and  O_8 
REMARK    4  A    between atoms: O_13  and  C_9 
REMARK    5  A    between atoms: C_12  and  O_13 
ROOT
ATOM      1  C   UNL d   1      -2.983  -0.232   6.885  0.00  0.00    -0.091 C 
ATOM      2  C   UNL d   1      -3.687  -0.571   7.796  0.00  0.00     0.014 C 
ATOM      3  C   UNL d   1      -2.092   0.211   5.795  0.00  0.00     0.268 C 
ENDROOT
BRANCH   3   4
ATOM      4  O   UNL d   1      -2.042  -0.791   4.776  0.00  0.00    -0.340 OA
BRANCH   4   5
ATOM      5  C   UNL d   1      -1.264  -0.519   3.683  0.00  0.00     0.070 A 
ATOM      6  C   UNL d   1      -1.635  -1.176   2.505  0.00  0.00     0.038 A 
ATOM      7  C   UNL d   1      -0.896  -1.016   1.323  0.00  0.00     0.020 A 
ATOM      8  C   UNL d   1       0.237  -0.195   1.309  0.00  0.00     0.039 A 
ATOM      9  C   UNL d   1       0.606   0.463   2.492  0.00  0.00     0.020 A 
ATOM     10  C   UNL d   1      -0.134   0.297   3.673  0.00  0.00     0.038 A 
BRANCH   8  11
ATOM     11  C   UNL d   1       1.079   0.016   0.092  0.00  0.00     0.293 C 
ATOM     12  O   UNL d   1       2.008   0.808   0.057  0.00  0.00    -0.259 OA
BRANCH  11  13
ATOM     13  O   UNL d   1       0.680  -0.779  -0.934  0.00  0.00    -0.318 OA
BRANCH  13  14
ATOM     14  C   UNL d   1       1.398  -0.619  -2.173  0.00  0.00     0.174 C 
ATOM     15  C   UNL d   1       2.673  -1.444  -2.184  0.00  0.00     0.034 C 
ENDBRANCH  13  14
ENDBRANCH  11  13
ENDBRANCH   8  11
ENDBRANCH   4   5
ENDBRANCH   3   4
TORSDOF 5
