REMARK  5 active torsions:
REMARK  status: ('A' for Active; 'I' for Inactive)
REMARK    1  A    between atoms: C_2  and  N_1 
REMARK       I    between atoms: C_3  and  N_1 
REMARK       I    between atoms: N_5  and  C_3 
REMARK    2  A    between atoms: C_10  and  N_5 
REMARK    3  A    between atoms: C_11  and  C_10 
REMARK    4  A    between atoms: C_12  and  C_11 
REMARK    5  A    between atoms: O_13  and  C_11 
ROOT
ATOM      1  N   UNL d   1       3.192  -0.994   0.657  0.00  0.00    -0.303 N 
ATOM      2  C   UNL d   1       2.630  -0.054  -0.174  0.00  0.00     0.321 C 
ATOM      3  N   UNL d   1       3.032   1.217   0.162  0.00  0.00    -0.340 N 
ATOM      4  O   UNL d   1       1.822  -0.265  -1.070  0.00  0.00    -0.247 OA
ATOM      5  H   UNL d   1       3.497  -0.685   1.566  0.00  0.00     0.171 HD
ATOM      6  H   UNL d   1       3.856   1.350   0.735  0.00  0.00     0.164 HD
ENDROOT
BRANCH   3   7
ATOM      7  C   UNL d   1       2.415   2.411  -0.399  0.00  0.00     0.161 C 
BRANCH   7   8
ATOM      8  C   UNL d   1       3.458   3.510  -0.687  0.00  0.00     0.169 C 
BRANCH   8   9
ATOM      9  C   UNL d   1       2.897   4.833  -1.185  0.00  0.00    -0.028 A 
ATOM     10  C   UNL d   1       3.621   6.023  -0.974  0.00  0.00     0.010 A 
ATOM     11  C   UNL d   1       3.154   7.251  -1.452  0.00  0.00     0.001 A 
ATOM     12  C   UNL d   1       1.963   7.312  -2.167  0.00  0.00     0.000 A 
ATOM     13  C   UNL d   1       1.245   6.144  -2.412  0.00  0.00     0.001 A 
ATOM     14  C   UNL d   1       1.711   4.916  -1.928  0.00  0.00     0.010 A 
ENDBRANCH   8   9
BRANCH   8  15
ATOM     15  O   UNL d   1       4.196   3.707   0.535  0.00  0.00    -0.389 OA
ATOM     16  H   UNL d   1       3.668   4.317   1.081  0.00  0.00     0.210 HD
ENDBRANCH   8  15
ENDBRANCH   7   8
ENDBRANCH   3   7
BRANCH   1  17
ATOM     17  C   UNL d   1       2.884  -2.328   0.539  0.00  0.00     0.077 A 
ATOM     18  S   UNL d   1       3.021  -3.213   1.982  0.00  0.00    -0.084 SA
ATOM     19  C   UNL d   1       2.395  -4.621   1.232  0.00  0.00     0.052 A 
ATOM     20  C   UNL d   1       2.185  -4.434  -0.118  0.00  0.00     0.010 A 
ATOM     21  C   UNL d   1       2.472  -3.096  -0.522  0.00  0.00     0.038 A 
ENDBRANCH   1  17
TORSDOF 5
