REMARK  2 active torsions:
REMARK  status: ('A' for Active; 'I' for Inactive)
REMARK    1  A    between atoms: C_8  and  C_1 
REMARK    2  A    between atoms: C_9  and  C_8 
ROOT
ATOM      1  C   UNL d   1       2.286   0.386  -0.127  0.00  0.00     0.099 A 
ATOM      2  C   UNL d   1       1.337  -0.752  -0.186  0.00  0.00     0.268 A 
ATOM      3  N   UNL d   1      -0.013  -0.418  -0.060  0.00  0.00    -0.274 N 
ATOM      4  C   UNL d   1       1.762   1.609   0.018  0.00  0.00     0.111 A 
ATOM      5  N   UNL d   1       0.430   1.910   0.049  0.00  0.00    -0.351 N 
ATOM      6  HN  UNL d   1       0.102   2.875   0.094  1.00  0.00     0.166 HD
ATOM      7  C   UNL d   1      -0.401   0.914   0.020  0.00  0.00     0.114 A 
ATOM      8  C   UNL d   1      -0.965  -1.435  -0.053  0.00  0.00     0.102 A 
ATOM      9  O   UNL d   1       1.741  -1.897  -0.384  0.00  0.00    -0.267 OA
ATOM     10  C   UNL d   1      -1.861   1.198   0.069  0.00  0.00     0.049 A 
ATOM     11  C   UNL d   1      -2.278  -1.175   0.012  0.00  0.00     0.018 A 
ATOM     12  C   UNL d   1      -2.738   0.188   0.063  0.00  0.00     0.005 A 
ENDROOT
BRANCH   1  13
ATOM     13  C   UNL d   1       3.764   0.190  -0.134  0.00  0.00     0.206 C 
ATOM     14  O   UNL d   1       4.231  -0.733   0.535  0.00  0.00    -0.286 OA
BRANCH  13  15
ATOM     15  C   UNL d   1       4.602   1.133  -0.881  0.00  0.00     0.056 A 
ATOM     16  S   UNL d   1       6.259   1.286  -0.449  0.00  0.00    -0.098 SA
ATOM     17  C   UNL d   1       6.523   2.522  -1.597  0.00  0.00     0.050 A 
ATOM     18  C   UNL d   1       5.390   2.797  -2.327  0.00  0.00     0.009 A 
ATOM     19  C   UNL d   1       4.289   1.979  -1.933  0.00  0.00     0.023 A 
ENDBRANCH  13  15
ENDBRANCH   1  13
TORSDOF 2
