REMARK  5 active torsions:
REMARK  status: ('A' for Active; 'I' for Inactive)
REMARK    1  A    between atoms: N_3  and  C_1 
REMARK    2  A    between atoms: N_4  and  C_1 
REMARK    3  A    between atoms: C_2  and  N_3 
REMARK    4  A    between atoms: C_5  and  N_4 
REMARK       I    between atoms: C_9  and  N_10 
REMARK    5  A    between atoms: N_10  and  C_11 
ROOT
ATOM      1  N   UNL d   1       0.441   0.203  -1.106  0.00  0.00    -0.333 N 
ATOM      2  H   UNL d   1      -0.484   0.621  -1.119  0.00  0.00     0.168 HD
ENDROOT
BRANCH   1   3
ATOM      3  C   UNL d   1       1.128   0.232  -2.334  0.00  0.00     0.042 A 
ATOM      4  C   UNL d   1       0.611   1.128  -3.289  0.00  0.00     0.059 A 
ATOM      5  C   UNL d   1       1.150   1.222  -4.570  0.00  0.00     0.036 A 
ATOM      6  C   UNL d   1       2.219   0.390  -4.904  0.00  0.00     0.030 A 
ATOM      7  C   UNL d   1       2.714  -0.533  -3.978  0.00  0.00     0.011 A 
ATOM      8  C   UNL d   1       2.161  -0.647  -2.690  0.00  0.00    -0.035 A 
ATOM      9  C   UNL d   1       2.667  -1.776  -1.835  0.00  0.00     0.050 C 
BRANCH   5  10
ATOM     10  N   UNL d   1       0.677   2.112  -5.559  0.00  0.00    -0.327 N 
ATOM     11  C   UNL d   1      -0.379   2.999  -5.453  0.00  0.00     0.218 C 
ATOM     12  O   UNL d   1      -1.112   3.158  -4.482  0.00  0.00    -0.274 OA
ATOM     13  C   UNL d   1      -0.591   3.822  -6.699  0.00  0.00     0.117 C 
ATOM     14  H   UNL d   1       1.168   2.084  -6.444  0.00  0.00     0.169 HD
ENDBRANCH   5  10
ENDBRANCH   1   3
BRANCH   1  15
ATOM     15  C   UNL d   1       0.920   0.117   0.180  0.00  0.00     0.176 C 
ATOM     16  S   UNL d   1       2.411   0.633   0.731  0.00  0.00    -0.041 SA
BRANCH  15  17
ATOM     17  N   UNL d   1      -0.028  -0.284   1.099  0.00  0.00    -0.333 N 
ATOM     18  H   UNL d   1       0.175  -0.029   2.059  0.00  0.00     0.168 HD
BRANCH  17  19
ATOM     19  C   UNL d   1      -1.108  -1.176   0.886  0.00  0.00     0.040 A 
ATOM     20  C   UNL d   1      -2.200  -1.187   1.772  0.00  0.00    -0.034 A 
ATOM     21  C   UNL d   1      -3.208  -2.159   1.599  0.00  0.00     0.032 A 
ATOM     22  C   UNL d   1      -2.386  -0.189   2.881  0.00  0.00     0.050 C 
ATOM     23  C   UNL d   1      -3.138  -3.089   0.563  0.00  0.00     0.034 A 
ATOM     24  C   UNL d   1      -2.070  -3.067  -0.321  0.00  0.00     0.026 A 
ATOM     25 CL   UNL d   1      -4.373  -4.271   0.380  0.00  0.00    -0.084 Cl
ATOM     26  C   UNL d   1      -1.063  -2.113  -0.157  0.00  0.00     0.032 A 
ENDBRANCH  17  19
ENDBRANCH  15  17
ENDBRANCH   1  15
TORSDOF 5
