REMARK  8 active torsions:
REMARK  status: ('A' for Active; 'I' for Inactive)
REMARK    1  A    between atoms: C_4  and  C_1 
REMARK    2  A    between atoms: N_2  and  O_9 
REMARK    3  A    between atoms: O_9  and  C_4 
REMARK    4  A    between atoms: C_5  and  C_16 
REMARK    5  A    between atoms: C_11  and  C_6 
REMARK    6  A    between atoms: N_22  and  C_6 
REMARK    7  A    between atoms: O_15  and  C_10 
REMARK    8  A    between atoms: C_16  and  O_15 
ROOT
ATOM      1  C   UNL d   1      -0.634   1.380  -0.102  0.00  0.00     0.316 C 
ATOM      2  O   UNL d   1      -1.142   0.269  -0.158  0.00  0.00    -0.257 OA
ENDROOT
BRANCH   1   3
ATOM      3  C   UNL d   1       0.826   1.592   0.023  0.00  0.00     0.057 A 
ATOM      4  C   UNL d   1       1.655   0.483   0.102  0.00  0.00     0.107 A 
ATOM      5  N   UNL d   1       3.011   0.551   0.127  0.00  0.00    -0.346 N 
ATOM      6  C   UNL d   1       3.582   1.770   0.061  0.00  0.00     0.142 A 
ATOM      7  HN  UNL d   1       3.580  -0.293   0.195  1.00  0.00     0.167 HD
ATOM      8  C   UNL d   1       2.832   2.938  -0.014  0.00  0.00     0.057 A 
ATOM      9  C   UNL d   1       1.437   2.846  -0.029  0.00  0.00     0.023 A 
BRANCH   6  10
ATOM     10  O   UNL d   1       4.942   1.723  -0.019  0.00  0.00    -0.327 OA
BRANCH  10  11
ATOM     11  C   UNL d   1       5.646   2.800   0.603  0.00  0.00     0.294 C 
BRANCH  11  12
ATOM     12  C   UNL d   1       7.154   2.557   0.601  0.00  0.00     0.408 C 
ATOM     13  F   UNL d   1       7.509   1.390   0.025  0.00  0.00    -0.169 F 
ATOM     14  F   UNL d   1       7.791   3.549  -0.072  0.00  0.00    -0.169 F 
ATOM     15  F   UNL d   1       7.645   2.558   1.863  0.00  0.00    -0.169 F 
ENDBRANCH  11  12
ENDBRANCH  10  11
ENDBRANCH   6  10
ENDBRANCH   1   3
BRANCH   1  16
ATOM     16  O   UNL d   1      -1.283   2.576  -0.161  0.00  0.00    -0.193 OA
BRANCH  16  17
ATOM     17  N   UNL d   1      -2.234   2.525  -1.200  0.00  0.00    -0.246 N 
ATOM     18  C   UNL d   1      -3.024   3.556  -1.182  0.00  0.00     0.109 C 
ATOM     19  HN  UNL d   1      -2.294   1.770  -1.884  1.00  0.00     0.196 HD
BRANCH  18  20
ATOM     20  C   UNL d   1      -3.962   3.728  -2.337  0.00  0.00     0.004 A 
ATOM     21  C   UNL d   1      -4.380   2.614  -3.075  0.00  0.00     0.016 A 
ATOM     22  C   UNL d   1      -5.220   2.780  -4.180  0.00  0.00     0.024 A 
ATOM     23  C   UNL d   1      -5.631   4.060  -4.552  0.00  0.00     0.034 A 
ATOM     24  C   UNL d   1      -5.213   5.175  -3.827  0.00  0.00     0.024 A 
ATOM     25 CL   UNL d   1      -6.651   4.267  -5.922  0.00  0.00    -0.084 Cl
ATOM     26  C   UNL d   1      -4.378   5.011  -2.718  0.00  0.00     0.016 A 
ENDBRANCH  18  20
BRANCH  18  27
ATOM     27  N   UNL d   1      -3.045   4.489  -0.169  0.00  0.00    -0.286 NA
ATOM     28  H   UNL d   1      -2.630   4.126   0.683  0.00  0.00     0.125 HD
ATOM     29  H   UNL d   1      -3.957   4.897   0.014  0.00  0.00     0.125 HD
ENDBRANCH  18  27
ENDBRANCH  16  17
ENDBRANCH   1  16
TORSDOF 8
