REMARK  4 active torsions:
REMARK  status: ('A' for Active; 'I' for Inactive)
REMARK    1  A    between atoms: C_12  and  C_3 
REMARK    2  A    between atoms: C_11  and  C_6 
REMARK    3  A    between atoms: S_13  and  C_11 
REMARK    4  A    between atoms: C_18  and  S_13 
ROOT
ATOM      1  C   UNL d   1       0.166   0.478   1.310  0.00  0.00     0.172 A 
ATOM      2  N   UNL d   1       0.771   1.197   0.328  0.00  0.00    -0.235 N 
ATOM      3  C   UNL d   1      -0.773   2.348   1.172  0.00  0.00     0.207 A 
ATOM      4  N   UNL d   1      -0.799   1.142   1.887  0.00  0.00    -0.316 N 
ATOM      5  HN  UNL d   1      -1.410   0.858   2.653  1.00  0.00     0.169 HD
ATOM      6  C   UNL d   1       2.142  -0.600   0.290  0.00  0.00     0.090 A 
ATOM      7  N   UNL d   1       0.164   2.387   0.193  0.00  0.00    -0.273 N 
ATOM      8  HN  UNL d   1       0.359   3.132  -0.476  1.00  0.00     0.189 HD
ATOM      9  C   UNL d   1       1.874   0.609  -0.257  0.00  0.00     0.054 A 
ATOM     10  S   UNL d   1       0.963  -1.050   1.550  0.00  0.00    -0.045 SA
ATOM     11  C   UNL d   1       2.596   1.388  -1.311  0.00  0.00     0.072 C 
ENDROOT
BRANCH   6  12
ATOM     12  C   UNL d   1       3.400  -1.372   0.021  0.00  0.00     0.233 C 
ATOM     13  O   UNL d   1       4.365  -0.798  -0.470  0.00  0.00    -0.279 OA
BRANCH  12  14
ATOM     14  S   UNL d   1       3.487  -3.055   0.518  0.00  0.00    -0.047 SA
BRANCH  14  15
ATOM     15  C   UNL d   1       4.418  -3.932  -0.746  0.00  0.00     0.008 A 
ATOM     16  C   UNL d   1       5.028  -3.341  -1.857  0.00  0.00     0.019 A 
ATOM     17  C   UNL d   1       5.559  -4.120  -2.894  0.00  0.00     0.008 A 
ATOM     18  C   UNL d   1       5.503  -5.510  -2.842  0.00  0.00    -0.062 A 
ATOM     19  C   UNL d   1       5.001  -6.117  -1.687  0.00  0.00     0.008 A 
ATOM     20  C   UNL d   1       5.850  -6.323  -4.057  0.00  0.00     0.048 C 
ATOM     21  C   UNL d   1       4.468  -5.332  -0.651  0.00  0.00     0.019 A 
ENDBRANCH  14  15
ENDBRANCH  12  14
ENDBRANCH   6  12
BRANCH   3  22
ATOM     22  C   UNL d   1      -1.659   3.542   1.476  0.00  0.00     0.450 C 
ATOM     23  F   UNL d   1      -2.667   3.249   2.342  0.00  0.00    -0.163 F 
ATOM     24  F   UNL d   1      -0.954   4.562   2.035  0.00  0.00    -0.163 F 
ATOM     25  F   UNL d   1      -2.249   4.044   0.356  0.00  0.00    -0.163 F 
ENDBRANCH   3  22
TORSDOF 4
