REMARK  3 active torsions:
REMARK  status: ('A' for Active; 'I' for Inactive)
REMARK       I    between atoms: N_2  and  C_1 
REMARK       I    between atoms: N_4  and  C_1 
REMARK    1  A    between atoms: C_5  and  N_3 
REMARK    2  A    between atoms: C_13  and  N_4 
REMARK    3  A    between atoms: C_7  and  C_8 
ROOT
ATOM      1  C   UNL d   1       0.992  -0.188  -0.118  0.00  0.00     0.323 C 
ATOM      2  N   UNL d   1       0.252  -0.806  -1.118  0.00  0.00    -0.331 N 
ATOM      3  N   UNL d   1      -0.745  -1.448  -3.723  0.00  0.00    -0.378 N 
ATOM      4  N   UNL d   1       0.337   0.789   0.595  0.00  0.00    -0.309 N 
ATOM      5  O   UNL d   1       2.163  -0.509   0.069  0.00  0.00    -0.247 OA
ATOM      6  C   UNL d   1       0.910  -1.852  -1.920  0.00  0.00     0.147 C 
ATOM      7  C   UNL d   1      -1.174  -0.634  -1.436  0.00  0.00     0.147 C 
ATOM      8  C   UNL d   1       0.684  -1.652  -3.429  0.00  0.00     0.143 C 
ATOM      9  C   UNL d   1      -1.391  -0.385  -2.941  0.00  0.00     0.143 C 
ATOM     10  H   UNL d   1      -0.611   0.994   0.349  0.00  0.00     0.170 HD
ENDROOT
BRANCH   4  11
ATOM     11  C   UNL d   1       0.880   1.637   1.585  0.00  0.00     0.036 A 
ATOM     12  C   UNL d   1       2.195   1.575   2.032  0.00  0.00     0.030 A 
ATOM     13  C   UNL d   1       2.684   2.522   2.938  0.00  0.00     0.010 A 
ATOM     14  C   UNL d   1       1.875   3.559   3.431  0.00  0.00    -0.051 A 
ATOM     15  C   UNL d   1       0.533   3.568   3.026  0.00  0.00     0.010 A 
ATOM     16  C   UNL d   1       0.043   2.622   2.116  0.00  0.00     0.030 A 
BRANCH  14  17
ATOM     17  C   UNL d   1       2.486   4.641   4.336  0.00  0.00    -0.024 C 
ATOM     18  C   UNL d   1       1.480   5.736   4.749  0.00  0.00     0.019 C 
ATOM     19  C   UNL d   1       3.039   4.001   5.626  0.00  0.00     0.019 C 
ATOM     20  C   UNL d   1       3.640   5.342   3.584  0.00  0.00     0.019 C 
ENDBRANCH  14  17
ENDBRANCH   4  11
BRANCH   3  21
ATOM     21  C   UNL d   1      -1.456  -2.221  -4.616  0.00  0.00     0.030 A 
ATOM     22  C   UNL d   1      -2.523  -1.679  -5.357  0.00  0.00     0.032 A 
ATOM     23  C   UNL d   1      -3.280  -2.454  -6.239  0.00  0.00     0.044 A 
ATOM     24  C   UNL d   1      -2.975  -3.795  -6.398  0.00  0.00     0.116 A 
ATOM     25  C   UNL d   1      -1.923  -4.366  -5.699  0.00  0.00     0.044 A 
ATOM     26  F   UNL d   1      -3.705  -4.546  -7.233  0.00  0.00    -0.206 F 
ATOM     27  C   UNL d   1      -1.169  -3.580  -4.821  0.00  0.00     0.032 A 
ENDBRANCH   3  21
TORSDOF 3
