REMARK  5 active torsions:
REMARK  status: ('A' for Active; 'I' for Inactive)
REMARK    1  A    between atoms: C_7  and  C_1 
REMARK    2  A    between atoms: C_10  and  C_6 
REMARK       I    between atoms: C_9  and  N_14 
REMARK       I    between atoms: N_13  and  C_9 
REMARK    3  A    between atoms: C_12  and  C_10 
REMARK    4  A    between atoms: C_11  and  N_13 
REMARK       I    between atoms: N_17  and  C_12 
REMARK    5  A    between atoms: N_14  and  N_17 
ROOT
ATOM      1  C   UNL d   1       2.439  -2.102   0.189  0.00  0.00     0.223 C 
ATOM      2  N   UNL d   1       3.030  -0.894   0.552  0.00  0.00    -0.170 NA
ATOM      3  O   UNL d   1       3.106  -3.134   0.079  0.00  0.00    -0.278 OA
ATOM      4  H   UNL d   1       2.450  -0.284   1.137  0.00  0.00     0.156 HD
ENDROOT
BRANCH   1   5
ATOM      5  C   UNL d   1       0.970  -2.102  -0.176  0.00  0.00     0.185 C 
BRANCH   5   6
ATOM      6  C   UNL d   1       0.146  -1.213   0.661  0.00  0.00     0.157 A 
ATOM      7  N   UNL d   1       0.478  -0.443   1.667  0.00  0.00    -0.321 N 
ATOM      8  C   UNL d   1      -0.756  -0.047   2.164  0.00  0.00     0.156 A 
ATOM      9  HN  UNL d   1       1.410  -0.195   2.001  1.00  0.00     0.169 HD
ATOM     10  N   UNL d   1      -1.791  -0.455   1.410  0.00  0.00    -0.241 N 
ATOM     11  O   UNL d   1      -1.196  -1.235   0.422  0.00  0.00    -0.222 OA
ATOM     12  HN  UNL d   1      -2.781  -0.243   1.533  1.00  0.00     0.196 HD
BRANCH   8  13
ATOM     13  C   UNL d   1      -0.888   0.618   3.455  0.00  0.00     0.094 A 
ATOM     14  N   UNL d   1       0.269   0.924   4.108  0.00  0.00    -0.360 N 
ATOM     15  C   UNL d   1       0.130   1.381   5.371  0.00  0.00     0.105 A 
ATOM     16  HN  UNL d   1       1.184   0.814   3.670  1.00  0.00     0.165 HD
ATOM     17  C   UNL d   1      -1.107   1.544   5.971  0.00  0.00     0.104 A 
ATOM     18  N   UNL d   1      -2.264   1.279   5.324  0.00  0.00    -0.372 N 
ATOM     19  C   UNL d   1      -2.127   0.809   4.057  0.00  0.00     0.121 A 
ATOM     20  HN  UNL d   1      -3.177   1.421   5.758  1.00  0.00     0.164 HD
ENDBRANCH   8  13
ENDBRANCH   5   6
ENDBRANCH   1   5
BRANCH   2  21
ATOM     21  N   UNL d   1       4.370  -1.037   0.992  0.00  0.00    -0.266 N 
ATOM     22  C   UNL d   1       5.381  -0.141   0.743  0.00  0.00     0.335 C 
ATOM     23  N   UNL d   1       4.978   1.114   0.362  0.00  0.00    -0.308 N 
ATOM     24  O   UNL d   1       6.542  -0.507   0.928  0.00  0.00    -0.246 OA
ATOM     25  H   UNL d   1       3.978   1.245   0.344  0.00  0.00     0.170 HD
ATOM     26  H   UNL d   1       4.692  -2.001   1.102  0.00  0.00     0.186 HD
BRANCH  23  27
ATOM     27  C   UNL d   1       5.809   2.247   0.199  0.00  0.00     0.039 A 
ATOM     28  C   UNL d   1       7.205   2.179   0.144  0.00  0.00     0.053 A 
ATOM     29  C   UNL d   1       7.972   3.346   0.098  0.00  0.00     0.037 A 
ATOM     30 CL   UNL d   1       9.690   3.240   0.070  0.00  0.00    -0.084 Cl
ATOM     31  C   UNL d   1       7.363   4.595   0.093  0.00  0.00     0.048 A 
ATOM     32  C   UNL d   1       5.973   4.664   0.097  0.00  0.00     0.037 A 
ATOM     33  C   UNL d   1       5.196   3.503   0.135  0.00  0.00     0.053 A 
ATOM     34 CL   UNL d   1       5.204   6.205   0.088  0.00  0.00    -0.084 Cl
ENDBRANCH  23  27
ENDBRANCH   2  21
TORSDOF 5
