REMARK  3 active torsions:
REMARK  status: ('A' for Active; 'I' for Inactive)
REMARK    1  A    between atoms: C_10  and  C_6 
REMARK    2  A    between atoms: C_12  and  C_7 
REMARK    3  A    between atoms: C_8  and  C_9 
ROOT
ATOM      1  O   UNL d   1      -1.078   0.029  -0.012  0.00  0.00    -0.273 OA
ATOM      2  N   UNL d   1       1.054  -0.638   0.079  0.00  0.00    -0.277 N 
ATOM      3  HN  UNL d   1       1.876  -1.239   0.121  1.00  0.00     0.189 HD
ATOM      4  N   UNL d   1       1.041   0.742   0.065  0.00  0.00    -0.277 N 
ATOM      5  HN  UNL d   1       1.852   1.360   0.094  1.00  0.00     0.189 HD
ATOM      6  C   UNL d   1      -0.204  -1.026   0.029  0.00  0.00     0.174 A 
ATOM      7  C   UNL d   1      -0.225   1.103   0.006  0.00  0.00     0.174 A 
ENDROOT
BRANCH   6   8
ATOM      8  C   UNL d   1      -0.770  -2.368  -0.016  0.00  0.00     0.017 A 
ATOM      9  C   UNL d   1      -2.156  -2.594  -0.070  0.00  0.00     0.032 A 
ATOM     10  C   UNL d   1      -2.680  -3.898  -0.137  0.00  0.00     0.048 A 
ATOM     11  C   UNL d   1      -1.794  -4.985  -0.149  0.00  0.00     0.016 A 
ATOM     12  C   UNL d   1      -0.417  -4.776  -0.089  0.00  0.00     0.002 A 
ATOM     13  C   UNL d   1       0.088  -3.477  -0.021  0.00  0.00     0.016 A 
BRANCH  10  14
ATOM     14  C   UNL d   1      -4.168  -4.141  -0.204  0.00  0.00     0.417 C 
ATOM     15  F   UNL d   1      -4.907  -2.998  -0.166  0.00  0.00    -0.166 F 
ATOM     16  F   UNL d   1      -4.539  -4.787  -1.344  0.00  0.00    -0.166 F 
ATOM     17  F   UNL d   1      -4.617  -4.910   0.826  0.00  0.00    -0.166 F 
ENDBRANCH  10  14
ENDBRANCH   6   8
BRANCH   7  18
ATOM     18  C   UNL d   1      -0.820   2.428  -0.073  0.00  0.00     0.019 A 
ATOM     19  C   UNL d   1       0.001   3.560  -0.081  0.00  0.00     0.033 A 
ATOM     20  C   UNL d   1      -0.590   4.807  -0.193  0.00  0.00     0.088 A 
ATOM     21  N   UNL d   1      -1.923   4.997  -0.288  0.00  0.00    -0.375 N 
ATOM     22  C   UNL d   1      -2.700   3.896  -0.269  0.00  0.00     0.088 A 
ATOM     23  HN  UNL d   1      -2.323   5.932  -0.371  1.00  0.00     0.164 HD
ATOM     24  C   UNL d   1      -2.203   2.607  -0.163  0.00  0.00     0.033 A 
ENDBRANCH   7  18
TORSDOF 3
