REMARK  6 active torsions:
REMARK  status: ('A' for Active; 'I' for Inactive)
REMARK       I    between atoms: C_2  and  N_1 
REMARK       I    between atoms: C_5  and  N_1 
REMARK    1  A    between atoms: C_3  and  C_2 
REMARK    2  A    between atoms: C_4  and  C_10 
REMARK    3  A    between atoms: O_19  and  C_5 
REMARK    4  A    between atoms: N_11  and  N_6 
REMARK    5  A    between atoms: C_18  and  N_11 
REMARK    6  A    between atoms: C_23  and  O_19 
ROOT
ATOM      1  C   UNL d   1       0.922   0.156   2.626  0.00  0.00     0.197 C 
ATOM      2  N   UNL d   1       0.341   0.249   3.789  0.00  0.00    -0.286 N 
ATOM      3  HN  UNL d   1       0.896   0.378   4.635  1.00  0.00     0.188 HD
ATOM      4  C   UNL d   1       0.050  -0.035   1.482  0.00  0.00     0.125 C 
ATOM      5  N   UNL d   1      -0.742  -0.194   0.644  0.00  0.00    -0.190 NA
ENDROOT
BRANCH   1   6
ATOM      6  C   UNL d   1       2.411   0.231   2.395  0.00  0.00     0.288 C 
ATOM      7  N   UNL d   1       3.363   0.366   3.395  0.00  0.00    -0.267 N 
ATOM      8  C   UNL d   1       3.333   0.479   4.758  0.00  0.00     0.367 C 
ATOM      9  H   UNL d   1       4.306   0.383   3.029  0.00  0.00     0.174 HD
ATOM     10  O   UNL d   1       2.360   0.517   5.482  0.00  0.00    -0.238 OA
ATOM     11  O   UNL d   1       2.800   0.160   1.228  0.00  0.00    -0.265 OA
BRANCH   8  12
ATOM     12  O   UNL d   1       4.613   0.555   5.199  0.00  0.00    -0.304 OA
BRANCH  12  13
ATOM     13  C   UNL d   1       4.784   0.709   6.618  0.00  0.00     0.176 C 
ATOM     14  C   UNL d   1       4.729  -0.640   7.312  0.00  0.00     0.034 C 
ENDBRANCH  12  13
ENDBRANCH   8  12
ENDBRANCH   1   6
BRANCH   2  15
ATOM     15  N   UNL d   1      -1.024   0.171   3.860  0.00  0.00    -0.300 N 
ATOM     16  H   UNL d   1      -1.618  -0.058   3.062  0.00  0.00     0.187 HD
BRANCH  15  17
ATOM     17  C   UNL d   1      -1.689   0.131   5.096  0.00  0.00     0.049 A 
ATOM     18  C   UNL d   1      -1.056   0.405   6.311  0.00  0.00     0.047 A 
ATOM     19  C   UNL d   1      -1.765   0.370   7.524  0.00  0.00     0.050 A 
ATOM     20  C   UNL d   1      -3.133   0.054   7.507  0.00  0.00     0.016 A 
ATOM     21  C   UNL d   1      -3.776  -0.223   6.304  0.00  0.00     0.003 A 
ATOM     22  C   UNL d   1      -3.057  -0.181   5.110  0.00  0.00     0.031 A 
BRANCH  19  23
ATOM     23  C   UNL d   1      -1.077   0.667   8.831  0.00  0.00     0.417 C 
ATOM     24  F   UNL d   1       0.253   0.935   8.716  0.00  0.00    -0.166 F 
ATOM     25  F   UNL d   1      -1.618   1.744   9.469  0.00  0.00    -0.166 F 
ATOM     26  F   UNL d   1      -1.171  -0.368   9.713  0.00  0.00    -0.166 F 
ENDBRANCH  19  23
ENDBRANCH  15  17
ENDBRANCH   2  15
TORSDOF 6
