REMARK  1 active torsions:
REMARK  status: ('A' for Active; 'I' for Inactive)
REMARK    1  A    between atoms: C_8  and  C_3 
ROOT
ATOM      1  C   UNL d   1       2.483   1.596   0.006  0.00  0.00     0.010 A 
ATOM      2  C   UNL d   1       3.464   1.517  -0.999  0.00  0.00     0.025 A 
ATOM      3  C   UNL d   1       4.569   2.350  -0.918  0.00  0.00    -0.022 A 
ATOM      4  C   UNL d   1       4.704   3.257   0.119  0.00  0.00     0.075 A 
ATOM      5  O   UNL d   1       5.843   4.014   0.043  0.00  0.00    -0.350 OA
ATOM      6  C   UNL d   1       2.640   2.533   1.053  0.00  0.00     0.018 A 
ATOM      7  C   UNL d   1       3.754   3.377   1.110  0.00  0.00     0.038 A 
ATOM      8  C   UNL d   1       6.632   3.339  -0.966  0.00  0.00     0.180 C 
ATOM      9  C   UNL d   1       5.705   2.506  -1.853  0.00  0.00     0.068 C 
ENDROOT
BRANCH   1  10
ATOM     10  C   UNL d   1       1.312   0.724  -0.023  0.00  0.00     0.137 A 
ATOM     11  N   UNL d   1       0.317   0.793   0.931  0.00  0.00    -0.323 N 
ATOM     12  C   UNL d   1      -0.515  -0.143   0.542  0.00  0.00     0.144 A 
ATOM     13  HN  UNL d   1       0.247   1.416   1.736  1.00  0.00     0.169 HD
ATOM     14  O   UNL d   1      -0.111  -0.794  -0.583  0.00  0.00    -0.223 OA
ATOM     15  C   UNL d   1      -1.791  -0.577   1.136  0.00  0.00     0.100 C 
ATOM     16  N   UNL d   1       1.100  -0.218  -0.959  0.00  0.00    -0.242 N 
ATOM     17  HN  UNL d   1       1.689  -0.456  -1.757  1.00  0.00     0.196 HD
ENDBRANCH   1  10
TORSDOF 1
