REMARK  2 active torsions:
REMARK  status: ('A' for Active; 'I' for Inactive)
REMARK    1  A    between atoms: C_8  and  C_3 
REMARK    2  A    between atoms: C_12  and  C_8 
ROOT
ATOM      1  N   UNL d   1      -2.611  -5.731   1.369  0.00  0.00    -0.197 NA
ATOM      2  C   UNL d   1      -2.284  -4.621   1.397  0.00  0.00     0.059 C 
ATOM      3  C   UNL d   1      -1.868  -3.207   1.454  0.00  0.00     0.128 C 
ENDROOT
BRANCH   3   4
ATOM      4  C   UNL d   1      -1.708  -2.614   0.053  0.00  0.00     0.055 C 
BRANCH   4   5
ATOM      5  C   UNL d   1      -1.254  -1.176   0.047  0.00  0.00    -0.023 A 
ATOM      6  C   UNL d   1      -2.029  -0.020   0.022  0.00  0.00     0.013 A 
ATOM      7  N   UNL d   1      -1.172   1.055   0.004  0.00  0.00    -0.359 N 
ATOM      8  C   UNL d   1      -3.499   0.210   0.005  0.00  0.00     0.068 C 
ATOM      9  C   UNL d   1       0.135   0.641   0.007  0.00  0.00     0.043 A 
ATOM     10  H   UNL d   1      -1.457   2.025  -0.015  0.00  0.00     0.166 HD
ATOM     11  C   UNL d   1       0.120  -0.751   0.022  0.00  0.00    -0.001 A 
ATOM     12  C   UNL d   1       1.316   1.394  -0.005  0.00  0.00     0.030 A 
ATOM     13  C   UNL d   1       1.357  -1.429   0.008  0.00  0.00     0.014 A 
ATOM     14  C   UNL d   1       2.549  -0.695  -0.009  0.00  0.00     0.001 A 
ATOM     15  C   UNL d   1       2.526   0.697  -0.011  0.00  0.00     0.002 A 
ENDBRANCH   4   5
ENDBRANCH   3   4
TORSDOF 2
