REMARK  4 active torsions:
REMARK  status: ('A' for Active; 'I' for Inactive)
REMARK    1  A    between atoms: C_5  and  C_1 
REMARK    2  A    between atoms: C_6  and  C_1 
REMARK    3  A    between atoms: O_16  and  C_5 
REMARK    4  A    between atoms: O_17  and  C_6 
ROOT
ATOM      1  C   UNL d   1       0.973  -0.029   0.081  0.00  0.00     0.114 C 
ATOM      2  C   UNL d   1       0.283  -0.873  -0.755  0.00  0.00    -0.048 C 
ATOM      3  C   UNL d   1      -1.247  -0.960  -0.921  0.00  0.00     0.017 C 
ATOM      4  C   UNL d   1       0.937  -1.900  -1.714  0.00  0.00     0.017 C 
ATOM      5  C   UNL d   1      -1.010  -1.730  -3.313  0.00  0.00    -0.013 C 
ATOM      6  C   UNL d   1      -1.049  -3.429  -1.446  0.00  0.00    -0.013 C 
ATOM      7  C   UNL d   1       0.511  -1.614  -3.169  0.00  0.00     0.013 C 
ATOM      8  C   UNL d   1       0.479  -3.318  -1.323  0.00  0.00     0.013 C 
ATOM      9  C   UNL d   1      -1.653  -0.697  -2.383  0.00  0.00     0.013 C 
ATOM     10  C   UNL d   1      -1.696  -2.387  -0.520  0.00  0.00     0.013 C 
ATOM     11  C   UNL d   1      -1.460  -3.144  -2.902  0.00  0.00     0.009 C 
ENDROOT
BRANCH   1  12
ATOM     12  C   UNL d   1       0.347   1.020   0.928  0.00  0.00     0.183 C 
ATOM     13  O   UNL d   1       0.904   2.090   1.149  0.00  0.00    -0.646 OA
BRANCH  12  14
ATOM     14  O   UNL d   1      -0.822   0.713   1.541  0.00  0.00    -0.772 OA
ATOM     15  H   UNL d   1      -1.096  -0.227   1.494  0.00  0.00     0.167 HD
ENDBRANCH  12  14
ENDBRANCH   1  12
BRANCH   1  16
ATOM     16  C   UNL d   1       2.485  -0.057   0.122  0.00  0.00     0.183 C 
ATOM     17  O   UNL d   1       3.162  -1.042  -0.116  0.00  0.00    -0.646 OA
BRANCH  16  18
ATOM     18  O   UNL d   1       3.082   1.103   0.484  0.00  0.00    -0.772 OA
ATOM     19  H   UNL d   1       2.477   1.826   0.773  0.00  0.00     0.167 HD
ENDBRANCH  16  18
ENDBRANCH   1  16
TORSDOF 4
