REMARK  7 active torsions:
REMARK  status: ('A' for Active; 'I' for Inactive)
REMARK    1  A    between atoms: C_5  and  C_1 
REMARK    2  A    between atoms: C_2  and  C_6 
REMARK       I    between atoms: N_4  and  C_2 
REMARK    3  A    between atoms: C_3  and  O_7 
REMARK    4  A    between atoms: C_17  and  N_4 
REMARK    5  A    between atoms: O_7  and  C_21 
REMARK    6  A    between atoms: O_16  and  C_22 
REMARK    7  A    between atoms: C_23  and  O_16 
ROOT
ATOM      1  C   UNL d   1      -0.047   3.695  -5.172  0.00  0.00     0.035 A 
ATOM      2  C   UNL d   1       1.273   5.721  -3.735  0.00  0.00     0.076 A 
ATOM      3  C   UNL d   1       1.226   3.477  -4.639  0.00  0.00     0.032 A 
ATOM      4  C   UNL d   1      -0.608   4.975  -5.064  0.00  0.00     0.032 A 
ATOM      5  C   UNL d   1       0.049   5.984  -4.348  0.00  0.00     0.039 A 
ATOM      6  C   UNL d   1       1.894   4.491  -3.949  0.00  0.00     0.039 A 
ENDROOT
BRANCH   1   7
ATOM      7  N   UNL d   1      -0.826   2.682  -5.783  0.00  0.00    -0.323 N 
ATOM      8  C   UNL d   1      -0.513   1.336  -5.859  0.00  0.00     0.256 C 
ATOM      9  O   UNL d   1       0.540   0.831  -5.478  0.00  0.00    -0.267 OA
ATOM     10  H   UNL d   1      -1.731   2.989  -6.109  0.00  0.00     0.169 HD
BRANCH   8  11
ATOM     11  C   UNL d   1      -1.552   0.406  -6.413  0.00  0.00     0.032 A 
ATOM     12  C   UNL d   1      -2.787   0.816  -6.942  0.00  0.00     0.018 A 
ATOM     13  C   UNL d   1      -3.712  -0.139  -7.397  0.00  0.00     0.017 A 
ATOM     14  C   UNL d   1      -3.423  -1.514  -7.338  0.00  0.00     0.048 A 
ATOM     15  C   UNL d   1      -2.187  -1.917  -6.829  0.00  0.00     0.017 A 
ATOM     16  C   UNL d   1      -1.269  -0.971  -6.374  0.00  0.00     0.018 A 
BRANCH  14  17
ATOM     17  C   UNL d   1      -4.446  -2.521  -7.806  0.00  0.00     0.417 C 
ATOM     18  F   UNL d   1      -4.020  -3.811  -7.721  0.00  0.00    -0.166 F 
ATOM     19  F   UNL d   1      -4.808  -2.332  -9.105  0.00  0.00    -0.166 F 
ATOM     20  F   UNL d   1      -5.600  -2.459  -7.085  0.00  0.00    -0.166 F 
ENDBRANCH  14  17
ENDBRANCH   8  11
ENDBRANCH   1   7
BRANCH   2  21
ATOM     21  O   UNL d   1       1.825   6.719  -2.971  0.00  0.00    -0.311 OA
BRANCH  21  22
ATOM     22  C   UNL d   1       2.413   6.392  -1.766  0.00  0.00     0.076 A 
ATOM     23  C   UNL d   1       3.372   7.287  -1.295  0.00  0.00     0.040 A 
ATOM     24  C   UNL d   1       4.022   7.044  -0.082  0.00  0.00     0.040 A 
ATOM     25  C   UNL d   1       3.716   5.912   0.681  0.00  0.00     0.078 A 
ATOM     26  C   UNL d   1       2.774   5.007   0.201  0.00  0.00     0.040 A 
ATOM     27  C   UNL d   1       2.091   5.271  -0.993  0.00  0.00     0.040 A 
BRANCH  25  28
ATOM     28  O   UNL d   1       4.429   5.793   1.833  0.00  0.00    -0.255 OA
BRANCH  28  29
ATOM     29  C   UNL d   1       3.870   5.096   2.938  0.00  0.00     0.530 C 
ATOM     30  F   UNL d   1       2.555   4.817   2.813  0.00  0.00    -0.144 F 
ATOM     31  F   UNL d   1       4.544   3.942   3.129  0.00  0.00    -0.144 F 
ATOM     32  F   UNL d   1       4.022   5.860   4.043  0.00  0.00    -0.144 F 
ENDBRANCH  28  29
ENDBRANCH  25  28
ENDBRANCH  21  22
ENDBRANCH   2  21
TORSDOF 7
