REMARK  6 active torsions:
REMARK  status: ('A' for Active; 'I' for Inactive)
REMARK    1  A    between atoms: C_2  and  C_1 
REMARK       I    between atoms: N_5  and  C_1 
REMARK    2  A    between atoms: C_3  and  C_4 
REMARK    3  A    between atoms: O_13  and  C_3 
REMARK    4  A    between atoms: C_9  and  N_5 
REMARK    5  A    between atoms: O_8  and  C_10 
REMARK    6  A    between atoms: C_11  and  O_8 
ROOT
ATOM      1  C   UNL d   1      -1.079   0.658  -0.918  0.00  0.00     0.035 A 
ATOM      2  C   UNL d   1      -3.884   0.845  -0.963  0.00  0.00     0.076 A 
ATOM      3  C   UNL d   1      -1.780   1.107   0.202  0.00  0.00     0.032 A 
ATOM      4  C   UNL d   1      -1.794   0.373  -2.090  0.00  0.00     0.032 A 
ATOM      5  C   UNL d   1      -3.172   1.227   0.172  0.00  0.00     0.039 A 
ATOM      6  C   UNL d   1      -3.192   0.466  -2.112  0.00  0.00     0.039 A 
ENDROOT
BRANCH   1   7
ATOM      7  N   UNL d   1       0.322   0.470  -0.937  0.00  0.00    -0.324 N 
ATOM      8  C   UNL d   1       1.183   0.620   0.129  0.00  0.00     0.245 C 
ATOM      9  O   UNL d   1       0.897   0.935   1.279  0.00  0.00    -0.268 OA
ATOM     10  H   UNL d   1       0.712   0.166  -1.820  0.00  0.00     0.169 HD
BRANCH   8  11
ATOM     11  C   UNL d   1       2.598   0.350  -0.232  0.00  0.00     0.081 C 
ATOM     12  C   UNL d   1       3.538   0.544   0.704  0.00  0.00     0.086 C 
BRANCH  12  13
ATOM     13  C   UNL d   1       4.947   0.290   0.369  0.00  0.00     0.165 C 
ATOM     14  O   UNL d   1       5.327  -0.113  -0.716  0.00  0.00    -0.647 OA
BRANCH  13  15
ATOM     15  O   UNL d   1       5.773   0.562   1.394  0.00  0.00    -0.773 OA
ATOM     16  H   UNL d   1       5.346   0.886   2.209  0.00  0.00     0.167 HD
ENDBRANCH  13  15
ENDBRANCH  12  13
ENDBRANCH   8  11
ENDBRANCH   1   7
BRANCH   2  17
ATOM     17  O   UNL d   1      -5.260   0.848  -1.029  0.00  0.00    -0.311 OA
BRANCH  17  18
ATOM     18  C   UNL d   1      -5.972   0.425   0.075  0.00  0.00     0.076 A 
ATOM     19  C   UNL d   1      -7.213   1.031   0.283  0.00  0.00     0.039 A 
ATOM     20  C   UNL d   1      -7.984   0.685   1.397  0.00  0.00     0.026 A 
ATOM     21  C   UNL d   1      -7.512  -0.269   2.297  0.00  0.00     0.034 A 
ATOM     22  C   UNL d   1      -6.294  -0.907   2.075  0.00  0.00     0.026 A 
ATOM     23 CL   UNL d   1      -8.439  -0.664   3.692  0.00  0.00    -0.084 Cl
ATOM     24  C   UNL d   1      -5.537  -0.580   0.948  0.00  0.00     0.039 A 
ENDBRANCH  17  18
ENDBRANCH   2  17
TORSDOF 6
