REMARK  6 active torsions:
REMARK  status: ('A' for Active; 'I' for Inactive)
REMARK    1  A    between atoms: C_2  and  S_1 
REMARK    2  A    between atoms: C_10  and  S_1 
REMARK    3  A    between atoms: C_3  and  C_17 
REMARK    4  A    between atoms: C_20  and  C_10 
REMARK    5  A    between atoms: C_17  and  S_18 
REMARK    6  A    between atoms: S_18  and  C_20 
ROOT
ATOM      1  C   UNL d   1       0.380  -1.632  -0.064  0.00  0.00     0.156 C 
ENDROOT
BRANCH   1   2
ATOM      2  S   UNL d   1       1.055   0.004   0.041  0.00  0.00     0.177 S 
ATOM      3  O   UNL d   1       0.193   0.797   0.889  0.00  0.00    -0.223 OA
ATOM      4  O   UNL d   1       2.458  -0.154   0.383  0.00  0.00    -0.223 OA
BRANCH   2   5
ATOM      5  C   UNL d   1       0.995   0.732  -1.581  0.00  0.00     0.081 A 
ATOM      6  C   UNL d   1      -0.200   0.983  -2.261  0.00  0.00     0.057 A 
ATOM      7  C   UNL d   1      -0.163   1.560  -3.538  0.00  0.00     0.049 A 
ATOM      8 CL   UNL d   1      -1.763   0.632  -1.626  0.00  0.00    -0.083 Cl
ATOM      9  C   UNL d   1       1.060   1.909  -4.117  0.00  0.00     0.035 A 
ATOM     10  C   UNL d   1       2.247   1.705  -3.425  0.00  0.00     0.025 A 
ATOM     11 CL   UNL d   1       1.099   2.590  -5.694  0.00  0.00    -0.084 Cl
ATOM     12  C   UNL d   1       2.218   1.118  -2.158  0.00  0.00     0.027 A 
ENDBRANCH   2   5
ENDBRANCH   1   2
BRANCH   1  13
ATOM     13  C   UNL d   1       1.063  -2.527  -1.078  0.00  0.00     0.089 C 
BRANCH  13  14
ATOM     14  S   UNL d   1       0.383  -4.232  -1.038  0.00  0.00    -0.164 SA
BRANCH  14  15
ATOM     15  C   UNL d   1      -1.357  -3.901  -1.465  0.00  0.00     0.114 C 
BRANCH  15  16
ATOM     16  C   UNL d   1      -2.180  -5.152  -1.442  0.00  0.00    -0.031 A 
ATOM     17  C   UNL d   1      -2.386  -5.956  -2.545  0.00  0.00     0.059 A 
ATOM     18  S   UNL d   1      -3.435  -7.258  -2.234  0.00  0.00    -0.101 SA
ATOM     19  C   UNL d   1      -3.646  -6.792  -0.592  0.00  0.00     0.015 A 
ATOM     20  C   UNL d   1      -2.902  -5.648  -0.283  0.00  0.00    -0.011 A 
ATOM     21  C   UNL d   1      -4.451  -7.436   0.369  0.00  0.00     0.019 A 
ATOM     22  C   UNL d   1      -2.974  -5.160   1.049  0.00  0.00     0.013 A 
ATOM     23  C   UNL d   1      -3.766  -5.800   2.007  0.00  0.00     0.001 A 
ATOM     24  C   UNL d   1      -4.500  -6.925   1.667  0.00  0.00     0.001 A 
ENDBRANCH  15  16
ENDBRANCH  14  15
ENDBRANCH  13  14
ENDBRANCH   1  13
TORSDOF 6
