REMARK  9 active torsions:
REMARK  status: ('A' for Active; 'I' for Inactive)
REMARK    1  A    between atoms: N_2  and  C_1 
REMARK    2  A    between atoms: N_6  and  C_1 
REMARK    3  A    between atoms: C_3  and  N_2 
REMARK       I    between atoms: C_4  and  N_8 
REMARK    4  A    between atoms: C_9  and  C_4 
REMARK    5  A    between atoms: N_8  and  N_6 
REMARK    6  A    between atoms: C_15  and  C_9 
REMARK    7  A    between atoms: C_14  and  O_22 
REMARK    8  A    between atoms: O_22  and  C_15 
REMARK    9  A    between atoms: O_23  and  C_16 
ROOT
ATOM      1  C   UNL d   1      -1.885  -2.119  -1.282  0.00  0.00     0.238 C 
ATOM      2  N   UNL d   1      -1.226  -1.212  -0.491  0.00  0.00    -0.268 N 
ATOM      3  O   UNL d   1      -3.115  -2.129  -1.315  0.00  0.00    -0.272 OA
ATOM      4  H   UNL d   1      -1.796  -0.551   0.033  0.00  0.00     0.190 HD
ENDROOT
BRANCH   2   5
ATOM      5  N   UNL d   1       0.124  -0.907  -0.651  0.00  0.00    -0.274 N 
ATOM      6  H   UNL d   1       0.476  -0.815  -1.601  0.00  0.00     0.189 HD
BRANCH   5   7
ATOM      7  C   UNL d   1       0.888  -0.392   0.378  0.00  0.00     0.191 C 
ATOM      8  S   UNL d   1       0.558  -0.558   2.006  0.00  0.00    -0.039 SA
BRANCH   7   9
ATOM      9  N   UNL d   1       2.042   0.234  -0.027  0.00  0.00    -0.332 N 
ATOM     10  H   UNL d   1       2.770   0.321   0.676  0.00  0.00     0.168 HD
BRANCH   9  11
ATOM     11  C   UNL d   1       2.193   1.032  -1.187  0.00  0.00     0.040 A 
ATOM     12  C   UNL d   1       3.460   1.264  -1.740  0.00  0.00    -0.035 A 
ATOM     13  C   UNL d   1       3.561   2.090  -2.881  0.00  0.00     0.015 A 
ATOM     14  C   UNL d   1       4.728   0.636  -1.229  0.00  0.00     0.050 C 
ATOM     15  C   UNL d   1       2.435   2.691  -3.458  0.00  0.00    -0.061 A 
ATOM     16  C   UNL d   1       1.186   2.473  -2.877  0.00  0.00     0.009 A 
ATOM     17  C   UNL d   1       2.568   3.551  -4.675  0.00  0.00     0.048 C 
ATOM     18  C   UNL d   1       1.072   1.659  -1.753  0.00  0.00     0.030 A 
ENDBRANCH   9  11
ENDBRANCH   7   9
ENDBRANCH   5   7
ENDBRANCH   2   5
BRANCH   1  19
ATOM     19  C   UNL d   1      -1.063  -3.104  -2.083  0.00  0.00     0.131 C 
BRANCH  19  20
ATOM     20  C   UNL d   1      -0.309  -4.029  -1.143  0.00  0.00     0.185 C 
BRANCH  20  21
ATOM     21  O   UNL d   1       0.393  -5.021  -1.898  0.00  0.00    -0.351 OA
BRANCH  21  22
ATOM     22  C   UNL d   1       1.216  -5.822  -1.149  0.00  0.00     0.068 A 
ATOM     23  C   UNL d   1       1.066  -6.061   0.219  0.00  0.00     0.039 A 
ATOM     24  C   UNL d   1       1.973  -6.874   0.904  0.00  0.00     0.039 A 
ATOM     25  C   UNL d   1       3.039  -7.460   0.225  0.00  0.00     0.068 A 
ATOM     26  C   UNL d   1       3.163  -7.261  -1.151  0.00  0.00     0.039 A 
ATOM     27  C   UNL d   1       2.257  -6.444  -1.836  0.00  0.00     0.039 A 
BRANCH  25  28
ATOM     28  O   UNL d   1       3.985  -8.266   0.797  0.00  0.00    -0.356 OA
ATOM     29  C   UNL d   1       4.198  -8.067   2.191  0.00  0.00     0.210 C 
ENDBRANCH  25  28
ENDBRANCH  21  22
ENDBRANCH  20  21
ENDBRANCH  19  20
ENDBRANCH   1  19
TORSDOF 9
