REMARK  3 active torsions:
REMARK  status: ('A' for Active; 'I' for Inactive)
REMARK    1  A    between atoms: C_4  and  N_1 
REMARK    2  A    between atoms: C_9  and  C_5 
REMARK    3  A    between atoms: O_18  and  C_9 
ROOT
ATOM      1  N   UNL d   1      -0.668  -1.157  -0.024  0.00  0.00    -0.272 N 
ATOM      2  C   UNL d   1      -0.910  -0.458   1.164  0.00  0.00     0.334 C 
ATOM      3  N   UNL d   1      -0.375   0.808   1.206  0.00  0.00    -0.274 N 
ATOM      4  C   UNL d   1       0.564   0.631  -1.012  0.00  0.00     0.128 C 
ATOM      5  C   UNL d   1       0.099  -0.626  -1.043  0.00  0.00     0.130 C 
ATOM      6  C   UNL d   1       0.245   1.458   0.169  0.00  0.00     0.271 C 
ATOM      7  C   UNL d   1       1.313   1.174  -2.087  0.00  0.00     0.106 C 
ATOM      8  N   UNL d   1       1.935   1.558  -2.985  0.00  0.00    -0.191 NA
ATOM      9  O   UNL d   1      -1.579  -0.860   2.114  0.00  0.00    -0.246 OA
ATOM     10  O   UNL d   1       0.509   2.649   0.232  0.00  0.00    -0.266 OA
ATOM     11  H   UNL d   1      -0.617   1.364   2.011  0.00  0.00     0.173 HD
ENDROOT
BRANCH   1  12
ATOM     12  C   UNL d   1      -1.236  -2.430  -0.228  0.00  0.00     0.067 A 
ATOM     13  C   UNL d   1      -1.980  -2.834  -1.339  0.00  0.00     0.107 A 
ATOM     14  S   UNL d   1      -2.499  -4.471  -1.172  0.00  0.00    -0.094 SA
ATOM     15  C   UNL d   1      -1.802  -4.628   0.369  0.00  0.00     0.053 A 
ATOM     16  C   UNL d   1      -1.172  -3.472   0.761  0.00  0.00     0.039 A 
BRANCH  13  17
ATOM     17  C   UNL d   1      -2.404  -2.055  -2.499  0.00  0.00     0.302 C 
ATOM     18  O   UNL d   1      -2.114  -0.879  -2.712  0.00  0.00    -0.259 OA
BRANCH  17  19
ATOM     19  O   UNL d   1      -3.186  -2.785  -3.348  0.00  0.00    -0.322 OA
ATOM     20  C   UNL d   1      -3.638  -2.080  -4.506  0.00  0.00     0.213 C 
ENDBRANCH  17  19
ENDBRANCH  13  17
ENDBRANCH   1  12
TORSDOF 3
