REMARK  4 active torsions:
REMARK  status: ('A' for Active; 'I' for Inactive)
REMARK    1  A    between atoms: C_3  and  S_1 
REMARK    2  A    between atoms: N_10  and  S_1 
REMARK       I    between atoms: C_2  and  N_5 
REMARK       I    between atoms: N_4  and  C_2 
REMARK    3  A    between atoms: C_9  and  N_4 
REMARK    4  A    between atoms: N_5  and  C_11 
ROOT
ATOM      1  C   UNL d   1      -3.290   3.033   1.165  0.00  0.00     0.325 C 
ATOM      2  N   UNL d   1      -3.427   1.769   0.670  0.00  0.00    -0.306 N 
ATOM      3  N   UNL d   1      -2.167   3.739   0.884  0.00  0.00    -0.309 N 
ATOM      4  O   UNL d   1      -4.160   3.647   1.784  0.00  0.00    -0.247 OA
ATOM      5  H   UNL d   1      -2.903   1.571  -0.173  0.00  0.00     0.171 HD
ATOM      6  H   UNL d   1      -2.341   4.705   1.133  0.00  0.00     0.170 HD
ENDROOT
BRANCH   3   7
ATOM      7  C   UNL d   1      -0.855   3.454   0.487  0.00  0.00     0.037 A 
ATOM      8  C   UNL d   1      -0.278   2.188   0.423  0.00  0.00     0.054 A 
ATOM      9  C   UNL d   1       1.095   2.084   0.131  0.00  0.00     0.076 A 
ATOM     10  C   UNL d   1       1.882   3.215  -0.114  0.00  0.00     0.025 A 
ATOM     11  C   UNL d   1       1.299   4.472  -0.070  0.00  0.00     0.004 A 
ATOM     12  C   UNL d   1      -0.056   4.586   0.234  0.00  0.00     0.029 A 
BRANCH   9  13
ATOM     13  S   UNL d   1       1.879   0.500   0.098  0.00  0.00     0.239 S 
ATOM     14  O   UNL d   1       0.884  -0.512  -0.173  0.00  0.00    -0.206 OA
ATOM     15  O   UNL d   1       2.800   0.421   1.204  0.00  0.00    -0.206 OA
BRANCH  13  16
ATOM     16  N   UNL d   1       2.823   0.574  -1.293  0.00  0.00    -0.225 NA
ATOM     17  H   UNL d   1       2.503  -0.126  -1.963  0.00  0.00     0.136 HD
ATOM     18  H   UNL d   1       3.808   0.481  -1.044  0.00  0.00     0.136 HD
ENDBRANCH  13  16
ENDBRANCH   9  13
ENDBRANCH   3   7
BRANCH   2  19
ATOM     19  C   UNL d   1      -4.622   1.013   0.834  0.00  0.00     0.075 A 
ATOM     20  C   UNL d   1      -5.006   0.129  -0.179  0.00  0.00     0.143 A 
ATOM     21  F   UNL d   1      -4.223  -0.028  -1.258  0.00  0.00    -0.204 F 
ATOM     22  C   UNL d   1      -6.224  -0.551  -0.125  0.00  0.00     0.044 A 
ATOM     23  C   UNL d   1      -7.069  -0.375   0.970  0.00  0.00     0.003 A 
ATOM     24  C   UNL d   1      -6.678   0.461   2.014  0.00  0.00     0.002 A 
ATOM     25  C   UNL d   1      -5.458   1.144   1.950  0.00  0.00     0.033 A 
ENDBRANCH   2  19
TORSDOF 4
