REMARK  3 active torsions:
REMARK  status: ('A' for Active; 'I' for Inactive)
REMARK    1  A    between atoms: C_5  and  C_1 
REMARK    2  A    between atoms: O_13  and  C_8 
REMARK    3  A    between atoms: O_14  and  C_9 
ROOT
ATOM      1  C   UNL d   1       2.369   1.835  -0.006  0.00  0.00     0.017 A 
ATOM      2  C   UNL d   1       3.264   1.802  -1.086  0.00  0.00     0.055 A 
ATOM      3  C   UNL d   1       4.286   2.756  -1.211  0.00  0.00     0.102 A 
ATOM      4  C   UNL d   1       4.417   3.743  -0.216  0.00  0.00     0.101 A 
ATOM      5  C   UNL d   1       2.504   2.811   0.977  0.00  0.00     0.018 A 
ATOM      6  C   UNL d   1       3.526   3.754   0.869  0.00  0.00     0.040 A 
ENDROOT
BRANCH   1   7
ATOM      7  C   UNL d   1       1.268   0.854   0.031  0.00  0.00     0.149 C 
ATOM      8  N   UNL d   1       1.023  -0.039  -0.874  0.00  0.00    -0.360 N 
ATOM      9  C   UNL d   1      -0.168  -0.745  -0.367  0.00  0.00     0.046 C 
ATOM     10  HN  UNL d   1       1.536  -0.213  -1.739  1.00  0.00     0.162 HD
ATOM     11  C   UNL d   1      -1.221  -0.784  -1.471  0.00  0.00     0.040 C 
ATOM     12  C   UNL d   1       0.241  -2.161   0.040  0.00  0.00     0.040 C 
ATOM     13  C   UNL d   1      -0.630   0.081   0.831  0.00  0.00     0.207 C 
ATOM     14  O   UNL d   1       0.461   0.949   1.111  0.00  0.00    -0.333 OA
ENDBRANCH   1   7
BRANCH   3  15
ATOM     15  O   UNL d   1       5.158   2.774  -2.266  0.00  0.00    -0.353 OA
ATOM     16  C   UNL d   1       5.014   1.791  -3.284  0.00  0.00     0.210 C 
ENDBRANCH   3  15
BRANCH   4  17
ATOM     17  O   UNL d   1       5.332   4.761  -0.129  0.00  0.00    -0.353 OA
ATOM     18  C   UNL d   1       6.274   4.932  -1.176  0.00  0.00     0.210 C 
ENDBRANCH   4  17
TORSDOF 3
