REMARK  7 active torsions:
REMARK  status: ('A' for Active; 'I' for Inactive)
REMARK    1  A    between atoms: C_2  and  C_1 
REMARK       I    between atoms: N_4  and  C_2 
REMARK    2  A    between atoms: C_7  and  C_3 
REMARK    3  A    between atoms: C_6  and  N_4 
REMARK       I    between atoms: N_14  and  C_7 
REMARK    4  A    between atoms: N_10  and  C_20 
REMARK    5  A    between atoms: C_25  and  N_14 
REMARK    6  A    between atoms: C_20  and  C_21 
REMARK    7  A    between atoms: C_21  and  C_25 
ROOT
ATOM      1  C   UNL d   1       0.567  -3.907  -1.186  0.00  0.00     0.058 A 
ATOM      2  C   UNL d   1      -0.375  -4.956  -1.272  0.00  0.00     0.050 A 
ATOM      3  C   UNL d   1       1.495  -3.910  -0.125  0.00  0.00     0.019 A 
ATOM      4  C   UNL d   1      -0.341  -5.987  -0.324  0.00  0.00     0.030 A 
ATOM      5  C   UNL d   1       1.537  -4.958   0.787  0.00  0.00     0.001 A 
ATOM      6  C   UNL d   1       0.624  -6.002   0.688  0.00  0.00     0.002 A 
ENDROOT
BRANCH   1   7
ATOM      7  C   UNL d   1       0.517  -2.757  -2.144  0.00  0.00     0.253 C 
ATOM      8  O   UNL d   1      -0.503  -2.531  -2.796  0.00  0.00    -0.268 OA
ATOM      9  N   UNL d   1       1.657  -1.991  -2.263  0.00  0.00    -0.357 N 
ATOM     10  H   UNL d   1       2.506  -2.259  -1.790  0.00  0.00     0.162 HD
BRANCH   9  11
ATOM     11  C   UNL d   1       1.687  -0.772  -3.049  0.00  0.00     0.124 C 
BRANCH  11  12
ATOM     12  C   UNL d   1       1.352   0.433  -2.177  0.00  0.00     0.050 C 
BRANCH  12  13
ATOM     13  C   UNL d   1       1.429   1.760  -2.940  0.00  0.00     0.274 C 
BRANCH  13  14
ATOM     14  N   UNL d   1       0.525   1.875  -4.095  0.00  0.00     0.092 N 
ATOM     15  C   UNL d   1      -0.907   1.709  -3.749  0.00  0.00     0.298 C 
ATOM     16  C   UNL d   1      -1.464   2.867  -2.908  0.00  0.00     0.198 C 
ATOM     17  O   UNL d   1      -1.316   4.117  -3.594  0.00  0.00    -0.388 OA
ATOM     18  C   UNL d   1       0.054   4.362  -3.939  0.00  0.00     0.198 C 
ATOM     19  C   UNL d   1       0.663   3.200  -4.748  0.00  0.00     0.298 C 
ENDBRANCH  13  14
ENDBRANCH  12  13
ENDBRANCH  11  12
ENDBRANCH   9  11
ENDBRANCH   1   7
BRANCH   2  20
ATOM     20  N   UNL d   1      -1.287  -5.023  -2.354  0.00  0.00    -0.322 N 
ATOM     21  C   UNL d   1      -2.572  -5.517  -2.266  0.00  0.00     0.259 C 
ATOM     22  O   UNL d   1      -3.159  -5.742  -1.209  0.00  0.00    -0.267 OA
ATOM     23  H   UNL d   1      -1.081  -4.427  -3.155  0.00  0.00     0.169 HD
BRANCH  21  24
ATOM     24  C   UNL d   1      -3.280  -5.804  -3.547  0.00  0.00     0.071 A 
ATOM     25  C   UNL d   1      -2.614  -5.904  -4.773  0.00  0.00     0.135 A 
ATOM     26  C   UNL d   1      -3.264  -6.393  -5.905  0.00  0.00     0.085 A 
ATOM     27  F   UNL d   1      -1.321  -5.568  -4.893  0.00  0.00    -0.205 F 
ATOM     28  C   UNL d   1      -4.596  -6.771  -5.814  0.00  0.00     0.119 A 
ATOM     29  C   UNL d   1      -5.300  -6.628  -4.624  0.00  0.00     0.043 A 
ATOM     30  F   UNL d   1      -5.208  -7.297  -6.882  0.00  0.00    -0.206 F 
ATOM     31  C   UNL d   1      -4.644  -6.141  -3.491  0.00  0.00     0.023 A 
ENDBRANCH  21  24
ENDBRANCH   2  20
TORSDOF 7
