REMARK  3 active torsions:
REMARK  status: ('A' for Active; 'I' for Inactive)
REMARK    1  A    between atoms: C_7  and  C_3 
REMARK    2  A    between atoms: C_8  and  N_4 
REMARK       I    between atoms: N_10  and  C_7 
REMARK    3  A    between atoms: N_11  and  N_10 
ROOT
ATOM      1  N   UNL d   1       0.901  -0.653  -0.015  0.00  0.00    -0.292 N 
ATOM      2  HN  UNL d   1       1.749  -1.220  -0.028  1.00  0.00     0.187 HD
ATOM      3  C   UNL d   1      -0.370  -1.088  -0.011  0.00  0.00     0.119 A 
ATOM      4  N   UNL d   1       0.820   0.704   0.000  0.00  0.00    -0.287 N 
ATOM      5  C   UNL d   1      -1.267  -0.002  -0.004  0.00  0.00     0.063 A 
ATOM      6  C   UNL d   1      -0.492   1.141   0.009  0.00  0.00     0.028 A 
ATOM      7  C   UNL d   1      -0.983   2.542   0.030  0.00  0.00     0.070 C 
ENDROOT
BRANCH   3   8
ATOM      8  C   UNL d   1      -0.718  -2.515  -0.003  0.00  0.00     0.283 C 
ATOM      9  O   UNL d   1      -1.874  -2.931   0.042  0.00  0.00    -0.265 OA
ATOM     10  N   UNL d   1       0.390  -3.357  -0.042  0.00  0.00    -0.288 N 
ATOM     11  H   UNL d   1       1.304  -2.916  -0.159  0.00  0.00     0.183 HD
BRANCH  10  12
ATOM     12  N   UNL d   1       0.236  -4.762  -0.087  0.00  0.00    -0.247 NA
ATOM     13  H   UNL d   1      -0.766  -4.947  -0.230  0.00  0.00     0.143 HD
ATOM     14  H   UNL d   1       0.425  -5.125   0.851  0.00  0.00     0.143 HD
ENDBRANCH  10  12
ENDBRANCH   3   8
BRANCH   4  15
ATOM     15  C   UNL d   1       2.079   1.484   0.010  0.00  0.00     0.043 C 
ATOM     16  C   UNL d   1       3.324   0.554  -0.033  0.00  0.00     0.039 C 
ATOM     17  C   UNL d   1       2.171   2.391  -1.232  0.00  0.00     0.039 C 
ATOM     18  C   UNL d   1       2.199   2.310   1.306  0.00  0.00     0.039 C 
ENDBRANCH   4  15
TORSDOF 3
