REMARK  5 active torsions:
REMARK  status: ('A' for Active; 'I' for Inactive)
REMARK    1  A    between atoms: C_21  and  N_2 
REMARK    2  A    between atoms: N_5  and  C_12 
REMARK    3  A    between atoms: C_13  and  N_7 
REMARK    4  A    between atoms: C_24  and  C_21 
REMARK    5  A    between atoms: C_25  and  C_24 
ROOT
ATOM      1  N   UNL d   1      10.436  -4.696  -0.596  0.00  0.00    -0.191 NA
ATOM      2  C   UNL d   1       9.469  -4.058  -0.575  0.00  0.00     0.099 C 
ATOM      3  C   UNL d   1       5.896  -1.736  -0.507  0.00  0.00     0.048 A 
ATOM      4  C   UNL d   1       8.269  -3.271  -0.548  0.00  0.00     0.044 A 
ATOM      5  C   UNL d   1       6.821  -1.603  -1.551  0.00  0.00     0.032 A 
ATOM      6  C   UNL d   1       6.194  -2.636   0.529  0.00  0.00     0.032 A 
ATOM      7  C   UNL d   1       7.997  -2.364  -1.577  0.00  0.00     0.025 A 
ATOM      8  C   UNL d   1       7.365  -3.403   0.507  0.00  0.00     0.025 A 
ENDROOT
BRANCH   3   9
ATOM      9  N   UNL d   1       4.732  -0.937  -0.539  0.00  0.00    -0.300 N 
ATOM     10  N   UNL d   1       3.769  -1.485   0.038  0.00  0.00    -0.300 N 
ATOM     11  HN  UNL d   1       3.835  -2.392   0.499  1.00  0.00     0.187 HD
ATOM     12  HN  UNL d   1       4.683  -0.019  -0.982  1.00  0.00     0.187 HD
BRANCH  10  13
ATOM     13  C   UNL d   1       2.582  -0.726  -0.011  0.00  0.00     0.048 A 
ATOM     14  C   UNL d   1       2.543   0.669  -0.051  0.00  0.00     0.033 A 
ATOM     15  C   UNL d   1       1.321   1.351  -0.073  0.00  0.00     0.032 A 
ATOM     16  C   UNL d   1       0.094   0.672  -0.049  0.00  0.00     0.036 A 
ATOM     17  N   UNL d   1      -1.122   1.345  -0.086  0.00  0.00    -0.380 N 
ATOM     18  C   UNL d   1       0.132  -0.735   0.007  0.00  0.00    -0.029 A 
ATOM     19  C   UNL d   1      -2.301   0.626   0.388  0.00  0.00     0.123 C 
ATOM     20  C   UNL d   1      -2.378  -0.731  -0.291  0.00  0.00     0.024 C 
ATOM     21  C   UNL d   1      -1.139  -1.550   0.055  0.00  0.00     0.042 C 
ATOM     22  C   UNL d   1       1.366  -1.413   0.034  0.00  0.00     0.040 A 
BRANCH  17  23
ATOM     23  C   UNL d   1      -1.271   2.675  -0.683  0.00  0.00     0.123 C 
BRANCH  23  24
ATOM     24  C   UNL d   1      -0.952   2.650  -2.185  0.00  0.00     0.019 C 
BRANCH  24  25
ATOM     25  C   UNL d   1      -1.066   4.035  -2.822  0.00  0.00    -0.003 C 
ATOM     26  C   UNL d   1      -0.721   3.987  -4.304  0.00  0.00     0.005 C 
ENDBRANCH  24  25
ENDBRANCH  23  24
ENDBRANCH  17  23
ENDBRANCH  10  13
ENDBRANCH   3   9
TORSDOF 5
