REMARK  0 active torsions:
REMARK  status: ('A' for Active; 'I' for Inactive)
ROOT
ATOM      1  N   UNL d   1      -0.006  -1.652   0.001  0.00  0.00    -0.350 N 
ATOM      2  C   UNL d   1      -0.715   0.464   0.001  0.00  0.00     0.005 A 
ATOM      3  C   UNL d   1       0.715   0.462   0.001  0.00  0.00     0.005 A 
ATOM      4  C   UNL d   1      -1.142  -0.868   0.001  0.00  0.00     0.045 A 
ATOM      5  C   UNL d   1       1.134  -0.869   0.001  0.00  0.00     0.045 A 
ATOM      6  C   UNL d   1      -2.506  -1.208   0.001  0.00  0.00     0.032 A 
ATOM      7  C   UNL d   1       2.493  -1.226   0.001  0.00  0.00     0.032 A 
ATOM      8  C   UNL d   1      -1.683   1.492   0.001  0.00  0.00     0.038 A 
ATOM      9  C   UNL d   1       1.690   1.482   0.000  0.00  0.00     0.038 A 
ATOM     10  C   UNL d   1       3.043   1.134  -0.000  0.00  0.00     0.035 A 
ATOM     11  C   UNL d   1      -3.039   1.155   0.001  0.00  0.00     0.035 A 
ATOM     12  C   UNL d   1       0.022  -3.099   0.001  0.00  0.00     0.156 C 
ATOM     13  C   UNL d   1       3.442  -0.199  -0.000  0.00  0.00     0.026 A 
ATOM     14  C   UNL d   1      -3.447  -0.173   0.001  0.00  0.00     0.026 A 
ATOM     15 CL   UNL d   1      -4.222   2.407   0.000  0.00  0.00    -0.084 Cl
ATOM     16 CL   UNL d   1       4.237   2.375  -0.002  0.00  0.00    -0.084 Cl
ENDROOT
TORSDOF 0
