REMARK  5 active torsions:
REMARK  status: ('A' for Active; 'I' for Inactive)
REMARK    1  A    between atoms: N_2  and  S_1 
REMARK    2  A    between atoms: C_5  and  S_1 
REMARK    3  A    between atoms: S_4  and  N_2 
REMARK    4  A    between atoms: C_8  and  S_4 
REMARK    5  A    between atoms: C_9  and  S_4 
ROOT
ATOM      1  N   UNL d   1       0.623  -1.752   1.455  0.00  0.00    -0.259 N 
ATOM      2  HN  UNL d   1       1.530  -1.412   1.774  1.00  0.00     0.186 HD
ENDROOT
BRANCH   1   3
ATOM      3  S   UNL d   1      -0.785  -1.321   2.302  0.00  0.00     0.267 S 
ATOM      4  O   UNL d   1      -0.874  -2.152   3.487  0.00  0.00    -0.200 OA
ATOM      5  O   UNL d   1      -1.914  -1.183   1.399  0.00  0.00    -0.200 OA
BRANCH   3   6
ATOM      6  C   UNL d   1      -0.365   0.319   2.848  0.00  0.00     0.080 A 
ATOM      7  C   UNL d   1      -0.735   1.414   2.064  0.00  0.00     0.026 A 
ATOM      8  C   UNL d   1      -0.520   2.706   2.545  0.00  0.00     0.008 A 
ATOM      9  C   UNL d   1       0.057   2.908   3.806  0.00  0.00    -0.062 A 
ATOM     10  C   UNL d   1       0.437   1.799   4.575  0.00  0.00     0.008 A 
ATOM     11  C   UNL d   1       0.228   4.304   4.330  0.00  0.00     0.048 C 
ATOM     12  C   UNL d   1       0.224   0.503   4.101  0.00  0.00     0.026 A 
ENDBRANCH   3   6
ENDBRANCH   1   3
BRANCH   1  13
ATOM     13  S   UNL d   1       0.534  -2.691   0.156  0.00  0.00    -0.079 SA
BRANCH  13  14
ATOM     14  C   UNL d   1       2.334  -2.973   0.191  0.00  0.00     0.011 A 
ATOM     15  C   UNL d   1       3.024  -3.294   1.369  0.00  0.00     0.019 A 
ATOM     16  C   UNL d   1       4.410  -3.445   1.365  0.00  0.00     0.001 A 
ATOM     17  C   UNL d   1       5.122  -3.288   0.179  0.00  0.00     0.000 A 
ATOM     18  C   UNL d   1       4.447  -2.985  -1.002  0.00  0.00     0.001 A 
ATOM     19  C   UNL d   1       3.057  -2.826  -0.999  0.00  0.00     0.019 A 
ENDBRANCH  13  14
BRANCH  13  20
ATOM     20  C   UNL d   1      -0.035  -4.293   0.884  0.00  0.00     0.055 C 
ATOM     21  C   UNL d   1      -1.562  -4.337   1.003  0.00  0.00     0.022 C 
ATOM     22  C   UNL d   1       0.376  -5.450  -0.037  0.00  0.00     0.022 C 
ENDBRANCH  13  20
ENDBRANCH   1  13
TORSDOF 5
