REMARK  4 active torsions:
REMARK  status: ('A' for Active; 'I' for Inactive)
REMARK    1  A    between atoms: N_3  and  S_1 
REMARK    2  A    between atoms: C_7  and  S_1 
REMARK    3  A    between atoms: N_2  and  C_8 
REMARK    4  A    between atoms: C_11  and  N_3 
ROOT
ATOM      1  C   UNL d   1       1.645   0.329  -5.411  0.00  0.00     0.030 A 
ATOM      2  C   UNL d   1       1.004  -0.416  -2.763  0.00  0.00     0.042 A 
ATOM      3  C   UNL d   1       0.347  -0.069  -5.051  0.00  0.00     0.031 A 
ATOM      4  C   UNL d   1       2.602   0.368  -4.388  0.00  0.00     0.031 A 
ATOM      5  C   UNL d   1       0.029  -0.452  -3.742  0.00  0.00     0.032 A 
ATOM      6  C   UNL d   1       2.287   0.016  -3.071  0.00  0.00     0.032 A 
ENDROOT
BRANCH   2   7
ATOM      7  N   UNL d   1       0.696  -0.863  -1.445  0.00  0.00    -0.281 N 
ATOM      8  H   UNL d   1       0.837  -0.221  -0.671  0.00  0.00     0.179 HD
BRANCH   7   9
ATOM      9  S   UNL d   1       0.922  -2.487  -1.050  0.00  0.00     0.263 S 
ATOM     10  O   UNL d   1       0.097  -3.307  -1.910  0.00  0.00    -0.200 OA
ATOM     11  O   UNL d   1       0.796  -2.558   0.394  0.00  0.00    -0.200 OA
BRANCH   9  12
ATOM     12  C   UNL d   1       2.628  -2.807  -1.452  0.00  0.00     0.079 A 
ATOM     13  C   UNL d   1       3.625  -2.590  -0.493  0.00  0.00     0.025 A 
ATOM     14  C   UNL d   1       4.960  -2.833  -0.826  0.00  0.00     0.002 A 
ATOM     15  C   UNL d   1       5.293  -3.298  -2.098  0.00  0.00     0.000 A 
ATOM     16  C   UNL d   1       4.293  -3.537  -3.043  0.00  0.00     0.002 A 
ATOM     17  C   UNL d   1       2.956  -3.305  -2.717  0.00  0.00     0.025 A 
ENDBRANCH   9  12
ENDBRANCH   7   9
ENDBRANCH   2   7
BRANCH   1  18
ATOM     18  N   UNL d   1       1.963   0.577  -6.731  0.00  0.00    -0.378 N 
ATOM     19  C   UNL d   1       3.338   0.443  -7.233  0.00  0.00     0.153 C 
ATOM     20  C   UNL d   1       3.303  -0.073  -8.690  0.00  0.00     0.291 C 
ATOM     21  N   UNL d   1       2.496   0.793  -9.578  0.00  0.00     0.087 N 
ATOM     22  C   UNL d   1       1.122   0.896  -9.031  0.00  0.00     0.291 C 
ATOM     23  C   UNL d   1       2.472   0.254 -10.935  0.00  0.00     0.310 C 
ATOM     24  C   UNL d   1       1.100   1.423  -7.576  0.00  0.00     0.153 C 
ENDBRANCH   1  18
TORSDOF 4
