REMARK  6 active torsions:
REMARK  status: ('A' for Active; 'I' for Inactive)
REMARK       I    between atoms: C_5  and  N_6 
REMARK    1  A    between atoms: C_18  and  C_5 
REMARK    2  A    between atoms: N_6  and  C_10 
REMARK    3  A    between atoms: C_8  and  C_19 
REMARK    4  A    between atoms: O_17  and  C_8 
REMARK    5  A    between atoms: S_15  and  C_18 
REMARK    6  A    between atoms: C_19  and  S_15 
ROOT
ATOM      1  C   UNL d   1      -2.630   3.775  -0.022  0.00  0.00     0.231 C 
ATOM      2  N   UNL d   1      -2.956   2.435  -0.113  0.00  0.00    -0.327 N 
ATOM      3  O   UNL d   1      -1.493   4.242   0.059  0.00  0.00    -0.272 OA
ATOM      4  H   UNL d   1      -3.932   2.204  -0.262  0.00  0.00     0.169 HD
ENDROOT
BRANCH   2   5
ATOM      5  C   UNL d   1      -2.061   1.345  -0.057  0.00  0.00     0.035 A 
ATOM      6  C   UNL d   1      -0.715   1.470   0.292  0.00  0.00     0.047 A 
ATOM      7  C   UNL d   1       0.062   0.324   0.307  0.00  0.00     0.050 A 
ATOM      8  C   UNL d   1       1.471   0.196   0.649  0.00  0.00     0.294 A 
ATOM      9  C   UNL d   1      -0.434  -0.922  -0.010  0.00  0.00    -0.018 A 
ATOM     10  O   UNL d   1       1.788  -1.126   0.507  0.00  0.00    -0.313 OA
ATOM     11  O   UNL d   1       2.215   1.089   1.002  0.00  0.00    -0.259 OA
ATOM     12  C   UNL d   1       0.655  -1.914   0.082  0.00  0.00     0.218 A 
ATOM     13  C   UNL d   1      -1.766  -1.074  -0.345  0.00  0.00     0.012 A 
ATOM     14  C   UNL d   1      -2.580   0.067  -0.358  0.00  0.00     0.030 A 
ENDBRANCH   2   5
BRANCH   1  15
ATOM     15  C   UNL d   1      -3.830   4.707   0.029  0.00  0.00     0.177 C 
BRANCH  15  16
ATOM     16  S   UNL d   1      -4.227   5.134   1.756  0.00  0.00    -0.149 SA
BRANCH  16  17
ATOM     17  C   UNL d   1      -2.634   5.817   2.339  0.00  0.00     0.184 C 
BRANCH  17  18
ATOM     18  C   UNL d   1      -2.185   7.021   1.540  0.00  0.00     0.149 C 
ATOM     19  O   UNL d   1      -2.598   8.157   1.732  0.00  0.00    -0.649 OA
BRANCH  18  20
ATOM     20  O   UNL d   1      -1.292   6.747   0.562  0.00  0.00    -0.776 OA
ATOM     21  H   UNL d   1      -1.075   5.788   0.450  0.00  0.00     0.167 HD
ENDBRANCH  18  20
ENDBRANCH  17  18
ENDBRANCH  16  17
ENDBRANCH  15  16
ENDBRANCH   1  15
TORSDOF 6
