REMARK  4 active torsions:
REMARK  status: ('A' for Active; 'I' for Inactive)
REMARK    1  A    between atoms: C_12  and  C_2 
REMARK    2  A    between atoms: C_3  and  C_9 
REMARK    3  A    between atoms: C_10  and  C_8 
REMARK    4  A    between atoms: N_11  and  C_12 
ROOT
ATOM      1  C   UNL d   1      -1.044  -2.033   0.746  0.00  0.00     0.125 C 
ATOM      2  N   UNL d   1      -1.230  -3.939   2.479  0.00  0.00    -0.191 NA
ATOM      3  N   UNL d   1      -3.075  -0.470   0.412  0.00  0.00    -0.191 NA
ATOM      4  C   UNL d   1      -1.140  -3.088   1.697  0.00  0.00     0.110 C 
ATOM      5  C   UNL d   1      -2.168  -1.175   0.573  0.00  0.00     0.110 C 
ATOM      6  C   UNL d   1       0.061  -1.825   0.004  0.00  0.00     0.045 C 
ENDROOT
BRANCH   6   7
ATOM      7  C   UNL d   1       1.277  -2.643   0.051  0.00  0.00    -0.034 A 
ATOM      8  C   UNL d   1       1.412  -3.740  -0.806  0.00  0.00     0.013 A 
ATOM      9  C   UNL d   1       2.583  -4.500  -0.792  0.00  0.00     0.021 A 
ATOM     10  C   UNL d   1       3.626  -4.168   0.077  0.00  0.00     0.017 A 
ATOM     11  C   UNL d   1       3.490  -3.080   0.940  0.00  0.00     0.021 A 
ATOM     12  C   UNL d   1       2.316  -2.323   0.932  0.00  0.00     0.013 A 
BRANCH  10  13
ATOM     13  C   UNL d   1       4.843  -4.916   0.040  0.00  0.00    -0.065 C 
ATOM     14  C   UNL d   1       5.862  -5.533  -0.107  0.00  0.00    -0.071 C 
BRANCH  14  15
ATOM     15  C   UNL d   1       7.093  -6.262  -0.440  0.00  0.00     0.365 C 
BRANCH  15  16
ATOM     16  N   UNL d   1       6.971  -6.956  -1.734  0.00  0.00     0.090 N 
ATOM     17  C   UNL d   1       6.720  -6.023  -2.837  0.00  0.00     0.310 C 
ATOM     18  C   UNL d   1       8.186  -7.724  -2.007  0.00  0.00     0.310 C 
ENDBRANCH  15  16
ENDBRANCH  14  15
ENDBRANCH  10  13
ENDBRANCH   6   7
TORSDOF 4
