REMARK  2 active torsions:
REMARK  status: ('A' for Active; 'I' for Inactive)
REMARK    1  A    between atoms: C_3  and  C_1 
REMARK    2  A    between atoms: C_5  and  C_2 
ROOT
ATOM      1  C   UNL d   1       2.511  -0.003   0.056  0.00  0.00    -0.025 A 
ATOM      2  C   UNL d   1       3.202  -1.256   0.092  0.00  0.00    -0.016 A 
ATOM      3  C   UNL d   1       4.622  -1.252   0.173  0.00  0.00    -0.025 A 
ATOM      4  C   UNL d   1       4.643   1.175   0.159  0.00  0.00     0.002 A 
ATOM      5  C   UNL d   1       3.253   1.191   0.095  0.00  0.00     0.012 A 
ATOM      6  C   UNL d   1       2.568  -2.522   0.047  0.00  0.00     0.013 A 
ATOM      7  C   UNL d   1       5.320  -0.040   0.204  0.00  0.00     0.012 A 
ATOM      8  C   UNL d   1       5.334  -2.463   0.223  0.00  0.00     0.012 A 
ATOM      9  C   UNL d   1       3.291  -3.719   0.094  0.00  0.00     0.001 A 
ATOM     10  C   UNL d   1       4.675  -3.688   0.186  0.00  0.00     0.001 A 
ENDROOT
BRANCH   1  11
ATOM     11  C   UNL d   1       1.030   0.069   0.073  0.00  0.00     0.013 C 
ATOM     12  C   UNL d   1       0.289   1.023  -0.515  0.00  0.00     0.012 C 
BRANCH  12  13
ATOM     13  C   UNL d   1      -1.173   1.017  -0.417  0.00  0.00    -0.036 A 
ATOM     14  C   UNL d   1      -1.809   1.663   0.651  0.00  0.00     0.014 A 
ATOM     15  C   UNL d   1      -3.202   1.651   0.750  0.00  0.00     0.043 A 
ATOM     16  C   UNL d   1      -3.952   0.992  -0.217  0.00  0.00     0.116 A 
ATOM     17  C   UNL d   1      -3.336   0.343  -1.282  0.00  0.00     0.043 A 
ATOM     18  F   UNL d   1      -5.289   0.980  -0.121  0.00  0.00    -0.206 F 
ATOM     19  C   UNL d   1      -1.943   0.354  -1.381  0.00  0.00     0.014 A 
ENDBRANCH  12  13
ENDBRANCH   1  11
TORSDOF 2
