REMARK  3 active torsions:
REMARK  status: ('A' for Active; 'I' for Inactive)
REMARK    1  A    between atoms: N_9  and  C_1 
REMARK    2  A    between atoms: C_2  and  C_12 
REMARK    3  A    between atoms: N_5  and  N_9 
ROOT
ATOM      1  N   UNL d   1      -1.363  -2.867   0.076  0.00  0.00    -0.310 N 
ATOM      2  HN  UNL d   1      -2.250  -2.410   0.289  1.00  0.00     0.186 HD
ATOM      3  C   UNL d   1      -1.294  -4.131  -0.180  0.00  0.00     0.122 C 
ENDROOT
BRANCH   1   4
ATOM      4  N   UNL d   1      -0.196  -2.181   0.045  0.00  0.00    -0.298 N 
ATOM      5  H   UNL d   1       0.683  -2.700   0.095  0.00  0.00     0.187 HD
BRANCH   4   6
ATOM      6  C   UNL d   1      -0.137  -0.953   0.764  0.00  0.00     0.094 A 
ATOM      7  C   UNL d   1       1.088  -0.579   1.354  0.00  0.00     0.079 A 
ATOM      8 CL   UNL d   1       2.493  -1.580   1.224  0.00  0.00    -0.080 Cl
ATOM      9  C   UNL d   1       1.175   0.605   2.078  0.00  0.00     0.114 A 
ATOM     10  N   UNL d   1       0.144   1.458   2.252  0.00  0.00    -0.372 N 
ATOM     11  C   UNL d   1      -1.020   1.106   1.658  0.00  0.00     0.114 A 
ATOM     12  HN  UNL d   1       0.237   2.316   2.796  1.00  0.00     0.164 HD
ATOM     13  C   UNL d   1      -1.212  -0.056   0.911  0.00  0.00     0.079 A 
ATOM     14 CL   UNL d   1      -2.766  -0.247   0.181  0.00  0.00    -0.080 Cl
ENDBRANCH   4   6
ENDBRANCH   1   4
BRANCH   3  15
ATOM     15  C   UNL d   1      -2.514  -4.961  -0.185  0.00  0.00     0.024 A 
ATOM     16  C   UNL d   1      -3.683  -4.540  -0.838  0.00  0.00     0.047 A 
ATOM     17 CL   UNL d   1      -3.756  -3.146  -1.856  0.00  0.00    -0.083 Cl
ATOM     18  C   UNL d   1      -4.849  -5.310  -0.752  0.00  0.00     0.025 A 
ATOM     19  C   UNL d   1      -4.853  -6.510  -0.045  0.00  0.00     0.003 A 
ATOM     20  C   UNL d   1      -3.684  -6.955   0.568  0.00  0.00     0.025 A 
ATOM     21  C   UNL d   1      -2.515  -6.186   0.499  0.00  0.00     0.047 A 
ATOM     22 CL   UNL d   1      -1.115  -6.803   1.305  0.00  0.00    -0.083 Cl
ENDBRANCH   3  15
TORSDOF 3
