REMARK  3 active torsions:
REMARK  status: ('A' for Active; 'I' for Inactive)
REMARK    1  A    between atoms: S_16  and  C_3 
REMARK    2  A    between atoms: C_14  and  C_19 
REMARK       I    between atoms: N_15  and  C_14 
REMARK    3  A    between atoms: C_19  and  S_16 
ROOT
ATOM      1  N   UNL d   1       1.236   0.428  -0.581  0.00  0.00    -0.120 N 
ATOM      2  C   UNL d   1       2.068  -0.673  -0.482  0.00  0.00     0.720 A 
ATOM      3  C   UNL d   1       2.050   1.510  -0.315  0.00  0.00     0.183 A 
ATOM      4  N   UNL d   1       3.266  -0.273  -0.099  0.00  0.00    -0.128 N 
ATOM      5  HN  UNL d   1       4.065  -0.878   0.089  1.00  0.00     0.205 HD
ATOM      6  N   UNL d   1       1.615  -1.925  -0.757  0.00  0.00    -0.130 N 
ATOM      7  HN  UNL d   1       2.260  -2.711  -0.668  1.00  0.00     0.205 HD
ATOM      8  N   UNL d   1       3.255   1.097   0.004  0.00  0.00    -0.265 N 
ATOM      9  HN  UNL d   1       4.041   1.686   0.279  1.00  0.00     0.189 HD
ATOM     10  N   UNL d   1       0.433  -2.150  -1.116  0.00  0.00    -0.284 N 
ATOM     11  HN  UNL d   1       0.137  -3.096  -1.357  1.00  0.00     0.187 HD
ATOM     12  C   UNL d   1      -0.123   0.254  -0.908  0.00  0.00     0.087 A 
ATOM     13  C   UNL d   1      -0.482  -1.076  -1.184  0.00  0.00     0.078 A 
ATOM     14  C   UNL d   1      -1.807  -1.365  -1.535  0.00  0.00     0.057 A 
ATOM     15  C   UNL d   1      -1.080   1.271  -0.949  0.00  0.00     0.035 A 
ATOM     16  C   UNL d   1      -2.757  -0.348  -1.591  0.00  0.00     0.036 A 
ATOM     17  C   UNL d   1      -2.400   0.964  -1.293  0.00  0.00     0.026 A 
ATOM     18 CL   UNL d   1      -4.382  -0.714  -2.017  0.00  0.00    -0.084 Cl
ENDROOT
BRANCH   3  19
ATOM     19  S   UNL d   1       1.589   3.162  -0.458  0.00  0.00    -0.082 SA
BRANCH  19  20
ATOM     20  C   UNL d   1       3.101   4.088  -0.035  0.00  0.00     0.185 C 
BRANCH  20  21
ATOM     21  C   UNL d   1       2.831   5.592  -0.172  0.00  0.00     0.229 C 
ATOM     22  N   UNL d   1       3.841   6.475   0.183  0.00  0.00    -0.347 N 
ATOM     23  C   UNL d   1       5.146   6.142   0.760  0.00  0.00     0.152 C 
ATOM     24  C   UNL d   1       3.573   7.917   0.157  0.00  0.00     0.152 C 
ATOM     25  C   UNL d   1       5.299   6.806   2.138  0.00  0.00     0.187 C 
ATOM     26  O   UNL d   1       5.052   8.221   2.074  0.00  0.00    -0.388 OA
ATOM     27  C   UNL d   1       3.734   8.494   1.566  0.00  0.00     0.187 C 
ATOM     28  O   UNL d   1       1.753   6.028  -0.582  0.00  0.00    -0.273 OA
ENDBRANCH  20  21
ENDBRANCH  19  20
ENDBRANCH   3  19
TORSDOF 3
