REMARK  4 active torsions:
REMARK  status: ('A' for Active; 'I' for Inactive)
REMARK    1  A    between atoms: C_6  and  C_1 
REMARK    2  A    between atoms: C_3  and  C_6 
REMARK    3  A    between atoms: C_11  and  C_4 
REMARK    4  A    between atoms: C_15  and  C_8 
ROOT
ATOM      1  C   UNL d   1      -1.053  -3.713   0.603  0.00  0.00     0.096 C 
ATOM      2  C   UNL d   1      -0.604  -4.942   0.270  0.00  0.00     0.038 C 
ATOM      3  C   UNL d   1      -0.368  -2.894   1.547  0.00  0.00     0.103 C 
ATOM      4  N   UNL d   1       0.196  -2.207   2.293  0.00  0.00    -0.191 NA
ENDROOT
BRANCH   1   5
ATOM      5  C   UNL d   1      -2.348  -3.271  -0.015  0.00  0.00     0.205 C 
ATOM      6  O   UNL d   1      -3.135  -4.091  -0.482  0.00  0.00    -0.286 OA
BRANCH   5   7
ATOM      7  C   UNL d   1      -2.627  -1.837  -0.030  0.00  0.00     0.048 A 
ATOM      8  C   UNL d   1      -1.729  -0.727  -0.082  0.00  0.00     0.056 A 
ATOM      9  C   UNL d   1      -2.486   0.424  -0.034  0.00  0.00     0.086 A 
ATOM     10  O   UNL d   1      -3.806   0.097  -0.037  0.00  0.00    -0.314 OA
ATOM     11  C   UNL d   1      -3.893  -1.266  -0.036  0.00  0.00     0.064 A 
ATOM     12  C   UNL d   1      -5.278  -1.793  -0.005  0.00  0.00     0.077 C 
BRANCH   9  13
ATOM     13  C   UNL d   1      -2.157   1.839   0.058  0.00  0.00    -0.002 A 
ATOM     14  C   UNL d   1      -2.980   2.822  -0.508  0.00  0.00     0.016 A 
ATOM     15  C   UNL d   1      -2.646   4.177  -0.401  0.00  0.00     0.024 A 
ATOM     16  C   UNL d   1      -1.492   4.556   0.281  0.00  0.00     0.034 A 
ATOM     17  C   UNL d   1      -0.664   3.593   0.851  0.00  0.00     0.024 A 
ATOM     18 CL   UNL d   1      -1.088   6.222   0.427  0.00  0.00    -0.084 Cl
ATOM     19  C   UNL d   1      -0.994   2.240   0.736  0.00  0.00     0.016 A 
ENDBRANCH   9  13
ENDBRANCH   5   7
ENDBRANCH   1   5
BRANCH   2  20
ATOM     20  C   UNL d   1       0.622  -5.534   0.813  0.00  0.00    -0.035 A 
ATOM     21  C   UNL d   1       0.573  -6.285   1.993  0.00  0.00     0.011 A 
ATOM     22  C   UNL d   1       1.748  -6.787   2.554  0.00  0.00     0.001 A 
ATOM     23  C   UNL d   1       2.975  -6.545   1.937  0.00  0.00     0.000 A 
ATOM     24  C   UNL d   1       3.028  -5.809   0.754  0.00  0.00     0.001 A 
ATOM     25  C   UNL d   1       1.854  -5.305   0.191  0.00  0.00     0.011 A 
ENDBRANCH   2  20
TORSDOF 4
