REMARK  4 active torsions:
REMARK  status: ('A' for Active; 'I' for Inactive)
REMARK    1  A    between atoms: C_2  and  C_1 
REMARK    2  A    between atoms: C_4  and  C_2 
REMARK    3  A    between atoms: S_8  and  C_3 
REMARK    4  A    between atoms: C_9  and  S_8 
ROOT
ATOM      1  C   UNL d   1       1.048  -0.084   0.120  0.00  0.00     0.062 C 
ATOM      2  C   UNL d   1       2.385  -0.151   0.106  0.00  0.00     0.054 C 
ENDROOT
BRANCH   1   3
ATOM      3  C   UNL d   1       0.366   1.202  -0.178  0.00  0.00     0.182 C 
ATOM      4  O   UNL d   1       0.956   2.133  -0.715  0.00  0.00    -0.288 OA
BRANCH   3   5
ATOM      5  C   UNL d   1      -1.083   1.314   0.150  0.00  0.00     0.014 A 
ATOM      6  C   UNL d   1      -1.660   0.625   1.224  0.00  0.00     0.016 A 
ATOM      7  C   UNL d   1      -3.019   0.789   1.513  0.00  0.00     0.007 A 
ATOM      8  C   UNL d   1      -3.815   1.646   0.743  0.00  0.00    -0.062 A 
ATOM      9  C   UNL d   1      -3.234   2.334  -0.328  0.00  0.00     0.007 A 
ATOM     10  C   UNL d   1      -5.267   1.823   1.079  0.00  0.00     0.048 C 
ATOM     11  C   UNL d   1      -1.875   2.175  -0.618  0.00  0.00     0.016 A 
ENDBRANCH   3   5
ENDBRANCH   1   3
BRANCH   2  12
ATOM     12  S   UNL d   1       3.192  -1.648   0.438  0.00  0.00    -0.102 SA
BRANCH  12  13
ATOM     13  C   UNL d   1       4.416  -1.718  -0.863  0.00  0.00     0.004 A 
ATOM     14  C   UNL d   1       5.612  -2.399  -0.597  0.00  0.00     0.020 A 
ATOM     15  C   UNL d   1       6.586  -2.551  -1.589  0.00  0.00     0.020 A 
ATOM     16  C   UNL d   1       6.366  -2.022  -2.858  0.00  0.00     0.011 A 
ATOM     17  C   UNL d   1       5.181  -1.348  -3.142  0.00  0.00     0.020 A 
ATOM     18 BR   UNL d   1       7.676  -2.230  -4.204  0.00  0.00    -0.051 Br
ATOM     19  C   UNL d   1       4.206  -1.202  -2.148  0.00  0.00     0.020 A 
ENDBRANCH  12  13
ENDBRANCH   2  12
TORSDOF 4
