REMARK  4 active torsions:
REMARK  status: ('A' for Active; 'I' for Inactive)
REMARK    1  A    between atoms: C_10  and  C_4 
REMARK    2  A    between atoms: C_11  and  C_5 
REMARK    3  A    between atoms: O_23  and  C_12 
REMARK    4  A    between atoms: O_24  and  C_13 
ROOT
ATOM      1  C   UNL d   1       1.943   0.243   0.090  0.00  0.00     0.021 C 
ATOM      2  C   UNL d   1      -0.405   1.253   0.086  0.00  0.00     0.021 C 
ATOM      3  C   UNL d   1       1.073   1.452   0.221  0.00  0.00     0.188 C 
ATOM      4  C   UNL d   1       3.276   0.443   0.148  0.00  0.00     0.024 C 
ATOM      5  C   UNL d   1      -1.172   2.360   0.127  0.00  0.00     0.024 C 
ATOM      6  N   UNL d   1      -0.031  -1.133   0.553  0.00  0.00     0.092 N 
ATOM      7  C   UNL d   1       1.276  -1.085  -0.108  0.00  0.00     0.315 C 
ATOM      8  C   UNL d   1      -0.918  -0.148  -0.072  0.00  0.00     0.315 C 
ATOM      9  O   UNL d   1       1.554   2.571   0.403  0.00  0.00    -0.287 OA
ATOM     10  C   UNL d   1      -0.605  -2.476   0.460  0.00  0.00     0.310 C 
ENDROOT
BRANCH   4  11
ATOM     11  C   UNL d   1       4.265  -0.611  -0.080  0.00  0.00    -0.035 A 
ATOM     12  C   UNL d   1       4.722  -0.848  -1.381  0.00  0.00     0.014 A 
ATOM     13  C   UNL d   1       5.641  -1.871  -1.635  0.00  0.00     0.037 A 
ATOM     14  C   UNL d   1       6.106  -2.666  -0.588  0.00  0.00     0.068 A 
ATOM     15  C   UNL d   1       5.670  -2.412   0.715  0.00  0.00     0.037 A 
ATOM     16  C   UNL d   1       4.746  -1.394   0.971  0.00  0.00     0.014 A 
BRANCH  14  17
ATOM     17  O   UNL d   1       7.011  -3.684  -0.714  0.00  0.00    -0.356 OA
ATOM     18  C   UNL d   1       7.025  -4.340  -1.978  0.00  0.00     0.210 C 
ENDBRANCH  14  17
ENDBRANCH   4  11
BRANCH   5  19
ATOM     19  C   UNL d   1      -2.632   2.352   0.026  0.00  0.00    -0.035 A 
ATOM     20  C   UNL d   1      -3.403   2.249   1.188  0.00  0.00     0.014 A 
ATOM     21  C   UNL d   1      -4.799   2.216   1.110  0.00  0.00     0.037 A 
ATOM     22  C   UNL d   1      -5.436   2.287  -0.128  0.00  0.00     0.068 A 
ATOM     23  C   UNL d   1      -4.660   2.399  -1.288  0.00  0.00     0.037 A 
ATOM     24  C   UNL d   1      -3.266   2.430  -1.216  0.00  0.00     0.014 A 
BRANCH  22  25
ATOM     25  O   UNL d   1      -6.787   2.255  -0.340  0.00  0.00    -0.356 OA
ATOM     26  C   UNL d   1      -7.611   2.123   0.811  0.00  0.00     0.210 C 
ENDBRANCH  22  25
ENDBRANCH   5  19
TORSDOF 4
