REMARK  2 active torsions:
REMARK  status: ('A' for Active; 'I' for Inactive)
REMARK    1  A    between atoms: C_9  and  C_1 
REMARK    2  A    between atoms: N_12  and  C_2 
ROOT
ATOM      1  C   UNL d   1       2.472   0.090   0.032  0.00  0.00     0.079 A 
ATOM      2  C   UNL d   1       1.600   1.172   0.018  0.00  0.00     0.060 A 
ATOM      3  C   UNL d   1       0.199   0.790   0.004  0.00  0.00     0.031 A 
ATOM      4  C   UNL d   1       0.117  -0.601  -0.021  0.00  0.00     0.088 A 
ATOM      5  S   UNL d   1       1.619  -1.382  -0.049  0.00  0.00    -0.066 SA
ATOM      6  N   UNL d   1      -0.992  -1.365  -0.027  0.00  0.00    -0.354 N 
ATOM      7  HN  UNL d   1      -0.955  -2.384  -0.048  1.00  0.00     0.166 HD
ATOM      8  C   UNL d   1      -1.048   1.484   0.017  0.00  0.00    -0.045 A 
ATOM      9  C   UNL d   1      -2.221   0.696   0.012  0.00  0.00     0.032 A 
ATOM     10  C   UNL d   1      -2.147  -0.687  -0.004  0.00  0.00     0.006 A 
ATOM     11  C   UNL d   1      -1.266   2.974   0.040  0.00  0.00     0.049 C 
ATOM     12  C   UNL d   1      -3.406  -1.505   0.003  0.00  0.00     0.068 C 
ENDROOT
BRANCH   1  13
ATOM     13  C   UNL d   1       3.933   0.116   0.064  0.00  0.00     0.164 C 
ATOM     14  O   UNL d   1       4.575   1.140  -0.200  0.00  0.00    -0.292 OA
ATOM     15  C   UNL d   1       4.713  -1.127   0.445  0.00  0.00     0.097 C 
ENDBRANCH   1  13
BRANCH   2  16
ATOM     16  N   UNL d   1       2.064   2.444   0.046  0.00  0.00    -0.397 N 
ATOM     17  H   UNL d   1       3.062   2.613  -0.112  0.00  0.00     0.156 HD
ATOM     18  H   UNL d   1       1.501   3.244  -0.209  0.00  0.00     0.156 HD
ENDBRANCH   2  16
TORSDOF 2
