REMARK  6 active torsions:
REMARK  status: ('A' for Active; 'I' for Inactive)
REMARK    1  A    between atoms: C_10  and  N_1 
REMARK    2  A    between atoms: C_8  and  C_2 
REMARK    3  A    between atoms: C_7  and  C_9 
REMARK    4  A    between atoms: C_11  and  N_15 
REMARK    5  A    between atoms: N_15  and  C_13 
REMARK    6  A    between atoms: O_27  and  C_14 
ROOT
ATOM      1  C   UNL d   1       2.342  -1.299  -0.028  0.00  0.00     0.068 C 
ATOM      2  C   UNL d   1       2.506  -2.600  -0.282  0.00  0.00     0.092 C 
ENDROOT
BRANCH   2   3
ATOM      3  N   UNL d   1       3.679  -3.321  -0.255  0.00  0.00    -0.364 N 
ATOM      4  H   UNL d   1       4.485  -2.834   0.105  0.00  0.00     0.165 HD
BRANCH   3   5
ATOM      5  C   UNL d   1       3.855  -4.674  -0.620  0.00  0.00     0.066 A 
ATOM      6  C   UNL d   1       2.973  -5.225  -1.581  0.00  0.00     0.048 A 
ATOM      7  C   UNL d   1       2.974  -6.580  -1.945  0.00  0.00     0.050 A 
ATOM      8  C   UNL d   1       3.901  -7.423  -1.340  0.00  0.00     0.019 A 
ATOM      9  C   UNL d   1       4.796  -6.908  -0.401  0.00  0.00     0.040 A 
ATOM     10  C   UNL d   1       4.788  -5.548  -0.026  0.00  0.00     0.094 A 
BRANCH   7  11
ATOM     11  C   UNL d   1       1.986  -7.110  -2.953  0.00  0.00     0.417 C 
ATOM     12  F   UNL d   1       1.149  -6.155  -3.449  0.00  0.00    -0.166 F 
ATOM     13  F   UNL d   1       2.595  -7.667  -4.036  0.00  0.00    -0.166 F 
ATOM     14  F   UNL d   1       1.180  -8.078  -2.436  0.00  0.00    -0.166 F 
ENDBRANCH   7  11
BRANCH  10  15
ATOM     15  O   UNL d   1       5.745  -5.320   0.927  0.00  0.00    -0.354 OA
ATOM     16  C   UNL d   1       5.918  -4.046   1.512  0.00  0.00     0.210 C 
ENDBRANCH  10  15
ENDBRANCH   3   5
ENDBRANCH   2   3
BRANCH   1  17
ATOM     17  C   UNL d   1       1.040  -0.739   0.010  0.00  0.00     0.139 C 
ATOM     18  N   UNL d   1       0.800   0.619  -0.195  0.00  0.00    -0.225 N 
ATOM     19  N   UNL d   1      -0.445   0.895   0.257  0.00  0.00     0.001 NA
ATOM     20  N   UNL d   1      -1.002  -0.271   0.537  0.00  0.00    -0.007 NA
ATOM     21  N   UNL d   1      -0.100  -1.293   0.380  0.00  0.00    -0.270 N 
ATOM     22  HN  UNL d   1      -0.276  -2.288   0.522  1.00  0.00     0.185 HD
BRANCH  18  23
ATOM     23  C   UNL d   1       1.613   1.633  -0.758  0.00  0.00     0.056 A 
ATOM     24  C   UNL d   1       2.574   1.335  -1.734  0.00  0.00     0.032 A 
ATOM     25  C   UNL d   1       3.403   2.347  -2.227  0.00  0.00     0.021 A 
ATOM     26  C   UNL d   1       3.275   3.649  -1.743  0.00  0.00     0.011 A 
ATOM     27  C   UNL d   1       2.296   3.959  -0.799  0.00  0.00     0.021 A 
ATOM     28 BR   UNL d   1       4.439   5.000  -2.366  0.00  0.00    -0.051 Br
ATOM     29  C   UNL d   1       1.447   2.957  -0.324  0.00  0.00     0.032 A 
ENDBRANCH  18  23
ENDBRANCH   1  17
TORSDOF 6
