REMARK  6 active torsions:
REMARK  status: ('A' for Active; 'I' for Inactive)
REMARK    1  A    between atoms: C_2  and  C_1 
REMARK       I    between atoms: N_3  and  C_2 
REMARK    2  A    between atoms: C_4  and  N_3 
REMARK       I    between atoms: C_5  and  N_6 
REMARK    3  A    between atoms: C_13  and  C_5 
REMARK    4  A    between atoms: N_6  and  C_7 
REMARK    5  A    between atoms: C_11  and  C_8 
REMARK    6  A    between atoms: N_10  and  C_13 
ROOT
ATOM      1  C   UNL d   1      -1.367  -0.785   1.116  0.00  0.00     0.062 A 
ATOM      2  C   UNL d   1      -2.066   0.388   1.448  0.00  0.00     0.061 A 
ATOM      3  C   UNL d   1      -1.856  -1.686   3.391  0.00  0.00    -0.048 A 
ATOM      4  C   UNL d   1      -1.317  -1.821   2.082  0.00  0.00     0.039 A 
ATOM      5  C   UNL d   1      -2.583   0.547   2.742  0.00  0.00     0.032 A 
ATOM      6  C   UNL d   1      -2.450  -0.456   3.701  0.00  0.00     0.010 A 
ENDROOT
BRANCH   2   7
ATOM      7  N   UNL d   1      -2.354   1.428   0.535  0.00  0.00    -0.324 N 
ATOM      8  C   UNL d   1      -3.632   1.513  -0.013  0.00  0.00     0.250 C 
ATOM      9  O   UNL d   1      -4.558   0.761   0.294  0.00  0.00    -0.271 OA
ATOM     10  H   UNL d   1      -1.624   1.600  -0.155  0.00  0.00     0.169 HD
BRANCH   8  11
ATOM     11  C   UNL d   1      -3.799   2.663  -1.035  0.00  0.00     0.375 C 
BRANCH  11  12
ATOM     12  N   UNL d   1      -4.560   2.168  -2.183  0.00  0.00     0.101 N 
ATOM     13  C   UNL d   1      -3.768   1.928  -3.393  0.00  0.00     0.299 C 
ATOM     14  C   UNL d   1      -4.628   1.136  -4.393  0.00  0.00     0.198 C 
ATOM     15  O   UNL d   1      -5.820   1.860  -4.736  0.00  0.00    -0.388 OA
ATOM     16  C   UNL d   1      -6.583   2.163  -3.555  0.00  0.00     0.198 C 
ATOM     17  C   UNL d   1      -5.748   2.956  -2.532  0.00  0.00     0.299 C 
ENDBRANCH  11  12
ENDBRANCH   8  11
ENDBRANCH   2   7
BRANCH   1  18
ATOM     18  N   UNL d   1      -0.766  -1.071  -0.148  0.00  0.00    -0.321 N 
ATOM     19  C   UNL d   1      -0.424  -0.187  -1.179  0.00  0.00     0.277 C 
ATOM     20  O   UNL d   1      -0.489   1.036  -1.064  0.00  0.00    -0.268 OA
ATOM     21  H   UNL d   1      -0.500  -2.043  -0.284  0.00  0.00     0.169 HD
BRANCH  19  22
ATOM     22  C   UNL d   1       0.157  -0.834  -2.468  0.00  0.00     0.269 C 
ATOM     23 CL   UNL d   1      -0.352  -2.534  -2.635  0.00  0.00    -0.073 Cl
ATOM     24 CL   UNL d   1       1.933  -0.741  -2.360  0.00  0.00    -0.073 Cl
ATOM     25 CL   UNL d   1      -0.407   0.084  -3.892  0.00  0.00    -0.073 Cl
ENDBRANCH  19  22
ENDBRANCH   1  18
BRANCH   3  26
ATOM     26  C   UNL d   1      -1.885  -2.859   4.401  0.00  0.00    -0.024 C 
ATOM     27  C   UNL d   1      -0.517  -3.558   4.528  0.00  0.00     0.019 C 
ATOM     28  C   UNL d   1      -2.292  -2.441   5.838  0.00  0.00     0.019 C 
ATOM     29  C   UNL d   1      -2.930  -3.890   3.922  0.00  0.00     0.019 C 
ENDBRANCH   3  26
TORSDOF 6
