REMARK  6 active torsions:
REMARK  status: ('A' for Active; 'I' for Inactive)
REMARK    1  A    between atoms: O_17  and  C_1 
REMARK    2  A    between atoms: C_6  and  N_2 
REMARK    3  A    between atoms: O_19  and  C_4 
REMARK    4  A    between atoms: O_20  and  C_5 
REMARK    5  A    between atoms: N_7  and  C_8 
REMARK       I    between atoms: C_9  and  N_7 
REMARK    6  A    between atoms: C_10  and  C_11 
ROOT
ATOM      1  N   UNL d   1      -3.643  -0.632  -0.110  0.00  0.00    -0.363 N 
ATOM      2  HN  UNL d   1      -3.361  -1.606  -0.221  1.00  0.00     0.165 HD
ATOM      3  C   UNL d   1      -2.778   0.269   0.224  0.00  0.00     0.100 C 
ENDROOT
BRANCH   1   4
ATOM      4  C   UNL d   1      -4.985  -0.242  -0.317  0.00  0.00     0.059 A 
ATOM      5  C   UNL d   1      -5.702  -0.854  -1.364  0.00  0.00     0.061 A 
ATOM      6  C   UNL d   1      -7.021  -0.479  -1.634  0.00  0.00     0.032 A 
ATOM      7  C   UNL d   1      -7.631   0.519  -0.862  0.00  0.00     0.009 A 
ATOM      8  C   UNL d   1      -6.940   1.138   0.177  0.00  0.00    -0.060 A 
ATOM      9  C   UNL d   1      -5.629   0.736   0.459  0.00  0.00     0.038 A 
ATOM     10  C   UNL d   1      -7.606   2.213   0.986  0.00  0.00     0.048 C 
BRANCH   5  11
ATOM     11  N   UNL d   1      -5.053  -1.879  -2.089  0.00  0.00    -0.326 N 
ATOM     12  C   UNL d   1      -5.360  -2.277  -3.371  0.00  0.00     0.218 C 
ATOM     13  O   UNL d   1      -6.141  -1.714  -4.134  0.00  0.00    -0.274 OA
ATOM     14  C   UNL d   1      -4.661  -3.545  -3.793  0.00  0.00     0.117 C 
ATOM     15  H   UNL d   1      -4.179  -2.185  -1.670  0.00  0.00     0.169 HD
ENDBRANCH   5  11
ENDBRANCH   1   4
BRANCH   3  16
ATOM     16  C   UNL d   1      -1.360  -0.072   0.418  0.00  0.00    -0.015 A 
ATOM     17  C   UNL d   1      -0.775  -1.069  -0.360  0.00  0.00     0.052 A 
ATOM     18  C   UNL d   1       0.565  -1.415  -0.176  0.00  0.00     0.105 A 
ATOM     19  C   UNL d   1       1.310  -0.764   0.826  0.00  0.00     0.135 A 
ATOM     20  C   UNL d   1       0.729   0.300   1.562  0.00  0.00     0.105 A 
ATOM     21  C   UNL d   1      -0.615   0.625   1.367  0.00  0.00     0.052 A 
BRANCH  18  22
ATOM     22  O   UNL d   1       0.947  -2.396  -1.050  0.00  0.00    -0.353 OA
ATOM     23  C   UNL d   1       2.261  -2.919  -0.979  0.00  0.00     0.210 C 
ENDBRANCH  18  22
BRANCH  19  24
ATOM     24  O   UNL d   1       2.631  -1.106   0.996  0.00  0.00    -0.351 OA
ATOM     25  C   UNL d   1       2.981  -1.443   2.340  0.00  0.00     0.210 C 
ENDBRANCH  19  24
BRANCH  20  26
ATOM     26  O   UNL d   1       1.542   0.956   2.455  0.00  0.00    -0.353 OA
ATOM     27  C   UNL d   1       1.071   2.187   2.992  0.00  0.00     0.210 C 
ENDBRANCH  20  26
ENDBRANCH   3  16
TORSDOF 6
