REMARK  2 active torsions:
REMARK  status: ('A' for Active; 'I' for Inactive)
REMARK    1  A    between atoms: C_6  and  C_1 
REMARK    2  A    between atoms: C_16  and  C_9 
ROOT
ATOM      1  C   UNL d   1      -2.220  -0.009   0.048  0.00  0.00     0.067 A 
ATOM      2  N   UNL d   1      -0.096   0.309  -0.357  0.00  0.00    -0.316 N 
ATOM      3  N   UNL d   1      -1.539  -0.828   0.920  0.00  0.00    -0.340 N 
ATOM      4  HN  UNL d   1      -1.937  -1.456   1.619  1.00  0.00     0.167 HD
ATOM      5  C   UNL d   1      -0.262  -0.627   0.657  0.00  0.00     0.111 A 
ATOM      6  C   UNL d   1      -1.344   0.711  -0.736  0.00  0.00     0.129 A 
ATOM      7  C   UNL d   1       1.139   0.706  -0.856  0.00  0.00     0.104 A 
ATOM      8  C   UNL d   1       0.925  -1.193   1.204  0.00  0.00     0.050 A 
ATOM      9  C   UNL d   1       2.264   0.167  -0.348  0.00  0.00    -0.046 A 
ATOM     10  C   UNL d   1       2.130  -0.820   0.726  0.00  0.00     0.012 A 
ATOM     11  C   UNL d   1       3.635   0.522  -0.828  0.00  0.00     0.049 C 
ENDROOT
BRANCH   1  12
ATOM     12  C   UNL d   1      -3.706   0.062  -0.057  0.00  0.00     0.033 A 
ATOM     13  S   UNL d   1      -4.522   1.052  -1.177  0.00  0.00    -0.087 SA
ATOM     14  C   UNL d   1      -6.064   0.450  -0.723  0.00  0.00     0.016 A 
ATOM     15  C   UNL d   1      -5.945  -0.433   0.338  0.00  0.00     0.021 A 
ATOM     16  C   UNL d   1      -4.583  -0.663   0.716  0.00  0.00     0.023 A 
BRANCH  14  17
ATOM     17  C   UNL d   1      -7.265   0.925  -1.429  0.00  0.00    -0.019 A 
ATOM     18  C   UNL d   1      -7.254   1.144  -2.818  0.00  0.00     0.013 A 
ATOM     19  C   UNL d   1      -8.383   1.629  -3.481  0.00  0.00     0.001 A 
ATOM     20  C   UNL d   1      -9.547   1.891  -2.767  0.00  0.00     0.000 A 
ATOM     21  C   UNL d   1      -9.585   1.661  -1.393  0.00  0.00     0.001 A 
ATOM     22  C   UNL d   1      -8.452   1.178  -0.729  0.00  0.00     0.013 A 
ENDBRANCH  14  17
ENDBRANCH   1  12
TORSDOF 2
