REMARK  1 active torsions:
REMARK  status: ('A' for Active; 'I' for Inactive)
REMARK    1  A    between atoms: N_11  and  C_5 
ROOT
ATOM      1  C   UNL d   1      -0.931   0.491  -0.009  0.00  0.00     0.025 A 
ATOM      2  C   UNL d   1      -3.138  -0.259   0.094  0.00  0.00     0.085 A 
ATOM      3  C   UNL d   1      -1.751  -0.612   0.158  0.00  0.00    -0.016 A 
ATOM      4  S   UNL d   1      -1.821   1.917  -0.245  0.00  0.00    -0.070 SA
ATOM      5  C   UNL d   1      -3.321   1.096  -0.124  0.00  0.00     0.089 A 
ATOM      6  C   UNL d   1       0.536   0.413  -0.006  0.00  0.00    -0.012 A 
ATOM      7  C   UNL d   1      -4.224  -1.184   0.235  0.00  0.00     0.103 C 
ATOM      8  C   UNL d   1      -1.139  -1.964   0.393  0.00  0.00     0.046 C 
ATOM      9  N   UNL d   1      -5.100  -1.940   0.348  0.00  0.00    -0.191 NA
ATOM     10  C   UNL d   1       1.112  -0.877  -0.117  0.00  0.00    -0.046 A 
ATOM     11  C   UNL d   1       0.217  -2.088  -0.330  0.00  0.00     0.044 C 
ATOM     12  C   UNL d   1       1.373   1.526   0.133  0.00  0.00     0.013 A 
ATOM     13  C   UNL d   1       2.505  -1.022  -0.104  0.00  0.00     0.008 A 
ATOM     14  C   UNL d   1       2.760   1.368   0.159  0.00  0.00     0.001 A 
ATOM     15  C   UNL d   1       3.324   0.098   0.042  0.00  0.00     0.001 A 
ENDROOT
BRANCH   5  16
ATOM     16  N   UNL d   1      -4.466   1.797  -0.246  0.00  0.00    -0.392 N 
ATOM     17  H   UNL d   1      -4.441   2.805  -0.370  0.00  0.00     0.156 HD
ATOM     18  H   UNL d   1      -5.393   1.394  -0.148  0.00  0.00     0.156 HD
ENDBRANCH   5  16
TORSDOF 1
