REMARK  3 active torsions:
REMARK  status: ('A' for Active; 'I' for Inactive)
REMARK    1  A    between atoms: C_2  and  S_1 
REMARK    2  A    between atoms: N_3  and  S_1 
REMARK    3  A    between atoms: C_12  and  N_3 
ROOT
ATOM      1  S   UNL d   1       0.670  -0.020   0.218  0.00  0.00     0.260 S 
ATOM      2  O   UNL d   1       1.214  -0.264   1.537  0.00  0.00    -0.200 OA
ATOM      3  O   UNL d   1      -0.553  -0.657  -0.211  0.00  0.00    -0.200 OA
ENDROOT
BRANCH   1   4
ATOM      4  C   UNL d   1       1.919  -0.376  -0.996  0.00  0.00     0.096 A 
ATOM      5  C   UNL d   1       1.772  -0.075  -2.358  0.00  0.00     0.031 A 
ATOM      6  C   UNL d   1       2.850  -0.294  -3.231  0.00  0.00     0.043 A 
ATOM      7  I   UNL d   1       0.046   0.709  -3.272  0.00  0.00    -0.043 I 
ATOM      8  C   UNL d   1       4.048  -0.822  -2.753  0.00  0.00     0.035 A 
ATOM      9  C   UNL d   1       4.182  -1.165  -1.412  0.00  0.00     0.025 A 
ATOM     10 CL   UNL d   1       5.373  -1.041  -3.829  0.00  0.00    -0.084 Cl
ATOM     11  C   UNL d   1       3.119  -0.948  -0.535  0.00  0.00     0.028 A 
ENDBRANCH   1   4
BRANCH   1  12
ATOM     12  N   UNL d   1       0.450   1.641   0.047  0.00  0.00    -0.311 N 
ATOM     13  H   UNL d   1      -0.512   1.842  -0.234  0.00  0.00     0.172 HD
BRANCH  12  14
ATOM     14  C   UNL d   1       1.075   2.598   0.984  0.00  0.00     0.093 C 
ATOM     15  C   UNL d   1       0.539   4.005   0.663  0.00  0.00     0.026 C 
ATOM     16  C   UNL d   1       1.081   4.570  -0.652  0.00  0.00     0.002 C 
ATOM     17  C   UNL d   1       2.604   4.515  -0.715  0.00  0.00     0.000 C 
ATOM     18  C   UNL d   1       3.124   3.110  -0.435  0.00  0.00     0.002 C 
ATOM     19  C   UNL d   1       2.605   2.587   0.902  0.00  0.00     0.026 C 
ENDBRANCH  12  14
ENDBRANCH   1  12
TORSDOF 3
