REMARK  9 active torsions:
REMARK  status: ('A' for Active; 'I' for Inactive)
REMARK    1  A    between atoms: C_10  and  C_1 
REMARK       I    between atoms: N_11  and  C_1 
REMARK    2  A    between atoms: C_2  and  C_15 
REMARK    3  A    between atoms: S_6  and  C_10 
REMARK    4  A    between atoms: C_12  and  S_6 
REMARK    5  A    between atoms: C_18  and  N_11 
REMARK    6  A    between atoms: O_16  and  C_13 
REMARK    7  A    between atoms: S_14  and  C_21 
REMARK    8  A    between atoms: C_15  and  S_14 
REMARK    9  A    between atoms: C_21  and  C_18 
ROOT
ATOM      1  C   UNL d   1       0.988   0.096  -0.237  0.00  0.00     0.227 C 
ATOM      2  O   UNL d   1       0.353  -0.397  -1.169  0.00  0.00    -0.273 OA
ATOM      3  N   UNL d   1       2.359   0.043  -0.173  0.00  0.00    -0.360 N 
ATOM      4  H   UNL d   1       2.808   0.337   0.691  0.00  0.00     0.162 HD
ENDROOT
BRANCH   1   5
ATOM      5  C   UNL d   1       0.285   0.731   0.959  0.00  0.00     0.182 C 
BRANCH   5   6
ATOM      6  S   UNL d   1       1.286   2.074   1.696  0.00  0.00    -0.121 SA
BRANCH   6   7
ATOM      7  C   UNL d   1       0.149   2.707   2.917  0.00  0.00     0.003 A 
ATOM      8  C   UNL d   1       0.541   2.719   4.262  0.00  0.00     0.055 A 
ATOM      9  C   UNL d   1      -0.281   3.296   5.233  0.00  0.00     0.069 A 
ATOM     10  C   UNL d   1      -1.503   3.853   4.851  0.00  0.00     0.037 A 
ATOM     11  C   UNL d   1      -1.902   3.842   3.514  0.00  0.00     0.004 A 
ATOM     12  C   UNL d   1      -1.073   3.275   2.546  0.00  0.00     0.018 A 
BRANCH   9  13
ATOM     13  O   UNL d   1      -0.002   3.394   6.569  0.00  0.00    -0.356 OA
ATOM     14  C   UNL d   1       1.251   2.880   7.005  0.00  0.00     0.210 C 
ENDBRANCH   9  13
ENDBRANCH   6   7
ENDBRANCH   5   6
ENDBRANCH   1   5
BRANCH   3  15
ATOM     15  C   UNL d   1       3.166  -0.602  -1.191  0.00  0.00     0.132 C 
BRANCH  15  16
ATOM     16  C   UNL d   1       4.667  -0.504  -0.910  0.00  0.00     0.094 C 
BRANCH  16  17
ATOM     17  S   UNL d   1       5.065  -1.317   0.674  0.00  0.00    -0.161 SA
BRANCH  17  18
ATOM     18  C   UNL d   1       6.880  -1.146   0.646  0.00  0.00     0.139 C 
BRANCH  18  19
ATOM     19  C   UNL d   1       7.462  -1.780   1.856  0.00  0.00     0.061 A 
ATOM     20  O   UNL d   1       8.128  -0.960   2.720  0.00  0.00    -0.326 OA
ATOM     21  C   UNL d   1       8.537  -1.730   3.762  0.00  0.00     0.142 A 
ATOM     22  C   UNL d   1       8.155  -3.037   3.576  0.00  0.00     0.027 A 
ATOM     23  C   UNL d   1       7.473  -3.075   2.337  0.00  0.00     0.035 A 
ENDBRANCH  18  19
ENDBRANCH  17  18
ENDBRANCH  16  17
ENDBRANCH  15  16
ENDBRANCH   3  15
TORSDOF 9
