REMARK  4 active torsions:
REMARK  status: ('A' for Active; 'I' for Inactive)
REMARK    1  A    between atoms: N_2  and  S_1 
REMARK    2  A    between atoms: C_4  and  S_1 
REMARK    3  A    between atoms: C_3  and  N_2 
REMARK       I    between atoms: C_7  and  N_10 
REMARK    4  A    between atoms: N_10  and  C_14 
ROOT
ATOM      1  S   UNL d   1       0.936  -0.066   0.024  0.00  0.00     0.246 S 
ATOM      2  O   UNL d   1       1.632   1.176  -0.243  0.00  0.00    -0.206 OA
ATOM      3  O   UNL d   1       1.585  -1.346  -0.172  0.00  0.00    -0.206 OA
ENDROOT
BRANCH   1   4
ATOM      4  N   UNL d   1      -0.481  -0.002  -0.904  0.00  0.00    -0.177 NA
ATOM      5  H   UNL d   1      -0.344   0.688  -1.646  0.00  0.00     0.146 HD
BRANCH   4   6
ATOM      6  C   UNL d   1      -1.022  -1.265  -1.339  0.00  0.00     0.083 A 
ATOM      7  C   UNL d   1      -1.887  -1.982  -0.508  0.00  0.00     0.140 A 
ATOM      8  F   UNL d   1      -2.270  -1.473   0.671  0.00  0.00    -0.204 F 
ATOM      9  C   UNL d   1      -2.404  -3.217  -0.896  0.00  0.00     0.044 A 
ATOM     10  C   UNL d   1      -2.042  -3.765  -2.125  0.00  0.00     0.005 A 
ATOM     11  C   UNL d   1      -1.157  -3.075  -2.957  0.00  0.00     0.026 A 
ATOM     12  C   UNL d   1      -0.646  -1.833  -2.564  0.00  0.00     0.059 A 
ATOM     13 CL   UNL d   1       0.427  -1.010  -3.641  0.00  0.00    -0.082 Cl
ENDBRANCH   4   6
ENDBRANCH   1   4
BRANCH   1  14
ATOM     14  C   UNL d   1       0.344   0.005   1.696  0.00  0.00     0.075 A 
ATOM     15  C   UNL d   1       0.160  -1.175   2.421  0.00  0.00     0.027 A 
ATOM     16  C   UNL d   1      -0.244  -1.111   3.760  0.00  0.00     0.031 A 
ATOM     17  C   UNL d   1      -0.439   0.127   4.392  0.00  0.00     0.034 A 
ATOM     18  C   UNL d   1      -0.227   1.297   3.657  0.00  0.00     0.031 A 
ATOM     19  C   UNL d   1       0.166   1.242   2.315  0.00  0.00     0.027 A 
BRANCH  17  20
ATOM     20  N   UNL d   1      -0.833   0.112   5.748  0.00  0.00    -0.328 N 
ATOM     21  C   UNL d   1      -1.073   1.208   6.558  0.00  0.00     0.218 C 
ATOM     22  O   UNL d   1      -0.987   2.390   6.240  0.00  0.00    -0.274 OA
ATOM     23  C   UNL d   1      -1.477   0.840   7.964  0.00  0.00     0.117 C 
ATOM     24  H   UNL d   1      -0.946  -0.803   6.165  0.00  0.00     0.169 HD
ENDBRANCH  17  20
ENDBRANCH   1  14
TORSDOF 4
