REMARK  2 active torsions:
REMARK  status: ('A' for Active; 'I' for Inactive)
REMARK    1  A    between atoms: N_7  and  C_1 
REMARK    2  A    between atoms: C_8  and  N_7 
ROOT
ATOM      1  C   UNL d   1      -2.056  -0.742  -0.090  0.00  0.00     0.150 A 
ATOM      2  N   UNL d   1      -1.728   0.424  -0.598  0.00  0.00    -0.335 N 
ATOM      3  HN  UNL d   1      -2.382   1.064  -1.049  1.00  0.00     0.168 HD
ATOM      4  S   UNL d   1      -0.744  -1.619   0.602  0.00  0.00    -0.052 SA
ATOM      5  C   UNL d   1      -0.379   0.668  -0.438  0.00  0.00     0.051 A 
ATOM      6  C   UNL d   1       0.330  -0.325   0.236  0.00  0.00     0.035 A 
ATOM      7  C   UNL d   1       0.308   1.813  -0.887  0.00  0.00     0.031 A 
ATOM      8  C   UNL d   1       1.701  -0.197   0.511  0.00  0.00     0.021 A 
ATOM      9  C   UNL d   1       1.676   1.945  -0.632  0.00  0.00     0.002 A 
ATOM     10  C   UNL d   1       2.360   0.955   0.067  0.00  0.00     0.002 A 
ENDROOT
BRANCH   1  11
ATOM     11  N   UNL d   1      -3.298  -1.281  -0.105  0.00  0.00    -0.337 N 
ATOM     12  H   UNL d   1      -3.399  -2.246   0.185  0.00  0.00     0.168 HD
BRANCH  11  13
ATOM     13  C   UNL d   1      -4.506  -0.554  -0.070  0.00  0.00     0.035 A 
ATOM     14  C   UNL d   1      -4.589   0.760   0.409  0.00  0.00     0.053 A 
ATOM     15  C   UNL d   1      -5.809   1.438   0.420  0.00  0.00     0.036 A 
ATOM     16 CL   UNL d   1      -5.894   3.030   1.070  0.00  0.00    -0.084 Cl
ATOM     17  C   UNL d   1      -6.958   0.833  -0.077  0.00  0.00     0.024 A 
ATOM     18  C   UNL d   1      -6.887  -0.461  -0.589  0.00  0.00     0.004 A 
ATOM     19  C   UNL d   1      -5.670  -1.149  -0.581  0.00  0.00     0.029 A 
ENDBRANCH  11  13
ENDBRANCH   1  11
TORSDOF 2
