REMARK  4 active torsions:
REMARK  status: ('A' for Active; 'I' for Inactive)
REMARK    1  A    between atoms: N_7  and  C_1 
REMARK    2  A    between atoms: C_5  and  C_2 
REMARK       I    between atoms: C_9  and  N_8 
REMARK    3  A    between atoms: O_20  and  C_9 
REMARK    4  A    between atoms: C_23  and  O_20 
ROOT
ATOM      1  C   UNL d   1      -1.003  -1.519  -0.108  0.00  0.00     0.045 A 
ATOM      2  C   UNL d   1      -1.337   0.683   0.833  0.00  0.00     0.119 A 
ATOM      3  N   UNL d   1      -1.256   1.269  -0.392  0.00  0.00    -0.352 N 
ATOM      4  HN  UNL d   1      -1.362   2.278  -0.492  1.00  0.00     0.166 HD
ATOM      5  C   UNL d   1      -1.232  -0.697   0.998  0.00  0.00     0.064 A 
ATOM      6  C   UNL d   1      -0.892  -0.905  -1.389  0.00  0.00     0.017 A 
ATOM      7  C   UNL d   1      -1.035   0.498  -1.464  0.00  0.00     0.045 A 
ATOM      8  C   UNL d   1      -0.599  -1.613  -2.578  0.00  0.00     0.016 A 
ATOM      9  C   UNL d   1      -0.912   1.122  -2.700  0.00  0.00     0.030 A 
ATOM     10  C   UNL d   1      -0.483  -0.969  -3.808  0.00  0.00     0.001 A 
ATOM     11  C   UNL d   1      -0.645   0.407  -3.869  0.00  0.00     0.002 A 
ENDROOT
BRANCH   1  12
ATOM     12  N   UNL d   1      -0.812  -2.897   0.037  0.00  0.00    -0.377 N 
ATOM     13  C   UNL d   1      -0.156  -3.405   1.261  0.00  0.00     0.143 C 
ATOM     14  C   UNL d   1       0.448  -4.789   0.956  0.00  0.00     0.148 C 
ATOM     15  N   UNL d   1      -0.577  -5.696   0.423  0.00  0.00    -0.325 N 
ATOM     16  C   UNL d   1      -1.326  -5.182  -0.729  0.00  0.00     0.148 C 
ATOM     17  C   UNL d   1      -0.975  -6.856   1.048  0.00  0.00     0.362 C 
ATOM     18  C   UNL d   1      -1.908  -3.780  -0.437  0.00  0.00     0.143 C 
ATOM     19  O   UNL d   1      -1.910  -7.551   0.670  0.00  0.00    -0.238 OA
BRANCH  17  20
ATOM     20  O   UNL d   1      -0.226  -7.125   2.150  0.00  0.00    -0.304 OA
BRANCH  20  21
ATOM     21  C   UNL d   1      -0.635  -8.253   2.933  0.00  0.00     0.176 C 
ATOM     22  C   UNL d   1      -1.706  -7.821   3.916  0.00  0.00     0.034 C 
ENDBRANCH  20  21
ENDBRANCH  17  20
ENDBRANCH   1  12
BRANCH   2  23
ATOM     23  C   UNL d   1      -1.528   1.552   2.067  0.00  0.00     0.432 C 
ATOM     24  F   UNL d   1      -1.438   2.892   1.836  0.00  0.00    -0.165 F 
ATOM     25  F   UNL d   1      -2.740   1.355   2.663  0.00  0.00    -0.165 F 
ATOM     26  F   UNL d   1      -0.602   1.285   3.037  0.00  0.00    -0.165 F 
ENDBRANCH   2  23
TORSDOF 4
