REMARK  4 active torsions:
REMARK  status: ('A' for Active; 'I' for Inactive)
REMARK       I    between atoms: N_9  and  C_1 
REMARK    1  A    between atoms: O_15  and  C_1 
REMARK    2  A    between atoms: N_3  and  N_9 
REMARK    3  A    between atoms: C_14  and  C_13 
REMARK    4  A    between atoms: C_17  and  O_15 
ROOT
ATOM      1  N   UNL d   1       0.976   1.954   1.640  0.00  0.00    -0.307 N 
ATOM      2  HN  UNL d   1       1.983   2.074   1.532  1.00  0.00     0.186 HD
ATOM      3  C   UNL d   1       0.301   2.582   2.549  0.00  0.00     0.118 C 
ENDROOT
BRANCH   3   4
ATOM      4  C   UNL d   1       0.972   3.469   3.523  0.00  0.00    -0.017 A 
ATOM      5  C   UNL d   1       0.207   4.119   4.497  0.00  0.00     0.052 A 
ATOM      6  C   UNL d   1       0.886   4.882   5.426  0.00  0.00     0.105 A 
ATOM      7  O   UNL d   1       0.321   5.561   6.461  0.00  0.00    -0.323 OA
ATOM      8  C   UNL d   1       2.256   5.018   5.401  0.00  0.00     0.105 A 
ATOM      9  C   UNL d   1       1.496   6.086   7.117  0.00  0.00     0.352 A 
ATOM     10  O   UNL d   1       2.722   5.794   6.415  0.00  0.00    -0.323 OA
ATOM     11  C   UNL d   1       3.030   4.406   4.439  0.00  0.00     0.040 A 
ATOM     12  C   UNL d   1       2.376   3.618   3.488  0.00  0.00     0.016 A 
ENDBRANCH   3   4
BRANCH   1  13
ATOM     13  N   UNL d   1       0.254   1.123   0.837  0.00  0.00    -0.246 N 
ATOM     14  C   UNL d   1       0.829   0.360  -0.157  0.00  0.00     0.379 C 
ATOM     15  O   UNL d   1       0.172  -0.455  -0.798  0.00  0.00    -0.237 OA
ATOM     16  H   UNL d   1      -0.729   0.958   1.013  0.00  0.00     0.192 HD
BRANCH  14  17
ATOM     17  O   UNL d   1       2.155   0.606  -0.338  0.00  0.00    -0.303 OA
BRANCH  17  18
ATOM     18  C   UNL d   1       2.812  -0.190  -1.333  0.00  0.00     0.176 C 
ATOM     19  C   UNL d   1       2.614   0.402  -2.716  0.00  0.00     0.034 C 
ENDBRANCH  17  18
ENDBRANCH  14  17
ENDBRANCH   1  13
TORSDOF 4
