REMARK  7 active torsions:
REMARK  status: ('A' for Active; 'I' for Inactive)
REMARK    1  A    between atoms: C_15  and  C_1 
REMARK    2  A    between atoms: C_2  and  N_14 
REMARK    3  A    between atoms: N_12  and  C_2 
REMARK    4  A    between atoms: O_21  and  C_4 
REMARK    5  A    between atoms: N_14  and  N_6 
REMARK    6  A    between atoms: C_8  and  C_19 
REMARK    7  A    between atoms: C_19  and  N_12 
ROOT
ATOM      1  N   UNL d   1       0.801   4.296   0.033  0.00  0.00    -0.309 N 
ATOM      2  HN  UNL d   1       0.136   3.813  -0.571  1.00  0.00     0.186 HD
ATOM      3  C   UNL d   1       1.781   3.683   0.623  0.00  0.00     0.121 C 
ENDROOT
BRANCH   1   4
ATOM      4  N   UNL d   1       0.729   5.637   0.282  0.00  0.00    -0.277 N 
ATOM      5  H   UNL d   1      -0.220   6.006   0.206  0.00  0.00     0.189 HD
BRANCH   4   6
ATOM      6  C   UNL d   1       1.711   6.575   0.032  0.00  0.00     0.186 C 
ATOM      7  S   UNL d   1       3.101   6.387  -0.877  0.00  0.00    -0.040 SA
BRANCH   6   8
ATOM      8  N   UNL d   1       1.503   7.788   0.642  0.00  0.00    -0.360 N 
ATOM      9  H   UNL d   1       2.238   8.466   0.484  0.00  0.00     0.162 HD
BRANCH   8  10
ATOM     10  C   UNL d   1       0.622   8.010   1.776  0.00  0.00     0.187 C 
BRANCH  10  11
ATOM     11  C   UNL d   1      -0.739   8.351   1.299  0.00  0.00     0.070 A 
ATOM     12  O   UNL d   1      -1.586   7.305   1.064  0.00  0.00    -0.325 OA
ATOM     13  C   UNL d   1      -2.769   7.834   0.659  0.00  0.00     0.142 A 
ATOM     14  C   UNL d   1      -2.695   9.206   0.628  0.00  0.00     0.027 A 
ATOM     15  C   UNL d   1      -1.382   9.540   1.038  0.00  0.00     0.036 A 
ENDBRANCH  10  11
ENDBRANCH   8  10
ENDBRANCH   6   8
ENDBRANCH   4   6
ENDBRANCH   1   4
BRANCH   3  16
ATOM     16  C   UNL d   1       1.946   2.221   0.529  0.00  0.00     0.017 A 
ATOM     17  C   UNL d   1       3.043   1.600   1.131  0.00  0.00     0.099 A 
ATOM     18  C   UNL d   1       3.159   0.207   1.083  0.00  0.00     0.069 A 
ATOM     19 CL   UNL d   1       4.504  -0.579   1.824  0.00  0.00    -0.081 Cl
ATOM     20  C   UNL d   1       2.186  -0.565   0.449  0.00  0.00     0.050 A 
ATOM     21  C   UNL d   1       1.094   0.065  -0.146  0.00  0.00     0.036 A 
ATOM     22  C   UNL d   1       0.969   1.452  -0.115  0.00  0.00     0.039 A 
ATOM     23 CL   UNL d   1      -0.121  -0.884  -0.909  0.00  0.00    -0.084 Cl
BRANCH  17  24
ATOM     24  O   UNL d   1       3.988   2.358   1.771  0.00  0.00    -0.358 OA
ATOM     25  H   UNL d   1       4.689   1.758   2.091  0.00  0.00     0.217 HD
ENDBRANCH  17  24
ENDBRANCH   3  16
TORSDOF 7
