REMARK  3 active torsions:
REMARK  status: ('A' for Active; 'I' for Inactive)
REMARK    1  A    between atoms: C_2  and  S_1 
REMARK    2  A    between atoms: N_3  and  S_1 
REMARK    3  A    between atoms: C_11  and  N_10 
ROOT
ATOM      1  N   UNL d   1       0.576  -0.201   1.440  0.00  0.00    -0.203 NA
ATOM      2  N   UNL d   1       2.686  -0.606   3.369  0.00  0.00    -0.378 N 
ATOM      3  C   UNL d   1       1.191   0.956   2.184  0.00  0.00     0.127 C 
ATOM      4  C   UNL d   1       0.735  -1.483   2.204  0.00  0.00     0.127 C 
ATOM      5  C   UNL d   1       2.204  -1.750   2.572  0.00  0.00     0.138 C 
ATOM      6  C   UNL d   1       2.657   0.665   2.608  0.00  0.00     0.138 C 
ENDROOT
BRANCH   2   7
ATOM      7  C   UNL d   1       3.599  -0.791   4.407  0.00  0.00     0.044 A 
ATOM      8  C   UNL d   1       3.630   0.067   5.549  0.00  0.00     0.017 A 
ATOM      9  C   UNL d   1       4.579  -0.208   6.566  0.00  0.00     0.046 A 
ATOM     10  C   UNL d   1       2.741   1.152   5.760  0.00  0.00     0.018 A 
ATOM     11  C   UNL d   1       4.656   0.623   7.675  0.00  0.00     0.054 A 
ATOM     12  N   UNL d   1       5.408  -1.256   6.527  0.00  0.00    -0.365 N 
ATOM     13  C   UNL d   1       3.816   1.722   7.819  0.00  0.00     0.036 A 
ATOM     14  C   UNL d   1       2.848   1.989   6.867  0.00  0.00     0.025 A 
ATOM     15 CL   UNL d   1       3.961   2.743   9.195  0.00  0.00    -0.084 Cl
ATOM     16  C   UNL d   1       5.338  -2.074   5.462  0.00  0.00     0.090 A 
ATOM     17  HN  UNL d   1       6.073  -1.430   7.281  1.00  0.00     0.165 HD
ATOM     18  C   UNL d   1       4.480  -1.878   4.396  0.00  0.00     0.047 A 
ENDBRANCH   2   7
BRANCH   1  19
ATOM     19  S   UNL d   1       0.931  -0.287  -0.220  0.00  0.00     0.248 S 
ATOM     20  O   UNL d   1       2.213   0.337  -0.451  0.00  0.00    -0.206 OA
ATOM     21  O   UNL d   1       0.639  -1.621  -0.685  0.00  0.00    -0.206 OA
BRANCH  19  22
ATOM     22  C   UNL d   1      -0.213   0.679  -1.038  0.00  0.00     0.130 A 
ATOM     23  C   UNL d   1      -0.025   1.770  -1.853  0.00  0.00     0.097 A 
ATOM     24  O   UNL d   1      -1.241   2.182  -2.311  0.00  0.00    -0.241 OA
ATOM     25  C   UNL d   1       1.119   2.564  -2.338  0.00  0.00     0.081 C 
ATOM     26  N   UNL d   1      -2.236   1.378  -1.790  0.00  0.00    -0.264 N 
ATOM     27  C   UNL d   1      -1.612   0.475  -1.023  0.00  0.00     0.054 A 
ATOM     28  HN  UNL d   1      -3.239   1.457  -1.955  1.00  0.00     0.194 HD
ATOM     29  C   UNL d   1      -2.404  -0.554  -0.306  0.00  0.00     0.072 C 
ENDBRANCH  19  22
ENDBRANCH   1  19
TORSDOF 3
