REMARK  3 active torsions:
REMARK  status: ('A' for Active; 'I' for Inactive)
REMARK    1  A    between atoms: C_5  and  C_1 
REMARK    2  A    between atoms: C_6  and  C_2 
REMARK    3  A    between atoms: O_13  and  C_7 
ROOT
ATOM      1  C   UNL d   1       1.002   0.193   0.082  0.00  0.00     0.037 C 
ATOM      2  C   UNL d   1       0.295   1.054   0.838  0.00  0.00     0.055 C 
ATOM      3  C   UNL d   1       0.900   2.001   1.721  0.00  0.00     0.100 C 
ATOM      4  N   UNL d   1       1.377   2.765   2.455  0.00  0.00    -0.191 NA
ENDROOT
BRANCH   2   5
ATOM      5  C   UNL d   1      -1.166   1.076   0.684  0.00  0.00    -0.015 A 
ATOM      6  C   UNL d   1      -1.988   0.206   1.407  0.00  0.00     0.013 A 
ATOM      7  C   UNL d   1      -3.377   0.272   1.259  0.00  0.00     0.007 A 
ATOM      8  C   UNL d   1      -3.958   1.201   0.386  0.00  0.00    -0.062 A 
ATOM      9  C   UNL d   1      -3.131   2.053  -0.353  0.00  0.00     0.007 A 
ATOM     10  C   UNL d   1      -5.450   1.288   0.263  0.00  0.00     0.048 C 
ATOM     11  C   UNL d   1      -1.745   1.991  -0.204  0.00  0.00     0.013 A 
ENDBRANCH   2   5
BRANCH   1  12
ATOM     12  C   UNL d   1       2.469   0.191   0.007  0.00  0.00    -0.001 A 
ATOM     13  C   UNL d   1       3.183   0.977  -0.916  0.00  0.00     0.078 A 
ATOM     14  C   UNL d   1       4.577   1.058  -0.823  0.00  0.00     0.037 A 
ATOM     15  C   UNL d   1       5.269   0.332   0.146  0.00  0.00     0.003 A 
ATOM     16  C   UNL d   1       4.570  -0.481   1.033  0.00  0.00     0.001 A 
ATOM     17  C   UNL d   1       3.177  -0.550   0.967  0.00  0.00     0.014 A 
BRANCH  13  18
ATOM     18  O   UNL d   1       2.637   1.785  -1.879  0.00  0.00    -0.355 OA
ATOM     19  C   UNL d   1       1.615   1.200  -2.679  0.00  0.00     0.210 C 
ENDBRANCH  13  18
ENDBRANCH   1  12
TORSDOF 3
