REMARK  6 active torsions:
REMARK  status: ('A' for Active; 'I' for Inactive)
REMARK    1  A    between atoms: C_7  and  C_1 
REMARK    2  A    between atoms: C_9  and  C_2 
REMARK    3  A    between atoms: C_6  and  O_10 
REMARK       I    between atoms: N_8  and  C_6 
REMARK    4  A    between atoms: C_12  and  N_8 
REMARK    5  A    between atoms: O_10  and  C_9 
REMARK    6  A    between atoms: O_22  and  C_17 
ROOT
ATOM      1  C   UNL d   1       0.315  -2.593   0.278  0.00  0.00     0.222 C 
ENDROOT
BRANCH   1   2
ATOM      2  C   UNL d   1       0.031  -1.133   0.400  0.00  0.00    -0.002 A 
ATOM      3  C   UNL d   1       0.737  -0.194   1.201  0.00  0.00     0.050 A 
ATOM      4  C   UNL d   1       0.088   1.021   1.090  0.00  0.00     0.086 A 
ATOM      5  O   UNL d   1      -0.964   0.887   0.230  0.00  0.00    -0.314 OA
ATOM      6  C   UNL d   1      -1.001  -0.413  -0.180  0.00  0.00     0.058 A 
ATOM      7  C   UNL d   1      -2.107  -0.779  -1.091  0.00  0.00     0.077 C 
BRANCH   4   8
ATOM      8  C   UNL d   1       0.284   2.333   1.708  0.00  0.00    -0.002 A 
ATOM      9  C   UNL d   1      -0.549   3.423   1.421  0.00  0.00     0.016 A 
ATOM     10  C   UNL d   1      -0.357   4.660   2.049  0.00  0.00     0.024 A 
ATOM     11  C   UNL d   1       0.675   4.819   2.971  0.00  0.00     0.034 A 
ATOM     12  C   UNL d   1       1.516   3.751   3.268  0.00  0.00     0.024 A 
ATOM     13 CL   UNL d   1       0.909   6.332   3.754  0.00  0.00    -0.084 Cl
ATOM     14  C   UNL d   1       1.321   2.518   2.639  0.00  0.00     0.016 A 
ENDBRANCH   4   8
ENDBRANCH   1   2
BRANCH   1  15
ATOM     15  O   UNL d   1       1.687  -2.859  -0.060  0.00  0.00    -0.299 OA
BRANCH  15  16
ATOM     16  C   UNL d   1       2.437  -3.491   0.873  0.00  0.00     0.365 C 
ATOM     17  N   UNL d   1       3.686  -3.895   0.468  0.00  0.00    -0.303 N 
ATOM     18  H   UNL d   1       4.158  -4.403   1.205  0.00  0.00     0.171 HD
ATOM     19  O   UNL d   1       2.058  -3.742   2.013  0.00  0.00    -0.238 OA
BRANCH  17  20
ATOM     20  C   UNL d   1       4.329  -3.858  -0.785  0.00  0.00     0.039 A 
ATOM     21  C   UNL d   1       3.825  -3.202  -1.912  0.00  0.00     0.066 A 
ATOM     22  C   UNL d   1       4.463  -3.309  -3.150  0.00  0.00     0.070 A 
ATOM     23  C   UNL d   1       5.652  -4.029  -3.252  0.00  0.00     0.037 A 
ATOM     24  C   UNL d   1       6.199  -4.642  -2.127  0.00  0.00     0.005 A 
ATOM     25  C   UNL d   1       5.539  -4.558  -0.900  0.00  0.00     0.030 A 
BRANCH  22  26
ATOM     26  O   UNL d   1       4.012  -2.761  -4.322  0.00  0.00    -0.356 OA
ATOM     27  C   UNL d   1       2.733  -2.135  -4.280  0.00  0.00     0.210 C 
ENDBRANCH  22  26
ENDBRANCH  17  20
ENDBRANCH  15  16
ENDBRANCH   1  15
TORSDOF 6
