REMARK  7 active torsions:
REMARK  status: ('A' for Active; 'I' for Inactive)
REMARK    1  A    between atoms: C_15  and  C_1 
REMARK    2  A    between atoms: C_2  and  C_19 
REMARK       I    between atoms: N_9  and  C_2 
REMARK    3  A    between atoms: N_3  and  N_9 
REMARK       I    between atoms: C_5  and  N_6 
REMARK    4  A    between atoms: N_6  and  C_14 
REMARK    5  A    between atoms: S_12  and  C_15 
REMARK    6  A    between atoms: C_19  and  S_12 
REMARK    7  A    between atoms: C_16  and  C_13 
ROOT
ATOM      1  C   UNL d   1      -3.158   4.879   0.171  0.00  0.00     0.245 C 
ATOM      2  N   UNL d   1      -4.233   4.026  -0.042  0.00  0.00    -0.270 N 
ATOM      3  O   UNL d   1      -2.022   4.514   0.467  0.00  0.00    -0.271 OA
ATOM      4  H   UNL d   1      -5.163   4.414  -0.183  0.00  0.00     0.190 HD
ENDROOT
BRANCH   2   5
ATOM      5  N   UNL d   1      -4.071   2.690   0.164  0.00  0.00    -0.308 N 
ATOM      6  C   UNL d   1      -5.134   1.957   0.065  0.00  0.00     0.118 C 
ATOM      7  HN  UNL d   1      -3.161   2.287   0.386  1.00  0.00     0.186 HD
BRANCH   6   8
ATOM      8  C   UNL d   1      -5.079   0.501   0.314  0.00  0.00    -0.019 A 
ATOM      9  C   UNL d   1      -3.864  -0.130   0.593  0.00  0.00     0.015 A 
ATOM     10  C   UNL d   1      -3.841  -1.493   0.907  0.00  0.00     0.030 A 
ATOM     11  C   UNL d   1      -5.027  -2.238   0.952  0.00  0.00     0.034 A 
ATOM     12  C   UNL d   1      -6.231  -1.604   0.631  0.00  0.00     0.030 A 
ATOM     13  C   UNL d   1      -6.261  -0.240   0.312  0.00  0.00     0.015 A 
BRANCH  11  14
ATOM     14  N   UNL d   1      -4.926  -3.586   1.357  0.00  0.00    -0.328 N 
ATOM     15  C   UNL d   1      -5.958  -4.486   1.544  0.00  0.00     0.218 C 
ATOM     16  O   UNL d   1      -7.149  -4.294   1.319  0.00  0.00    -0.274 OA
ATOM     17  C   UNL d   1      -5.499  -5.812   2.101  0.00  0.00     0.117 C 
ATOM     18  H   UNL d   1      -3.992  -3.907   1.579  0.00  0.00     0.169 HD
ENDBRANCH  11  14
ENDBRANCH   6   8
ENDBRANCH   2   5
BRANCH   1  19
ATOM     19  C   UNL d   1      -3.457   6.350  -0.065  0.00  0.00     0.178 C 
BRANCH  19  20
ATOM     20  S   UNL d   1      -5.095   6.881   0.535  0.00  0.00    -0.155 SA
BRANCH  20  21
ATOM     21  C   UNL d   1      -4.842   6.599   2.318  0.00  0.00     0.116 C 
BRANCH  21  22
ATOM     22  C   UNL d   1      -6.006   7.083   3.152  0.00  0.00    -0.005 A 
ATOM     23  C   UNL d   1      -7.163   6.293   3.315  0.00  0.00     0.042 A 
ATOM     24 CL   UNL d   1      -7.365   4.779   2.498  0.00  0.00    -0.084 Cl
ATOM     25  C   UNL d   1      -8.206   6.699   4.157  0.00  0.00     0.024 A 
ATOM     26  C   UNL d   1      -8.124   7.903   4.848  0.00  0.00     0.003 A 
ATOM     27  C   UNL d   1      -7.012   8.720   4.670  0.00  0.00     0.024 A 
ATOM     28  C   UNL d   1      -5.970   8.322   3.822  0.00  0.00     0.042 A 
ATOM     29 CL   UNL d   1      -4.649   9.427   3.649  0.00  0.00    -0.084 Cl
ENDBRANCH  21  22
ENDBRANCH  20  21
ENDBRANCH  19  20
ENDBRANCH   1  19
TORSDOF 7
