REMARK  3 active torsions:
REMARK  status: ('A' for Active; 'I' for Inactive)
REMARK    1  A    between atoms: C_2  and  S_1 
REMARK    2  A    between atoms: C_10  and  S_1 
REMARK    3  A    between atoms: N_3  and  C_5 
ROOT
ATOM      1  C   UNL d   1       0.587  -0.929  -1.482  0.00  0.00     0.086 A 
ATOM      2  C   UNL d   1       0.732  -0.378  -2.759  0.00  0.00     0.058 A 
ATOM      3  C   UNL d   1      -0.383  -2.319  -3.708  0.00  0.00     0.104 A 
ATOM      4  C   UNL d   1       0.236  -1.071  -3.874  0.00  0.00     0.061 A 
ATOM      5  C   UNL d   1      -0.046  -2.175  -1.322  0.00  0.00     0.028 A 
ATOM      6  C   UNL d   1      -0.523  -2.875  -2.432  0.00  0.00     0.037 A 
ATOM      7 CL   UNL d   1       1.523   1.121  -3.074  0.00  0.00    -0.083 Cl
ENDROOT
BRANCH   1   8
ATOM      8  S   UNL d   1       1.109  -0.063  -0.016  0.00  0.00     0.208 S 
ATOM      9  O   UNL d   1       0.763  -0.908   1.115  0.00  0.00    -0.217 OA
ATOM     10  O   UNL d   1       0.560   1.276  -0.099  0.00  0.00    -0.217 OA
BRANCH   8  11
ATOM     11  C   UNL d   1       2.883   0.043   0.002  0.00  0.00     0.064 A 
ATOM     12  C   UNL d   1       3.509   1.291   0.024  0.00  0.00     0.024 A 
ATOM     13  C   UNL d   1       4.899   1.360   0.120  0.00  0.00     0.002 A 
ATOM     14  C   UNL d   1       5.656   0.189   0.196  0.00  0.00     0.000 A 
ATOM     15  C   UNL d   1       5.026  -1.056   0.178  0.00  0.00     0.002 A 
ATOM     16  C   UNL d   1       3.635  -1.135   0.086  0.00  0.00     0.024 A 
ENDBRANCH   8  11
ENDBRANCH   1   8
BRANCH   3  17
ATOM     17  N   UNL d   1      -0.877  -3.053  -4.880  0.00  0.00    -0.116 N 
ATOM     18  O   UNL d   1      -0.737  -2.522  -5.991  0.00  0.00    -0.532 OA
ATOM     19  O   UNL d   1      -1.395  -4.161  -4.689  0.00  0.00    -0.532 OA
ENDBRANCH   3  17
TORSDOF 3
