REMARK  7 active torsions:
REMARK  status: ('A' for Active; 'I' for Inactive)
REMARK    1  A    between atoms: C_10  and  N_1 
REMARK    2  A    between atoms: C_12  and  C_2 
REMARK    3  A    between atoms: S_9  and  C_5 
REMARK    4  A    between atoms: C_8  and  C_11 
REMARK    5  A    between atoms: C_11  and  S_9 
REMARK    6  A    between atoms: C_13  and  C_10 
REMARK    7  A    between atoms: C_17  and  C_18 
ROOT
ATOM      1  N   UNL d   1      -0.260  -1.214  -0.069  0.00  0.00    -0.305 N 
ATOM      2  C   UNL d   1       0.971  -0.568  -0.074  0.00  0.00     0.135 C 
ATOM      3  N   UNL d   1       0.738   0.732   0.035  0.00  0.00    -0.283 N 
ATOM      4  HN  UNL d   1       1.453   1.454   0.130  1.00  0.00     0.188 HD
ATOM      5  C   UNL d   1      -1.200  -0.210  -0.104  0.00  0.00     0.163 C 
ATOM      6  N   UNL d   1      -0.611   0.955  -0.000  0.00  0.00    -0.278 N 
ATOM      7  HN  UNL d   1      -1.074   1.862   0.046  1.00  0.00     0.189 HD
ENDROOT
BRANCH   2   8
ATOM      8  C   UNL d   1       2.324  -1.149  -0.113  0.00  0.00     0.009 A 
ATOM      9  C   UNL d   1       2.662  -2.298  -0.831  0.00  0.00     0.016 A 
ATOM     10  C   UNL d   1       3.967  -2.819  -0.792  0.00  0.00     0.009 A 
ATOM     11  C   UNL d   1       4.993  -2.198  -0.058  0.00  0.00    -0.051 A 
ATOM     12  C   UNL d   1       4.663  -1.004   0.598  0.00  0.00     0.009 A 
ATOM     13  C   UNL d   1       3.356  -0.493   0.571  0.00  0.00     0.016 A 
BRANCH  11  14
ATOM     14  C   UNL d   1       6.390  -2.840   0.038  0.00  0.00    -0.024 C 
ATOM     15  C   UNL d   1       7.391  -2.026   0.891  0.00  0.00     0.019 C 
ATOM     16  C   UNL d   1       6.261  -4.232   0.696  0.00  0.00     0.019 C 
ATOM     17  C   UNL d   1       7.016  -3.006  -1.363  0.00  0.00     0.019 C 
ENDBRANCH  11  14
ENDBRANCH   2   8
BRANCH   1  18
ATOM     18  C   UNL d   1      -0.528  -2.640  -0.072  0.00  0.00     0.198 C 
BRANCH  18  19
ATOM     19  C   UNL d   1       0.104  -3.376   1.056  0.00  0.00     0.070 A 
ATOM     20  O   UNL d   1       0.477  -4.661   0.776  0.00  0.00    -0.325 OA
ATOM     21  C   UNL d   1       1.009  -5.180   1.911  0.00  0.00     0.142 A 
ATOM     22  C   UNL d   1       0.981  -4.251   2.923  0.00  0.00     0.027 A 
ATOM     23  C   UNL d   1       0.389  -3.089   2.374  0.00  0.00     0.036 A 
ENDBRANCH  18  19
ENDBRANCH   1  18
BRANCH   5  24
ATOM     24  S   UNL d   1      -2.908  -0.448  -0.301  0.00  0.00    -0.088 SA
BRANCH  24  25
ATOM     25  C   UNL d   1      -3.423   1.230  -0.801  0.00  0.00     0.124 C 
BRANCH  25  26
ATOM     26  C   UNL d   1      -4.867   1.283  -1.259  0.00  0.00    -0.005 A 
ATOM     27  C   UNL d   1      -5.910   1.636  -0.379  0.00  0.00     0.042 A 
ATOM     28 CL   UNL d   1      -5.627   1.998   1.289  0.00  0.00    -0.084 Cl
ATOM     29  C   UNL d   1      -7.239   1.715  -0.819  0.00  0.00     0.024 A 
ATOM     30  C   UNL d   1      -7.563   1.432  -2.142  0.00  0.00     0.003 A 
ATOM     31  C   UNL d   1      -6.555   1.063  -3.025  0.00  0.00     0.024 A 
ATOM     32  C   UNL d   1      -5.224   0.986  -2.591  0.00  0.00     0.042 A 
ATOM     33 CL   UNL d   1      -4.051   0.513  -3.773  0.00  0.00    -0.084 Cl
ENDBRANCH  25  26
ENDBRANCH  24  25
ENDBRANCH   5  24
TORSDOF 7
