REMARK  6 active torsions:
REMARK  status: ('A' for Active; 'I' for Inactive)
REMARK    1  A    between atoms: C_3  and  C_1 
REMARK    2  A    between atoms: C_2  and  C_4 
REMARK       I    between atoms: N_9  and  C_3 
REMARK    3  A    between atoms: C_4  and  O_10 
REMARK    4  A    between atoms: C_17  and  N_9 
REMARK    5  A    between atoms: O_10  and  C_18 
REMARK    6  A    between atoms: C_18  and  C_17 
ROOT
ATOM      1  C   UNL d   1      -2.634   3.805  -0.218  0.00  0.00     0.149 C 
ENDROOT
BRANCH   1   2
ATOM      2  N   UNL d   1      -1.826   2.594  -0.236  0.00  0.00    -0.355 N 
ATOM      3  C   UNL d   1      -1.478   1.918   0.911  0.00  0.00     0.253 C 
ATOM      4  O   UNL d   1      -1.792   2.309   2.032  0.00  0.00    -0.268 OA
ATOM      5  H   UNL d   1      -1.598   2.193  -1.138  0.00  0.00     0.162 HD
BRANCH   3   6
ATOM      6  C   UNL d   1      -0.633   0.693   0.769  0.00  0.00     0.053 A 
ATOM      7  C   UNL d   1      -0.672  -0.198  -0.312  0.00  0.00     0.049 A 
ATOM      8 CL   UNL d   1      -1.762  -0.039  -1.646  0.00  0.00    -0.083 Cl
ATOM      9  C   UNL d   1       0.178  -1.315  -0.335  0.00  0.00     0.025 A 
ATOM     10  C   UNL d   1       1.063  -1.558   0.717  0.00  0.00     0.002 A 
ATOM     11  C   UNL d   1       1.099  -0.690   1.802  0.00  0.00     0.001 A 
ATOM     12  C   UNL d   1       0.255   0.425   1.829  0.00  0.00     0.019 A 
ENDBRANCH   3   6
ENDBRANCH   1   2
BRANCH   1  13
ATOM     13  C   UNL d   1      -4.137   3.520  -0.281  0.00  0.00     0.198 C 
BRANCH  13  14
ATOM     14  O   UNL d   1      -4.923   4.728  -0.263  0.00  0.00    -0.316 OA
BRANCH  14  15
ATOM     15  C   UNL d   1      -5.011   5.406  -1.431  0.00  0.00     0.295 C 
ATOM     16  O   UNL d   1      -4.476   5.077  -2.480  0.00  0.00    -0.259 OA
BRANCH  15  17
ATOM     17  C   UNL d   1      -5.946   6.561  -1.335  0.00  0.00     0.061 A 
ATOM     18  C   UNL d   1      -6.133   7.356  -0.198  0.00  0.00     0.050 A 
ATOM     19 CL   UNL d   1      -5.220   7.183   1.259  0.00  0.00    -0.083 Cl
ATOM     20  C   UNL d   1      -7.061   8.409  -0.228  0.00  0.00     0.025 A 
ATOM     21  C   UNL d   1      -7.784   8.693  -1.388  0.00  0.00     0.002 A 
ATOM     22  C   UNL d   1      -7.581   7.928  -2.530  0.00  0.00     0.001 A 
ATOM     23  C   UNL d   1      -6.668   6.869  -2.506  0.00  0.00     0.019 A 
ENDBRANCH  15  17
ENDBRANCH  14  15
ENDBRANCH  13  14
ENDBRANCH   1  13
TORSDOF 6
