REMARK  7 active torsions:
REMARK  status: ('A' for Active; 'I' for Inactive)
REMARK    1  A    between atoms: C_8  and  C_1 
REMARK    2  A    between atoms: C_2  and  N_7 
REMARK    3  A    between atoms: N_6  and  C_2 
REMARK    4  A    between atoms: C_5  and  C_8 
REMARK       I    between atoms: N_10  and  C_5 
REMARK    5  A    between atoms: C_13  and  N_6 
REMARK    6  A    between atoms: N_7  and  N_10 
REMARK    7  A    between atoms: S_18  and  C_17 
ROOT
ATOM      1  N   UNL d   1       3.887   2.502  -0.778  0.00  0.00    -0.274 N 
ATOM      2  H   UNL d   1       3.584   3.012  -1.597  0.00  0.00     0.189 HD
ENDROOT
BRANCH   1   3
ATOM      3  C   UNL d   1       4.928   2.993  -0.028  0.00  0.00     0.191 C 
ATOM      4  S   UNL d   1       5.199   2.665   1.598  0.00  0.00    -0.039 SA
BRANCH   3   5
ATOM      5  N   UNL d   1       5.779   3.891  -0.616  0.00  0.00    -0.332 N 
ATOM      6  H   UNL d   1       6.405   4.304   0.068  0.00  0.00     0.168 HD
BRANCH   5   7
ATOM      7  C   UNL d   1       5.882   4.400  -1.927  0.00  0.00     0.035 A 
ATOM      8  C   UNL d   1       6.523   5.643  -2.067  0.00  0.00     0.048 A 
ATOM      9  C   UNL d   1       6.556   6.307  -3.299  0.00  0.00     0.002 A 
ATOM     10  C   UNL d   1       5.965   5.692  -4.407  0.00  0.00     0.018 A 
ATOM     11  C   UNL d   1       5.407   4.419  -4.298  0.00  0.00     0.004 A 
ATOM     12  C   UNL d   1       5.383   3.766  -3.065  0.00  0.00     0.029 A 
BRANCH   9  13
ATOM     13  S   UNL d   1       7.203   7.960  -3.522  0.00  0.00    -0.134 SA
ATOM     14  C   UNL d   1       8.587   8.009  -2.351  0.00  0.00     0.095 C 
ENDBRANCH   9  13
ENDBRANCH   5   7
ENDBRANCH   3   5
ENDBRANCH   1   3
BRANCH   1  15
ATOM     15  N   UNL d   1       3.050   1.453  -0.343  0.00  0.00    -0.268 N 
ATOM     16  C   UNL d   1       3.582   0.165  -0.286  0.00  0.00     0.240 C 
ATOM     17  O   UNL d   1       4.776  -0.062  -0.466  0.00  0.00    -0.272 OA
ATOM     18  H   UNL d   1       2.052   1.581  -0.469  0.00  0.00     0.190 HD
BRANCH  16  19
ATOM     19  C   UNL d   1       2.557  -0.935   0.023  0.00  0.00     0.144 C 
BRANCH  19  20
ATOM     20  C   UNL d   1       2.392  -1.891  -1.152  0.00  0.00    -0.037 C 
ATOM     21  C   UNL d   1       3.499  -2.625  -1.630  0.00  0.00    -0.054 C 
ATOM     22  C   UNL d   1       3.461  -3.170  -2.928  0.00  0.00     0.014 C 
ATOM     23  C   UNL d   1       4.736  -2.909  -0.813  0.00  0.00     0.049 C 
ATOM     24  C   UNL d   1       2.318  -3.057  -3.719  0.00  0.00    -0.061 C 
ATOM     25  C   UNL d   1       1.161  -2.540  -3.146  0.00  0.00     0.014 C 
ATOM     26  C   UNL d   1       2.328  -3.563  -5.128  0.00  0.00     0.048 C 
ATOM     27  C   UNL d   1       1.167  -1.991  -1.849  0.00  0.00    -0.054 C 
ATOM     28  C   UNL d   1      -0.150  -1.552  -1.277  0.00  0.00     0.049 C 
ENDBRANCH  19  20
ENDBRANCH  16  19
ENDBRANCH   1  15
TORSDOF 7
