REMARK  6 active torsions:
REMARK  status: ('A' for Active; 'I' for Inactive)
REMARK    1  A    between atoms: C_10  and  C_1 
REMARK    2  A    between atoms: N_12  and  N_7 
REMARK       I    between atoms: C_9  and  N_12 
REMARK    3  A    between atoms: C_14  and  C_9 
REMARK    4  A    between atoms: C_17  and  C_14 
REMARK    5  A    between atoms: O_23  and  C_15 
REMARK    6  A    between atoms: C_16  and  C_17 
ROOT
ATOM      1  N   UNL d   1      -4.276   1.295   0.086  0.00  0.00    -0.308 N 
ATOM      2  HN  UNL d   1      -3.643   2.095   0.095  1.00  0.00     0.186 HD
ATOM      3  C   UNL d   1      -3.818   0.086   0.045  0.00  0.00     0.124 C 
ENDROOT
BRANCH   1   4
ATOM      4  N   UNL d   1      -5.626   1.473   0.118  0.00  0.00    -0.270 N 
ATOM      5  C   UNL d   1      -6.109   2.775   0.103  0.00  0.00     0.236 C 
ATOM      6  O   UNL d   1      -5.395   3.777   0.106  0.00  0.00    -0.272 OA
ATOM      7  H   UNL d   1      -6.246   0.671   0.111  0.00  0.00     0.190 HD
BRANCH   5   8
ATOM      8  C   UNL d   1      -7.622   2.869   0.121  0.00  0.00     0.109 C 
BRANCH   8   9
ATOM      9  C   UNL d   1      -8.068   4.190  -0.510  0.00  0.00     0.048 C 
BRANCH   9  10
ATOM     10  C   UNL d   1      -9.562   4.393  -0.485  0.00  0.00    -0.058 A 
ATOM     11  C   UNL d   1     -10.165   5.065   0.588  0.00  0.00     0.010 A 
ATOM     12  C   UNL d   1     -11.541   5.295   0.594  0.00  0.00     0.037 A 
ATOM     13  C   UNL d   1     -12.319   4.851  -0.467  0.00  0.00     0.065 A 
ATOM     14  C   UNL d   1     -11.743   4.170  -1.535  0.00  0.00     0.037 A 
ATOM     15  C   UNL d   1     -10.365   3.939  -1.542  0.00  0.00     0.010 A 
BRANCH  13  16
ATOM     16  O   UNL d   1     -13.657   5.110  -0.427  0.00  0.00    -0.361 OA
ATOM     17  H   UNL d   1     -14.061   4.779  -1.246  0.00  0.00     0.217 HD
ENDBRANCH  13  16
ENDBRANCH   9  10
ENDBRANCH   8   9
ENDBRANCH   5   8
ENDBRANCH   1   4
BRANCH   3  18
ATOM     18  C   UNL d   1      -2.364  -0.199   0.006  0.00  0.00     0.054 A 
ATOM     19  C   UNL d   1      -1.819  -1.569  -0.048  0.00  0.00     0.198 A 
ATOM     20  C   UNL d   1      -0.346  -1.687  -0.085  0.00  0.00     0.049 A 
ATOM     21  O   UNL d   1      -2.549  -2.553  -0.063  0.00  0.00    -0.286 OA
ATOM     22  C   UNL d   1       0.276  -2.939  -0.134  0.00  0.00     0.018 A 
ATOM     23  C   UNL d   1       0.424  -0.525  -0.070  0.00  0.00     0.089 A 
ATOM     24  C   UNL d   1       1.671  -3.017  -0.169  0.00  0.00     0.001 A 
ATOM     25  C   UNL d   1       2.439  -1.851  -0.155  0.00  0.00     0.003 A 
ATOM     26  C   UNL d   1       1.816  -0.604  -0.105  0.00  0.00     0.038 A 
ATOM     27  O   UNL d   1      -0.126   0.731  -0.021  0.00  0.00    -0.321 OA
ATOM     28  C   UNL d   1      -1.495   0.823   0.015  0.00  0.00     0.159 A 
ENDBRANCH   3  18
TORSDOF 6
