REMARK  8 active torsions:
REMARK  status: ('A' for Active; 'I' for Inactive)
REMARK    1  A    between atoms: S_9  and  C_2 
REMARK    2  A    between atoms: C_12  and  C_3 
REMARK       I    between atoms: C_8  and  N_10 
REMARK    3  A    between atoms: O_13  and  C_8 
REMARK    4  A    between atoms: C_15  and  S_9 
REMARK    5  A    between atoms: N_10  and  C_12 
REMARK    6  A    between atoms: C_11  and  C_15 
REMARK    7  A    between atoms: C_14  and  C_11 
REMARK    8  A    between atoms: C_18  and  O_13 
ROOT
ATOM      1  N   UNL d   1       0.878   0.270  -0.133  0.00  0.00    -0.318 N 
ATOM      2  C   UNL d   1       0.043   1.346  -0.265  0.00  0.00     0.162 A 
ATOM      3  C   UNL d   1       0.049  -0.832  -0.076  0.00  0.00     0.117 A 
ATOM      4  N   UNL d   1      -1.205   0.948  -0.202  0.00  0.00    -0.278 N 
ATOM      5  HN  UNL d   1      -2.029   1.548  -0.233  1.00  0.00     0.189 HD
ATOM      6  N   UNL d   1      -1.205  -0.418  -0.087  0.00  0.00    -0.285 N 
ATOM      7  HN  UNL d   1      -2.031  -1.013  -0.021  1.00  0.00     0.188 HD
ATOM      8  C   UNL d   1       2.317   0.253  -0.067  0.00  0.00     0.160 C 
ENDROOT
BRANCH   2   9
ATOM      9  S   UNL d   1       0.572   2.970  -0.527  0.00  0.00    -0.085 SA
BRANCH   9  10
ATOM     10  C   UNL d   1      -1.035   3.823  -0.637  0.00  0.00     0.166 C 
BRANCH  10  11
ATOM     11  C   UNL d   1      -0.881   5.272  -1.076  0.00  0.00     0.169 C 
ATOM     12  O   UNL d   1       0.194   5.812  -1.323  0.00  0.00    -0.291 OA
BRANCH  11  13
ATOM     13  C   UNL d   1      -2.118   6.104  -1.188  0.00  0.00     0.011 A 
ATOM     14  C   UNL d   1      -1.996   7.490  -1.012  0.00  0.00     0.017 A 
ATOM     15  C   UNL d   1      -3.117   8.320  -1.133  0.00  0.00     0.025 A 
ATOM     16  C   UNL d   1      -4.355   7.768  -1.444  0.00  0.00     0.034 A 
ATOM     17  C   UNL d   1      -4.488   6.390  -1.624  0.00  0.00     0.025 A 
ATOM     18 CL   UNL d   1      -5.729   8.788  -1.617  0.00  0.00    -0.084 Cl
ATOM     19  C   UNL d   1      -3.370   5.552  -1.490  0.00  0.00     0.017 A 
ENDBRANCH  11  13
ENDBRANCH  10  11
ENDBRANCH   9  10
ENDBRANCH   2   9
BRANCH   3  20
ATOM     20  C   UNL d   1       0.495  -2.248  -0.006  0.00  0.00     0.203 C 
BRANCH  20  21
ATOM     21  N   UNL d   1       1.003  -2.665  -1.291  0.00  0.00    -0.330 N 
ATOM     22  C   UNL d   1       2.313  -2.943  -1.509  0.00  0.00     0.361 C 
ATOM     23  O   UNL d   1       3.192  -2.813  -0.667  0.00  0.00    -0.238 OA
ATOM     24  H   UNL d   1       0.363  -2.800  -2.064  0.00  0.00     0.165 HD
BRANCH  22  25
ATOM     25  O   UNL d   1       2.486  -3.360  -2.783  0.00  0.00    -0.294 OA
BRANCH  25  26
ATOM     26  C   UNL d   1       3.807  -3.747  -3.252  0.00  0.00     0.061 C 
ATOM     27  C   UNL d   1       4.405  -4.871  -2.394  0.00  0.00     0.046 C 
ATOM     28  C   UNL d   1       3.587  -4.277  -4.679  0.00  0.00     0.046 C 
ATOM     29  C   UNL d   1       4.739  -2.530  -3.318  0.00  0.00     0.046 C 
ENDBRANCH  25  26
ENDBRANCH  22  25
ENDBRANCH  20  21
ENDBRANCH   3  20
TORSDOF 8
