REMARK  1 active torsions:
REMARK  status: ('A' for Active; 'I' for Inactive)
REMARK    1  A    between atoms: O_9  and  C_5 
ROOT
ATOM      1  N   UNL d   1       1.260  -1.398   0.004  0.00  0.00    -0.334 N 
ATOM      2  HN  UNL d   1       1.293  -2.417   0.025  1.00  0.00     0.168 HD
ATOM      3  N   UNL d   1       1.204   1.427  -0.038  0.00  0.00    -0.355 N 
ATOM      4  HN  UNL d   1       1.184   2.447  -0.046  1.00  0.00     0.166 HD
ATOM      5  C   UNL d   1       2.374  -0.646  -0.020  0.00  0.00     0.163 A 
ATOM      6  C   UNL d   1       2.374   0.740  -0.044  0.00  0.00     0.057 A 
ATOM      7  C   UNL d   1       0.097  -0.717  -0.001  0.00  0.00     0.061 A 
ATOM      8  C   UNL d   1       0.068   0.702  -0.022  0.00  0.00     0.059 A 
ATOM      9  C   UNL d   1       3.632   1.546  -0.086  0.00  0.00     0.072 C 
ATOM     10  C   UNL d   1      -1.159   1.351  -0.037  0.00  0.00     0.032 A 
ATOM     11  C   UNL d   1      -1.104  -1.415   0.005  0.00  0.00     0.032 A 
ATOM     12  C   UNL d   1      -2.359   0.638  -0.040  0.00  0.00     0.002 A 
ATOM     13  C   UNL d   1      -2.332  -0.750  -0.018  0.00  0.00     0.002 A 
ENDROOT
BRANCH   5  14
ATOM     14  O   UNL d   1       3.511  -1.382  -0.033  0.00  0.00    -0.345 OA
ATOM     15  H   UNL d   1       3.131  -2.279  -0.029  0.00  0.00     0.219 HD
ENDBRANCH   5  14
TORSDOF 1
