REMARK  8 active torsions:
REMARK  status: ('A' for Active; 'I' for Inactive)
REMARK    1  A    between atoms: C_18  and  N_1 
REMARK    2  A    between atoms: C_8  and  C_2 
REMARK    3  A    between atoms: S_9  and  C_5 
REMARK    4  A    between atoms: C_22  and  S_9 
REMARK    5  A    between atoms: C_11  and  C_22 
REMARK       I    between atoms: N_15  and  C_11 
REMARK    6  A    between atoms: C_24  and  N_15 
REMARK    7  A    between atoms: C_21  and  C_18 
REMARK    8  A    between atoms: C_25  and  C_24 
ROOT
ATOM      1  N   UNL d   1      -0.121  -1.263   0.059  0.00  0.00    -0.307 N 
ATOM      2  C   UNL d   1       1.136  -0.679   0.030  0.00  0.00     0.135 A 
ATOM      3  N   UNL d   1       0.973   0.634   0.048  0.00  0.00    -0.283 N 
ATOM      4  HN  UNL d   1       1.723   1.324   0.033  1.00  0.00     0.188 HD
ATOM      5  C   UNL d   1      -1.009  -0.216   0.060  0.00  0.00     0.163 A 
ATOM      6  N   UNL d   1      -0.355   0.914   0.088  0.00  0.00    -0.278 N 
ATOM      7  HN  UNL d   1      -0.769   1.846   0.133  1.00  0.00     0.189 HD
ENDROOT
BRANCH   5   8
ATOM      8  S   UNL d   1      -2.731  -0.335  -0.012  0.00  0.00    -0.083 SA
BRANCH   8   9
ATOM      9  C   UNL d   1      -3.242   1.132   0.940  0.00  0.00     0.185 C 
BRANCH   9  10
ATOM     10  C   UNL d   1      -3.300   2.412   0.113  0.00  0.00     0.227 C 
ATOM     11  N   UNL d   1      -2.081   2.934  -0.241  0.00  0.00    -0.356 N 
ATOM     12  H   UNL d   1      -1.281   2.311  -0.180  0.00  0.00     0.162 HD
ATOM     13  O   UNL d   1      -4.366   2.970  -0.141  0.00  0.00    -0.273 OA
BRANCH  11  14
ATOM     14  C   UNL d   1      -1.912   4.126  -1.041  0.00  0.00     0.161 C 
BRANCH  14  15
ATOM     15  C   UNL d   1      -0.693   4.939  -0.655  0.00  0.00    -0.041 A 
ATOM     16  C   UNL d   1       0.492   4.355  -0.179  0.00  0.00     0.009 A 
ATOM     17  C   UNL d   1       1.603   5.140   0.142  0.00  0.00     0.001 A 
ATOM     18  C   UNL d   1       1.556   6.518  -0.026  0.00  0.00     0.000 A 
ATOM     19  C   UNL d   1       0.399   7.114  -0.521  0.00  0.00     0.001 A 
ATOM     20  C   UNL d   1      -0.716   6.330  -0.836  0.00  0.00     0.009 A 
ENDBRANCH  14  15
ENDBRANCH  11  14
ENDBRANCH   9  10
ENDBRANCH   8   9
ENDBRANCH   5   8
BRANCH   1  21
ATOM     21  C   UNL d   1      -0.450  -2.675   0.046  0.00  0.00     0.159 C 
BRANCH  21  22
ATOM     22  C   UNL d   1      -0.615  -3.303   1.408  0.00  0.00    -0.017 C 
ATOM     23  C   UNL d   1      -0.462  -2.727   2.611  0.00  0.00     0.008 C 
ENDBRANCH  21  22
ENDBRANCH   1  21
BRANCH   2  24
ATOM     24  C   UNL d   1       2.463  -1.300  -0.030  0.00  0.00     0.011 A 
ATOM     25  C   UNL d   1       3.475  -0.625  -0.733  0.00  0.00     0.029 A 
ATOM     26  C   UNL d   1       4.803  -1.080  -0.730  0.00  0.00    -0.009 A 
ATOM     27  C   UNL d   1       5.824  -0.385  -1.391  0.00  0.00     0.015 A 
ATOM     28  C   UNL d   1       5.149  -2.250  -0.024  0.00  0.00     0.042 A 
ATOM     29  C   UNL d   1       7.130  -0.851  -1.325  0.00  0.00     0.018 A 
ATOM     30  C   UNL d   1       7.370  -2.005  -0.605  0.00  0.00     0.088 A 
ATOM     31  N   UNL d   1       6.407  -2.711   0.032  0.00  0.00    -0.365 N 
ATOM     32  HN  UNL d   1       6.631  -3.567   0.540  1.00  0.00     0.165 HD
ATOM     33  C   UNL d   1       4.140  -2.922   0.649  0.00  0.00     0.031 A 
ATOM     34  C   UNL d   1       2.816  -2.457   0.665  0.00  0.00     0.017 A 
ENDBRANCH   2  24
TORSDOF 8
