REMARK  3 active torsions:
REMARK  status: ('A' for Active; 'I' for Inactive)
REMARK    1  A    between atoms: N_7  and  C_1 
REMARK    2  A    between atoms: N_2  and  N_7 
REMARK    3  A    between atoms: C_6  and  N_2 
ROOT
ATOM      1  N   UNL d   1       0.439  -3.338  -0.013  0.00  0.00    -0.302 N 
ATOM      2  HN  UNL d   1       0.329  -4.070  -0.714  1.00  0.00     0.186 HD
ENDROOT
BRANCH   1   3
ATOM      3  N   UNL d   1      -0.491  -2.349   0.117  0.00  0.00    -0.276 N 
ATOM      4  H   UNL d   1      -0.427  -1.651   0.848  0.00  0.00     0.189 HD
BRANCH   3   5
ATOM      5  C   UNL d   1      -1.574  -2.136  -0.673  0.00  0.00     0.168 C 
ATOM      6  N   UNL d   1      -2.405  -1.135  -0.524  0.00  0.00    -0.364 N 
ATOM      7  C   UNL d   1      -3.358  -1.317  -1.659  0.00  0.00     0.137 C 
ATOM      8  HN  UNL d   1      -2.402  -0.409   0.193  1.00  0.00     0.162 HD
ATOM      9  C   UNL d   1      -2.649  -2.257  -2.641  0.00  0.00     0.115 C 
ATOM     10  N   UNL d   1      -1.779  -2.964  -1.735  0.00  0.00    -0.262 NA
ATOM     11  H   UNL d   1      -0.922  -3.377  -2.085  0.00  0.00     0.130 HD
ENDBRANCH   3   5
ENDBRANCH   1   3
BRANCH   1  12
ATOM     12  C   UNL d   1       1.474  -3.324   0.783  0.00  0.00     0.036 C 
ATOM     13  C   UNL d   1       2.506  -4.407   0.656  0.00  0.00    -0.006 A 
ATOM     14  C   UNL d   1       3.719  -4.322   1.365  0.00  0.00    -0.046 A 
ATOM     15  C   UNL d   1       2.261  -5.513  -0.167  0.00  0.00     0.014 A 
ATOM     16  C   UNL d   1       4.672  -5.342   1.226  0.00  0.00     0.008 A 
ATOM     17  C   UNL d   1       4.024  -3.141   2.243  0.00  0.00     0.040 C 
ATOM     18  C   UNL d   1       4.415  -6.445   0.412  0.00  0.00     0.001 A 
ATOM     19  C   UNL d   1       3.211  -6.530  -0.284  0.00  0.00     0.001 A 
ATOM     20  C   UNL d   1       2.745  -2.626   2.879  0.00  0.00     0.011 C 
ATOM     21  C   UNL d   1       1.736  -2.229   1.814  0.00  0.00     0.060 C 
ENDBRANCH   1  12
TORSDOF 3
