REMARK  3 active torsions:
REMARK  status: ('A' for Active; 'I' for Inactive)
REMARK    1  A    between atoms: C_3  and  C_1 
REMARK    2  A    between atoms: N_19  and  C_2 
REMARK    3  A    between atoms: C_10  and  C_8 
ROOT
ATOM      1  C   UNL d   1       1.073  -0.298   1.656  0.00  0.00     0.155 A 
ATOM      2  C   UNL d   1      -0.750   0.397   2.860  0.00  0.00     0.121 A 
ATOM      3  N   UNL d   1       0.202   0.669   1.936  0.00  0.00    -0.329 N 
ATOM      4  HN  UNL d   1       0.249   1.577   1.473  1.00  0.00     0.168 HD
ATOM      5  N   UNL d   1       1.039  -1.526   2.177  0.00  0.00    -0.332 N 
ATOM      6  HN  UNL d   1       1.716  -2.235   1.896  1.00  0.00     0.168 HD
ATOM      7  C   UNL d   1       0.081  -1.800   3.090  0.00  0.00     0.046 A 
ATOM      8  C   UNL d   1      -0.834  -0.839   3.476  0.00  0.00     0.064 A 
ENDROOT
BRANCH   7   9
ATOM      9  C   UNL d   1       0.080  -3.170   3.652  0.00  0.00    -0.009 A 
ATOM     10  C   UNL d   1      -1.107  -3.782   4.109  0.00  0.00     0.021 A 
ATOM     11  C   UNL d   1      -1.061  -5.058   4.650  0.00  0.00    -0.051 A 
ATOM     12  C   UNL d   1      -2.205  -5.888   5.148  0.00  0.00     0.039 C 
ATOM     13  C   UNL d   1       0.138  -5.764   4.737  0.00  0.00    -0.052 A 
ATOM     14  C   UNL d   1      -1.462  -6.950   5.968  0.00  0.00     0.009 C 
ATOM     15  C   UNL d   1      -0.083  -7.128   5.310  0.00  0.00     0.039 C 
ATOM     16  C   UNL d   1       1.318  -5.210   4.277  0.00  0.00     0.008 A 
ATOM     17  C   UNL d   1       1.282  -3.915   3.743  0.00  0.00     0.014 A 
ENDBRANCH   7   9
BRANCH   1  18
ATOM     18  N   UNL d   1       2.069  -0.008   0.753  0.00  0.00    -0.274 NA
ATOM     19  H   UNL d   1       1.797   0.759   0.154  0.00  0.00     0.127 HD
ATOM     20  H   UNL d   1       2.415  -0.849   0.315  0.00  0.00     0.127 HD
ENDBRANCH   1  18
BRANCH   2  21
ATOM     21  C   UNL d   1      -1.752   1.469   3.250  0.00  0.00     0.432 C 
ATOM     22  F   UNL d   1      -1.625   2.639   2.564  0.00  0.00    -0.165 F 
ATOM     23  F   UNL d   1      -1.670   1.797   4.572  0.00  0.00    -0.165 F 
ATOM     24  F   UNL d   1      -3.042   1.063   3.057  0.00  0.00    -0.165 F 
ENDBRANCH   2  21
TORSDOF 3
