REMARK  3 active torsions:
REMARK  status: ('A' for Active; 'I' for Inactive)
REMARK    1  A    between atoms: N_7  and  C_1 
REMARK    2  A    between atoms: C_11  and  C_6 
REMARK       I    between atoms: C_8  and  N_7 
REMARK       I    between atoms: N_9  and  C_8 
REMARK    3  A    between atoms: C_10  and  N_9 
ROOT
ATOM      1  N   UNL d   1      -0.334  -2.390   0.129  0.00  0.00    -0.293 N 
ATOM      2  C   UNL d   1      -1.669  -2.848  -0.033  0.00  0.00     0.326 C 
ATOM      3  N   UNL d   1      -2.668  -2.072   0.467  0.00  0.00    -0.309 N 
ATOM      4  O   UNL d   1      -1.731  -3.915  -0.610  0.00  0.00    -0.247 OA
ATOM      5  H   UNL d   1       0.302  -3.110  -0.196  0.00  0.00     0.172 HD
ATOM      6  H   UNL d   1      -2.430  -1.231   0.956  0.00  0.00     0.170 HD
ENDROOT
BRANCH   1   7
ATOM      7  C   UNL d   1       0.225  -1.213   0.586  0.00  0.00     0.127 A 
ATOM      8  C   UNL d   1      -0.330   0.020   0.853  0.00  0.00     0.077 A 
ATOM      9  C   UNL d   1       0.732   0.813   1.375  0.00  0.00     0.037 A 
ATOM     10  N   UNL d   1       1.891   0.143   1.325  0.00  0.00    -0.301 N 
ATOM     11  N   UNL d   1       1.569  -1.056   0.835  0.00  0.00    -0.281 N 
ATOM     12  HN  UNL d   1       2.816   0.476   1.601  1.00  0.00     0.187 HD
ATOM     13  C   UNL d   1       2.604  -2.052   0.688  0.00  0.00     0.179 C 
BRANCH   9  14
ATOM     14  C   UNL d   1       0.706   2.202   1.996  0.00  0.00    -0.007 C 
ATOM     15  C   UNL d   1      -0.701   2.830   1.958  0.00  0.00     0.021 C 
ATOM     16  C   UNL d   1       1.138   2.093   3.476  0.00  0.00     0.021 C 
ATOM     17  C   UNL d   1       1.673   3.150   1.260  0.00  0.00     0.021 C 
ENDBRANCH   9  14
ENDBRANCH   1   7
BRANCH   3  18
ATOM     18  C   UNL d   1      -4.047  -2.290   0.242  0.00  0.00     0.037 A 
ATOM     19  C   UNL d   1      -4.562  -3.491  -0.251  0.00  0.00     0.036 A 
ATOM     20  C   UNL d   1      -5.917  -3.616  -0.582  0.00  0.00    -0.059 A 
ATOM     21  C   UNL d   1      -6.440  -4.885  -1.190  0.00  0.00     0.048 C 
ATOM     22  C   UNL d   1      -6.764  -2.518  -0.407  0.00  0.00     0.013 A 
ATOM     23  C   UNL d   1      -6.275  -1.316   0.116  0.00  0.00    -0.059 A 
ATOM     24  C   UNL d   1      -4.919  -1.217   0.465  0.00  0.00     0.036 A 
ATOM     25  C   UNL d   1      -7.187  -0.126   0.204  0.00  0.00     0.048 C 
ENDBRANCH   3  18
TORSDOF 3
