REMARK  4 active torsions:
REMARK  status: ('A' for Active; 'I' for Inactive)
REMARK    1  A    between atoms: C_4  and  C_1 
REMARK    2  A    between atoms: S_9  and  C_18 
REMARK    3  A    between atoms: C_16  and  S_9 
REMARK    4  A    between atoms: C_18  and  C_15 
ROOT
ATOM      1  N   UNL d   1      -0.529   1.494  -1.289  0.00  0.00    -0.352 N 
ATOM      2  HN  UNL d   1      -0.984   0.655  -1.651  1.00  0.00     0.166 HD
ATOM      3  C   UNL d   1       0.503   1.392  -0.405  0.00  0.00     0.117 A 
ATOM      4  C   UNL d   1      -0.941   2.713  -1.677  0.00  0.00     0.043 A 
ATOM      5  C   UNL d   1      -0.352   3.901  -1.206  0.00  0.00    -0.009 A 
ATOM      6  C   UNL d   1       1.149   2.521   0.099  0.00  0.00     0.035 A 
ATOM      7  C   UNL d   1      -0.836   5.155  -1.638  0.00  0.00     0.021 A 
ATOM      8  C   UNL d   1       0.716   3.781  -0.305  0.00  0.00     0.016 A 
ATOM      9  C   UNL d   1      -1.981   2.817  -2.584  0.00  0.00     0.031 A 
ATOM     10  C   UNL d   1      -1.908   5.249  -2.537  0.00  0.00    -0.048 A 
ATOM     11  C   UNL d   1      -2.453   4.058  -3.028  0.00  0.00     0.010 A 
ENDROOT
BRANCH  10  12
ATOM     12  C   UNL d   1      -2.390   6.613  -3.003  0.00  0.00     0.117 C 
BRANCH  12  13
ATOM     13  S   UNL d   1      -4.211   6.725  -3.166  0.00  0.00    -0.125 SA
BRANCH  13  14
ATOM     14  C   UNL d   1      -4.453   8.349  -3.866  0.00  0.00     0.001 A 
ATOM     15  C   UNL d   1      -5.474   8.507  -4.815  0.00  0.00     0.020 A 
ATOM     16  C   UNL d   1      -5.786   9.771  -5.327  0.00  0.00     0.025 A 
ATOM     17  C   UNL d   1      -5.080  10.886  -4.888  0.00  0.00     0.034 A 
ATOM     18  C   UNL d   1      -4.058  10.744  -3.952  0.00  0.00     0.025 A 
ATOM     19 CL   UNL d   1      -5.486  12.447  -5.484  0.00  0.00    -0.084 Cl
ATOM     20  C   UNL d   1      -3.747   9.478  -3.441  0.00  0.00     0.020 A 
ENDBRANCH  13  14
ENDBRANCH  12  13
ENDBRANCH  10  12
BRANCH   3  21
ATOM     21  C   UNL d   1       0.969   0.014   0.046  0.00  0.00     0.432 C 
ATOM     22  F   UNL d   1       0.253  -1.024  -0.472  0.00  0.00    -0.165 F 
ATOM     23  F   UNL d   1       0.911  -0.137   1.402  0.00  0.00    -0.165 F 
ATOM     24  F   UNL d   1       2.271  -0.230  -0.289  0.00  0.00    -0.165 F 
ENDBRANCH   3  21
TORSDOF 4
