REMARK  6 active torsions:
REMARK  status: ('A' for Active; 'I' for Inactive)
REMARK    1  A    between atoms: C_2  and  C_1 
REMARK       I    between atoms: N_4  and  C_1 
REMARK    2  A    between atoms: O_6  and  C_3 
REMARK    3  A    between atoms: C_5  and  C_12 
REMARK    4  A    between atoms: O_18  and  C_5 
REMARK    5  A    between atoms: C_16  and  O_6 
REMARK    6  A    between atoms: C_26  and  O_18 
ROOT
ATOM      1  C   UNL d   1      -0.207  -0.142  -1.675  0.00  0.00     0.083 C 
ATOM      2  C   UNL d   1       0.272  -0.271  -2.981  0.00  0.00     0.163 C 
ATOM      3  N   UNL d   1      -0.579  -0.359  -4.041  0.00  0.00    -0.346 N 
ATOM      4  HN  UNL d   1      -0.223  -0.582  -4.971  1.00  0.00     0.167 HD
ATOM      5  C   UNL d   1      -1.570   0.156  -1.532  0.00  0.00     0.023 C 
ATOM      6  C   UNL d   1      -1.894  -0.148  -3.850  0.00  0.00     0.090 C 
ATOM      7  C   UNL d   1      -2.433   0.143  -2.621  0.00  0.00     0.018 C 
ENDROOT
BRANCH   1   8
ATOM      8  C   UNL d   1       0.632  -0.184  -0.435  0.00  0.00     0.258 C 
ATOM      9  N   UNL d   1       0.062  -0.680   0.762  0.00  0.00    -0.348 N 
ATOM     10  C   UNL d   1      -0.965  -1.715   0.862  0.00  0.00     0.127 C 
ATOM     11  C   UNL d   1       0.665  -0.357   2.048  0.00  0.00     0.127 C 
ATOM     12  C   UNL d   1      -2.136  -1.226   1.710  0.00  0.00     0.034 C 
ATOM     13  C   UNL d   1      -1.722  -0.625   3.069  0.00  0.00     0.088 C 
ATOM     14  C   UNL d   1      -0.397   0.170   3.020  0.00  0.00     0.034 C 
ATOM     15  O   UNL d   1       1.756   0.306  -0.468  0.00  0.00    -0.267 OA
BRANCH  13  16
ATOM     16  C   UNL d   1      -1.854  -1.649   4.194  0.00  0.00     0.263 C 
ATOM     17  O   UNL d   1      -2.512  -2.678   4.103  0.00  0.00    -0.265 OA
BRANCH  16  18
ATOM     18  O   UNL d   1      -1.300  -1.189   5.348  0.00  0.00    -0.322 OA
BRANCH  18  19
ATOM     19  C   UNL d   1      -1.617  -1.907   6.555  0.00  0.00     0.174 C 
ATOM     20  C   UNL d   1      -2.326  -0.950   7.495  0.00  0.00     0.034 C 
ENDBRANCH  18  19
ENDBRANCH  16  18
ENDBRANCH  13  16
ENDBRANCH   1   8
BRANCH   2  21
ATOM     21  O   UNL d   1       1.636  -0.327  -3.233  0.00  0.00    -0.293 OA
BRANCH  21  22
ATOM     22  C   UNL d   1       2.197   0.049  -4.453  0.00  0.00     0.077 A 
ATOM     23  C   UNL d   1       3.599   0.075  -4.450  0.00  0.00     0.039 A 
ATOM     24  C   UNL d   1       4.326   0.405  -5.606  0.00  0.00     0.026 A 
ATOM     25  C   UNL d   1       3.652   0.714  -6.787  0.00  0.00     0.034 A 
ATOM     26  C   UNL d   1       2.265   0.711  -6.806  0.00  0.00     0.026 A 
ATOM     27 CL   UNL d   1       4.529   1.098  -8.215  0.00  0.00    -0.084 Cl
ATOM     28  C   UNL d   1       1.547   0.391  -5.642  0.00  0.00     0.039 A 
ENDBRANCH  21  22
ENDBRANCH   2  21
TORSDOF 6
