REMARK  3 active torsions:
REMARK  status: ('A' for Active; 'I' for Inactive)
REMARK       I    between atoms: C_2  and  N_1 
REMARK    1  A    between atoms: C_4  and  C_2 
REMARK    2  A    between atoms: C_3  and  C_5 
REMARK       I    between atoms: N_8  and  C_5 
REMARK    3  A    between atoms: C_17  and  N_8 
ROOT
ATOM      1  N   UNL d   1      -2.202  -0.554  -0.511  0.00  0.00    -0.332 N 
ATOM      2  C   UNL d   1      -2.702  -1.337  -1.567  0.00  0.00     0.280 C 
ATOM      3  C   UNL d   1      -2.118   0.932  -0.579  0.00  0.00     0.180 C 
ATOM      4  C   UNL d   1      -1.512  -1.104   0.666  0.00  0.00     0.132 C 
ATOM      5  C   UNL d   1      -0.638   1.369  -0.600  0.00  0.00     0.040 C 
ATOM      6  C   UNL d   1      -0.015  -0.737   0.682  0.00  0.00     0.008 C 
ATOM      7  C   UNL d   1       0.141   0.794   0.598  0.00  0.00    -0.006 C 
ATOM      8  O   UNL d   1      -3.269  -0.805  -2.522  0.00  0.00    -0.265 OA
ATOM      9  C   UNL d   1       1.616   1.216   0.571  0.00  0.00     0.005 C 
ATOM     10  C   UNL d   1       0.805  -1.446  -0.411  0.00  0.00     0.006 C 
ATOM     11  C   UNL d   1       2.421   0.500  -0.508  0.00  0.00     0.000 C 
ATOM     12  C   UNL d   1       2.271  -1.012  -0.395  0.00  0.00     0.000 C 
ENDROOT
BRANCH   2  13
ATOM     13  C   UNL d   1      -2.664  -2.786  -1.463  0.00  0.00     0.167 C 
ATOM     14  O   UNL d   1      -1.544  -3.417  -1.003  0.00  0.00    -0.233 OA
ATOM     15  N   UNL d   1      -1.773  -4.777  -0.903  0.00  0.00    -0.272 N 
ATOM     16  C   UNL d   1      -2.998  -4.962  -1.395  0.00  0.00     0.117 C 
ATOM     17  HN  UNL d   1      -1.140  -5.486  -0.533  1.00  0.00     0.194 HD
ATOM     18  C   UNL d   1      -3.585  -3.752  -1.813  0.00  0.00     0.064 C 
ENDBRANCH   2  13
BRANCH   3  19
ATOM     19  C   UNL d   1      -2.949   1.886  -1.497  0.00  0.00     0.241 C 
ATOM     20  N   UNL d   1      -4.245   1.509  -1.763  0.00  0.00    -0.351 N 
ATOM     21  H   UNL d   1      -4.321   0.503  -1.923  0.00  0.00     0.163 HD
ATOM     22  O   UNL d   1      -2.530   3.010  -1.779  0.00  0.00    -0.271 OA
BRANCH  20  23
ATOM     23  C   UNL d   1      -5.183   2.336  -2.544  0.00  0.00     0.022 C 
ATOM     24  C   UNL d   1      -4.652   2.594  -3.965  0.00  0.00     0.037 C 
ATOM     25  C   UNL d   1      -6.516   1.574  -2.646  0.00  0.00     0.037 C 
ATOM     26  C   UNL d   1      -5.464   3.678  -1.841  0.00  0.00     0.037 C 
ENDBRANCH  20  23
ENDBRANCH   3  19
TORSDOF 3
