REMARK  4 active torsions:
REMARK  status: ('A' for Active; 'I' for Inactive)
REMARK    1  A    between atoms: C_6  and  N_1 
REMARK    2  A    between atoms: C_8  and  C_6 
REMARK    3  A    between atoms: O_12  and  C_8 
REMARK    4  A    between atoms: C_13  and  O_12 
ROOT
ATOM      1  N   UNL d   1      -1.322   0.064   0.017  0.00  0.00    -0.314 N 
ATOM      2  C   UNL d   1      -0.595   0.054  -1.175  0.00  0.00     0.247 A 
ATOM      3  C   UNL d   1      -0.711   0.197   1.254  0.00  0.00     0.118 A 
ATOM      4  C   UNL d   1       0.884   0.145  -1.034  0.00  0.00     0.076 A 
ATOM      5  C   UNL d   1       0.621   0.289   1.364  0.00  0.00     0.049 A 
ATOM      6  C   UNL d   1       1.444   0.255   0.179  0.00  0.00     0.031 A 
ATOM      7  O   UNL d   1      -1.094  -0.025  -2.293  0.00  0.00    -0.268 OA
ATOM      8 CL   UNL d   1       1.384   0.449   2.896  0.00  0.00    -0.083 Cl
ENDROOT
BRANCH   1   9
ATOM      9  C   UNL d   1      -2.781  -0.018  -0.076  0.00  0.00     0.242 C 
BRANCH   9  10
ATOM     10  C   UNL d   1      -3.489   1.301  -0.364  0.00  0.00     0.277 C 
ATOM     11  O   UNL d   1      -4.705   1.383  -0.504  0.00  0.00    -0.263 OA
BRANCH  10  12
ATOM     12  O   UNL d   1      -2.627   2.352  -0.448  0.00  0.00    -0.321 OA
BRANCH  12  13
ATOM     13  C   UNL d   1      -3.175   3.574  -0.960  0.00  0.00     0.174 C 
ATOM     14  C   UNL d   1      -3.010   3.585  -2.468  0.00  0.00     0.034 C 
ENDBRANCH  12  13
ENDBRANCH  10  12
ENDBRANCH   9  10
ENDBRANCH   1   9
TORSDOF 4
