REMARK  6 active torsions:
REMARK  status: ('A' for Active; 'I' for Inactive)
REMARK    1  A    between atoms: N_2  and  C_1 
REMARK    2  A    between atoms: C_3  and  N_2 
REMARK    3  A    between atoms: C_9  and  N_6 
REMARK    4  A    between atoms: C_7  and  C_9 
REMARK    5  A    between atoms: C_11  and  C_7 
REMARK    6  A    between atoms: O_8  and  C_11 
ROOT
ATOM      1  C   UNL d   1       1.068  -0.142  -0.036  0.00  0.00     0.172 C 
ATOM      2  S   UNL d   1       0.177   0.662  -1.195  0.00  0.00    -0.041 SA
ATOM      3  N   UNL d   1       2.425  -0.088  -0.090  0.00  0.00    -0.367 N 
ATOM      4  H   UNL d   1       2.764   0.506  -0.838  0.00  0.00     0.161 HD
ENDROOT
BRANCH   1   5
ATOM      5  N   UNL d   1       0.448  -0.918   0.885  0.00  0.00    -0.333 N 
ATOM      6  H   UNL d   1      -0.498  -1.183   0.636  0.00  0.00     0.168 HD
BRANCH   5   7
ATOM      7  C   UNL d   1       0.726  -1.015   2.269  0.00  0.00     0.040 A 
ATOM      8  C   UNL d   1       0.195  -2.089   3.008  0.00  0.00    -0.035 A 
ATOM      9  C   UNL d   1      -0.512  -3.256   2.374  0.00  0.00     0.050 C 
ATOM     10  C   UNL d   1       0.383  -2.117   4.403  0.00  0.00     0.009 A 
ATOM     11  C   UNL d   1       1.091  -1.109   5.052  0.00  0.00     0.001 A 
ATOM     12  C   UNL d   1       1.635  -0.061   4.315  0.00  0.00     0.002 A 
ATOM     13  C   UNL d   1       1.456  -0.016   2.931  0.00  0.00     0.030 A 
ENDBRANCH   5   7
ENDBRANCH   1   5
BRANCH   3  14
ATOM     14  C   UNL d   1       3.332  -1.163   0.311  0.00  0.00     0.124 C 
BRANCH  14  15
ATOM     15  C   UNL d   1       3.533  -2.175  -0.819  0.00  0.00     0.046 C 
BRANCH  15  16
ATOM     16  C   UNL d   1       4.490  -3.290  -0.411  0.00  0.00     0.168 C 
BRANCH  16  17
ATOM     17  O   UNL d   1       3.934  -4.006   0.689  0.00  0.00    -0.396 OA
ATOM     18  C   UNL d   1       4.799  -5.036   1.147  0.00  0.00     0.201 C 
ENDBRANCH  16  17
ENDBRANCH  15  16
ENDBRANCH  14  15
ENDBRANCH   3  14
TORSDOF 6
