REMARK  2 active torsions:
REMARK  status: ('A' for Active; 'I' for Inactive)
REMARK    1  A    between atoms: C_2  and  C_1 
REMARK       I    between atoms: N_4  and  C_2 
REMARK    2  A    between atoms: C_8  and  N_4 
ROOT
ATOM      1  C   UNL d   1       3.613  -2.313   0.249  0.00  0.00     0.255 C 
ATOM      2  N   UNL d   1       3.705  -3.389   1.097  0.00  0.00    -0.309 N 
ATOM      3  O   UNL d   1       4.495  -1.935  -0.518  0.00  0.00    -0.268 OA
ATOM      4  H   UNL d   1       3.085  -3.465   1.892  0.00  0.00     0.170 HD
ENDROOT
BRANCH   1   5
ATOM      5  C   UNL d   1       2.375  -1.490   0.350  0.00  0.00     0.035 C 
ATOM      6  C   UNL d   1       1.154  -2.017   0.511  0.00  0.00     0.029 C 
ATOM      7  C   UNL d   1       0.014  -1.111   0.381  0.00  0.00    -0.000 A 
ATOM      8  C   UNL d   1      -1.300  -1.597   0.389  0.00  0.00     0.038 A 
ATOM      9  C   UNL d   1       0.228   0.264   0.224  0.00  0.00     0.079 A 
ATOM     10  C   UNL d   1      -2.372  -0.714   0.242  0.00  0.00     0.035 A 
ATOM     11 CL   UNL d   1      -3.984  -1.319   0.249  0.00  0.00    -0.084 Cl
ATOM     12  C   UNL d   1      -2.155   0.654   0.086  0.00  0.00     0.026 A 
ATOM     13  C   UNL d   1      -0.849   1.142   0.081  0.00  0.00     0.039 A 
ATOM     14  O   UNL d   1       1.465   0.840   0.231  0.00  0.00    -0.346 OA
ATOM     15  C   UNL d   1       2.596  -0.028   0.066  0.00  0.00     0.220 C 
ENDBRANCH   1   5
BRANCH   2  16
ATOM     16  C   UNL d   1       4.770  -4.305   1.118  0.00  0.00     0.108 A 
ATOM     17  N   UNL d   1       4.912  -5.002   2.266  0.00  0.00    -0.342 N 
ATOM     18  C   UNL d   1       5.964  -5.847   2.379  0.00  0.00     0.043 A 
ATOM     19  HN  UNL d   1       4.243  -4.895   3.029  1.00  0.00     0.167 HD
ATOM     20  C   UNL d   1       6.207  -6.511   3.578  0.00  0.00     0.030 A 
ATOM     21  C   UNL d   1       6.867  -6.077   1.320  0.00  0.00    -0.009 A 
ATOM     22  C   UNL d   1       7.304  -7.367   3.743  0.00  0.00     0.002 A 
ATOM     23  C   UNL d   1       8.175  -7.594   2.687  0.00  0.00     0.001 A 
ATOM     24  C   UNL d   1       7.956  -6.954   1.470  0.00  0.00     0.013 A 
ATOM     25  C   UNL d   1       6.659  -5.394   0.126  0.00  0.00     0.017 A 
ATOM     26  C   UNL d   1       5.607  -4.492   0.026  0.00  0.00     0.049 A 
ENDBRANCH   2  16
TORSDOF 2
