REMARK  5 active torsions:
REMARK  status: ('A' for Active; 'I' for Inactive)
REMARK    1  A    between atoms: C_8  and  C_1 
REMARK    2  A    between atoms: S_12  and  C_5 
REMARK    3  A    between atoms: C_9  and  C_17 
REMARK       I    between atoms: N_13  and  C_9 
REMARK    4  A    between atoms: C_17  and  S_12 
REMARK    5  A    between atoms: C_19  and  N_13 
ROOT
ATOM      1  C   UNL d   1       2.708  -4.055   4.503  0.00  0.00     0.119 C 
ATOM      2  S   UNL d   1       2.892  -2.774   3.361  0.00  0.00    -0.043 SA
ATOM      3  N   UNL d   1       1.503  -4.597   4.488  0.00  0.00    -0.290 N 
ATOM      4  HN  UNL d   1       1.190  -5.304   5.153  1.00  0.00     0.187 HD
ATOM      5  C   UNL d   1       1.353  -3.200   2.761  0.00  0.00     0.129 C 
ATOM      6  N   UNL d   1       0.715  -4.099   3.472  0.00  0.00    -0.287 N 
ATOM      7  HN  UNL d   1      -0.245  -4.394   3.295  1.00  0.00     0.188 HD
ENDROOT
BRANCH   5   8
ATOM      8  S   UNL d   1       0.674  -2.629   1.257  0.00  0.00    -0.094 SA
BRANCH   8   9
ATOM      9  C   UNL d   1       1.963  -3.153   0.091  0.00  0.00     0.184 C 
BRANCH   9  10
ATOM     10  C   UNL d   1       2.312  -4.639   0.078  0.00  0.00     0.231 C 
ATOM     11  N   UNL d   1       1.400  -5.496   0.662  0.00  0.00    -0.327 N 
ATOM     12  H   UNL d   1       0.564  -5.075   1.056  0.00  0.00     0.169 HD
ATOM     13  O   UNL d   1       3.347  -4.987  -0.490  0.00  0.00    -0.272 OA
BRANCH  11  14
ATOM     14  C   UNL d   1       1.483  -6.901   0.776  0.00  0.00     0.034 A 
ATOM     15  C   UNL d   1       2.585  -7.656   0.371  0.00  0.00     0.029 A 
ATOM     16  C   UNL d   1       2.567  -9.051   0.472  0.00  0.00     0.002 A 
ATOM     17  C   UNL d   1       1.449  -9.704   0.982  0.00  0.00     0.000 A 
ATOM     18  C   UNL d   1       0.355  -8.959   1.416  0.00  0.00     0.002 A 
ATOM     19  C   UNL d   1       0.377  -7.564   1.323  0.00  0.00     0.029 A 
ENDBRANCH  11  14
ENDBRANCH   9  10
ENDBRANCH   8   9
ENDBRANCH   5   8
BRANCH   1  20
ATOM     20  C   UNL d   1       3.826  -4.507   5.329  0.00  0.00     0.083 A 
ATOM     21  N   UNL d   1       5.014  -3.856   5.197  0.00  0.00    -0.361 N 
ATOM     22  C   UNL d   1       6.049  -4.367   5.902  0.00  0.00     0.105 A 
ATOM     23  HN  UNL d   1       5.118  -3.034   4.601  1.00  0.00     0.165 HD
ATOM     24  C   UNL d   1       5.916  -5.474   6.719  0.00  0.00     0.104 A 
ATOM     25  N   UNL d   1       4.739  -6.120   6.876  0.00  0.00    -0.372 N 
ATOM     26  C   UNL d   1       3.702  -5.615   6.159  0.00  0.00     0.120 A 
ATOM     27  HN  UNL d   1       4.638  -6.929   7.489  1.00  0.00     0.164 HD
ENDBRANCH   1  20
TORSDOF 5
