REMARK  1 active torsions:
REMARK  status: ('A' for Active; 'I' for Inactive)
REMARK    1  A    between atoms: C_10  and  C_4 
ROOT
ATOM      1  N   UNL d   1      -0.246   0.649  -0.000  0.00  0.00    -0.310 N 
ATOM      2  C   UNL d   1      -0.240  -0.728   0.015  0.00  0.00     0.130 A 
ATOM      3  C   UNL d   1       1.003  -1.448   0.032  0.00  0.00     0.275 A 
ATOM      4  C   UNL d   1       2.106   0.744   0.007  0.00  0.00     0.063 A 
ATOM      5  N   UNL d   1       2.128  -0.636   0.033  0.00  0.00    -0.320 N 
ATOM      6  C   UNL d   1       0.927   1.393  -0.004  0.00  0.00     0.128 A 
ATOM      7  N   UNL d   1      -2.376   0.007  -0.006  0.00  0.00    -0.354 N 
ATOM      8  HN  UNL d   1      -3.395   0.029  -0.010  1.00  0.00     0.166 HD
ATOM      9  C   UNL d   1      -1.559   1.038  -0.010  0.00  0.00     0.188 A 
ATOM     10  C   UNL d   1      -1.565  -1.110   0.004  0.00  0.00     0.039 A 
ATOM     11  O   UNL d   1       1.116  -2.669   0.050  0.00  0.00    -0.266 OA
ATOM     12  C   UNL d   1      -2.163  -2.465   0.002  0.00  0.00     0.071 C 
ATOM     13  H   UNL d   1       3.012  -1.132   0.029  0.00  0.00     0.169 HD
ENDROOT
BRANCH   4  14
ATOM     14  C   UNL d   1       3.401   1.438  -0.006  0.00  0.00     0.014 A 
ATOM     15  C   UNL d   1       4.062   1.789  -1.196  0.00  0.00     0.048 A 
ATOM     16  C   UNL d   1       5.324   2.390  -1.160  0.00  0.00     0.048 A 
ATOM     17 CL   UNL d   1       3.370   1.469  -2.749  0.00  0.00    -0.083 Cl
ATOM     18  C   UNL d   1       5.933   2.639   0.067  0.00  0.00     0.035 A 
ATOM     19  C   UNL d   1       5.291   2.304   1.257  0.00  0.00     0.025 A 
ATOM     20 CL   UNL d   1       7.497   3.354   0.114  0.00  0.00    -0.084 Cl
ATOM     21  C   UNL d   1       4.026   1.710   1.222  0.00  0.00     0.017 A 
ENDBRANCH   4  14
TORSDOF 1
