REMARK  8 active torsions:
REMARK  status: ('A' for Active; 'I' for Inactive)
REMARK    1  A    between atoms: C_2  and  S_1 
REMARK    2  A    between atoms: C_3  and  S_1 
REMARK    3  A    between atoms: C_11  and  C_6 
REMARK    4  A    between atoms: C_10  and  C_7 
REMARK    5  A    between atoms: C_8  and  O_13 
REMARK    6  A    between atoms: C_9  and  O_12 
REMARK    7  A    between atoms: O_12  and  C_10 
REMARK    8  A    between atoms: O_13  and  C_11 
ROOT
ATOM      1  S   UNL d   1       0.854   0.069   0.114  0.00  0.00     0.208 S 
ATOM      2  O   UNL d   1       0.171   0.826   1.143  0.00  0.00    -0.217 OA
ATOM      3  O   UNL d   1       2.253   0.373  -0.155  0.00  0.00    -0.217 OA
ENDROOT
BRANCH   1   4
ATOM      4  C   UNL d   1       0.025   0.484  -1.438  0.00  0.00     0.072 A 
ATOM      5  C   UNL d   1      -0.101  -0.320  -2.590  0.00  0.00    -0.012 A 
ATOM      6  C   UNL d   1      -0.497   0.317  -3.797  0.00  0.00     0.011 A 
ATOM      7  C   UNL d   1      -0.847   1.665  -3.851  0.00  0.00     0.001 A 
ATOM      8  C   UNL d   1      -0.802   2.426  -2.698  0.00  0.00     0.002 A 
ATOM      9  C   UNL d   1      -0.357   1.847  -1.510  0.00  0.00     0.024 A 
BRANCH   5  10
ATOM     10  C   UNL d   1       0.191  -1.797  -2.674  0.00  0.00     0.218 C 
BRANCH  10  11
ATOM     11  O   UNL d   1      -0.612  -2.450  -3.687  0.00  0.00    -0.317 OA
BRANCH  11  12
ATOM     12  C   UNL d   1      -1.863  -2.802  -3.291  0.00  0.00     0.255 C 
ATOM     13  O   UNL d   1      -2.317  -2.647  -2.164  0.00  0.00    -0.266 OA
ATOM     14  C   UNL d   1      -2.649  -3.389  -4.422  0.00  0.00     0.126 C 
ENDBRANCH  11  12
ENDBRANCH  10  11
ENDBRANCH   5  10
ENDBRANCH   1   4
BRANCH   1  15
ATOM     15  C   UNL d   1       0.846  -1.648   0.642  0.00  0.00     0.072 A 
ATOM     16  C   UNL d   1       0.126  -2.146   1.758  0.00  0.00    -0.012 A 
ATOM     17  C   UNL d   1       0.371  -3.484   2.148  0.00  0.00     0.011 A 
ATOM     18  C   UNL d   1       1.288  -4.296   1.478  0.00  0.00     0.001 A 
ATOM     19  C   UNL d   1       2.019  -3.784   0.421  0.00  0.00     0.002 A 
ATOM     20  C   UNL d   1       1.820  -2.464   0.024  0.00  0.00     0.024 A 
BRANCH  16  21
ATOM     21  C   UNL d   1      -0.762  -1.307   2.665  0.00  0.00     0.218 C 
BRANCH  21  22
ATOM     22  O   UNL d   1      -1.778  -2.109   3.313  0.00  0.00    -0.317 OA
BRANCH  22  23
ATOM     23  C   UNL d   1      -1.832  -2.073   4.669  0.00  0.00     0.255 C 
ATOM     24  O   UNL d   1      -1.032  -1.514   5.406  0.00  0.00    -0.266 OA
ATOM     25  C   UNL d   1      -3.033  -2.825   5.170  0.00  0.00     0.126 C 
ENDBRANCH  22  23
ENDBRANCH  21  22
ENDBRANCH  16  21
ENDBRANCH   1  15
TORSDOF 8
