REMARK  4 active torsions:
REMARK  status: ('A' for Active; 'I' for Inactive)
REMARK    1  A    between atoms: C_2  and  C_1 
REMARK    2  A    between atoms: O_10  and  C_2 
REMARK    3  A    between atoms: C_18  and  C_5 
REMARK    4  A    between atoms: C_6  and  O_10 
ROOT
ATOM      1  C   UNL d   1       0.059  -2.422   0.080  0.00  0.00     0.303 C 
ATOM      2  O   UNL d   1       1.267  -2.643   0.102  0.00  0.00    -0.259 OA
ENDROOT
BRANCH   1   3
ATOM      3  C   UNL d   1      -0.523  -1.106  -0.106  0.00  0.00     0.100 C 
ATOM      4  C   UNL d   1       0.011   0.215   0.111  0.00  0.00     0.084 C 
ATOM      5  N   UNL d   1      -0.858   1.129  -0.366  0.00  0.00    -0.259 N 
ATOM      6  O   UNL d   1      -1.974   0.465  -0.769  0.00  0.00    -0.241 OA
ATOM      7  HN  UNL d   1      -0.706   2.136  -0.416  1.00  0.00     0.195 HD
ATOM      8  C   UNL d   1      -1.805  -0.861  -0.584  0.00  0.00     0.091 C 
ATOM      9  C   UNL d   1      -2.982  -1.680  -0.930  0.00  0.00     0.080 C 
BRANCH   4  10
ATOM     10  C   UNL d   1       1.207   0.719   0.815  0.00  0.00    -0.006 A 
ATOM     11  C   UNL d   1       1.962  -0.064   1.694  0.00  0.00     0.014 A 
ATOM     12  C   UNL d   1       2.948   0.516   2.506  0.00  0.00     0.001 A 
ATOM     13  C   UNL d   1       3.189   1.887   2.458  0.00  0.00     0.000 A 
ATOM     14  C   UNL d   1       2.481   2.677   1.563  0.00  0.00     0.001 A 
ATOM     15  C   UNL d   1       1.513   2.095   0.741  0.00  0.00     0.014 A 
ENDBRANCH   4  10
ENDBRANCH   1   3
BRANCH   1  16
ATOM     16  O   UNL d   1      -0.906  -3.433   0.180  0.00  0.00    -0.274 OA
BRANCH  16  17
ATOM     17  C   UNL d   1      -0.931  -4.561  -0.691  0.00  0.00     0.093 A 
ATOM     18  C   UNL d   1      -2.126  -5.317  -0.707  0.00  0.00     0.028 A 
ATOM     19  C   UNL d   1      -2.263  -6.262  -1.744  0.00  0.00     0.045 A 
ATOM     20  C   UNL d   1      -3.179  -5.158   0.222  0.00  0.00     0.058 A 
ATOM     21  C   UNL d   1      -3.457  -6.964  -1.861  0.00  0.00     0.033 A 
ATOM     22  N   UNL d   1      -1.290  -6.500  -2.635  0.00  0.00    -0.359 N 
ATOM     23  C   UNL d   1      -4.507  -6.786  -0.958  0.00  0.00     0.044 A 
ATOM     24  C   UNL d   1      -4.349  -5.894   0.088  0.00  0.00     0.117 A 
ATOM     25  F   UNL d   1      -5.339  -5.730   0.975  0.00  0.00    -0.206 F 
ATOM     26  C   UNL d   1      -0.129  -5.809  -2.546  0.00  0.00     0.008 A 
ATOM     27  HN  UNL d   1      -1.423  -7.193  -3.372  1.00  0.00     0.166 HD
ATOM     28  C   UNL d   1       0.091  -4.827  -1.595  0.00  0.00     0.062 A 
ATOM     29  C   UNL d   1       0.943  -6.148  -3.540  0.00  0.00     0.068 C 
ENDBRANCH  16  17
ENDBRANCH   1  16
TORSDOF 4
