REMARK  6 active torsions:
REMARK  status: ('A' for Active; 'I' for Inactive)
REMARK    1  A    between atoms: C_5  and  S_1 
REMARK    2  A    between atoms: N_14  and  S_1 
REMARK       I    between atoms: C_2  and  N_6 
REMARK    3  A    between atoms: C_3  and  C_2 
REMARK    4  A    between atoms: S_7  and  C_4 
REMARK    5  A    between atoms: N_6  and  C_13 
REMARK    6  A    between atoms: C_16  and  S_7 
ROOT
ATOM      1  C   UNL d   1      -2.327  -1.456  -3.938  0.00  0.00     0.259 C 
ATOM      2  N   UNL d   1      -1.871  -0.150  -3.976  0.00  0.00    -0.323 N 
ATOM      3  O   UNL d   1      -3.201  -1.949  -4.635  0.00  0.00    -0.267 OA
ATOM      4  H   UNL d   1      -0.984   0.044  -3.525  0.00  0.00     0.169 HD
ENDROOT
BRANCH   1   5
ATOM      5  C   UNL d   1      -1.700  -2.270  -2.878  0.00  0.00     0.066 A 
ATOM      6  C   UNL d   1      -0.991  -3.444  -3.115  0.00  0.00     0.090 A 
ATOM      7  N   UNL d   1      -0.451  -4.169  -2.095  0.00  0.00    -0.359 N 
ATOM      8  C   UNL d   1      -0.649  -3.735  -0.829  0.00  0.00     0.089 A 
ATOM      9  HN  UNL d   1       0.088  -5.015  -2.280  1.00  0.00     0.166 HD
ATOM     10  C   UNL d   1      -1.344  -2.584  -0.511  0.00  0.00     0.018 A 
ATOM     11  C   UNL d   1      -1.879  -1.839  -1.555  0.00  0.00     0.021 A 
BRANCH   6  12
ATOM     12  S   UNL d   1      -0.579  -4.042  -4.741  0.00  0.00    -0.072 SA
BRANCH  12  13
ATOM     13  C   UNL d   1      -1.911  -5.185  -5.061  0.00  0.00     0.007 A 
ATOM     14  C   UNL d   1      -2.614  -5.071  -6.265  0.00  0.00     0.019 A 
ATOM     15  C   UNL d   1      -3.652  -5.954  -6.567  0.00  0.00     0.001 A 
ATOM     16  C   UNL d   1      -3.992  -6.963  -5.669  0.00  0.00     0.000 A 
ATOM     17  C   UNL d   1      -3.288  -7.096  -4.473  0.00  0.00     0.001 A 
ATOM     18  C   UNL d   1      -2.245  -6.214  -4.174  0.00  0.00     0.019 A 
ENDBRANCH  12  13
ENDBRANCH   6  12
ENDBRANCH   1   5
BRANCH   2  19
ATOM     19  C   UNL d   1      -2.506   0.941  -4.604  0.00  0.00     0.036 A 
ATOM     20  C   UNL d   1      -1.770   2.119  -4.750  0.00  0.00     0.054 A 
ATOM     21  C   UNL d   1      -2.366   3.247  -5.322  0.00  0.00     0.076 A 
ATOM     22  C   UNL d   1      -3.706   3.231  -5.713  0.00  0.00     0.025 A 
ATOM     23  C   UNL d   1      -4.444   2.060  -5.556  0.00  0.00     0.004 A 
ATOM     24  C   UNL d   1      -3.842   0.916  -5.015  0.00  0.00     0.029 A 
BRANCH  21  25
ATOM     25  S   UNL d   1      -1.412   4.714  -5.560  0.00  0.00     0.239 S 
ATOM     26  O   UNL d   1      -0.024   4.429  -5.264  0.00  0.00    -0.206 OA
ATOM     27  O   UNL d   1      -2.118   5.825  -4.971  0.00  0.00    -0.206 OA
BRANCH  25  28
ATOM     28  N   UNL d   1      -1.478   4.929  -7.221  0.00  0.00    -0.225 NA
ATOM     29  H   UNL d   1      -0.552   4.797  -7.629  0.00  0.00     0.136 HD
ATOM     30  H   UNL d   1      -1.898   5.834  -7.437  0.00  0.00     0.136 HD
ENDBRANCH  25  28
ENDBRANCH  21  25
ENDBRANCH   2  19
TORSDOF 6
