REMARK  3 active torsions:
REMARK  status: ('A' for Active; 'I' for Inactive)
REMARK    1  A    between atoms: N_2  and  C_1 
REMARK    2  A    between atoms: N_3  and  C_1 
REMARK    3  A    between atoms: C_7  and  N_3 
ROOT
ATOM      1  N   UNL d   1       1.833   0.977  -0.406  0.00  0.00    -0.333 N 
ATOM      2  H   UNL d   1       1.476   1.923  -0.363  0.00  0.00     0.168 HD
ENDROOT
BRANCH   1   3
ATOM      3  C   UNL d   1       0.893   0.014  -0.056  0.00  0.00     0.174 C 
ATOM      4  S   UNL d   1       0.562  -1.319  -1.034  0.00  0.00    -0.041 SA
BRANCH   3   5
ATOM      5  N   UNL d   1       0.193   0.327   1.125  0.00  0.00    -0.358 N 
ATOM      6  C   UNL d   1       0.646   1.344   2.089  0.00  0.00     0.125 C 
ATOM      7  C   UNL d   1      -0.516   2.236   2.513  0.00  0.00     0.020 C 
ATOM      8  C   UNL d   1      -1.669   1.411   3.079  0.00  0.00     0.003 C 
ATOM      9  C   UNL d   1      -2.072   0.292   2.122  0.00  0.00     0.020 C 
ATOM     10  C   UNL d   1      -0.871  -0.535   1.671  0.00  0.00     0.125 C 
ENDBRANCH   3   5
ENDBRANCH   1   3
BRANCH   1  11
ATOM     11  C   UNL d   1       3.063   0.799  -1.076  0.00  0.00     0.035 A 
ATOM     12  C   UNL d   1       3.789  -0.392  -1.010  0.00  0.00     0.054 A 
ATOM     13  C   UNL d   1       5.027  -0.512  -1.651  0.00  0.00     0.053 A 
ATOM     14 CL   UNL d   1       5.856  -2.023  -1.508  0.00  0.00    -0.083 Cl
ATOM     15  C   UNL d   1       5.555   0.575  -2.352  0.00  0.00     0.032 A 
ATOM     16  C   UNL d   1       4.844   1.777  -2.403  0.00  0.00     0.023 A 
ATOM     17 BR   UNL d   1       7.232   0.509  -3.241  0.00  0.00    -0.049 Br
ATOM     18  C   UNL d   1       3.609   1.893  -1.756  0.00  0.00     0.031 A 
ENDBRANCH   1  11
TORSDOF 3
