REMARK  3 active torsions:
REMARK  status: ('A' for Active; 'I' for Inactive)
REMARK    1  A    between atoms: N_2  and  C_1 
REMARK    2  A    between atoms: C_3  and  N_2 
REMARK    3  A    between atoms: N_11  and  N_9 
ROOT
ATOM      1  N   UNL d   1       0.563  -0.686  -1.087  0.00  0.00    -0.361 N 
ATOM      2  H   UNL d   1       0.049  -1.230  -0.402  0.00  0.00     0.162 HD
ENDROOT
BRANCH   1   3
ATOM      3  C   UNL d   1       0.625   0.600  -0.700  0.00  0.00     0.182 C 
ATOM      4  S   UNL d   1      -0.191   1.018   0.702  0.00  0.00    -0.040 SA
ATOM      5  N   UNL d   1       1.292   1.572  -1.364  0.00  0.00    -0.300 N 
ATOM      6  H   UNL d   1       1.194   2.503  -0.954  0.00  0.00     0.183 HD
BRANCH   5   7
ATOM      7  N   UNL d   1       1.855   1.495  -2.634  0.00  0.00    -0.248 NA
ATOM      8  H   UNL d   1       1.203   1.025  -3.260  0.00  0.00     0.143 HD
ATOM      9  H   UNL d   1       2.709   0.936  -2.582  0.00  0.00     0.143 HD
ENDBRANCH   5   7
ENDBRANCH   1   3
BRANCH   1  10
ATOM     10  C   UNL d   1       1.238  -1.488  -2.095  0.00  0.00     0.088 C 
ATOM     11  C   UNL d   1       2.647  -1.990  -1.688  0.00  0.00     0.009 C 
ATOM     12  C   UNL d   1       2.826  -3.173  -2.648  0.00  0.00     0.011 C 
ATOM     13  C   UNL d   1       2.610  -2.720  -0.332  0.00  0.00     0.007 C 
ATOM     14  C   UNL d   1       1.565  -3.883  -2.156  0.00  0.00    -0.012 C 
ATOM     15  C   UNL d   1       0.486  -2.809  -2.378  0.00  0.00     0.030 C 
ATOM     16  C   UNL d   1       1.838  -4.009  -0.649  0.00  0.00     0.005 C 
ENDBRANCH   1  10
TORSDOF 3
