REMARK  3 active torsions:
REMARK  status: ('A' for Active; 'I' for Inactive)
REMARK    1  A    between atoms: C_13  and  C_7 
REMARK    2  A    between atoms: C_18  and  C_13 
REMARK    3  A    between atoms: O_17  and  C_18 
ROOT
ATOM      1  C   UNL d   1       1.078  -0.993  -0.031  0.00  0.00     0.137 A 
ATOM      2  N   UNL d   1       0.743   0.363  -0.003  0.00  0.00    -0.260 N 
ATOM      3  C   UNL d   1       2.365  -1.377   0.004  0.00  0.00     0.096 A 
ATOM      4  C   UNL d   1       1.652   1.398   0.049  0.00  0.00     0.261 A 
ATOM      5  N   UNL d   1      -0.075  -1.760  -0.084  0.00  0.00    -0.339 N 
ATOM      6  C   UNL d   1       3.422  -0.357   0.014  0.00  0.00    -0.026 A 
ATOM      7  C   UNL d   1       3.105   0.965   0.032  0.00  0.00     0.020 A 
ATOM      8  C   UNL d   1      -0.672   0.451   0.008  0.00  0.00     0.071 A 
ATOM      9  C   UNL d   1      -1.156  -0.880   0.008  0.00  0.00     0.061 A 
ATOM     10  C   UNL d   1       2.661  -2.771  -0.002  0.00  0.00     0.104 C 
ATOM     11  N   UNL d   1       2.875  -3.914  -0.002  0.00  0.00    -0.191 NA
ATOM     12  O   UNL d   1       1.370   2.593   0.102  0.00  0.00    -0.267 OA
ATOM     13  C   UNL d   1       4.862  -0.820  -0.006  0.00  0.00     0.050 C 
ATOM     14  C   UNL d   1      -1.528   1.530   0.020  0.00  0.00     0.032 A 
ATOM     15  C   UNL d   1      -2.504  -1.157  -0.013  0.00  0.00     0.032 A 
ATOM     16  C   UNL d   1      -2.902   1.254   0.017  0.00  0.00     0.002 A 
ATOM     17  C   UNL d   1      -3.384  -0.072   0.003  0.00  0.00     0.002 A 
ATOM     18  H   UNL d   1      -0.108  -2.742   0.135  0.00  0.00     0.167 HD
ENDROOT
BRANCH   7  19
ATOM     19  C   UNL d   1       4.111   2.099  -0.026  0.00  0.00     0.071 C 
BRANCH  19  20
ATOM     20  C   UNL d   1       4.453   2.697   1.339  0.00  0.00     0.169 C 
BRANCH  20  21
ATOM     21  O   UNL d   1       5.194   1.762   2.116  0.00  0.00    -0.401 OA
ATOM     22  H   UNL d   1       5.420   2.204   2.953  0.00  0.00     0.209 HD
ENDBRANCH  20  21
ENDBRANCH  19  20
ENDBRANCH   7  19
TORSDOF 3
