REMARK  1 active torsions:
REMARK  status: ('A' for Active; 'I' for Inactive)
REMARK    1  A    between atoms: C_11  and  C_6 
ROOT
ATOM      1  C   UNL d   1       1.283   0.332  -0.015  0.00  0.00     0.058 C 
ATOM      2  C   UNL d   1      -1.282   0.352  -0.024  0.00  0.00     0.058 C 
ATOM      3  N   UNL d   1      -0.014  -1.653  -0.049  0.00  0.00    -0.361 N 
ATOM      4  C   UNL d   1      -1.237  -1.001  -0.008  0.00  0.00     0.023 C 
ATOM      5  C   UNL d   1       1.214  -1.020   0.011  0.00  0.00     0.023 C 
ATOM      6  C   UNL d   1       0.007   1.166  -0.163  0.00  0.00     0.110 C 
ATOM      7  C   UNL d   1      -2.510   1.073   0.070  0.00  0.00     0.098 C 
ATOM      8  C   UNL d   1       2.530   1.024   0.062  0.00  0.00     0.098 C 
ATOM      9  N   UNL d   1       3.542   1.586   0.134  0.00  0.00    -0.192 NA
ATOM     10  N   UNL d   1      -3.507   1.657   0.164  0.00  0.00    -0.192 NA
ATOM     11  C   UNL d   1       2.437  -1.899   0.092  0.00  0.00     0.069 C 
ATOM     12  C   UNL d   1      -2.453  -1.894   0.038  0.00  0.00     0.069 C 
ATOM     13  H   UNL d   1      -0.025  -2.671  -0.015  0.00  0.00     0.165 HD
ENDROOT
BRANCH   6  14
ATOM     14  C   UNL d   1       0.024   1.908  -1.501  0.00  0.00    -0.044 A 
ATOM     15  C   UNL d   1       0.101   3.306  -1.546  0.00  0.00     0.009 A 
ATOM     16  C   UNL d   1       0.150   3.968  -2.775  0.00  0.00     0.007 A 
ATOM     17  C   UNL d   1       0.121   3.246  -3.976  0.00  0.00    -0.062 A 
ATOM     18  C   UNL d   1       0.035   1.853  -3.933  0.00  0.00     0.007 A 
ATOM     19  C   UNL d   1       0.196   3.963  -5.290  0.00  0.00     0.048 C 
ATOM     20  C   UNL d   1      -0.013   1.191  -2.709  0.00  0.00     0.009 A 
ENDBRANCH   6  14
TORSDOF 1
