REMARK  6 active torsions:
REMARK  status: ('A' for Active; 'I' for Inactive)
REMARK    1  A    between atoms: C_3  and  N_1 
REMARK    2  A    between atoms: C_2  and  O_4 
REMARK    3  A    between atoms: N_7  and  C_2 
REMARK    4  A    between atoms: O_4  and  C_10 
REMARK    5  A    between atoms: C_14  and  N_7 
REMARK    6  A    between atoms: C_15  and  N_7 
ROOT
ATOM      1  C   UNL d   1      -1.079   0.411   1.588  0.00  0.00     0.111 A 
ATOM      2  C   UNL d   1      -1.944  -0.516   0.988  0.00  0.00     0.074 A 
ATOM      3  C   UNL d   1      -1.820  -1.859   1.324  0.00  0.00     0.081 A 
ATOM      4  C   UNL d   1      -0.147   0.035   2.570  0.00  0.00    -0.029 A 
ATOM      5  C   UNL d   1      -0.088  -1.325   2.924  0.00  0.00     0.012 A 
ATOM      6  C   UNL d   1      -0.915  -2.268   2.301  0.00  0.00     0.038 A 
ATOM      7  C   UNL d   1       0.770   0.996   3.277  0.00  0.00     0.050 C 
ENDROOT
BRANCH   3   8
ATOM      8  O   UNL d   1      -2.658  -2.876   0.773  0.00  0.00    -0.284 OA
BRANCH   8   9
ATOM      9  C   UNL d   1      -3.284  -2.934  -0.485  0.00  0.00     0.217 C 
ATOM     10  S   UNL d   1      -2.673  -2.162  -1.833  0.00  0.00    -0.033 SA
BRANCH   9  11
ATOM     11  N   UNL d   1      -4.411  -3.743  -0.478  0.00  0.00    -0.353 N 
BRANCH  11  12
ATOM     12  C   UNL d   1      -5.689  -3.241  -0.992  0.00  0.00     0.121 C 
ATOM     13  C   UNL d   1      -6.236  -4.008  -2.181  0.00  0.00     0.026 C 
ENDBRANCH  11  12
BRANCH  11  14
ATOM     14  C   UNL d   1      -4.309  -5.116   0.018  0.00  0.00     0.121 C 
ATOM     15  C   UNL d   1      -5.242  -5.439   1.169  0.00  0.00     0.026 C 
ENDBRANCH  11  14
ENDBRANCH   9  11
ENDBRANCH   8   9
ENDBRANCH   3   8
BRANCH   1  16
ATOM     16  N   UNL d   1      -1.177   1.786   1.129  0.00  0.00    -0.115 N 
ATOM     17  O   UNL d   1      -2.263   2.357   1.297  0.00  0.00    -0.532 OA
ATOM     18  O   UNL d   1      -0.177   2.279   0.590  0.00  0.00    -0.532 OA
ENDBRANCH   1  16
TORSDOF 6
