REMARK  4 active torsions:
REMARK  status: ('A' for Active; 'I' for Inactive)
REMARK    1  A    between atoms: S_12  and  C_1 
REMARK    2  A    between atoms: N_16  and  C_10 
REMARK    3  A    between atoms: O_17  and  C_11 
REMARK    4  A    between atoms: C_15  and  S_12 
ROOT
ATOM      1  C   UNL d   1       1.255  -1.416  -0.067  0.00  0.00     0.089 A 
ATOM      2  C   UNL d   1      -0.019  -0.778  -0.063  0.00  0.00     0.052 A 
ATOM      3  C   UNL d   1      -0.007   0.637  -0.015  0.00  0.00     0.034 A 
ATOM      4  N   UNL d   1       2.436  -0.739  -0.065  0.00  0.00    -0.353 N 
ATOM      5  HN  UNL d   1       3.322  -1.244  -0.078  1.00  0.00     0.166 HD
ATOM      6  N   UNL d   1      -2.443  -0.695  -0.021  0.00  0.00    -0.287 N 
ATOM      7  HN  UNL d   1      -3.338  -1.185  -0.042  1.00  0.00     0.188 HD
ATOM      8  N   UNL d   1      -2.420   0.655   0.066  0.00  0.00    -0.278 N 
ATOM      9  HN  UNL d   1      -3.291   1.181   0.143  1.00  0.00     0.189 HD
ATOM     10  C   UNL d   1      -1.295  -1.399  -0.081  0.00  0.00     0.106 A 
ATOM     11  C   UNL d   1      -1.243   1.297   0.050  0.00  0.00     0.166 A 
ATOM     12  C   UNL d   1       1.230   1.317  -0.004  0.00  0.00     0.041 A 
ATOM     13  C   UNL d   1       2.415   0.603  -0.046  0.00  0.00     0.007 A 
ATOM     14  C   UNL d   1       3.742   1.301  -0.029  0.00  0.00     0.068 C 
ENDROOT
BRANCH   1  15
ATOM     15  S   UNL d   1       1.469  -3.184   0.179  0.00  0.00    -0.072 SA
BRANCH  15  16
ATOM     16  C   UNL d   1       2.253  -3.723  -1.328  0.00  0.00     0.007 A 
ATOM     17  C   UNL d   1       3.538  -3.295  -1.677  0.00  0.00     0.020 A 
ATOM     18  C   UNL d   1       4.173  -3.807  -2.813  0.00  0.00     0.025 A 
ATOM     19  C   UNL d   1       3.529  -4.761  -3.597  0.00  0.00     0.034 A 
ATOM     20  C   UNL d   1       2.253  -5.204  -3.257  0.00  0.00     0.025 A 
ATOM     21 CL   UNL d   1       4.320  -5.408  -4.981  0.00  0.00    -0.084 Cl
ATOM     22  C   UNL d   1       1.617  -4.686  -2.123  0.00  0.00     0.020 A 
ENDBRANCH  15  16
ENDBRANCH   1  15
BRANCH  10  23
ATOM     23  N   UNL d   1      -1.477  -2.774  -0.256  0.00  0.00    -0.287 NA
ATOM     24  H   UNL d   1      -2.469  -2.981  -0.160  0.00  0.00     0.125 HD
ATOM     25  H   UNL d   1      -0.899  -3.325   0.370  0.00  0.00     0.125 HD
ENDBRANCH  10  23
BRANCH  11  26
ATOM     26  O   UNL d   1      -1.370   2.655   0.129  0.00  0.00    -0.344 OA
ATOM     27  H   UNL d   1      -0.570   3.076  -0.205  0.00  0.00     0.219 HD
ENDBRANCH  11  26
TORSDOF 4
