REMARK  7 active torsions:
REMARK  status: ('A' for Active; 'I' for Inactive)
REMARK    1  A    between atoms: C_3  and  S_1 
REMARK    2  A    between atoms: N_9  and  S_1 
REMARK       I    between atoms: C_2  and  N_4 
REMARK       I    between atoms: N_8  and  C_2 
REMARK    3  A    between atoms: N_4  and  C_10 
REMARK    4  A    between atoms: C_12  and  N_8 
REMARK    5  A    between atoms: O_13  and  C_14 
REMARK    6  A    between atoms: C_15  and  O_13 
REMARK    7  A    between atoms: C_20  and  C_15 
ROOT
ATOM      1  C   UNL d   1      -1.997  -1.944  -4.073  0.00  0.00     0.325 C 
ATOM      2  N   UNL d   1      -1.817  -2.689  -5.198  0.00  0.00    -0.309 N 
ATOM      3  N   UNL d   1      -1.548  -2.420  -2.873  0.00  0.00    -0.309 N 
ATOM      4  O   UNL d   1      -2.458  -0.817  -4.264  0.00  0.00    -0.247 OA
ATOM      5  H   UNL d   1      -1.970  -2.076  -5.992  0.00  0.00     0.170 HD
ATOM      6  H   UNL d   1      -1.006  -3.268  -2.908  0.00  0.00     0.170 HD
ENDROOT
BRANCH   2   7
ATOM      7  C   UNL d   1      -1.409  -3.991  -5.523  0.00  0.00     0.037 A 
ATOM      8  C   UNL d   1      -1.407  -5.084  -4.661  0.00  0.00     0.054 A 
ATOM      9  C   UNL d   1      -0.928  -6.326  -5.121  0.00  0.00     0.076 A 
ATOM     10  C   UNL d   1      -0.491  -6.499  -6.438  0.00  0.00     0.025 A 
ATOM     11  C   UNL d   1      -0.537  -5.420  -7.312  0.00  0.00     0.004 A 
ATOM     12  C   UNL d   1      -0.995  -4.181  -6.855  0.00  0.00     0.029 A 
BRANCH   9  13
ATOM     13  S   UNL d   1      -0.756  -7.675  -3.988  0.00  0.00     0.239 S 
ATOM     14  O   UNL d   1      -1.284  -7.275  -2.701  0.00  0.00    -0.206 OA
ATOM     15  O   UNL d   1       0.567  -8.233  -4.142  0.00  0.00    -0.206 OA
BRANCH  13  16
ATOM     16  N   UNL d   1      -1.825  -8.829  -4.570  0.00  0.00    -0.225 NA
ATOM     17  H   UNL d   1      -2.606  -8.928  -3.920  0.00  0.00     0.136 HD
ATOM     18  H   UNL d   1      -1.321  -9.706  -4.715  0.00  0.00     0.136 HD
ENDBRANCH  13  16
ENDBRANCH   9  13
ENDBRANCH   2   7
BRANCH   3  19
ATOM     19  C   UNL d   1      -1.363  -1.622  -1.707  0.00  0.00     0.036 A 
ATOM     20  C   UNL d   1      -1.966  -0.375  -1.505  0.00  0.00     0.032 A 
ATOM     21  C   UNL d   1      -1.565   0.467  -0.452  0.00  0.00     0.039 A 
ATOM     22  C   UNL d   1      -0.566   0.060   0.427  0.00  0.00     0.069 A 
ATOM     23  C   UNL d   1      -0.059  -1.236   0.311  0.00  0.00     0.039 A 
ATOM     24  C   UNL d   1      -0.455  -2.074  -0.744  0.00  0.00     0.032 A 
BRANCH  22  25
ATOM     25  O   UNL d   1      -0.054   0.820   1.447  0.00  0.00    -0.347 OA
BRANCH  25  26
ATOM     26  C   UNL d   1       0.092   2.220   1.161  0.00  0.00     0.214 C 
BRANCH  26  27
ATOM     27  C   UNL d   1       0.970   2.915   2.192  0.00  0.00    -0.034 A 
ATOM     28  C   UNL d   1       2.024   2.243   2.836  0.00  0.00     0.009 A 
ATOM     29  C   UNL d   1       2.856   2.916   3.740  0.00  0.00     0.001 A 
ATOM     30  C   UNL d   1       2.658   4.271   4.000  0.00  0.00     0.000 A 
ATOM     31  C   UNL d   1       1.629   4.953   3.358  0.00  0.00     0.001 A 
ATOM     32  C   UNL d   1       0.794   4.282   2.458  0.00  0.00     0.009 A 
ENDBRANCH  26  27
ENDBRANCH  25  26
ENDBRANCH  22  25
ENDBRANCH   3  19
TORSDOF 7
