REMARK  5 active torsions:
REMARK  status: ('A' for Active; 'I' for Inactive)
REMARK    1  A    between atoms: N_2  and  C_1 
REMARK    2  A    between atoms: C_6  and  C_4 
REMARK    3  A    between atoms: C_5  and  C_9 
REMARK    4  A    between atoms: S_10  and  C_6 
REMARK    5  A    between atoms: C_9  and  S_10 
ROOT
ATOM      1  C   UNL d   1      -0.886  -2.286  -0.171  0.00  0.00     0.242 C 
ATOM      2  O   UNL d   1      -0.711  -1.080  -0.029  0.00  0.00    -0.278 OA
ENDROOT
BRANCH   1   3
ATOM      3  C   UNL d   1       0.212  -3.235  -0.286  0.00  0.00     0.135 A 
ATOM      4  O   UNL d   1       0.008  -4.585  -0.476  0.00  0.00    -0.284 OA
ATOM      5  C   UNL d   1       1.244  -5.158  -0.546  0.00  0.00     0.215 A 
ATOM      6  C   UNL d   1       2.246  -4.232  -0.406  0.00  0.00     0.066 A 
ATOM      7  C   UNL d   1       1.582  -2.993  -0.238  0.00  0.00     0.046 A 
BRANCH   5   8
ATOM      8  N   UNL d   1       1.299  -6.573  -0.747  0.00  0.00    -0.090 N 
ATOM      9  O   UNL d   1       2.433  -7.075  -0.805  0.00  0.00    -0.530 OA
ATOM     10  O   UNL d   1       0.231  -7.186  -0.848  0.00  0.00    -0.530 OA
ENDBRANCH   5   8
ENDBRANCH   1   3
BRANCH   1  11
ATOM     11  S   UNL d   1      -2.515  -2.959  -0.240  0.00  0.00    -0.081 SA
BRANCH  11  12
ATOM     12  C   UNL d   1      -3.471  -1.411  -0.084  0.00  0.00     0.124 C 
BRANCH  12  13
ATOM     13  C   UNL d   1      -4.966  -1.642   0.035  0.00  0.00    -0.005 A 
ATOM     14  C   UNL d   1      -5.577  -1.851   1.289  0.00  0.00     0.042 A 
ATOM     15 CL   UNL d   1      -4.669  -1.870   2.762  0.00  0.00    -0.084 Cl
ATOM     16  C   UNL d   1      -6.962  -2.040   1.406  0.00  0.00     0.024 A 
ATOM     17  C   UNL d   1      -7.772  -2.031   0.274  0.00  0.00     0.003 A 
ATOM     18  C   UNL d   1      -7.194  -1.832  -0.974  0.00  0.00     0.024 A 
ATOM     19  C   UNL d   1      -5.809  -1.643  -1.095  0.00  0.00     0.042 A 
ATOM     20 CL   UNL d   1      -5.202  -1.396  -2.697  0.00  0.00    -0.084 Cl
ENDBRANCH  12  13
ENDBRANCH  11  12
ENDBRANCH   1  11
TORSDOF 5
