REMARK  5 active torsions:
REMARK  status: ('A' for Active; 'I' for Inactive)
REMARK    1  A    between atoms: C_2  and  C_1 
REMARK       I    between atoms: N_5  and  C_1 
REMARK    2  A    between atoms: C_4  and  C_3 
REMARK    3  A    between atoms: O_11  and  C_4 
REMARK    4  A    between atoms: C_10  and  N_5 
REMARK    5  A    between atoms: C_18  and  C_12 
ROOT
ATOM      1  N   UNL d   1      -6.586   2.081  -1.732  0.00  0.00    -0.197 NA
ATOM      2  C   UNL d   1      -6.096   1.917  -0.690  0.00  0.00     0.063 C 
ATOM      3  C   UNL d   1      -5.504   1.712   0.641  0.00  0.00     0.162 C 
ENDROOT
BRANCH   3   4
ATOM      4  C   UNL d   1      -4.003   1.555   0.593  0.00  0.00    -0.045 A 
ATOM      5  C   UNL d   1      -3.162   2.674   0.656  0.00  0.00     0.010 A 
ATOM      6  C   UNL d   1      -1.776   2.528   0.538  0.00  0.00     0.030 A 
ATOM      7  C   UNL d   1      -1.202   1.267   0.341  0.00  0.00     0.035 A 
ATOM      8  C   UNL d   1      -2.037   0.149   0.309  0.00  0.00     0.030 A 
ATOM      9  C   UNL d   1      -3.424   0.289   0.433  0.00  0.00     0.010 A 
BRANCH   7  10
ATOM     10  N   UNL d   1       0.200   1.217   0.170  0.00  0.00    -0.323 N 
ATOM     11  C   UNL d   1       0.941   0.123  -0.231  0.00  0.00     0.257 C 
ATOM     12  O   UNL d   1       0.500  -0.994  -0.478  0.00  0.00    -0.267 OA
ATOM     13  H   UNL d   1       0.671   2.105   0.297  0.00  0.00     0.169 HD
BRANCH  11  14
ATOM     14  C   UNL d   1       2.408   0.317  -0.407  0.00  0.00     0.049 A 
ATOM     15  C   UNL d   1       3.037   1.465  -0.913  0.00  0.00     0.053 A 
ATOM     16  C   UNL d   1       4.445   1.508  -0.971  0.00  0.00     0.019 A 
ATOM     17  C   UNL d   1       5.218   0.418  -0.571  0.00  0.00     0.001 A 
ATOM     18  C   UNL d   1       4.596  -0.737  -0.115  0.00  0.00     0.001 A 
ATOM     19  C   UNL d   1       3.204  -0.788  -0.038  0.00  0.00     0.018 A 
BRANCH  15  20
ATOM     20  C   UNL d   1       2.356   2.694  -1.382  0.00  0.00     0.177 C 
ATOM     21  O   UNL d   1       2.817   3.802  -1.161  0.00  0.00    -0.646 OA
BRANCH  20  22
ATOM     22  O   UNL d   1       1.213   2.515  -2.067  0.00  0.00    -0.773 OA
ATOM     23  H   UNL d   1       0.926   1.601  -2.261  0.00  0.00     0.167 HD
ENDBRANCH  20  22
ENDBRANCH  15  20
ENDBRANCH  11  14
ENDBRANCH   7  10
ENDBRANCH   3   4
TORSDOF 5
