REMARK  5 active torsions:
REMARK  status: ('A' for Active; 'I' for Inactive)
REMARK    1  A    between atoms: C_3  and  C_1 
REMARK    2  A    between atoms: N_2  and  C_7 
REMARK    3  A    between atoms: C_14  and  C_3 
REMARK    4  A    between atoms: N_6  and  C_4 
REMARK       I    between atoms: C_5  and  N_6 
REMARK    5  A    between atoms: C_9  and  C_5 
ROOT
ATOM      1  C   UNL d   1       1.363   1.110  -0.433  0.00  0.00     0.043 A 
ATOM      2  C   UNL d   1       2.284   0.087  -0.128  0.00  0.00     0.049 A 
ATOM      3  C   UNL d   1      -0.020   0.837  -0.377  0.00  0.00     0.041 A 
ATOM      4  C   UNL d   1       1.792  -1.199   0.166  0.00  0.00     0.032 A 
ATOM      5  C   UNL d   1      -0.479  -0.428  -0.026  0.00  0.00     0.035 A 
ATOM      6  C   UNL d   1       0.421  -1.453   0.232  0.00  0.00     0.026 A 
ATOM      7 CL   UNL d   1      -2.169  -0.737   0.043  0.00  0.00    -0.084 Cl
ENDROOT
BRANCH   2   8
ATOM      8  N   UNL d   1       3.693   0.204  -0.086  0.00  0.00    -0.322 N 
ATOM      9  C   UNL d   1       4.407   1.328   0.289  0.00  0.00     0.256 C 
ATOM     10  O   UNL d   1       3.929   2.381   0.693  0.00  0.00    -0.267 OA
ATOM     11  H   UNL d   1       4.208  -0.656  -0.204  0.00  0.00     0.169 HD
BRANCH   9  12
ATOM     12  C   UNL d   1       5.895   1.171   0.287  0.00  0.00     0.032 A 
ATOM     13  C   UNL d   1       6.684   2.279  -0.055  0.00  0.00     0.019 A 
ATOM     14  C   UNL d   1       8.082   2.197  -0.016  0.00  0.00     0.037 A 
ATOM     15  C   UNL d   1       8.693   0.998   0.376  0.00  0.00     0.102 A 
ATOM     16  C   UNL d   1       7.915  -0.116   0.719  0.00  0.00     0.037 A 
ATOM     17  C   UNL d   1       6.519  -0.025   0.679  0.00  0.00     0.019 A 
BRANCH  15  18
ATOM     18  N   UNL d   1      10.159   0.912   0.451  0.00  0.00    -0.116 N 
ATOM     19  O   UNL d   1      10.812   1.932   0.188  0.00  0.00    -0.532 OA
ATOM     20  O   UNL d   1      10.654  -0.176   0.776  0.00  0.00    -0.532 OA
ENDBRANCH  15  18
ENDBRANCH   9  12
ENDBRANCH   2   8
BRANCH   1  21
ATOM     21  C   UNL d   1       1.760   2.388  -1.091  0.00  0.00     0.194 C 
ATOM     22  O   UNL d   1       2.596   2.357  -1.989  0.00  0.00    -0.287 OA
BRANCH  21  23
ATOM     23  C   UNL d   1       1.016   3.653  -0.817  0.00  0.00     0.015 A 
ATOM     24  C   UNL d   1       0.812   4.543  -1.880  0.00  0.00     0.015 A 
ATOM     25  C   UNL d   1       0.028   5.684  -1.702  0.00  0.00     0.001 A 
ATOM     26  C   UNL d   1      -0.546   5.947  -0.458  0.00  0.00     0.000 A 
ATOM     27  C   UNL d   1      -0.320   5.082   0.613  0.00  0.00     0.001 A 
ATOM     28  C   UNL d   1       0.468   3.939   0.439  0.00  0.00     0.015 A 
ENDBRANCH  21  23
ENDBRANCH   1  21
TORSDOF 5
