REMARK  4 active torsions:
REMARK  status: ('A' for Active; 'I' for Inactive)
REMARK    1  A    between atoms: C_4  and  C_1 
REMARK    2  A    between atoms: C_5  and  C_2 
REMARK       I    between atoms: N_8  and  C_4 
REMARK       I    between atoms: N_9  and  C_5 
REMARK    3  A    between atoms: N_11  and  N_8 
REMARK    4  A    between atoms: N_12  and  N_9 
ROOT
ATOM      1  C   UNL d   1       0.040   1.083  -0.089  0.00  0.00     0.051 A 
ATOM      2  C   UNL d   1       0.785  -0.238   0.114  0.00  0.00     0.098 A 
ATOM      3  C   UNL d   1      -0.725  -0.210   0.138  0.00  0.00     0.035 A 
ATOM      4  C   UNL d   1       0.013   1.649  -1.489  0.00  0.00     0.026 C 
ENDROOT
BRANCH   1   5
ATOM      5  C   UNL d   1       0.131   2.103   1.006  0.00  0.00     0.240 C 
ATOM      6  O   UNL d   1       1.212   2.595   1.307  0.00  0.00    -0.271 OA
ATOM      7  N   UNL d   1      -1.085   2.483   1.548  0.00  0.00    -0.293 N 
ATOM      8  H   UNL d   1      -1.955   2.116   1.172  0.00  0.00     0.183 HD
BRANCH   7   9
ATOM      9  N   UNL d   1      -1.129   3.527   2.500  0.00  0.00    -0.247 NA
ATOM     10  H   UNL d   1      -0.225   4.016   2.443  0.00  0.00     0.143 HD
ATOM     11  H   UNL d   1      -1.103   3.093   3.428  0.00  0.00     0.143 HD
ENDBRANCH   7   9
ENDBRANCH   1   5
BRANCH   2  12
ATOM     12  C   UNL d   1       1.531  -0.522   1.374  0.00  0.00     0.237 C 
ATOM     13  O   UNL d   1       0.988  -0.448   2.472  0.00  0.00    -0.272 OA
ATOM     14  N   UNL d   1       2.851  -0.899   1.186  0.00  0.00    -0.294 N 
ATOM     15  H   UNL d   1       3.233  -1.020   0.252  0.00  0.00     0.183 HD
BRANCH  14  16
ATOM     16  N   UNL d   1       3.640  -1.263   2.300  0.00  0.00    -0.247 NA
ATOM     17  H   UNL d   1       2.999  -1.348   3.102  0.00  0.00     0.143 HD
ATOM     18  H   UNL d   1       4.220  -0.455   2.545  0.00  0.00     0.143 HD
ENDBRANCH  14  16
ENDBRANCH   2  12
TORSDOF 4
