REMARK  6 active torsions:
REMARK  status: ('A' for Active; 'I' for Inactive)
REMARK    1  A    between atoms: N_2  and  C_1 
REMARK    2  A    between atoms: N_3  and  C_1 
REMARK    3  A    between atoms: C_6  and  N_2 
REMARK    4  A    between atoms: C_9  and  N_3 
REMARK    5  A    between atoms: C_12  and  N_3 
REMARK    6  A    between atoms: C_10  and  C_12 
ROOT
ATOM      1  N   UNL d   1      -4.322   1.975  -0.900  0.00  0.00    -0.197 NA
ATOM      2  C   UNL d   1      -3.192   1.896  -1.144  0.00  0.00     0.060 C 
ATOM      3  C   UNL d   1      -1.752   1.812  -1.434  0.00  0.00     0.143 C 
ENDROOT
BRANCH   3   4
ATOM      4  C   UNL d   1      -0.991   1.438  -0.162  0.00  0.00     0.139 C 
BRANCH   4   5
ATOM      5  N   UNL d   1       0.471   1.284  -0.299  0.00  0.00    -0.352 N 
BRANCH   5   6
ATOM      6  C   UNL d   1       1.036  -0.001  -0.474  0.00  0.00     0.174 C 
ATOM      7  S   UNL d   1       0.408  -1.161  -1.508  0.00  0.00    -0.041 SA
BRANCH   6   8
ATOM      8  N   UNL d   1       2.106  -0.205   0.381  0.00  0.00    -0.332 N 
ATOM      9  H   UNL d   1       1.927   0.098   1.333  0.00  0.00     0.168 HD
BRANCH   8  10
ATOM     10  C   UNL d   1       3.270  -0.988   0.223  0.00  0.00     0.056 A 
ATOM     11  C   UNL d   1       3.959  -1.424   1.369  0.00  0.00     0.060 A 
ATOM     12 CL   UNL d   1       3.335  -1.114   2.955  0.00  0.00    -0.082 Cl
ATOM     13  C   UNL d   1       5.163  -2.122   1.258  0.00  0.00     0.026 A 
ATOM     14  C   UNL d   1       5.708  -2.364  -0.002  0.00  0.00     0.002 A 
ATOM     15  C   UNL d   1       5.045  -1.915  -1.144  0.00  0.00     0.002 A 
ATOM     16  C   UNL d   1       3.830  -1.232  -1.034  0.00  0.00     0.031 A 
ENDBRANCH   8  10
ENDBRANCH   6   8
ENDBRANCH   5   6
BRANCH   5  17
ATOM     17  C   UNL d   1       1.385   2.446  -0.103  0.00  0.00     0.086 C 
ATOM     18  C   UNL d   1       1.454   2.933   1.353  0.00  0.00     0.025 C 
ATOM     19  C   UNL d   1       0.599   4.155   1.665  0.00  0.00     0.002 C 
ATOM     20  C   UNL d   1       0.825   5.262   0.647  0.00  0.00     0.000 C 
ATOM     21  C   UNL d   1       0.453   4.783  -0.748  0.00  0.00     0.002 C 
ATOM     22  C   UNL d   1       1.250   3.552  -1.165  0.00  0.00     0.025 C 
ENDBRANCH   5  17
ENDBRANCH   4   5
ENDBRANCH   3   4
TORSDOF 6
