REMARK  6 active torsions:
REMARK  status: ('A' for Active; 'I' for Inactive)
REMARK    1  A    between atoms: C_3  and  C_1 
REMARK    2  A    between atoms: C_12  and  N_4 
REMARK       I    between atoms: C_5  and  N_6 
REMARK    3  A    between atoms: C_10  and  C_5 
REMARK    4  A    between atoms: N_6  and  N_11 
REMARK    5  A    between atoms: C_7  and  C_9 
REMARK       I    between atoms: N_11  and  C_7 
REMARK    6  A    between atoms: C_9  and  C_12 
ROOT
ATOM      1  C   UNL d   1       4.884   1.500  -0.585  0.00  0.00     0.237 C 
ATOM      2  N   UNL d   1       5.686   1.236  -1.673  0.00  0.00    -0.267 N 
ATOM      3  O   UNL d   1       5.073   2.458   0.165  0.00  0.00    -0.272 OA
ATOM      4  H   UNL d   1       5.413   0.571  -2.401  0.00  0.00     0.190 HD
ENDROOT
BRANCH   1   5
ATOM      5  C   UNL d   1       3.788   0.490  -0.363  0.00  0.00     0.125 C 
BRANCH   5   6
ATOM      6  C   UNL d   1       2.422   1.151  -0.189  0.00  0.00     0.141 C 
BRANCH   6   7
ATOM      7  N   UNL d   1       1.938   2.029  -1.273  0.00  0.00    -0.324 N 
ATOM      8  C   UNL d   1       2.199   1.735  -2.620  0.00  0.00     0.262 C 
ATOM      9  C   UNL d   1       1.712   2.724  -3.617  0.00  0.00     0.115 C 
ATOM     10  O   UNL d   1       2.812   0.734  -2.978  0.00  0.00    -0.267 OA
ATOM     11  C   UNL d   1       0.910   3.725  -3.211  0.00  0.00     0.023 C 
ATOM     12  C   UNL d   1       0.532   3.863  -1.833  0.00  0.00     0.018 C 
ATOM     13  C   UNL d   1       1.065   3.049  -0.917  0.00  0.00     0.094 C 
BRANCH   9  14
ATOM     14  C   UNL d   1       2.171   2.585  -5.023  0.00  0.00     0.422 C 
ATOM     15  F   UNL d   1       3.053   1.591  -5.280  0.00  0.00    -0.166 F 
ATOM     16  F   UNL d   1       1.116   2.394  -5.864  0.00  0.00    -0.166 F 
ATOM     17  F   UNL d   1       2.773   3.735  -5.444  0.00  0.00    -0.166 F 
ENDBRANCH   9  14
ENDBRANCH   6   7
ENDBRANCH   5   6
ENDBRANCH   1   5
BRANCH   2  18
ATOM     18  N   UNL d   1       6.708   2.135  -1.997  0.00  0.00    -0.263 N 
ATOM     19  C   UNL d   1       7.766   1.670  -2.758  0.00  0.00     0.270 C 
ATOM     20  O   UNL d   1       7.848   0.519  -3.177  0.00  0.00    -0.266 OA
ATOM     21  H   UNL d   1       6.783   2.959  -1.403  0.00  0.00     0.190 HD
BRANCH  19  22
ATOM     22  C   UNL d   1       8.831   2.655  -3.081  0.00  0.00     0.035 A 
ATOM     23  C   UNL d   1       8.525   4.002  -3.311  0.00  0.00     0.041 A 
ATOM     24  C   UNL d   1       9.531   4.872  -3.732  0.00  0.00     0.035 A 
ATOM     25 CL   UNL d   1       9.147   6.516  -4.065  0.00  0.00    -0.084 Cl
ATOM     26  C   UNL d   1      10.838   4.419  -3.914  0.00  0.00     0.024 A 
ATOM     27  C   UNL d   1      11.147   3.080  -3.674  0.00  0.00     0.003 A 
ATOM     28  C   UNL d   1      10.144   2.198  -3.265  0.00  0.00     0.017 A 
ENDBRANCH  19  22
ENDBRANCH   2  18
TORSDOF 6
