REMARK  5 active torsions:
REMARK  status: ('A' for Active; 'I' for Inactive)
REMARK    1  A    between atoms: C_2  and  S_1 
REMARK    2  A    between atoms: N_4  and  S_1 
REMARK    3  A    between atoms: C_10  and  C_13 
REMARK    4  A    between atoms: C_16  and  C_10 
REMARK    5  A    between atoms: C_17  and  C_10 
ROOT
ATOM      1  N   UNL d   1       0.361   1.592  -0.219  0.00  0.00    -0.206 NA
ATOM      2  C   UNL d   1       1.090   2.636   0.552  0.00  0.00     0.108 C 
ATOM      3  C   UNL d   1       0.240   1.924  -1.669  0.00  0.00     0.108 C 
ATOM      4  C   UNL d   1       0.355   4.421  -1.114  0.00  0.00     0.001 C 
ATOM      5  C   UNL d   1       0.413   3.990   0.366  0.00  0.00     0.021 C 
ATOM      6  C   UNL d   1      -0.402   3.297  -1.860  0.00  0.00     0.021 C 
ENDROOT
BRANCH   4   7
ATOM      7  C   UNL d   1       1.754   4.730  -1.767  0.00  0.00     0.056 C 
BRANCH   7   8
ATOM      8  C   UNL d   1       1.600   5.185  -3.223  0.00  0.00    -0.049 A 
ATOM      9  C   UNL d   1       0.864   6.332  -3.559  0.00  0.00     0.008 A 
ATOM     10  C   UNL d   1       0.725   6.728  -4.891  0.00  0.00     0.001 A 
ATOM     11  C   UNL d   1       1.323   5.985  -5.905  0.00  0.00     0.000 A 
ATOM     12  C   UNL d   1       2.058   4.845  -5.590  0.00  0.00     0.001 A 
ATOM     13  C   UNL d   1       2.198   4.447  -4.259  0.00  0.00     0.008 A 
ENDBRANCH   7   8
BRANCH   7  14
ATOM     14  C   UNL d   1       2.677   5.683  -1.004  0.00  0.00    -0.049 A 
ATOM     15  C   UNL d   1       4.071   5.484  -1.075  0.00  0.00     0.008 A 
ATOM     16  C   UNL d   1       4.958   6.328  -0.404  0.00  0.00     0.001 A 
ATOM     17  C   UNL d   1       4.470   7.395   0.344  0.00  0.00     0.000 A 
ATOM     18  C   UNL d   1       3.097   7.625   0.407  0.00  0.00     0.001 A 
ATOM     19  C   UNL d   1       2.209   6.783  -0.270  0.00  0.00     0.008 A 
ENDBRANCH   7  14
ENDBRANCH   4   7
BRANCH   1  20
ATOM     20  S   UNL d   1       0.976   0.001   0.023  0.00  0.00     0.250 S 
ATOM     21  O   UNL d   1       0.210  -0.917  -0.787  0.00  0.00    -0.205 OA
ATOM     22  O   UNL d   1       2.420   0.076  -0.102  0.00  0.00    -0.205 OA
BRANCH  20  23
ATOM     23  C   UNL d   1       0.693  -0.506   1.701  0.00  0.00     0.116 A 
ATOM     24  S   UNL d   1      -0.939  -0.565   2.218  0.00  0.00    -0.070 SA
ATOM     25  C   UNL d   1      -0.487  -1.154   3.743  0.00  0.00     0.052 A 
ATOM     26 BR   UNL d   1      -1.722  -1.573   5.089  0.00  0.00    -0.043 Br
ATOM     27  C   UNL d   1       0.869  -1.294   3.894  0.00  0.00     0.028 A 
ATOM     28  C   UNL d   1       1.557  -0.911   2.704  0.00  0.00     0.034 A 
ENDBRANCH  20  23
ENDBRANCH   1  20
TORSDOF 5
