REMARK  7 active torsions:
REMARK  status: ('A' for Active; 'I' for Inactive)
REMARK    1  A    between atoms: S_9  and  C_1 
REMARK    2  A    between atoms: C_7  and  C_10 
REMARK    3  A    between atoms: O_18  and  C_7 
REMARK    4  A    between atoms: C_8  and  C_16 
REMARK       I    between atoms: N_11  and  C_8 
REMARK    5  A    between atoms: C_16  and  S_9 
REMARK    6  A    between atoms: C_17  and  N_11 
REMARK    7  A    between atoms: C_23  and  O_18 
ROOT
ATOM      1  C   UNL d   1      -6.001  -1.549   0.045  0.00  0.00     0.231 C 
ATOM      2  N   UNL d   1      -6.624  -0.317   0.179  0.00  0.00    -0.327 N 
ATOM      3  O   UNL d   1      -4.842  -1.740  -0.321  0.00  0.00    -0.272 OA
ATOM      4  H   UNL d   1      -7.555  -0.323   0.594  0.00  0.00     0.169 HD
ENDROOT
BRANCH   1   5
ATOM      5  C   UNL d   1      -6.893  -2.727   0.382  0.00  0.00     0.186 C 
BRANCH   5   6
ATOM      6  S   UNL d   1      -6.785  -3.098   2.149  0.00  0.00    -0.077 SA
BRANCH   6   7
ATOM      7  C   UNL d   1      -7.991  -2.024   2.787  0.00  0.00     0.188 A 
ATOM      8  N   UNL d   1      -8.804  -1.299   2.034  0.00  0.00    -0.329 N 
ATOM      9  C   UNL d   1      -9.657  -0.723   2.945  0.00  0.00     0.068 A 
ATOM     10  HN  UNL d   1      -8.798  -1.194   1.020  1.00  0.00     0.168 HD
ATOM     11  C   UNL d   1     -10.783   0.092   2.770  0.00  0.00     0.032 A 
ATOM     12  C   UNL d   1      -9.275  -1.069   4.229  0.00  0.00     0.105 A 
ATOM     13  C   UNL d   1     -11.467   0.525   3.917  0.00  0.00     0.002 A 
ATOM     14  C   UNL d   1     -11.033   0.168   5.200  0.00  0.00     0.003 A 
ATOM     15  C   UNL d   1      -9.910  -0.646   5.389  0.00  0.00     0.040 A 
ATOM     16  O   UNL d   1      -8.200  -1.898   4.134  0.00  0.00    -0.285 OA
ENDBRANCH   6   7
ENDBRANCH   5   6
ENDBRANCH   1   5
BRANCH   2  17
ATOM     17  C   UNL d   1      -6.097   0.940  -0.184  0.00  0.00     0.034 A 
ATOM     18  C   UNL d   1      -4.845   1.110  -0.775  0.00  0.00     0.030 A 
ATOM     19  C   UNL d   1      -4.411   2.372  -1.192  0.00  0.00     0.020 A 
ATOM     20  C   UNL d   1      -5.231   3.491  -1.027  0.00  0.00     0.039 A 
ATOM     21  C   UNL d   1      -6.471   3.339  -0.396  0.00  0.00     0.020 A 
ATOM     22  C   UNL d   1      -6.899   2.070   0.024  0.00  0.00     0.030 A 
BRANCH  20  23
ATOM     23  C   UNL d   1      -4.865   4.821  -1.584  0.00  0.00     0.293 C 
ATOM     24  O   UNL d   1      -5.583   5.805  -1.519  0.00  0.00    -0.259 OA
BRANCH  23  25
ATOM     25  O   UNL d   1      -3.688   4.727  -2.251  0.00  0.00    -0.318 OA
BRANCH  25  26
ATOM     26  C   UNL d   1      -3.377   5.797  -3.153  0.00  0.00     0.174 C 
ATOM     27  C   UNL d   1      -3.929   5.442  -4.522  0.00  0.00     0.034 C 
ENDBRANCH  25  26
ENDBRANCH  23  25
ENDBRANCH  20  23
ENDBRANCH   2  17
TORSDOF 7
