REMARK  2 active torsions:
REMARK  status: ('A' for Active; 'I' for Inactive)
REMARK    1  A    between atoms: N_2  and  S_1 
REMARK    2  A    between atoms: C_5  and  N_4 
ROOT
ATOM      1  C   UNL d   1       2.602  -5.348   2.059  0.00  0.00     0.017 A 
ATOM      2  C   UNL d   1       2.506  -4.078   2.718  0.00  0.00     0.044 A 
ATOM      3  C   UNL d   1       2.905  -6.486   2.850  0.00  0.00     0.046 A 
ATOM      4  C   UNL d   1       2.442  -5.562   0.665  0.00  0.00     0.018 A 
ATOM      5  C   UNL d   1       2.896  -7.750   2.277  0.00  0.00     0.054 A 
ATOM      6  N   UNL d   1       3.201  -6.419   4.153  0.00  0.00    -0.365 N 
ATOM      7  HN  UNL d   1       3.423  -7.259   4.687  1.00  0.00     0.165 HD
ATOM      8  C   UNL d   1       2.631  -7.933   0.924  0.00  0.00     0.036 A 
ATOM      9  C   UNL d   1       2.851  -4.044   4.077  0.00  0.00     0.047 A 
ATOM     10  C   UNL d   1       2.426  -6.839   0.105  0.00  0.00     0.025 A 
ATOM     11  C   UNL d   1       3.195  -5.209   4.734  0.00  0.00     0.090 A 
ATOM     12 CL   UNL d   1       2.580  -9.519   0.261  0.00  0.00    -0.084 Cl
ENDROOT
BRANCH   2  13
ATOM     13  N   UNL d   1       2.005  -2.914   2.138  0.00  0.00    -0.378 N 
ATOM     14  C   UNL d   1       0.982  -2.932   1.077  0.00  0.00     0.138 C 
ATOM     15  C   UNL d   1      -0.061  -1.831   1.318  0.00  0.00     0.127 C 
ATOM     16  N   UNL d   1       0.575  -0.480   1.409  0.00  0.00    -0.208 NA
ATOM     17  C   UNL d   1       1.628  -0.471   2.480  0.00  0.00     0.127 C 
ATOM     18  C   UNL d   1       2.669  -1.609   2.329  0.00  0.00     0.138 C 
BRANCH  16  19
ATOM     19  S   UNL d   1       0.981   0.235  -0.077  0.00  0.00     0.207 S 
ATOM     20  O   UNL d   1      -0.067  -0.076  -1.026  0.00  0.00    -0.212 OA
ATOM     21  O   UNL d   1       2.363  -0.063  -0.366  0.00  0.00    -0.212 OA
ATOM     22  C   UNL d   1       0.843   1.965   0.325  0.00  0.00     0.180 C 
ENDBRANCH  16  19
ENDBRANCH   2  13
TORSDOF 2
