REMARK  6 active torsions:
REMARK  status: ('A' for Active; 'I' for Inactive)
REMARK    1  A    between atoms: C_3  and  S_1 
REMARK    2  A    between atoms: N_4  and  S_1 
REMARK    3  A    between atoms: N_2  and  C_7 
REMARK    4  A    between atoms: C_5  and  N_4 
REMARK    5  A    between atoms: O_21  and  C_10 
REMARK    6  A    between atoms: O_22  and  C_12 
ROOT
ATOM      1  S   UNL d   1       0.936   0.223   0.060  0.00  0.00     0.246 S 
ATOM      2  O   UNL d   1       1.932   0.047   1.094  0.00  0.00    -0.206 OA
ATOM      3  O   UNL d   1      -0.291  -0.539   0.014  0.00  0.00    -0.206 OA
ENDROOT
BRANCH   1   4
ATOM      4  C   UNL d   1       1.768  -0.101  -1.508  0.00  0.00     0.083 A 
ATOM      5  C   UNL d   1       1.975   0.954  -2.412  0.00  0.00     0.061 A 
ATOM      6  C   UNL d   1       2.598   0.696  -3.648  0.00  0.00     0.104 A 
ATOM      7  C   UNL d   1       3.017  -0.591  -3.983  0.00  0.00     0.037 A 
ATOM      8  C   UNL d   1       2.811  -1.635  -3.084  0.00  0.00     0.011 A 
ATOM      9  C   UNL d   1       2.186  -1.411  -1.839  0.00  0.00    -0.039 A 
ATOM     10  C   UNL d   1       2.027  -2.616  -0.949  0.00  0.00     0.050 C 
BRANCH   6  11
ATOM     11  N   UNL d   1       2.817   1.791  -4.601  0.00  0.00    -0.116 N 
ATOM     12  O   UNL d   1       2.421   2.921  -4.275  0.00  0.00    -0.532 OA
ATOM     13  O   UNL d   1       3.377   1.527  -5.674  0.00  0.00    -0.532 OA
ENDBRANCH   6  11
ENDBRANCH   1   4
BRANCH   1  14
ATOM     14  N   UNL d   1       0.456   1.847  -0.026  0.00  0.00    -0.178 NA
ATOM     15  H   UNL d   1      -0.568   1.825  -0.057  0.00  0.00     0.146 HD
BRANCH  14  16
ATOM     16  C   UNL d   1       0.900   2.730   1.025  0.00  0.00     0.059 A 
ATOM     17  C   UNL d   1       2.076   3.457   0.830  0.00  0.00     0.065 A 
ATOM     18  C   UNL d   1       2.482   4.457   1.734  0.00  0.00     0.091 A 
ATOM     19  C   UNL d   1       1.690   4.690   2.865  0.00  0.00     0.070 A 
ATOM     20  C   UNL d   1       0.549   3.901   3.099  0.00  0.00     0.065 A 
ATOM     21 CL   UNL d   1       1.955   5.931   4.042  0.00  0.00    -0.081 Cl
ATOM     22  C   UNL d   1       0.148   2.914   2.195  0.00  0.00     0.092 A 
BRANCH  18  23
ATOM     23  O   UNL d   1       3.625   5.072   1.306  0.00  0.00    -0.354 OA
ATOM     24  C   UNL d   1       4.191   6.144   2.038  0.00  0.00     0.210 C 
ENDBRANCH  18  23
BRANCH  22  25
ATOM     25  O   UNL d   1      -0.973   2.136   2.347  0.00  0.00    -0.354 OA
ATOM     26  C   UNL d   1      -1.657   2.245   3.596  0.00  0.00     0.210 C 
ENDBRANCH  22  25
ENDBRANCH  14  16
ENDBRANCH   1  14
TORSDOF 6
