REMARK  3 active torsions:
REMARK  status: ('A' for Active; 'I' for Inactive)
REMARK    1  A    between atoms: C_12  and  N_2 
REMARK    2  A    between atoms: N_10  and  C_6 
REMARK    3  A    between atoms: C_13  and  N_7 
ROOT
ATOM      1  C   UNL d   1      -0.735   1.149  -0.079  0.00  0.00     0.708 C 
ATOM      2  N   UNL d   1       0.667   1.140   0.057  0.00  0.00    -0.095 N 
ATOM      3  C   UNL d   1       1.381  -0.067   0.122  0.00  0.00     0.360 C 
ATOM      4  N   UNL d   1      -1.293  -0.074  -0.330  0.00  0.00    -0.022 N 
ATOM      5  N   UNL d   1       0.648  -1.232   0.036  0.00  0.00    -0.140 N 
ATOM      6  C   UNL d   1      -0.677  -1.267  -0.241  0.00  0.00     0.694 C 
ATOM      7  N   UNL d   1      -1.389   2.262   0.087  0.00  0.00    -0.191 N 
ATOM      8  HN  UNL d   1      -0.858   3.118   0.241  1.00  0.00     0.184 HD
ATOM      9  O   UNL d   1       2.606  -0.188   0.201  0.00  0.00    -0.245 OA
ATOM     10  H   UNL d   1      -2.282  -0.119  -0.528  0.00  0.00     0.203 HD
ATOM     11  H   UNL d   1       1.195  -2.076   0.067  0.00  0.00     0.189 HD
ENDROOT
BRANCH   2  12
ATOM     12  C   UNL d   1       1.410   2.371   0.076  0.00  0.00     0.061 A 
ATOM     13  C   UNL d   1       1.133   3.388  -0.851  0.00  0.00     0.031 A 
ATOM     14  C   UNL d   1       1.896   4.559  -0.880  0.00  0.00     0.002 A 
ATOM     15  C   UNL d   1       2.932   4.739   0.033  0.00  0.00     0.000 A 
ATOM     16  C   UNL d   1       3.211   3.746   0.969  0.00  0.00     0.002 A 
ATOM     17  C   UNL d   1       2.463   2.565   0.982  0.00  0.00     0.031 A 
ENDBRANCH   2  12
BRANCH   7  18
ATOM     18  C   UNL d   1      -2.791   2.342   0.064  0.00  0.00     0.049 A 
ATOM     19  C   UNL d   1      -3.623   1.498   0.812  0.00  0.00     0.030 A 
ATOM     20  C   UNL d   1      -5.013   1.622   0.746  0.00  0.00     0.002 A 
ATOM     21  C   UNL d   1      -5.586   2.632  -0.023  0.00  0.00     0.000 A 
ATOM     22  C   UNL d   1      -4.767   3.522  -0.715  0.00  0.00     0.002 A 
ATOM     23  C   UNL d   1      -3.379   3.374  -0.670  0.00  0.00     0.030 A 
ENDBRANCH   7  18
BRANCH   6  24
ATOM     24  N   UNL d   1      -1.280  -2.389  -0.388  0.00  0.00    -0.234 N 
ATOM     25  H   UNL d   1      -0.631  -3.171  -0.265  0.00  0.00     0.174 HD
ATOM     26  HN  UNL d   1      -2.273  -2.489  -0.598  1.00  0.00     0.174 HD
ENDBRANCH   6  24
TORSDOF 3
