REMARK  2 active torsions:
REMARK  status: ('A' for Active; 'I' for Inactive)
REMARK    1  A    between atoms: C_3  and  C_1 
REMARK    2  A    between atoms: O_13  and  C_3 
ROOT
ATOM      1  C   UNL d   1       0.756   0.784   1.142  0.00  0.00     0.047 C 
ATOM      2  C   UNL d   1      -1.519   0.289   0.108  0.00  0.00    -0.042 C 
ATOM      3  C   UNL d   1      -0.766   1.041   1.232  0.00  0.00     0.029 C 
ATOM      4  C   UNL d   1       0.994  -0.745   1.263  0.00  0.00     0.025 C 
ATOM      5  C   UNL d   1       1.270   1.242  -0.242  0.00  0.00     0.025 C 
ATOM      6  C   UNL d   1       0.264  -1.504   0.146  0.00  0.00    -0.012 C 
ATOM      7  C   UNL d   1       0.534   0.488  -1.364  0.00  0.00    -0.012 C 
ATOM      8  C   UNL d   1      -1.243  -1.225   0.249  0.00  0.00     0.014 C 
ATOM      9  C   UNL d   1      -0.975   0.764  -1.259  0.00  0.00     0.014 C 
ATOM     10  C   UNL d   1       0.782  -1.021  -1.216  0.00  0.00     0.009 C 
ATOM     11  C   UNL d   1      -3.023   0.561   0.204  0.00  0.00     0.015 C 
ENDROOT
BRANCH   1  12
ATOM     12  C   UNL d   1       1.503   1.499   2.270  0.00  0.00     0.148 C 
ATOM     13  O   UNL d   1       2.190   0.934   3.110  0.00  0.00    -0.649 OA
BRANCH  12  14
ATOM     14  O   UNL d   1       1.355   2.843   2.283  0.00  0.00    -0.776 OA
ATOM     15  H   UNL d   1       0.793   3.207   1.576  0.00  0.00     0.167 HD
ENDBRANCH  12  14
ENDBRANCH   1  12
TORSDOF 2
