REMARK  1 active torsions:
REMARK  status: ('A' for Active; 'I' for Inactive)
REMARK    1  A    between atoms: C_9  and  C_3 
ROOT
ATOM      1  N   UNL d   1       2.333  -0.756   0.039  0.00  0.00    -0.307 N 
ATOM      2  HN  UNL d   1       3.213  -1.272   0.044  1.00  0.00     0.170 HD
ATOM      3  C   UNL d   1       1.210  -1.417   0.020  0.00  0.00     0.059 A 
ATOM      4  C   UNL d   1       2.364   0.610   0.052  0.00  0.00     0.325 A 
ATOM      5  N   UNL d   1       1.184   1.296  -0.044  0.00  0.00    -0.308 N 
ATOM      6  C   UNL d   1      -0.110  -0.722   0.057  0.00  0.00     0.018 A 
ATOM      7  C   UNL d   1      -0.055   0.669  -0.039  0.00  0.00     0.049 A 
ATOM      8  O   UNL d   1       3.410   1.248   0.131  0.00  0.00    -0.247 OA
ATOM      9  C   UNL d   1      -1.356  -1.339   0.207  0.00  0.00     0.016 A 
ATOM     10  C   UNL d   1      -1.222   1.434  -0.087  0.00  0.00     0.030 A 
ATOM     11  C   UNL d   1      -2.529  -0.581   0.137  0.00  0.00     0.001 A 
ATOM     12  C   UNL d   1      -2.462   0.802  -0.025  0.00  0.00     0.002 A 
ATOM     13  H   UNL d   1       1.270   2.301  -0.045  0.00  0.00     0.170 HD
ENDROOT
BRANCH   3  14
ATOM     14  C   UNL d   1       1.315  -2.911  -0.058  0.00  0.00    -0.008 A 
ATOM     15  C   UNL d   1       2.376  -3.543   0.606  0.00  0.00     0.014 A 
ATOM     16  C   UNL d   1       2.506  -4.933   0.570  0.00  0.00     0.001 A 
ATOM     17  C   UNL d   1       1.575  -5.702  -0.126  0.00  0.00     0.000 A 
ATOM     18  C   UNL d   1       0.544  -5.080  -0.825  0.00  0.00     0.001 A 
ATOM     19  C   UNL d   1       0.434  -3.688  -0.819  0.00  0.00     0.014 A 
ENDBRANCH   3  14
TORSDOF 1
