REMARK  3 active torsions:
REMARK  status: ('A' for Active; 'I' for Inactive)
REMARK    1  A    between atoms: C_13  and  C_5 
REMARK    2  A    between atoms: N_7  and  C_9 
REMARK    3  A    between atoms: N_8  and  C_14 
REMARK       I    between atoms: N_23  and  C_13 
ROOT
ATOM      1  C   UNL d   1      -0.694   0.846   0.031  0.00  0.00     0.005 A 
ATOM      2  C   UNL d   1      -1.156  -0.492  -0.017  0.00  0.00     0.029 A 
ATOM      3  C   UNL d   1       1.203  -0.536  -0.024  0.00  0.00     0.028 A 
ATOM      4  C   UNL d   1       0.772   0.807   0.013  0.00  0.00    -0.010 A 
ATOM      5  C   UNL d   1      -1.657   1.858   0.059  0.00  0.00     0.046 A 
ATOM      6  C   UNL d   1       0.009  -1.392  -0.036  0.00  0.00     0.194 A 
ATOM      7  C   UNL d   1      -3.426   0.145  -0.047  0.00  0.00     0.104 A 
ATOM      8  C   UNL d   1      -2.484  -0.879  -0.058  0.00  0.00     0.052 A 
ATOM      9  C   UNL d   1      -3.025   1.497   0.020  0.00  0.00     0.054 A 
ATOM     10  C   UNL d   1       2.525  -0.945  -0.078  0.00  0.00     0.052 A 
ATOM     11  C   UNL d   1       3.486   0.065  -0.095  0.00  0.00     0.103 A 
ATOM     12  C   UNL d   1       1.747   1.793  -0.008  0.00  0.00     0.016 A 
ATOM     13  O   UNL d   1      -0.017  -2.603  -0.069  0.00  0.00    -0.287 OA
ATOM     14  C   UNL d   1       3.105   1.424  -0.054  0.00  0.00     0.037 A 
ENDROOT
BRANCH   5  15
ATOM     15  C   UNL d   1      -1.328   3.300   0.202  0.00  0.00     0.250 C 
ATOM     16  O   UNL d   1      -0.399   3.685   0.898  0.00  0.00    -0.268 OA
ATOM     17  N   UNL d   1      -2.132   4.199  -0.441  0.00  0.00    -0.366 N 
ATOM     18  H   UNL d   1      -2.917   3.967  -1.033  0.00  0.00     0.159 HD
ATOM     19  H   UNL d   1      -1.919   5.181  -0.315  0.00  0.00     0.159 HD
ENDBRANCH   5  15
BRANCH   7  20
ATOM     20  N   UNL d   1      -4.856  -0.183  -0.108  0.00  0.00    -0.116 N 
ATOM     21  O   UNL d   1      -5.172  -1.379  -0.133  0.00  0.00    -0.532 OA
ATOM     22  O   UNL d   1      -5.656   0.762  -0.144  0.00  0.00    -0.532 OA
ENDBRANCH   7  20
BRANCH  11  23
ATOM     23  N   UNL d   1       4.909  -0.287  -0.181  0.00  0.00    -0.116 N 
ATOM     24  O   UNL d   1       5.200  -1.489  -0.255  0.00  0.00    -0.532 OA
ATOM     25  O   UNL d   1       5.733   0.638  -0.184  0.00  0.00    -0.532 OA
ENDBRANCH  11  23
TORSDOF 3
