REMARK  3 active torsions:
REMARK  status: ('A' for Active; 'I' for Inactive)
REMARK    1  A    between atoms: C_3  and  C_1 
REMARK    2  A    between atoms: N_7  and  C_2 
REMARK       I    between atoms: C_6  and  N_7 
REMARK       I    between atoms: N_9  and  C_6 
REMARK    3  A    between atoms: C_14  and  N_9 
ROOT
ATOM      1  C   UNL d   1       1.492  -2.996  -0.287  0.00  0.00     0.325 C 
ATOM      2  N   UNL d   1       0.218  -2.596   0.074  0.00  0.00    -0.306 N 
ATOM      3  N   UNL d   1       1.688  -4.350  -0.048  0.00  0.00    -0.309 N 
ATOM      4  O   UNL d   1       2.307  -2.237  -0.794  0.00  0.00    -0.247 OA
ATOM      5  H   UNL d   1      -0.496  -3.306   0.053  0.00  0.00     0.171 HD
ATOM      6  H   UNL d   1       0.878  -4.898   0.185  0.00  0.00     0.170 HD
ENDROOT
BRANCH   2   7
ATOM      7  C   UNL d   1      -0.235  -1.280   0.005  0.00  0.00     0.077 A 
ATOM      8  C   UNL d   1       0.432  -0.070   0.124  0.00  0.00     0.186 A 
ATOM      9  O   UNL d   1      -0.469   0.956  -0.049  0.00  0.00    -0.308 OA
ATOM     10  C   UNL d   1      -1.697   0.415  -0.227  0.00  0.00     0.052 A 
ATOM     11  C   UNL d   1      -2.811   1.366  -0.415  0.00  0.00     0.077 C 
ATOM     12  C   UNL d   1      -1.613  -0.958  -0.183  0.00  0.00     0.064 A 
BRANCH   8  13
ATOM     13  C   UNL d   1       1.808   0.396   0.449  0.00  0.00     0.441 C 
ATOM     14  F   UNL d   1       2.611  -0.541   1.012  0.00  0.00    -0.164 F 
ATOM     15  F   UNL d   1       2.454   0.909  -0.631  0.00  0.00    -0.164 F 
ATOM     16  F   UNL d   1       1.762   1.410   1.368  0.00  0.00    -0.164 F 
ENDBRANCH   8  13
ENDBRANCH   2   7
BRANCH   3  17
ATOM     17  C   UNL d   1       2.882  -5.070  -0.276  0.00  0.00     0.036 A 
ATOM     18  C   UNL d   1       4.125  -4.457  -0.453  0.00  0.00     0.029 A 
ATOM     19  C   UNL d   1       5.262  -5.219  -0.735  0.00  0.00     0.002 A 
ATOM     20  C   UNL d   1       5.169  -6.604  -0.835  0.00  0.00     0.000 A 
ATOM     21  C   UNL d   1       3.944  -7.231  -0.619  0.00  0.00     0.002 A 
ATOM     22  C   UNL d   1       2.808  -6.469  -0.325  0.00  0.00     0.029 A 
ENDBRANCH   3  17
TORSDOF 3
