REMARK  5 active torsions:
REMARK  status: ('A' for Active; 'I' for Inactive)
REMARK       I    between atoms: N_2  and  C_1 
REMARK       I    between atoms: N_4  and  C_1 
REMARK    1  A    between atoms: C_3  and  N_2 
REMARK    2  A    between atoms: C_7  and  N_4 
REMARK    3  A    between atoms: O_14  and  C_6 
REMARK    4  A    between atoms: C_8  and  C_7 
REMARK    5  A    between atoms: O_15  and  C_9 
ROOT
ATOM      1  C   UNL d   1       0.759  -0.775   0.260  0.00  0.00     0.321 C 
ATOM      2  N   UNL d   1       2.113  -1.042   0.199  0.00  0.00    -0.306 N 
ATOM      3  N   UNL d   1       0.196  -0.724  -0.992  0.00  0.00    -0.339 N 
ATOM      4  O   UNL d   1       0.121  -0.546   1.281  0.00  0.00    -0.247 OA
ATOM      5  H   UNL d   1       2.567  -0.774  -0.654  0.00  0.00     0.171 HD
ATOM      6  H   UNL d   1       0.623  -1.290  -1.710  0.00  0.00     0.164 HD
ENDROOT
BRANCH   2   7
ATOM      7  C   UNL d   1       2.918  -1.121   1.359  0.00  0.00     0.069 A 
ATOM      8  C   UNL d   1       4.220  -0.595   1.390  0.00  0.00     0.095 A 
ATOM      9  C   UNL d   1       4.992  -0.727   2.553  0.00  0.00     0.039 A 
ATOM     10  C   UNL d   1       4.484  -1.381   3.679  0.00  0.00     0.003 A 
ATOM     11  C   UNL d   1       3.206  -1.927   3.641  0.00  0.00     0.002 A 
ATOM     12  C   UNL d   1       2.428  -1.792   2.490  0.00  0.00     0.032 A 
BRANCH   8  13
ATOM     13  O   UNL d   1       4.868   0.011   0.344  0.00  0.00    -0.354 OA
ATOM     14  C   UNL d   1       4.171   1.079  -0.291  0.00  0.00     0.210 C 
ENDBRANCH   8  13
ENDBRANCH   2   7
BRANCH   3  15
ATOM     15  C   UNL d   1      -1.208  -0.405  -1.152  0.00  0.00     0.162 C 
BRANCH  15  16
ATOM     16  C   UNL d   1      -2.022  -1.611  -1.541  0.00  0.00    -0.040 A 
ATOM     17  C   UNL d   1      -2.135  -2.713  -0.680  0.00  0.00     0.011 A 
ATOM     18  C   UNL d   1      -2.918  -3.818  -1.030  0.00  0.00     0.037 A 
ATOM     19  C   UNL d   1      -3.607  -3.836  -2.241  0.00  0.00     0.068 A 
ATOM     20  C   UNL d   1      -3.505  -2.738  -3.097  0.00  0.00     0.037 A 
ATOM     21  C   UNL d   1      -2.721  -1.634  -2.755  0.00  0.00     0.011 A 
BRANCH  19  22
ATOM     22  O   UNL d   1      -4.405  -4.847  -2.702  0.00  0.00    -0.356 OA
ATOM     23  C   UNL d   1      -4.562  -5.979  -1.857  0.00  0.00     0.210 C 
ENDBRANCH  19  22
ENDBRANCH  15  16
ENDBRANCH   3  15
TORSDOF 5
