REMARK  3 active torsions:
REMARK  status: ('A' for Active; 'I' for Inactive)
REMARK    1  A    between atoms: S_13  and  C_4 
REMARK    2  A    between atoms: C_12  and  C_7 
REMARK    3  A    between atoms: C_11  and  C_12 
ROOT
ATOM      1  O   UNL d   1       1.148   0.181   0.061  0.00  0.00    -0.272 OA
ATOM      2  N   UNL d   1       0.510   0.165  -2.079  0.00  0.00    -0.272 N 
ATOM      3  HN  UNL d   1      -0.006   0.373  -2.934  1.00  0.00     0.189 HD
ATOM      4  C   UNL d   1       0.281   0.664  -0.883  0.00  0.00     0.200 A 
ATOM      5  N   UNL d   1       1.583  -0.695  -1.954  0.00  0.00    -0.281 N 
ATOM      6  HN  UNL d   1       2.015  -1.248  -2.694  1.00  0.00     0.189 HD
ATOM      7  C   UNL d   1       1.935  -0.656  -0.685  0.00  0.00     0.145 A 
ENDROOT
BRANCH   7   8
ATOM      8  C   UNL d   1       3.044  -1.356   0.008  0.00  0.00     0.124 C 
BRANCH   8   9
ATOM      9  C   UNL d   1       4.312  -0.531   0.025  0.00  0.00    -0.049 A 
ATOM     10  C   UNL d   1       4.567   0.358   1.081  0.00  0.00     0.033 A 
ATOM     11  C   UNL d   1       5.694   1.187   1.060  0.00  0.00     0.056 A 
ATOM     12 CL   UNL d   1       5.921   2.266   2.390  0.00  0.00    -0.083 Cl
ATOM     13  C   UNL d   1       6.579   1.132  -0.022  0.00  0.00     0.055 A 
ATOM     14  C   UNL d   1       6.339   0.239  -1.069  0.00  0.00     0.026 A 
ATOM     15 CL   UNL d   1       7.972   2.148  -0.134  0.00  0.00    -0.083 Cl
ATOM     16  C   UNL d   1       5.212  -0.587  -1.048  0.00  0.00     0.009 A 
ENDBRANCH   8   9
ENDBRANCH   7   8
BRANCH   4  17
ATOM     17  S   UNL d   1      -0.972   1.804  -0.534  0.00  0.00    -0.098 SA
ATOM     18  H   UNL d   1      -1.418   1.912  -1.792  0.00  0.00     0.110 HD
ENDBRANCH   4  17
TORSDOF 3
