REMARK  4 active torsions:
REMARK  status: ('A' for Active; 'I' for Inactive)
REMARK    1  A    between atoms: C_7  and  C_1 
REMARK    2  A    between atoms: C_8  and  C_4 
REMARK    3  A    between atoms: C_9  and  C_8 
REMARK    4  A    between atoms: O_16  and  C_9 
ROOT
ATOM      1  C   UNL d   1      -1.492   0.315  -0.110  0.00  0.00     0.103 A 
ATOM      2  N   UNL d   1      -1.320  -0.998  -0.124  0.00  0.00    -0.351 N 
ATOM      3  HN  UNL d   1      -2.074  -1.680  -0.200  1.00  0.00     0.166 HD
ATOM      4  C   UNL d   1       0.030  -1.321  -0.020  0.00  0.00     0.033 A 
ATOM      5  S   UNL d   1      -0.027   1.218  -0.046  0.00  0.00    -0.073 SA
ATOM      6  C   UNL d   1       0.884  -0.230  -0.012  0.00  0.00     0.004 A 
ATOM      7  C   UNL d   1       2.372  -0.175   0.030  0.00  0.00     0.058 C 
ENDROOT
BRANCH   1   8
ATOM      8  C   UNL d   1      -2.792   1.002  -0.161  0.00  0.00     0.081 A 
ATOM      9  N   UNL d   1      -2.797   2.363  -0.146  0.00  0.00    -0.361 N 
ATOM     10  C   UNL d   1      -4.010   2.957  -0.225  0.00  0.00     0.105 A 
ATOM     11  HN  UNL d   1      -1.935   2.905  -0.080  1.00  0.00     0.165 HD
ATOM     12  C   UNL d   1      -5.185   2.233  -0.318  0.00  0.00     0.104 A 
ATOM     13  N   UNL d   1      -5.202   0.882  -0.324  0.00  0.00    -0.372 N 
ATOM     14  C   UNL d   1      -3.982   0.287  -0.240  0.00  0.00     0.120 A 
ATOM     15  HN  UNL d   1      -6.068   0.346  -0.387  1.00  0.00     0.164 HD
ENDBRANCH   1   8
BRANCH   4  16
ATOM     16  C   UNL d   1       0.395  -2.767   0.080  0.00  0.00     0.168 C 
BRANCH  16  17
ATOM     17  C   UNL d   1       1.187  -3.255  -1.105  0.00  0.00     0.145 C 
ATOM     18  O   UNL d   1       2.284  -3.795  -1.009  0.00  0.00    -0.650 OA
BRANCH  17  19
ATOM     19  O   UNL d   1       0.570  -3.091  -2.297  0.00  0.00    -0.776 OA
ATOM     20  H   UNL d   1      -0.301  -2.647  -2.225  0.00  0.00     0.167 HD
ENDBRANCH  17  19
ENDBRANCH  16  17
ENDBRANCH   4  16
TORSDOF 4
