REMARK  8 active torsions:
REMARK  status: ('A' for Active; 'I' for Inactive)
REMARK    1  A    between atoms: C_2  and  C_4 
REMARK       I    between atoms: N_8  and  C_2 
REMARK       I    between atoms: C_3  and  N_9 
REMARK    2  A    between atoms: C_12  and  C_3 
REMARK    3  A    between atoms: C_7  and  C_16 
REMARK    4  A    between atoms: N_9  and  N_8 
REMARK    5  A    between atoms: C_19  and  C_12 
REMARK    6  A    between atoms: C_18  and  O_26 
REMARK    7  A    between atoms: O_26  and  C_19 
REMARK    8  A    between atoms: O_27  and  C_20 
ROOT
ATOM      1  C   UNL d   1       3.669  -1.881  -0.959  0.00  0.00     0.259 C 
ATOM      2  N   UNL d   1       3.731  -3.064  -0.247  0.00  0.00    -0.264 N 
ATOM      3  O   UNL d   1       4.601  -1.474  -1.650  0.00  0.00    -0.267 OA
ATOM      4  H   UNL d   1       2.993  -3.429   0.346  0.00  0.00     0.190 HD
ENDROOT
BRANCH   2   5
ATOM      5  N   UNL d   1       4.918  -3.818  -0.328  0.00  0.00    -0.267 N 
ATOM      6  C   UNL d   1       4.858  -5.185  -0.126  0.00  0.00     0.238 C 
ATOM      7  O   UNL d   1       3.799  -5.748   0.166  0.00  0.00    -0.272 OA
ATOM      8  H   UNL d   1       5.653  -3.369  -0.872  0.00  0.00     0.190 HD
BRANCH   6   9
ATOM      9  C   UNL d   1       6.162  -5.975  -0.242  0.00  0.00     0.131 C 
BRANCH   9  10
ATOM     10  C   UNL d   1       7.396  -5.103  -0.399  0.00  0.00     0.185 C 
BRANCH  10  11
ATOM     11  O   UNL d   1       8.616  -5.851  -0.431  0.00  0.00    -0.351 OA
BRANCH  11  12
ATOM     12  C   UNL d   1       9.746  -5.068  -0.538  0.00  0.00     0.068 A 
ATOM     13  C   UNL d   1       9.743  -3.673  -0.659  0.00  0.00     0.039 A 
ATOM     14  C   UNL d   1      10.935  -2.952  -0.741  0.00  0.00     0.039 A 
ATOM     15  C   UNL d   1      12.157  -3.615  -0.710  0.00  0.00     0.068 A 
ATOM     16  C   UNL d   1      12.172  -5.006  -0.585  0.00  0.00     0.039 A 
ATOM     17  C   UNL d   1      10.973  -5.732  -0.510  0.00  0.00     0.039 A 
BRANCH  15  18
ATOM     18  O   UNL d   1      13.379  -3.001  -0.754  0.00  0.00    -0.356 OA
ATOM     19  C   UNL d   1      13.407  -1.725  -1.387  0.00  0.00     0.210 C 
ENDBRANCH  15  18
ENDBRANCH  11  12
ENDBRANCH  10  11
ENDBRANCH   9  10
ENDBRANCH   6   9
ENDBRANCH   2   5
BRANCH   1  20
ATOM     20  C   UNL d   1       2.387  -1.134  -0.792  0.00  0.00     0.076 C 
ATOM     21  C   UNL d   1       2.242   0.070  -1.371  0.00  0.00     0.017 C 
BRANCH  21  22
ATOM     22  C   UNL d   1       1.049   0.939  -1.303  0.00  0.00    -0.033 A 
ATOM     23  C   UNL d   1       1.229   2.330  -1.394  0.00  0.00     0.051 A 
ATOM     24  C   UNL d   1       0.117   3.147  -1.404  0.00  0.00     0.105 A 
ATOM     25  C   UNL d   1      -1.158   2.639  -1.327  0.00  0.00     0.105 A 
ATOM     26  O   UNL d   1       0.126   4.507  -1.493  0.00  0.00    -0.323 OA
ATOM     27  O   UNL d   1      -2.110   3.609  -1.362  0.00  0.00    -0.323 OA
ATOM     28  C   UNL d   1      -1.380   1.284  -1.240  0.00  0.00     0.040 A 
ATOM     29  C   UNL d   1      -1.291   4.792  -1.500  0.00  0.00     0.352 A 
ATOM     30  C   UNL d   1      -0.268   0.428  -1.234  0.00  0.00     0.014 A 
ENDBRANCH  21  22
ENDBRANCH   1  20
TORSDOF 8
