REMARK  5 active torsions:
REMARK  status: ('A' for Active; 'I' for Inactive)
REMARK    1  A    between atoms: C_2  and  C_1 
REMARK    2  A    between atoms: C_12  and  C_2 
REMARK    3  A    between atoms: O_13  and  C_2 
REMARK    4  A    between atoms: C_16  and  C_12 
REMARK    5  A    between atoms: O_14  and  C_16 
ROOT
ATOM      1  C   UNL d   1      -1.444   0.311   0.065  0.00  0.00    -0.009 C 
ATOM      2  C   UNL d   1      -0.713   1.008   1.252  0.00  0.00     0.017 C 
ATOM      3  C   UNL d   1      -0.768   0.816  -1.250  0.00  0.00     0.017 C 
ATOM      4  C   UNL d   1      -1.145  -1.221   0.169  0.00  0.00     0.017 C 
ATOM      5  C   UNL d   1       0.800   0.708   1.238  0.00  0.00    -0.013 C 
ATOM      6  C   UNL d   1       0.743   0.517  -1.267  0.00  0.00    -0.013 C 
ATOM      7  C   UNL d   1       0.362  -1.516   0.153  0.00  0.00    -0.013 C 
ATOM      8  C   UNL d   1       1.413   1.217  -0.075  0.00  0.00     0.009 C 
ATOM      9  C   UNL d   1       1.026  -0.807   1.343  0.00  0.00     0.009 C 
ATOM     10  C   UNL d   1       0.964  -0.998  -1.159  0.00  0.00     0.009 C 
ENDROOT
BRANCH   1  11
ATOM     11  C   UNL d   1      -3.015   0.583   0.067  0.00  0.00     0.064 C 
ATOM     12  C   UNL d   1      -3.712  -0.074   1.276  0.00  0.00     0.046 C 
BRANCH  11  13
ATOM     13  C   UNL d   1      -3.380   2.092  -0.002  0.00  0.00     0.064 C 
BRANCH  13  14
ATOM     14  C   UNL d   1      -4.882   2.391  -0.001  0.00  0.00     0.167 C 
BRANCH  14  15
ATOM     15  O   UNL d   1      -5.071   3.795  -0.155  0.00  0.00    -0.401 OA
ATOM     16  H   UNL d   1      -6.028   3.958  -0.081  0.00  0.00     0.209 HD
ENDBRANCH  14  15
ENDBRANCH  13  14
ENDBRANCH  11  13
BRANCH  11  17
ATOM     17  O   UNL d   1      -3.592  -0.052  -1.086  0.00  0.00    -0.389 OA
ATOM     18  H   UNL d   1      -3.317   0.438  -1.877  0.00  0.00     0.210 HD
ENDBRANCH  11  17
ENDBRANCH   1  11
TORSDOF 5
