REMARK  8 active torsions:
REMARK  status: ('A' for Active; 'I' for Inactive)
REMARK    1  A    between atoms: C_3  and  C_1 
REMARK    2  A    between atoms: N_11  and  C_2 
REMARK    3  A    between atoms: S_13  and  C_2 
REMARK       I    between atoms: N_14  and  C_3 
REMARK    4  A    between atoms: C_4  and  C_15 
REMARK    5  A    between atoms: C_10  and  C_17 
REMARK    6  A    between atoms: C_18  and  N_11 
REMARK    7  A    between atoms: C_15  and  S_13 
REMARK    8  A    between atoms: C_20  and  N_14 
ROOT
ATOM      1  C   UNL d   1       1.022   0.166  -0.311  0.00  0.00     0.140 C 
ATOM      2  C   UNL d   1       0.263   1.090   0.341  0.00  0.00     0.077 C 
ATOM      3  C   UNL d   1       0.386  -0.810  -1.135  0.00  0.00     0.107 C 
ATOM      4  N   UNL d   1      -0.049  -1.598  -1.859  0.00  0.00    -0.191 NA
ENDROOT
BRANCH   1   5
ATOM      5  C   UNL d   1       2.494  -0.029  -0.120  0.00  0.00     0.269 C 
ATOM      6  N   UNL d   1       3.168  -0.504  -1.238  0.00  0.00    -0.322 N 
ATOM      7  H   UNL d   1       2.656  -0.601  -2.109  0.00  0.00     0.169 HD
ATOM      8  O   UNL d   1       2.993   0.165   0.982  0.00  0.00    -0.266 OA
BRANCH   6   9
ATOM      9  C   UNL d   1       4.554  -0.773  -1.331  0.00  0.00     0.035 A 
ATOM     10  C   UNL d   1       5.426  -0.695  -0.245  0.00  0.00     0.045 A 
ATOM     11  C   UNL d   1       6.816  -0.760  -0.426  0.00  0.00     0.050 A 
ATOM     12  C   UNL d   1       7.325  -1.019  -1.705  0.00  0.00     0.016 A 
ATOM     13  C   UNL d   1       6.458  -1.190  -2.783  0.00  0.00     0.003 A 
ATOM     14  C   UNL d   1       5.078  -1.059  -2.598  0.00  0.00     0.029 A 
BRANCH  11  15
ATOM     15  C   UNL d   1       7.746  -0.461   0.723  0.00  0.00     0.417 C 
ATOM     16  F   UNL d   1       7.106  -0.170   1.889  0.00  0.00    -0.166 F 
ATOM     17  F   UNL d   1       8.593  -1.488   1.005  0.00  0.00    -0.166 F 
ATOM     18  F   UNL d   1       8.538   0.618   0.462  0.00  0.00    -0.166 F 
ENDBRANCH  11  15
ENDBRANCH   6   9
ENDBRANCH   1   5
BRANCH   2  19
ATOM     19  N   UNL d   1      -1.138   0.928   0.393  0.00  0.00    -0.251 NA
ATOM     20  H   UNL d   1      -1.595   1.834   0.534  0.00  0.00     0.134 HD
BRANCH  19  21
ATOM     21  C   UNL d   1      -1.799  -0.010   1.266  0.00  0.00     0.035 A 
ATOM     22  C   UNL d   1      -3.209  -0.033   1.345  0.00  0.00     0.055 A 
ATOM     23 CL   UNL d   1      -4.165   1.111   0.465  0.00  0.00    -0.082 Cl
ATOM     24  C   UNL d   1      -3.882  -0.968   2.145  0.00  0.00     0.026 A 
ATOM     25  C   UNL d   1      -3.161  -1.908   2.878  0.00  0.00     0.002 A 
ATOM     26  C   UNL d   1      -1.772  -1.914   2.806  0.00  0.00     0.002 A 
ATOM     27  C   UNL d   1      -1.099  -0.981   2.006  0.00  0.00     0.025 A 
ENDBRANCH  19  21
ENDBRANCH   2  19
BRANCH   2  28
ATOM     28  S   UNL d   1       0.873   2.502   1.203  0.00  0.00    -0.112 SA
BRANCH  28  29
ATOM     29  C   UNL d   1       2.321   3.190   0.350  0.00  0.00     0.120 C 
BRANCH  29  30
ATOM     30  C   UNL d   1       2.295   3.581  -1.128  0.00  0.00    -0.036 C 
ATOM     31  C   UNL d   1       1.180   4.223  -1.728  0.00  0.00    -0.048 C 
ATOM     32  C   UNL d   1       1.126   4.393  -3.137  0.00  0.00    -0.049 C 
ATOM     33  C   UNL d   1       0.067   4.815  -0.892  0.00  0.00     0.049 C 
ATOM     34  C   UNL d   1      -0.163   4.794  -3.827  0.00  0.00     0.049 C 
ATOM     35  C   UNL d   1       2.283   4.185  -3.925  0.00  0.00    -0.049 C 
ATOM     36  C   UNL d   1       3.483   3.772  -3.305  0.00  0.00    -0.049 C 
ATOM     37  C   UNL d   1       2.212   4.448  -5.416  0.00  0.00     0.049 C 
ATOM     38  C   UNL d   1       3.485   3.441  -1.916  0.00  0.00    -0.048 C 
ATOM     39  C   UNL d   1       4.749   3.705  -4.138  0.00  0.00     0.049 C 
ATOM     40  C   UNL d   1       4.810   3.014  -1.309  0.00  0.00     0.049 C 
ENDBRANCH  29  30
ENDBRANCH  28  29
ENDBRANCH   2  28
TORSDOF 8
