REMARK  5 active torsions:
REMARK  status: ('A' for Active; 'I' for Inactive)
REMARK    1  A    between atoms: N_5  and  S_1 
REMARK    2  A    between atoms: N_2  and  C_4 
REMARK    3  A    between atoms: C_9  and  N_5 
REMARK    4  A    between atoms: N_12  and  C_10 
REMARK    5  A    between atoms: C_17  and  C_11 
ROOT
ATOM      1  C   UNL d   1       0.147  -4.974  -0.596  0.00  0.00     0.039 A 
ATOM      2  C   UNL d   1       0.097  -4.136   0.534  0.00  0.00     0.054 A 
ATOM      3  C   UNL d   1       1.177  -3.317   0.884  0.00  0.00     0.024 A 
ATOM      4  C   UNL d   1       1.307  -4.939  -1.404  0.00  0.00    -0.035 A 
ATOM      5  C   UNL d   1       2.389  -4.114  -1.031  0.00  0.00     0.011 A 
ATOM      6  C   UNL d   1       2.321  -3.301   0.098  0.00  0.00     0.025 A 
ATOM      7  C   UNL d   1       1.448  -5.738  -2.669  0.00  0.00     0.050 C 
ENDROOT
BRANCH   1   8
ATOM      8  N   UNL d   1      -1.020  -5.723  -0.878  0.00  0.00    -0.365 N 
ATOM      9  C   UNL d   1      -0.932  -6.995  -1.115  0.00  0.00     0.099 C 
ATOM     10  HN  UNL d   1      -1.930  -5.262  -0.895  1.00  0.00     0.165 HD
BRANCH   9  11
ATOM     11  C   UNL d   1      -2.112  -7.853  -1.381  0.00  0.00    -0.021 A 
ATOM     12  C   UNL d   1      -3.401  -7.465  -1.028  0.00  0.00     0.015 A 
ATOM     13  C   UNL d   1      -4.481  -8.343  -1.242  0.00  0.00     0.030 A 
ATOM     14  C   UNL d   1      -4.320  -9.614  -1.821  0.00  0.00     0.029 A 
ATOM     15  C   UNL d   1      -3.007  -9.966  -2.176  0.00  0.00     0.030 A 
ATOM     16  C   UNL d   1      -1.916  -9.105  -1.960  0.00  0.00     0.015 A 
BRANCH  14  17
ATOM     17  N   UNL d   1      -5.398 -10.458  -2.046  0.00  0.00    -0.390 N 
ATOM     18  C   UNL d   1      -6.559 -10.478  -1.160  0.00  0.00     0.149 C 
ATOM     19  C   UNL d   1      -5.365 -11.518  -3.049  0.00  0.00     0.149 C 
ENDBRANCH  14  17
ENDBRANCH   9  11
ENDBRANCH   1   8
BRANCH   3  20
ATOM     20  N   UNL d   1       1.112  -2.456   2.024  0.00  0.00    -0.186 NA
ATOM     21  H   UNL d   1       0.646  -2.865   2.838  0.00  0.00     0.145 HD
BRANCH  20  22
ATOM     22  S   UNL d   1       0.513  -0.892   1.800  0.00  0.00     0.210 S 
ATOM     23  O   UNL d   1      -0.053  -0.516   3.079  0.00  0.00    -0.211 OA
ATOM     24  O   UNL d   1      -0.264  -0.816   0.586  0.00  0.00    -0.211 OA
ATOM     25  C   UNL d   1       2.010   0.058   1.590  0.00  0.00     0.180 C 
ENDBRANCH  20  22
ENDBRANCH   3  20
TORSDOF 5
