REMARK  4 active torsions:
REMARK  status: ('A' for Active; 'I' for Inactive)
REMARK    1  A    between atoms: C_5  and  C_1 
REMARK    2  A    between atoms: O_18  and  C_1 
REMARK    3  A    between atoms: C_7  and  C_2 
REMARK    4  A    between atoms: C_16  and  C_11 
ROOT
ATOM      1  C   UNL d   1       2.229  -1.464  -0.181  0.00  0.00    -0.005 A 
ATOM      2  C   UNL d   1       3.299  -1.359   0.695  0.00  0.00    -0.039 A 
ATOM      3  C   UNL d   1       4.441  -2.147   0.515  0.00  0.00    -0.043 A 
ATOM      4  C   UNL d   1       3.449  -3.219  -1.425  0.00  0.00    -0.049 A 
ATOM      5  C   UNL d   1       4.522  -3.064  -0.529  0.00  0.00     0.016 A 
ATOM      6  C   UNL d   1       2.318  -2.385  -1.246  0.00  0.00     0.022 A 
ATOM      7  C   UNL d   1       5.471  -1.882   1.589  0.00  0.00    -0.020 C 
ATOM      8  C   UNL d   1       3.442  -0.498   1.915  0.00  0.00     0.041 C 
ATOM      9  C   UNL d   1       4.958  -0.534   2.151  0.00  0.00     0.018 C 
ATOM     10  C   UNL d   1       6.892  -1.732   1.036  0.00  0.00     0.020 C 
ATOM     11  C   UNL d   1       5.430  -2.988   2.651  0.00  0.00     0.020 C 
ENDROOT
BRANCH   1  12
ATOM     12  C   UNL d   1       1.007  -0.654  -0.006  0.00  0.00     0.036 C 
ATOM     13  C   UNL d   1       0.137  -0.271  -1.172  0.00  0.00     0.124 C 
ATOM     14  C   UNL d   1      -0.686   0.845  -0.528  0.00  0.00     0.233 C 
ATOM     15  N   UNL d   1      -0.559   0.468   0.886  0.00  0.00    -0.198 NA
ATOM     16  N   UNL d   1       0.581  -0.212   1.142  0.00  0.00    -0.322 N 
ATOM     17  H   UNL d   1      -0.693   1.255   1.522  0.00  0.00     0.150 HD
ATOM     18  HN  UNL d   1       1.020  -0.351   2.052  1.00  0.00     0.180 HD
BRANCH  14  19
ATOM     19  C   UNL d   1      -2.150   0.888  -1.072  0.00  0.00     0.434 C 
ATOM     20  F   UNL d   1      -3.059   0.453  -0.168  0.00  0.00    -0.166 F 
ATOM     21  F   UNL d   1      -2.496   2.170  -1.373  0.00  0.00    -0.166 F 
ATOM     22  F   UNL d   1      -2.315   0.159  -2.200  0.00  0.00    -0.166 F 
ENDBRANCH  14  19
BRANCH  14  23
ATOM     23  O   UNL d   1       0.009   2.085  -0.743  0.00  0.00    -0.366 OA
ATOM     24  H   UNL d   1      -0.587   2.792  -0.437  0.00  0.00     0.212 HD
ENDBRANCH  14  23
ENDBRANCH   1  12
BRANCH   4  25
ATOM     25  C   UNL d   1       3.526  -4.242  -2.578  0.00  0.00    -0.024 C 
ATOM     26  C   UNL d   1       4.159  -3.549  -3.800  0.00  0.00     0.019 C 
ATOM     27  C   UNL d   1       4.384  -5.476  -2.208  0.00  0.00     0.019 C 
ATOM     28  C   UNL d   1       2.142  -4.793  -2.991  0.00  0.00     0.019 C 
ENDBRANCH   4  25
TORSDOF 4
