REMARK  4 active torsions:
REMARK  status: ('A' for Active; 'I' for Inactive)
REMARK    1  A    between atoms: C_2  and  CA_1 
REMARK    2  A    between atoms: N_3  and  CA_1 
REMARK    3  A    between atoms: OXT_12  and  C_2 
REMARK       I    between atoms: C_7  and  N_3 
REMARK    4  A    between atoms: C_10  and  C_4 
ROOT
ATOM      1  N   UNL d   1       5.904  -5.390   2.701  0.00  0.00    -0.191 NA
ATOM      2  C   UNL d   1       5.269  -4.521   2.260  0.00  0.00     0.099 C 
ATOM      3  C   UNL d   1       3.026  -1.324   0.619  0.00  0.00    -0.034 A 
ATOM      4  C   UNL d   1       4.493  -3.449   1.712  0.00  0.00     0.044 A 
ATOM      5  C   UNL d   1       3.393  -2.412  -0.181  0.00  0.00     0.013 A 
ATOM      6  C   UNL d   1       3.373  -1.312   1.974  0.00  0.00     0.013 A 
ATOM      7  C   UNL d   1       4.108  -2.372   2.517  0.00  0.00     0.023 A 
ATOM      8  C   UNL d   1       4.125  -3.470   0.363  0.00  0.00     0.023 A 
ENDROOT
BRANCH   3   9
ATOM      9  C   UNL d   1       2.282  -0.217   0.016  0.00  0.00     0.048 C 
ATOM     10  CA  UNL d   1       0.936  -0.081   0.037  0.00  0.00     0.110 C 
BRANCH  10  11
ATOM     11  C   UNL d   1       0.368   1.075  -0.740  0.00  0.00     0.193 C 
ATOM     12  O   UNL d   1      -0.524   0.972  -1.563  0.00  0.00    -0.645 OA
BRANCH  11  13
ATOM     13  OXT UNL d   1       1.037   2.238  -0.537  0.00  0.00    -0.772 OA
ATOM     14  HXT UNL d   1       1.671   2.222   0.201  0.00  0.00     0.167 HD
ENDBRANCH  11  13
ENDBRANCH  10  11
BRANCH  10  15
ATOM     15  N   UNL d   1       0.140  -1.049   0.622  0.00  0.00    -0.322 N 
ATOM     16  C   UNL d   1      -1.226  -1.012   0.821  0.00  0.00     0.218 C 
ATOM     17  O   UNL d   1      -1.954  -0.044   0.638  0.00  0.00    -0.274 OA
ATOM     18  C   UNL d   1      -1.774  -2.310   1.368  0.00  0.00     0.117 C 
ATOM     19  H   UNL d   1       0.620  -1.868   0.973  0.00  0.00     0.169 HD
ENDBRANCH  10  15
ENDBRANCH   3   9
TORSDOF 4
