REMARK  2 active torsions:
REMARK  status: ('A' for Active; 'I' for Inactive)
REMARK       I    between atoms: C_3  and  N_1 
REMARK    1  A    between atoms: C_4  and  C_3 
REMARK    2  A    between atoms: C_13  and  N_7 
ROOT
ATOM      1  N   UNL d   1      -0.383   1.096   0.064  0.00  0.00    -0.226 N 
ATOM      2  C   UNL d   1       0.882   0.560  -0.059  0.00  0.00     0.157 C 
ATOM      3  C   UNL d   1      -0.699   2.452  -0.001  0.00  0.00     0.268 C 
ATOM      4  C   UNL d   1      -1.428   0.201   0.073  0.00  0.00     0.242 C 
ATOM      5  S   UNL d   1       0.789  -1.142  -0.447  0.00  0.00    -0.084 SA
ATOM      6  N   UNL d   1       1.953   1.266   0.094  0.00  0.00    -0.336 N 
ATOM      7  HN  UNL d   1       1.836   2.262   0.276  1.00  0.00     0.168 HD
ATOM      8  O   UNL d   1      -1.572   2.873  -0.757  0.00  0.00    -0.267 OA
ATOM      9  C   UNL d   1      -1.001  -1.185  -0.317  0.00  0.00     0.186 C 
ATOM     10  O   UNL d   1      -2.560   0.416   0.501  0.00  0.00    -0.272 OA
ENDROOT
BRANCH   3  11
ATOM     11  C   UNL d   1       0.117   3.426   0.781  0.00  0.00     0.054 A 
ATOM     12  C   UNL d   1       0.454   4.693   0.275  0.00  0.00     0.049 A 
ATOM     13 CL   UNL d   1       0.088   5.217  -1.332  0.00  0.00    -0.083 Cl
ATOM     14  C   UNL d   1       1.168   5.596   1.073  0.00  0.00     0.025 A 
ATOM     15  C   UNL d   1       1.563   5.245   2.362  0.00  0.00     0.002 A 
ATOM     16  C   UNL d   1       1.236   3.991   2.870  0.00  0.00     0.001 A 
ATOM     17  C   UNL d   1       0.502   3.090   2.092  0.00  0.00     0.019 A 
ENDBRANCH   3  11
BRANCH   6  18
ATOM     18  C   UNL d   1       3.264   0.773   0.029  0.00  0.00     0.034 A 
ATOM     19  C   UNL d   1       4.204   1.530  -0.679  0.00  0.00     0.031 A 
ATOM     20  C   UNL d   1       5.549   1.152  -0.726  0.00  0.00     0.026 A 
ATOM     21  C   UNL d   1       5.966   0.002  -0.061  0.00  0.00     0.034 A 
ATOM     22  C   UNL d   1       5.055  -0.751   0.672  0.00  0.00     0.026 A 
ATOM     23 CL   UNL d   1       7.617  -0.474  -0.123  0.00  0.00    -0.084 Cl
ATOM     24  C   UNL d   1       3.716  -0.348   0.739  0.00  0.00     0.031 A 
ENDBRANCH   6  18
TORSDOF 2
