REMARK  6 active torsions:
REMARK  status: ('A' for Active; 'I' for Inactive)
REMARK       I    between atoms: N_2  and  C_1 
REMARK    1  A    between atoms: C_3  and  C_1 
REMARK    2  A    between atoms: N_4  and  C_11 
REMARK    3  A    between atoms: C_14  and  N_5 
REMARK    4  A    between atoms: C_11  and  C_10 
REMARK    5  A    between atoms: C_20  and  C_14 
REMARK    6  A    between atoms: O_22  and  C_19 
ROOT
ATOM      1  C   UNL d   1      -2.440  -1.296  -2.561  0.00  0.00     0.032 A 
ATOM      2  C   UNL d   1      -1.728  -2.513  -2.546  0.00  0.00     0.026 A 
ATOM      3  C   UNL d   1      -0.330  -2.556  -2.723  0.00  0.00    -0.029 A 
ATOM      4  C   UNL d   1      -1.736  -0.101  -2.668  0.00  0.00     0.017 A 
ATOM      5  C   UNL d   1      -0.357  -0.123  -2.871  0.00  0.00     0.002 A 
ATOM      6  C   UNL d   1       0.332  -1.338  -2.927  0.00  0.00     0.009 A 
ENDROOT
BRANCH   3   7
ATOM      7  C   UNL d   1       0.383  -3.900  -2.806  0.00  0.00     0.311 C 
BRANCH   7   8
ATOM      8  N   UNL d   1       1.362  -4.211  -1.738  0.00  0.00     0.096 N 
ATOM      9  C   UNL d   1       2.664  -3.531  -1.890  0.00  0.00     0.303 C 
ATOM     10  C   UNL d   1       3.452  -3.937  -3.158  0.00  0.00     0.303 C 
ATOM     11  N   UNL d   1       3.698  -5.385  -3.305  0.00  0.00     0.096 N 
ATOM     12  C   UNL d   1       2.495  -6.170  -2.946  0.00  0.00     0.303 C 
ATOM     13  C   UNL d   1       1.667  -5.666  -1.732  0.00  0.00     0.303 C 
BRANCH  11  14
ATOM     14  C   UNL d   1       4.903  -5.801  -2.571  0.00  0.00     0.311 C 
BRANCH  14  15
ATOM     15  C   UNL d   1       5.389  -7.188  -2.946  0.00  0.00    -0.030 A 
ATOM     16  C   UNL d   1       5.612  -7.536  -4.289  0.00  0.00     0.009 A 
ATOM     17  C   UNL d   1       6.055  -8.816  -4.629  0.00  0.00     0.001 A 
ATOM     18  C   UNL d   1       6.293  -9.759  -3.632  0.00  0.00     0.000 A 
ATOM     19  C   UNL d   1       6.096  -9.421  -2.294  0.00  0.00     0.001 A 
ATOM     20  C   UNL d   1       5.651  -8.142  -1.952  0.00  0.00     0.009 A 
ENDBRANCH  14  15
ENDBRANCH  11  14
ENDBRANCH   7   8
ENDBRANCH   3   7
BRANCH   1  21
ATOM     21  C   UNL d   1      -3.913  -1.360  -2.349  0.00  0.00     0.253 C 
ATOM     22  N   UNL d   1      -4.816  -0.587  -3.093  0.00  0.00    -0.348 N 
ATOM     23  C   UNL d   1      -4.523   0.425  -4.104  0.00  0.00     0.128 C 
ATOM     24  C   UNL d   1      -6.223  -0.623  -2.708  0.00  0.00     0.128 C 
ATOM     25  C   UNL d   1      -4.837   1.816  -3.544  0.00  0.00     0.051 C 
ATOM     26  C   UNL d   1      -6.239   1.900  -2.926  0.00  0.00     0.121 C 
ATOM     27  C   UNL d   1      -6.594   0.699  -2.041  0.00  0.00     0.051 C 
ATOM     28  O   UNL d   1      -4.301  -2.155  -1.492  0.00  0.00    -0.267 OA
BRANCH  26  29
ATOM     29  O   UNL d   1      -7.212   2.070  -3.956  0.00  0.00    -0.395 OA
ATOM     30  H   UNL d   1      -7.260   1.262  -4.485  0.00  0.00     0.210 HD
ENDBRANCH  26  29
ENDBRANCH   1  21
TORSDOF 6
