REMARK  9 active torsions:
REMARK  status: ('A' for Active; 'I' for Inactive)
REMARK    1  A    between atoms: C_4  and  N_1 
REMARK       I    between atoms: C_2  and  N_7 
REMARK       I    between atoms: N_8  and  C_2 
REMARK    2  A    between atoms: C_3  and  C_22 
REMARK       I    between atoms: N_9  and  C_3 
REMARK    3  A    between atoms: C_27  and  N_5 
REMARK    4  A    between atoms: N_7  and  N_9 
REMARK    5  A    between atoms: C_16  and  N_8 
REMARK    6  A    between atoms: S_19  and  C_31 
REMARK    7  A    between atoms: C_22  and  S_19 
REMARK    8  A    between atoms: C_28  and  C_27 
REMARK    9  A    between atoms: C_31  and  C_28 
ROOT
ATOM      1  C   UNL d   1       3.261  -2.590  -5.971  0.00  0.00     0.178 C 
ENDROOT
BRANCH   1   2
ATOM      2  C   UNL d   1       4.053  -1.473  -6.624  0.00  0.00     0.245 C 
ATOM      3  N   UNL d   1       4.817  -0.668  -5.812  0.00  0.00    -0.265 N 
ATOM      4  H   UNL d   1       4.784  -0.723  -4.795  0.00  0.00     0.190 HD
ATOM      5  O   UNL d   1       4.041  -1.308  -7.851  0.00  0.00    -0.271 OA
BRANCH   3   6
ATOM      6  N   UNL d   1       5.495   0.418  -6.387  0.00  0.00    -0.249 N 
ATOM      7  C   UNL d   1       5.471   1.630  -5.705  0.00  0.00     0.339 C 
ATOM      8  N   UNL d   1       6.208   2.588  -6.376  0.00  0.00    -0.308 N 
ATOM      9  O   UNL d   1       4.917   1.750  -4.617  0.00  0.00    -0.245 OA
ATOM     10  H   UNL d   1       6.554   2.317  -7.285  0.00  0.00     0.170 HD
ATOM     11  H   UNL d   1       5.451   0.431  -7.404  0.00  0.00     0.192 HD
BRANCH   8  12
ATOM     12  C   UNL d   1       6.627   3.847  -5.896  0.00  0.00     0.036 A 
ATOM     13  C   UNL d   1       6.367   4.306  -4.603  0.00  0.00     0.031 A 
ATOM     14  C   UNL d   1       6.888   5.528  -4.163  0.00  0.00     0.026 A 
ATOM     15  C   UNL d   1       7.664   6.302  -5.019  0.00  0.00     0.034 A 
ATOM     16  C   UNL d   1       7.909   5.873  -6.320  0.00  0.00     0.026 A 
ATOM     17 CL   UNL d   1       8.335   7.785  -4.462  0.00  0.00    -0.084 Cl
ATOM     18  C   UNL d   1       7.392   4.647  -6.756  0.00  0.00     0.031 A 
ENDBRANCH   8  12
ENDBRANCH   3   6
ENDBRANCH   1   2
BRANCH   1  19
ATOM     19  S   UNL d   1       3.352  -2.655  -4.159  0.00  0.00    -0.160 SA
BRANCH  19  20
ATOM     20  C   UNL d   1       2.293  -1.228  -3.728  0.00  0.00     0.076 C 
BRANCH  20  21
ATOM     21  C   UNL d   1       2.233  -1.157  -2.206  0.00  0.00     0.040 C 
BRANCH  21  22
ATOM     22  C   UNL d   1       1.467   0.067  -1.696  0.00  0.00     0.273 C 
BRANCH  22  23
ATOM     23  N   UNL d   1       0.065   0.150  -2.140  0.00  0.00     0.091 N 
ATOM     24  C   UNL d   1      -0.748  -1.015  -1.715  0.00  0.00     0.292 C 
ATOM     25  C   UNL d   1      -0.915  -1.167  -0.186  0.00  0.00     0.153 C 
ATOM     26  N   UNL d   1      -1.436   0.080   0.397  0.00  0.00    -0.377 N 
ATOM     27  C   UNL d   1      -0.792   1.332  -0.035  0.00  0.00     0.153 C 
ATOM     28  C   UNL d   1      -0.582   1.363  -1.570  0.00  0.00     0.292 C 
BRANCH  26  29
ATOM     29  C   UNL d   1      -2.591   0.053   1.149  0.00  0.00     0.031 A 
ATOM     30  C   UNL d   1      -3.597   1.016   1.004  0.00  0.00     0.053 A 
ATOM     31  C   UNL d   1      -4.770   0.957   1.756  0.00  0.00     0.036 A 
ATOM     32 CL   UNL d   1      -5.991   2.149   1.526  0.00  0.00    -0.084 Cl
ATOM     33  C   UNL d   1      -4.967  -0.062   2.683  0.00  0.00     0.024 A 
ATOM     34  C   UNL d   1      -3.981  -1.027   2.854  0.00  0.00     0.004 A 
ATOM     35  C   UNL d   1      -2.809  -0.965   2.092  0.00  0.00     0.029 A 
ENDBRANCH  26  29
ENDBRANCH  22  23
ENDBRANCH  21  22
ENDBRANCH  20  21
ENDBRANCH  19  20
ENDBRANCH   1  19
TORSDOF 9
