REMARK  2 active torsions:
REMARK  status: ('A' for Active; 'I' for Inactive)
REMARK    1  A    between atoms: N_6  and  C_1 
REMARK    2  A    between atoms: N_5  and  C_2 
ROOT
ATOM      1  C   UNL d   1       0.593  -1.651   0.033  0.00  0.00     0.116 A 
ATOM      2  C   UNL d   1      -0.782  -1.528   0.087  0.00  0.00     0.116 A 
ATOM      3  C   UNL d   1       0.770  -0.173   0.036  0.00  0.00     0.252 A 
ATOM      4  C   UNL d   1      -0.701  -0.048  -0.042  0.00  0.00     0.252 A 
ATOM      5  O   UNL d   1       1.657   0.647   0.057  0.00  0.00    -0.281 OA
ATOM      6  O   UNL d   1      -1.430   0.913  -0.123  0.00  0.00    -0.281 OA
ENDROOT
BRANCH   1   7
ATOM      7  N   UNL d   1       1.518  -2.600   0.005  0.00  0.00    -0.376 N 
ATOM      8  C   UNL d   1       2.959  -2.341  -0.033  0.00  0.00     0.123 C 
ATOM      9  C   UNL d   1       3.508  -3.451  -0.922  0.00  0.00     0.021 C 
ATOM     10  C   UNL d   1       2.599  -4.624  -0.616  0.00  0.00     0.021 C 
ATOM     11  C   UNL d   1       1.236  -3.981  -0.382  0.00  0.00     0.123 C 
ENDBRANCH   1   7
BRANCH   2  12
ATOM     12  N   UNL d   1      -1.856  -2.300   0.189  0.00  0.00    -0.376 N 
ATOM     13  C   UNL d   1      -3.232  -1.800   0.176  0.00  0.00     0.123 C 
ATOM     14  C   UNL d   1      -3.908  -2.573   1.300  0.00  0.00     0.021 C 
ATOM     15  C   UNL d   1      -3.253  -3.938   1.214  0.00  0.00     0.021 C 
ATOM     16  C   UNL d   1      -1.814  -3.630   0.809  0.00  0.00     0.123 C 
ENDBRANCH   2  12
TORSDOF 2
