REMARK  5 active torsions:
REMARK  status: ('A' for Active; 'I' for Inactive)
REMARK    1  A    between atoms: C_3  and  C_1 
REMARK    2  A    between atoms: C_6  and  C_2 
REMARK       I    between atoms: N_9  and  C_3 
REMARK    3  A    between atoms: C_12  and  C_7 
REMARK    4  A    between atoms: C_11  and  N_9 
REMARK    5  A    between atoms: O_16  and  C_12 
ROOT
ATOM      1  C   UNL d   1      -0.401  -1.159   0.457  0.00  0.00     0.093 A 
ATOM      2  C   UNL d   1       0.046   0.172   0.177  0.00  0.00     0.085 A 
ATOM      3  N   UNL d   1      -1.009   1.010   0.170  0.00  0.00    -0.259 N 
ATOM      4  HN  UNL d   1      -0.983   2.014  -0.008  1.00  0.00     0.195 HD
ATOM      5  O   UNL d   1      -2.122   0.262   0.448  0.00  0.00    -0.241 OA
ATOM      6  C   UNL d   1      -1.766  -1.029   0.624  0.00  0.00     0.090 A 
ATOM      7  C   UNL d   1      -2.855  -1.959   0.987  0.00  0.00     0.080 C 
ENDROOT
BRANCH   1   8
ATOM      8  C   UNL d   1       0.307  -2.408   0.651  0.00  0.00     0.261 C 
ATOM      9  N   UNL d   1      -0.200  -3.437  -0.118  0.00  0.00    -0.322 N 
ATOM     10  H   UNL d   1      -0.676  -3.160  -0.973  0.00  0.00     0.169 HD
ATOM     11  O   UNL d   1       1.260  -2.493   1.420  0.00  0.00    -0.267 OA
BRANCH   9  12
ATOM     12  C   UNL d   1       0.055  -4.820   0.021  0.00  0.00     0.051 A 
ATOM     13  C   UNL d   1      -0.088  -5.706  -1.073  0.00  0.00     0.066 A 
ATOM     14  C   UNL d   1       0.115  -7.086  -0.879  0.00  0.00     0.020 A 
ATOM     15  C   UNL d   1       0.421  -7.595   0.383  0.00  0.00     0.001 A 
ATOM     16  C   UNL d   1       0.544  -6.726   1.462  0.00  0.00     0.002 A 
ATOM     17  C   UNL d   1       0.372  -5.351   1.282  0.00  0.00     0.030 A 
BRANCH  13  18
ATOM     18  C   UNL d   1      -0.368  -5.293  -2.479  0.00  0.00     0.295 C 
ATOM     19  O   UNL d   1      -0.228  -6.034  -3.438  0.00  0.00    -0.259 OA
BRANCH  18  20
ATOM     20  O   UNL d   1      -0.805  -4.006  -2.549  0.00  0.00    -0.322 OA
ATOM     21  C   UNL d   1      -0.994  -3.526  -3.884  0.00  0.00     0.213 C 
ENDBRANCH  18  20
ENDBRANCH  13  18
ENDBRANCH   9  12
ENDBRANCH   1   8
BRANCH   2  22
ATOM     22  C   UNL d   1       1.377   0.735  -0.092  0.00  0.00     0.015 A 
ATOM     23  C   UNL d   1       2.320   0.168  -0.963  0.00  0.00     0.046 A 
ATOM     24 CL   UNL d   1       2.026  -1.280  -1.867  0.00  0.00    -0.083 Cl
ATOM     25  C   UNL d   1       3.537   0.822  -1.216  0.00  0.00     0.025 A 
ATOM     26  C   UNL d   1       3.817   2.061  -0.638  0.00  0.00     0.002 A 
ATOM     27  C   UNL d   1       2.885   2.650   0.204  0.00  0.00     0.001 A 
ATOM     28  C   UNL d   1       1.683   1.991   0.479  0.00  0.00     0.015 A 
ENDBRANCH   2  22
TORSDOF 5
