REMARK  11 active torsions:
REMARK  status: ('A' for Active; 'I' for Inactive)
REMARK    1  A    between atoms: C_11  and  C_1 
REMARK    2  A    between atoms: C_6  and  O_13 
REMARK       I    between atoms: N_9  and  C_6 
REMARK    3  A    between atoms: C_7  and  C_8 
REMARK    4  A    between atoms: C_12  and  C_7 
REMARK    5  A    between atoms: C_8  and  N_9 
REMARK    6  A    between atoms: C_10  and  C_8 
REMARK    7  A    between atoms: O_19  and  C_10 
REMARK    8  A    between atoms: O_13  and  C_11 
REMARK    9  A    between atoms: O_20  and  C_12 
REMARK   10  A    between atoms: C_17  and  C_25 
REMARK   11  A    between atoms: C_25  and  O_19 
ROOT
ATOM      1  C   UNL d   1      -1.377   4.281   2.466  0.00  0.00     0.361 C 
ATOM      2  N   UNL d   1      -2.492   5.052   2.592  0.00  0.00    -0.323 N 
ATOM      3  O   UNL d   1      -0.339   4.531   3.065  0.00  0.00    -0.239 OA
ATOM      4  H   UNL d   1      -2.330   5.942   3.056  0.00  0.00     0.165 HD
ENDROOT
BRANCH   1   5
ATOM      5  O   UNL d   1      -1.562   3.225   1.646  0.00  0.00    -0.303 OA
BRANCH   5   6
ATOM      6  C   UNL d   1      -0.449   2.323   1.479  0.00  0.00     0.194 C 
BRANCH   6   7
ATOM      7  C   UNL d   1      -0.492   1.140   2.464  0.00  0.00     0.078 C 
ATOM      8  C   UNL d   1      -1.825   0.399   2.374  0.00  0.00    -0.036 A 
ATOM      9  C   UNL d   1      -1.644  -0.866   1.779  0.00  0.00    -0.018 A 
ATOM     10  C   UNL d   1      -3.080   0.848   2.758  0.00  0.00     0.009 A 
ATOM     11  C   UNL d   1      -2.739  -1.671   1.511  0.00  0.00     0.013 A 
ATOM     12  C   UNL d   1      -0.231  -1.076   1.547  0.00  0.00    -0.018 A 
ATOM     13  C   UNL d   1      -4.013  -1.204   1.852  0.00  0.00     0.001 A 
ATOM     14  C   UNL d   1      -4.181   0.041   2.481  0.00  0.00     0.001 A 
ATOM     15  C   UNL d   1       0.482   0.056   2.004  0.00  0.00    -0.036 A 
ATOM     16  C   UNL d   1       0.439  -2.144   0.972  0.00  0.00     0.013 A 
ATOM     17  C   UNL d   1       1.866   0.113   1.934  0.00  0.00     0.009 A 
ATOM     18  C   UNL d   1       2.539  -0.966   1.356  0.00  0.00     0.001 A 
ATOM     19  C   UNL d   1       1.832  -2.078   0.867  0.00  0.00     0.001 A 
ENDBRANCH   6   7
ENDBRANCH   5   6
ENDBRANCH   1   5
BRANCH   2  20
ATOM     20  C   UNL d   1      -3.785   4.867   1.923  0.00  0.00     0.196 C 
BRANCH  20  21
ATOM     21  C   UNL d   1      -4.937   4.902   2.936  0.00  0.00     0.145 C 
BRANCH  21  22
ATOM     22  C   UNL d   1      -5.082   6.254   3.589  0.00  0.00     0.141 C 
ATOM     23  O   UNL d   1      -4.303   7.183   3.450  0.00  0.00    -0.650 OA
BRANCH  22  24
ATOM     24  O   UNL d   1      -6.165   6.335   4.392  0.00  0.00    -0.776 OA
ATOM     25  H   UNL d   1      -6.706   5.523   4.431  0.00  0.00     0.167 HD
ENDBRANCH  22  24
ENDBRANCH  21  22
ENDBRANCH  20  21
BRANCH  20  26
ATOM     26  C   UNL d   1      -4.097   5.835   0.770  0.00  0.00     0.282 C 
ATOM     27  O   UNL d   1      -5.156   5.788   0.151  0.00  0.00    -0.263 OA
BRANCH  26  28
ATOM     28  O   UNL d   1      -3.096   6.722   0.544  0.00  0.00    -0.316 OA
BRANCH  28  29
ATOM     29  C   UNL d   1      -3.323   7.683  -0.496  0.00  0.00     0.205 C 
BRANCH  29  30
ATOM     30  C   UNL d   1      -3.358   9.049   0.116  0.00  0.00    -0.011 C 
ATOM     31  C   UNL d   1      -2.535  10.053  -0.217  0.00  0.00     0.009 C 
ENDBRANCH  29  30
ENDBRANCH  28  29
ENDBRANCH  26  28
ENDBRANCH  20  26
ENDBRANCH   2  20
TORSDOF 11
