REMARK  2 active torsions:
REMARK  status: ('A' for Active; 'I' for Inactive)
REMARK    1  A    between atoms: C_7  and  N_1 
REMARK    2  A    between atoms: N_9  and  C_3 
ROOT
ATOM      1  N   UNL d   1      -0.653   1.218  -0.053  0.00  0.00    -0.254 N 
ATOM      2  C   UNL d   1      -1.393   0.023  -0.034  0.00  0.00     0.335 A 
ATOM      3  C   UNL d   1       0.750   1.214  -0.140  0.00  0.00     0.094 A 
ATOM      4  N   UNL d   1      -0.661  -1.136  -0.001  0.00  0.00    -0.275 N 
ATOM      5  C   UNL d   1       1.408   0.046  -0.118  0.00  0.00     0.117 A 
ATOM      6  C   UNL d   1       0.691  -1.226  -0.020  0.00  0.00     0.252 A 
ATOM      7  O   UNL d   1      -2.620  -0.068  -0.051  0.00  0.00    -0.246 OA
ATOM      8  O   UNL d   1       1.293  -2.291   0.039  0.00  0.00    -0.268 OA
ATOM      9  H   UNL d   1      -1.186  -1.995   0.035  0.00  0.00     0.173 HD
ENDROOT
BRANCH   1  10
ATOM     10  C   UNL d   1      -1.400   2.447  -0.029  0.00  0.00     0.051 A 
ATOM     11  C   UNL d   1      -2.270   2.777   1.032  0.00  0.00    -0.035 A 
ATOM     12  C   UNL d   1      -2.503   1.911   2.241  0.00  0.00     0.050 C 
ATOM     13  C   UNL d   1      -2.938   4.017   1.001  0.00  0.00     0.009 A 
ATOM     14  C   UNL d   1      -2.739   4.919  -0.044  0.00  0.00     0.001 A 
ATOM     15  C   UNL d   1      -1.877   4.595  -1.084  0.00  0.00     0.002 A 
ATOM     16  C   UNL d   1      -1.216   3.368  -1.077  0.00  0.00     0.031 A 
ENDBRANCH   1  10
BRANCH   3  17
ATOM     17  N   UNL d   1       1.493   2.386  -0.211  0.00  0.00    -0.288 NA
ATOM     18  H   UNL d   1       1.022   3.176   0.225  0.00  0.00     0.125 HD
ATOM     19  H   UNL d   1       2.458   2.299   0.092  0.00  0.00     0.125 HD
ENDBRANCH   3  17
TORSDOF 2
