REMARK  5 active torsions:
REMARK  status: ('A' for Active; 'I' for Inactive)
REMARK       I    between atoms: N_2  and  C_1 
REMARK    1  A    between atoms: C_7  and  C_1 
REMARK    2  A    between atoms: C_3  and  N_2 
REMARK    3  A    between atoms: S_5  and  C_7 
REMARK    4  A    between atoms: C_8  and  S_5 
REMARK    5  A    between atoms: S_10  and  C_9 
ROOT
ATOM      1  C   UNL d   1       1.165   0.056  -0.106  0.00  0.00     0.231 C 
ATOM      2  N   UNL d   1       0.463  -0.678  -1.047  0.00  0.00    -0.326 N 
ATOM      3  O   UNL d   1       0.657   0.706   0.809  0.00  0.00    -0.272 OA
ATOM      4  H   UNL d   1       1.005  -1.279  -1.661  0.00  0.00     0.169 HD
ENDROOT
BRANCH   1   5
ATOM      5  C   UNL d   1       2.676  -0.084  -0.119  0.00  0.00     0.182 C 
BRANCH   5   6
ATOM      6  S   UNL d   1       3.422  -0.159  -1.769  0.00  0.00    -0.121 SA
BRANCH   6   7
ATOM      7  C   UNL d   1       5.167  -0.294  -1.360  0.00  0.00     0.001 A 
ATOM      8  C   UNL d   1       6.008  -0.898  -2.302  0.00  0.00     0.019 A 
ATOM      9  C   UNL d   1       7.376  -1.055  -2.049  0.00  0.00     0.008 A 
ATOM     10  C   UNL d   1       7.934  -0.601  -0.849  0.00  0.00    -0.062 A 
ATOM     11  C   UNL d   1       7.104   0.020   0.085  0.00  0.00     0.008 A 
ATOM     12  C   UNL d   1       9.394  -0.805  -0.570  0.00  0.00     0.048 C 
ATOM     13  C   UNL d   1       5.737   0.180  -0.172  0.00  0.00     0.019 A 
ENDBRANCH   6   7
ENDBRANCH   5   6
ENDBRANCH   1   5
BRANCH   2  14
ATOM     14  C   UNL d   1      -0.948  -0.787  -1.110  0.00  0.00     0.035 A 
ATOM     15  C   UNL d   1      -1.801   0.087  -0.427  0.00  0.00     0.048 A 
ATOM     16  C   UNL d   1      -3.181  -0.124  -0.369  0.00  0.00     0.002 A 
ATOM     17  C   UNL d   1      -3.725  -1.192  -1.085  0.00  0.00     0.018 A 
ATOM     18  C   UNL d   1      -2.898  -2.030  -1.836  0.00  0.00     0.004 A 
ATOM     19  C   UNL d   1      -1.513  -1.828  -1.851  0.00  0.00     0.029 A 
BRANCH  16  20
ATOM     20  S   UNL d   1      -4.276   0.913   0.594  0.00  0.00    -0.134 SA
ATOM     21  C   UNL d   1      -3.168   1.484   1.921  0.00  0.00     0.095 C 
ENDBRANCH  16  20
ENDBRANCH   2  14
TORSDOF 5
