REMARK  4 active torsions:
REMARK  status: ('A' for Active; 'I' for Inactive)
REMARK    1  A    between atoms: C_2  and  C_1 
REMARK    2  A    between atoms: C_11  and  C_5 
REMARK    3  A    between atoms: O_15  and  C_11 
REMARK    4  A    between atoms: C_18  and  O_15 
ROOT
ATOM      1  N   UNL d   1      -1.173  12.833   2.738  0.00  0.00    -0.191 NA
ATOM      2  C   UNL d   1      -0.985  11.719   2.466  0.00  0.00     0.099 C 
ATOM      3  C   UNL d   1      -0.756  10.345   2.130  0.00  0.00     0.044 A 
ATOM      4  C   UNL d   1      -0.320   7.656   1.451  0.00  0.00     0.069 A 
ATOM      5  C   UNL d   1      -1.788   9.408   2.254  0.00  0.00     0.025 A 
ATOM      6  C   UNL d   1       0.496   9.932   1.667  0.00  0.00     0.025 A 
ATOM      7  C   UNL d   1       0.707   8.594   1.322  0.00  0.00     0.038 A 
ATOM      8  C   UNL d   1      -1.571   8.066   1.915  0.00  0.00     0.038 A 
ENDROOT
BRANCH   4   9
ATOM      9  O   UNL d   1      -0.002   6.390   1.043  0.00  0.00    -0.345 OA
BRANCH   9  10
ATOM     10  C   UNL d   1      -0.715   5.329   1.682  0.00  0.00     0.234 C 
BRANCH  10  11
ATOM     11  C   UNL d   1      -0.230   3.987   1.177  0.00  0.00     0.055 A 
ATOM     12  N   UNL d   1      -1.175   3.209   0.568  0.00  0.00    -0.365 N 
ATOM     13  C   UNL d   1      -0.804   1.992   0.109  0.00  0.00     0.104 A 
ATOM     14  HN  UNL d   1      -2.134   3.538   0.462  1.00  0.00     0.165 HD
ATOM     15  C   UNL d   1       0.478   1.483   0.226  0.00  0.00     0.064 A 
ATOM     16  C   UNL d   1       1.435   2.286   0.857  0.00  0.00     0.043 A 
ATOM     17  C   UNL d   1       1.084   3.548   1.342  0.00  0.00     0.059 A 
ATOM     18 CL   UNL d   1       2.297   4.475   2.140  0.00  0.00    -0.082 Cl
BRANCH  15  19
ATOM     19  C   UNL d   1       0.797   0.120  -0.302  0.00  0.00     0.418 C 
ATOM     20  F   UNL d   1       2.100  -0.234  -0.128  0.00  0.00    -0.166 F 
ATOM     21  F   UNL d   1       0.553   0.004  -1.635  0.00  0.00    -0.166 F 
ATOM     22  F   UNL d   1       0.063  -0.856   0.300  0.00  0.00    -0.166 F 
ENDBRANCH  15  19
ENDBRANCH  10  11
ENDBRANCH   9  10
ENDBRANCH   4   9
TORSDOF 4
