REMARK  6 active torsions:
REMARK  status: ('A' for Active; 'I' for Inactive)
REMARK    1  A    between atoms: C_14  and  N_1 
REMARK    2  A    between atoms: C_7  and  C_5 
REMARK       I    between atoms: C_8  and  N_13 
REMARK    3  A    between atoms: C_10  and  C_8 
REMARK    4  A    between atoms: C_12  and  C_11 
REMARK    5  A    between atoms: O_27  and  C_12 
REMARK    6  A    between atoms: N_13  and  C_26 
ROOT
ATOM      1  C   UNL d   1       1.992  -1.432   0.029  0.00  0.00     0.057 A 
ATOM      2  C   UNL d   1       2.022  -2.566  -0.793  0.00  0.00     0.034 A 
ATOM      3  C   UNL d   1       3.098  -1.121   0.820  0.00  0.00     0.034 A 
ATOM      4  C   UNL d   1       4.238  -3.123   0.021  0.00  0.00     0.035 A 
ATOM      5  C   UNL d   1       3.131  -3.414  -0.780  0.00  0.00     0.032 A 
ATOM      6  C   UNL d   1       4.206  -1.976   0.824  0.00  0.00     0.032 A 
ENDROOT
BRANCH   1   7
ATOM      7  N   UNL d   1       0.826  -0.624   0.099  0.00  0.00    -0.255 N 
ATOM      8  C   UNL d   1      -0.496  -1.022  -0.043  0.00  0.00     0.076 C 
ATOM      9  C   UNL d   1      -1.221   0.143  -0.181  0.00  0.00     0.069 C 
ATOM     10  C   UNL d   1      -0.987  -2.367   0.099  0.00  0.00     0.033 A 
ATOM     11  C   UNL d   1      -0.320   1.190   0.140  0.00  0.00     0.135 C 
ATOM     12  N   UNL d   1       0.917   0.708   0.366  0.00  0.00    -0.289 N 
ATOM     13  HN  UNL d   1       1.741   1.226   0.670  1.00  0.00     0.187 HD
ATOM     14  S   UNL d   1      -2.312  -2.954  -0.810  0.00  0.00    -0.100 SA
ATOM     15  C   UNL d   1      -0.528  -3.324   0.988  0.00  0.00     0.021 A 
ATOM     16  C   UNL d   1      -2.286  -4.462  -0.002  0.00  0.00     0.050 A 
ATOM     17  C   UNL d   1      -1.272  -4.534   0.926  0.00  0.00     0.008 A 
BRANCH  11  18
ATOM     18  C   UNL d   1      -0.700   2.639   0.299  0.00  0.00     0.434 C 
ATOM     19  F   UNL d   1       0.315   3.435   0.722  0.00  0.00    -0.165 F 
ATOM     20  F   UNL d   1      -1.157   3.167  -0.869  0.00  0.00    -0.165 F 
ATOM     21  F   UNL d   1      -1.711   2.784   1.201  0.00  0.00    -0.165 F 
ENDBRANCH  11  18
ENDBRANCH   1   7
BRANCH   4  22
ATOM     22  N   UNL d   1       5.335  -4.012  -0.060  0.00  0.00    -0.323 N 
ATOM     23  C   UNL d   1       6.553  -3.871   0.561  0.00  0.00     0.257 C 
ATOM     24  O   UNL d   1       6.834  -2.953   1.335  0.00  0.00    -0.267 OA
ATOM     25  H   UNL d   1       5.146  -4.869  -0.568  0.00  0.00     0.169 HD
BRANCH  23  26
ATOM     26  C   UNL d   1       7.665  -4.839   0.261  0.00  0.00     0.049 A 
ATOM     27  C   UNL d   1       7.586  -6.177  -0.169  0.00  0.00     0.053 A 
ATOM     28  C   UNL d   1       8.767  -6.952  -0.229  0.00  0.00     0.019 A 
ATOM     29  C   UNL d   1      10.016  -6.398   0.051  0.00  0.00     0.001 A 
ATOM     30  C   UNL d   1      10.112  -5.062   0.397  0.00  0.00     0.001 A 
ATOM     31  C   UNL d   1       8.952  -4.298   0.504  0.00  0.00     0.018 A 
BRANCH  27  32
ATOM     32  C   UNL d   1       6.322  -6.862  -0.514  0.00  0.00     0.177 C 
ATOM     33  O   UNL d   1       5.251  -6.615   0.010  0.00  0.00    -0.646 OA
BRANCH  32  34
ATOM     34  O   UNL d   1       6.423  -7.731  -1.548  0.00  0.00    -0.773 OA
ATOM     35  H   UNL d   1       7.281  -7.767  -2.011  0.00  0.00     0.167 HD
ENDBRANCH  32  34
ENDBRANCH  27  32
ENDBRANCH  23  26
ENDBRANCH   4  22
TORSDOF 6
