REMARK  7 active torsions:
REMARK  status: ('A' for Active; 'I' for Inactive)
REMARK    1  A    between atoms: C_3  and  C_1 
REMARK    2  A    between atoms: O_13  and  C_1 
REMARK       I    between atoms: C_2  and  N_4 
REMARK    3  A    between atoms: C_11  and  C_2 
REMARK    4  A    between atoms: N_4  and  C_9 
REMARK    5  A    between atoms: O_10  and  C_11 
REMARK    6  A    between atoms: C_12  and  O_10 
REMARK    7  A    between atoms: O_21  and  C_14 
ROOT
ATOM      1  C   UNL d   1      -1.345  -5.633   2.371  0.00  0.00     0.246 C 
ATOM      2  N   UNL d   1      -1.738  -4.427   2.946  0.00  0.00    -0.325 N 
ATOM      3  O   UNL d   1      -0.357  -5.806   1.661  0.00  0.00    -0.271 OA
ATOM      4  H   UNL d   1      -2.567  -4.439   3.529  0.00  0.00     0.169 HD
ENDROOT
BRANCH   1   5
ATOM      5  C   UNL d   1      -2.260  -6.809   2.679  0.00  0.00     0.278 C 
BRANCH   5   6
ATOM      6  O   UNL d   1      -1.799  -7.397   3.886  0.00  0.00    -0.342 OA
BRANCH   6   7
ATOM      7  C   UNL d   1      -2.394  -8.560   4.283  0.00  0.00     0.069 A 
ATOM      8  C   UNL d   1      -3.458  -9.201   3.651  0.00  0.00     0.039 A 
ATOM      9  C   UNL d   1      -4.008 -10.369   4.202  0.00  0.00     0.039 A 
ATOM     10  C   UNL d   1      -3.497 -10.900   5.386  0.00  0.00     0.068 A 
ATOM     11  C   UNL d   1      -2.413 -10.272   5.998  0.00  0.00     0.039 A 
ATOM     12  C   UNL d   1      -1.863  -9.112   5.449  0.00  0.00     0.039 A 
BRANCH  10  13
ATOM     13  O   UNL d   1      -3.962 -12.005   6.042  0.00  0.00    -0.356 OA
ATOM     14  C   UNL d   1      -5.081 -12.671   5.471  0.00  0.00     0.210 C 
ENDBRANCH  10  13
ENDBRANCH   6   7
ENDBRANCH   5   6
ENDBRANCH   1   5
BRANCH   2  15
ATOM     15  C   UNL d   1      -1.062  -3.189   2.829  0.00  0.00     0.034 A 
ATOM     16  C   UNL d   1       0.141  -3.050   2.131  0.00  0.00     0.030 A 
ATOM     17  C   UNL d   1       0.795  -1.819   2.041  0.00  0.00     0.020 A 
ATOM     18  C   UNL d   1       0.234  -0.687   2.630  0.00  0.00     0.037 A 
ATOM     19  C   UNL d   1      -0.961  -0.808   3.350  0.00  0.00     0.020 A 
ATOM     20  C   UNL d   1      -1.607  -2.055   3.447  0.00  0.00     0.030 A 
BRANCH  18  21
ATOM     21  C   UNL d   1       0.901   0.629   2.535  0.00  0.00     0.176 C 
ATOM     22  O   UNL d   1       0.796   1.488   3.401  0.00  0.00    -0.646 OA
BRANCH  21  23
ATOM     23  O   UNL d   1       1.601   0.817   1.396  0.00  0.00    -0.773 OA
ATOM     24  H   UNL d   1       1.469   0.138   0.714  0.00  0.00     0.167 HD
ENDBRANCH  21  23
ENDBRANCH  18  21
ENDBRANCH   2  15
TORSDOF 7
