REMARK  2 active torsions:
REMARK  status: ('A' for Active; 'I' for Inactive)
REMARK    1  A    between atoms: C_3  and  N_1 
REMARK    2  A    between atoms: C_7  and  C_3 
ROOT
ATOM      1  N   UNL d   1      -3.108  -1.975  -2.426  0.00  0.00    -0.195 NA
ATOM      2  C   UNL d   1      -1.655   0.120  -1.684  0.00  0.00     0.333 C 
ATOM      3  C   UNL d   1      -2.505  -1.036  -2.095  0.00  0.00     0.096 C 
ENDROOT
BRANCH   2   4
ATOM      4  N   UNL d   1      -1.333   0.061  -0.222  0.00  0.00     0.111 N 
ATOM      5  C   UNL d   1      -0.619   1.236   0.325  0.00  0.00     0.300 C 
ATOM      6  C   UNL d   1       0.850   1.336  -0.110  0.00  0.00     0.198 C 
ATOM      7  O   UNL d   1       1.578   0.161   0.261  0.00  0.00    -0.388 OA
ATOM      8  C   UNL d   1       0.974  -1.016  -0.285  0.00  0.00     0.198 C 
ATOM      9  C   UNL d   1      -0.509  -1.135   0.121  0.00  0.00     0.300 C 
ENDBRANCH   2   4
BRANCH   2  10
ATOM     10  C   UNL d   1      -2.264   1.474  -2.192  0.00  0.00     0.037 C 
ATOM     11  C   UNL d   1      -2.513   1.482  -3.723  0.00  0.00     0.034 C 
ATOM     12  C   UNL d   1      -3.910   1.145  -4.145  0.00  0.00    -0.030 C 
ATOM     13  C   UNL d   1      -4.947   1.095  -3.300  0.00  0.00    -0.031 C 
ATOM     14  C   UNL d   1      -4.837   1.381  -1.837  0.00  0.00     0.027 C 
ATOM     15  C   UNL d   1      -3.499   1.998  -1.429  0.00  0.00     0.011 C 
ENDBRANCH   2  10
TORSDOF 2
