REMARK  5 active torsions:
REMARK  status: ('A' for Active; 'I' for Inactive)
REMARK       I    between atoms: C_4  and  N_1 
REMARK    1  A    between atoms: C_10  and  C_4 
REMARK    2  A    between atoms: C_15  and  C_10 
REMARK    3  A    between atoms: C_11  and  O_14 
REMARK    4  A    between atoms: C_17  and  C_11 
REMARK    5  A    between atoms: O_14  and  C_15 
ROOT
ATOM      1  N   UNL d   1       2.459   0.551  -0.040  0.00  0.00    -0.306 N 
ATOM      2  C   UNL d   1       1.261   1.436   0.034  0.00  0.00     0.233 C 
ATOM      3  C   UNL d   1       2.304  -0.824   0.022  0.00  0.00     0.096 C 
ATOM      4  C   UNL d   1       3.679   1.218  -0.189  0.00  0.00     0.227 C 
ATOM      5  C   UNL d   1      -0.080   0.714  -0.041  0.00  0.00    -0.011 A 
ATOM      6  C   UNL d   1       1.116  -1.438   0.040  0.00  0.00     0.029 C 
ATOM      7  C   UNL d   1       1.306   2.280   1.269  0.00  0.00     0.090 C 
ATOM      8  N   UNL d   1       1.315   2.938   2.227  0.00  0.00    -0.195 NA
ATOM      9  C   UNL d   1      -0.130  -0.685  -0.011  0.00  0.00    -0.026 A 
ATOM     10  O   UNL d   1       3.718   2.436  -0.398  0.00  0.00    -0.273 OA
ATOM     11  C   UNL d   1      -1.285   1.439  -0.099  0.00  0.00     0.011 A 
ATOM     12  C   UNL d   1      -1.367  -1.344  -0.023  0.00  0.00     0.012 A 
ATOM     13  C   UNL d   1      -2.514   0.778  -0.096  0.00  0.00     0.001 A 
ATOM     14  C   UNL d   1      -2.555  -0.612  -0.057  0.00  0.00     0.001 A 
ENDROOT
BRANCH   4  15
ATOM     15  C   UNL d   1       4.989   0.458  -0.103  0.00  0.00     0.130 C 
BRANCH  15  16
ATOM     16  C   UNL d   1       5.567   0.218  -1.490  0.00  0.00     0.188 C 
BRANCH  16  17
ATOM     17  O   UNL d   1       4.869  -0.819  -2.200  0.00  0.00    -0.321 OA
BRANCH  17  18
ATOM     18  C   UNL d   1       5.226  -2.091  -1.869  0.00  0.00     0.258 C 
ATOM     19  O   UNL d   1       6.011  -2.384  -0.976  0.00  0.00    -0.265 OA
BRANCH  18  20
ATOM     20  C   UNL d   1       4.489  -3.077  -2.739  0.00  0.00     0.106 C 
ATOM     21  C   UNL d   1       4.778  -4.505  -2.308  0.00  0.00     0.015 C 
ENDBRANCH  18  20
ENDBRANCH  17  18
ENDBRANCH  16  17
ENDBRANCH  15  16
ENDBRANCH   4  15
TORSDOF 5
