REMARK  1 active torsions:
REMARK  status: ('A' for Active; 'I' for Inactive)
REMARK    1  A    between atoms: C_6  and  C_2 
ROOT
ATOM      1  N   UNL d   1      -1.373  -1.652  -0.108  0.00  0.00    -0.260 NA
ATOM      2  C   UNL d   1      -2.411  -0.618   0.062  0.00  0.00     0.239 A 
ATOM      3  O   UNL d   1      -1.833   0.709   0.201  0.00  0.00    -0.324 OA
ATOM      4  C   UNL d   1      -0.207  -0.869  -0.025  0.00  0.00     0.046 A 
ATOM      5  C   UNL d   1      -0.490   0.479   0.093  0.00  0.00     0.092 A 
ATOM      6  C   UNL d   1       1.099  -1.315  -0.072  0.00  0.00     0.050 A 
ATOM      7  C   UNL d   1       0.494   1.444   0.136  0.00  0.00     0.040 A 
ATOM      8  C   UNL d   1       2.116  -0.359  -0.020  0.00  0.00     0.035 A 
ATOM      9  C   UNL d   1       1.822   1.012   0.071  0.00  0.00     0.026 A 
ATOM     10 CL   UNL d   1       3.761  -0.868  -0.071  0.00  0.00    -0.084 Cl
ATOM     11  H   UNL d   1      -1.389  -2.357   0.624  0.00  0.00     0.130 HD
ENDROOT
BRANCH   2  12
ATOM     12  C   UNL d   1      -3.304  -0.970   1.241  0.00  0.00    -0.012 A 
ATOM     13  C   UNL d   1      -4.452  -1.755   1.027  0.00  0.00     0.050 A 
ATOM     14  C   UNL d   1      -5.225  -2.103   2.114  0.00  0.00     0.105 A 
ATOM     15  O   UNL d   1      -6.359  -2.853   2.073  0.00  0.00    -0.323 OA
ATOM     16  C   UNL d   1      -4.897  -1.714   3.390  0.00  0.00     0.105 A 
ATOM     17  C   UNL d   1      -6.709  -2.889   3.472  0.00  0.00     0.352 A 
ATOM     18  O   UNL d   1      -5.786  -2.167   4.314  0.00  0.00    -0.323 OA
ATOM     19  C   UNL d   1      -3.777  -0.955   3.649  0.00  0.00     0.040 A 
ATOM     20  C   UNL d   1      -2.973  -0.585   2.565  0.00  0.00     0.014 A 
ENDBRANCH   2  12
TORSDOF 1
