REMARK  6 active torsions:
REMARK  status: ('A' for Active; 'I' for Inactive)
REMARK    1  A    between atoms: C_2  and  S_1 
REMARK    2  A    between atoms: C_4  and  S_1 
REMARK    3  A    between atoms: C_5  and  C_3 
REMARK    4  A    between atoms: O_11  and  C_5 
REMARK    5  A    between atoms: C_18  and  C_9 
REMARK    6  A    between atoms: O_15  and  C_18 
ROOT
ATOM      1  C   UNL d   1       0.380  -0.869   1.311  0.00  0.00     0.048 A 
ATOM      2  C   UNL d   1       0.571  -2.291   1.549  0.00  0.00     0.002 A 
ATOM      3  C   UNL d   1       1.043  -3.327   0.637  0.00  0.00    -0.022 A 
ATOM      4  C   UNL d   1       0.235  -2.736   2.866  0.00  0.00    -0.024 A 
ATOM      5  C   UNL d   1      -0.031  -0.002   2.346  0.00  0.00     0.022 A 
ATOM      6  C   UNL d   1      -0.340  -0.488   3.604  0.00  0.00     0.002 A 
ATOM      7  C   UNL d   1       0.787  -5.047   2.349  0.00  0.00     0.002 A 
ATOM      8  C   UNL d   1       1.141  -4.668   1.067  0.00  0.00     0.010 A 
ATOM      9  C   UNL d   1       0.339  -4.084   3.237  0.00  0.00     0.012 A 
ATOM     10  C   UNL d   1      -0.217  -1.846   3.852  0.00  0.00     0.012 A 
ENDROOT
BRANCH   1  11
ATOM     11  S   UNL d   1       0.716  -0.104  -0.312  0.00  0.00     0.087 S 
ATOM     12  O   UNL d   1       1.739   0.958  -0.029  0.00  0.00    -0.247 OA
BRANCH  11  13
ATOM     13  C   UNL d   1      -0.859   0.783  -0.537  0.00  0.00     0.053 A 
ATOM     14  C   UNL d   1      -2.069   0.164  -0.897  0.00  0.00     0.057 A 
ATOM     15  C   UNL d   1      -3.227   0.940  -1.106  0.00  0.00     0.020 A 
ATOM     16  C   UNL d   1      -3.174   2.329  -1.026  0.00  0.00     0.001 A 
ATOM     17  C   UNL d   1      -1.973   2.956  -0.721  0.00  0.00     0.002 A 
ATOM     18  C   UNL d   1      -0.830   2.191  -0.475  0.00  0.00     0.022 A 
BRANCH  14  19
ATOM     19  C   UNL d   1      -2.200  -1.300  -1.091  0.00  0.00     0.177 C 
ATOM     20  O   UNL d   1      -1.793  -2.133  -0.312  0.00  0.00    -0.646 OA
BRANCH  19  21
ATOM     21  O   UNL d   1      -2.813  -1.621  -2.252  0.00  0.00    -0.773 OA
ATOM     22  H   UNL d   1      -3.050  -0.875  -2.833  0.00  0.00     0.167 HD
ENDBRANCH  19  21
ENDBRANCH  14  19
ENDBRANCH  11  13
ENDBRANCH   1  11
BRANCH   3  23
ATOM     23  C   UNL d   1       1.440  -3.043  -0.799  0.00  0.00     0.203 C 
BRANCH  23  24
ATOM     24  O   UNL d   1       1.779  -4.214  -1.545  0.00  0.00    -0.396 OA
ATOM     25  H   UNL d   1       1.419  -4.086  -2.439  0.00  0.00     0.209 HD
ENDBRANCH  23  24
ENDBRANCH   3  23
TORSDOF 6
