REMARK  8 active torsions:
REMARK  status: ('A' for Active; 'I' for Inactive)
REMARK    1  A    between atoms: N_2  and  C_1 
REMARK    2  A    between atoms: N_7  and  C_1 
REMARK    3  A    between atoms: C_8  and  N_2 
REMARK       I    between atoms: C_3  and  N_5 
REMARK    4  A    between atoms: N_5  and  C_9 
REMARK    5  A    between atoms: C_16  and  N_7 
REMARK    6  A    between atoms: C_14  and  C_16 
REMARK    7  A    between atoms: C_18  and  C_14 
REMARK    8  A    between atoms: O_15  and  C_18 
ROOT
ATOM      1  C   UNL d   1       0.850   2.660   0.033  0.00  0.00     0.034 A 
ATOM      2  C   UNL d   1       1.958   5.235   0.272  0.00  0.00     0.034 A 
ATOM      3  C   UNL d   1       2.432   4.343  -0.694  0.00  0.00     0.032 A 
ATOM      4  C   UNL d   1       1.889   3.062  -0.806  0.00  0.00     0.032 A 
ATOM      5  C   UNL d   1       0.293   3.582   0.918  0.00  0.00     0.032 A 
ATOM      6  C   UNL d   1       0.862   4.858   1.054  0.00  0.00     0.032 A 
ENDROOT
BRANCH   1   7
ATOM      7  N   UNL d   1       0.332   1.351  -0.033  0.00  0.00    -0.333 N 
ATOM      8  H   UNL d   1      -0.611   1.215   0.322  0.00  0.00     0.168 HD
BRANCH   7   9
ATOM      9  C   UNL d   1       1.065   0.189  -0.105  0.00  0.00     0.172 C 
ATOM     10  S   UNL d   1       2.673  -0.038   0.300  0.00  0.00    -0.041 SA
BRANCH   9  11
ATOM     11  N   UNL d   1       0.368  -0.919  -0.505  0.00  0.00    -0.367 N 
ATOM     12  H   UNL d   1       0.941  -1.756  -0.522  0.00  0.00     0.161 HD
BRANCH  11  13
ATOM     13  C   UNL d   1      -0.782  -0.909  -1.396  0.00  0.00     0.124 C 
BRANCH  13  14
ATOM     14  C   UNL d   1      -1.977  -1.650  -0.812  0.00  0.00     0.046 C 
BRANCH  14  15
ATOM     15  C   UNL d   1      -2.530  -0.988   0.445  0.00  0.00     0.168 C 
BRANCH  15  16
ATOM     16  O   UNL d   1      -2.800   0.388   0.177  0.00  0.00    -0.396 OA
ATOM     17  C   UNL d   1      -3.290   1.063   1.328  0.00  0.00     0.201 C 
ENDBRANCH  15  16
ENDBRANCH  14  15
ENDBRANCH  13  14
ENDBRANCH  11  13
ENDBRANCH   9  11
ENDBRANCH   7   9
ENDBRANCH   1   7
BRANCH   2  18
ATOM     18  N   UNL d   1       2.657   6.450   0.412  0.00  0.00    -0.328 N 
ATOM     19  C   UNL d   1       2.469   7.420   1.376  0.00  0.00     0.218 C 
ATOM     20  O   UNL d   1       1.591   7.451   2.229  0.00  0.00    -0.274 OA
ATOM     21  C   UNL d   1       3.517   8.512   1.326  0.00  0.00     0.117 C 
ATOM     22  H   UNL d   1       3.444   6.573  -0.214  0.00  0.00     0.169 HD
ENDBRANCH   2  18
TORSDOF 8
