REMARK  2 active torsions:
REMARK  status: ('A' for Active; 'I' for Inactive)
REMARK    1  A    between atoms: N_2  and  C_1 
REMARK    2  A    between atoms: N_4  and  C_3 
ROOT
ATOM      1  C   UNL d   1      -1.273  -1.244   0.046  0.00  0.00     0.133 A 
ATOM      2  C   UNL d   1      -2.006  -0.044  -0.014  0.00  0.00     0.071 A 
ATOM      3  C   UNL d   1       0.130  -1.250   0.069  0.00  0.00     0.080 A 
ATOM      4  C   UNL d   1      -1.283   1.164  -0.071  0.00  0.00     0.035 A 
ATOM      5  C   UNL d   1       0.807  -0.041   0.026  0.00  0.00     0.118 A 
ATOM      6  C   UNL d   1       0.116   1.162  -0.047  0.00  0.00     0.044 A 
ATOM      7  F   UNL d   1       2.145  -0.033   0.039  0.00  0.00    -0.206 F 
ENDROOT
BRANCH   2   8
ATOM      8  N   UNL d   1      -3.431   0.020   0.007  0.00  0.00    -0.331 N 
ATOM      9  C   UNL d   1      -4.304  -0.860   0.615  0.00  0.00     0.097 A 
ATOM     10  C   UNL d   1      -5.600  -0.446   0.387  0.00  0.00     0.019 A 
ATOM     11  C   UNL d   1      -5.532   0.751  -0.350  0.00  0.00     0.019 A 
ATOM     12  C   UNL d   1      -4.198   1.032  -0.545  0.00  0.00     0.097 A 
ENDBRANCH   2   8
BRANCH   1  13
ATOM     13  N   UNL d   1      -1.897  -2.546  -0.071  0.00  0.00    -0.113 N 
ATOM     14  O   UNL d   1      -2.494  -2.794  -1.127  0.00  0.00    -0.532 OA
ATOM     15  O   UNL d   1      -1.745  -3.325   0.878  0.00  0.00    -0.532 OA
ENDBRANCH   1  13
TORSDOF 2
