REMARK  5 active torsions:
REMARK  status: ('A' for Active; 'I' for Inactive)
REMARK    1  A    between atoms: C_8  and  C_1 
REMARK    2  A    between atoms: S_9  and  C_5 
REMARK    3  A    between atoms: C_14  and  S_9 
REMARK    4  A    between atoms: C_10  and  C_14 
REMARK    5  A    between atoms: C_13  and  C_10 
ROOT
ATOM      1  C   UNL d   1      -0.271   1.278   0.144  0.00  0.00     0.119 A 
ATOM      2  S   UNL d   1      -1.040  -0.115   0.812  0.00  0.00    -0.043 SA
ATOM      3  N   UNL d   1       0.828   0.981  -0.534  0.00  0.00    -0.290 N 
ATOM      4  HN  UNL d   1       1.420   1.680  -0.981  1.00  0.00     0.187 HD
ATOM      5  C   UNL d   1       0.177  -1.069   0.072  0.00  0.00     0.129 A 
ATOM      6  N   UNL d   1       1.087  -0.376  -0.573  0.00  0.00    -0.287 N 
ATOM      7  HN  UNL d   1       1.890  -0.791  -1.047  1.00  0.00     0.188 HD
ENDROOT
BRANCH   1   8
ATOM      8  C   UNL d   1      -0.813   2.633   0.310  0.00  0.00     0.083 A 
ATOM      9  N   UNL d   1      -1.937   2.795   1.061  0.00  0.00    -0.361 N 
ATOM     10  C   UNL d   1      -2.407   4.066   1.168  0.00  0.00     0.105 A 
ATOM     11  HN  UNL d   1      -2.400   2.008   1.516  1.00  0.00     0.165 HD
ATOM     12  C   UNL d   1      -1.787   5.141   0.553  0.00  0.00     0.104 A 
ATOM     13  N   UNL d   1      -0.670   4.998  -0.191  0.00  0.00    -0.372 N 
ATOM     14  C   UNL d   1      -0.203   3.726  -0.298  0.00  0.00     0.120 A 
ATOM     15  HN  UNL d   1      -0.209   5.788  -0.641  1.00  0.00     0.164 HD
ENDBRANCH   1   8
BRANCH   5  16
ATOM     16  S   UNL d   1       0.178  -2.820   0.129  0.00  0.00    -0.096 SA
BRANCH  16  17
ATOM     17  C   UNL d   1       1.928  -3.192  -0.173  0.00  0.00     0.160 C 
BRANCH  17  18
ATOM     18  C   UNL d   1       2.159  -4.687  -0.015  0.00  0.00     0.144 C 
ATOM     19  O   UNL d   1       2.348  -5.150   1.118  0.00  0.00    -0.296 OA
BRANCH  18  20
ATOM     20  C   UNL d   1       2.236  -5.608  -1.257  0.00  0.00     0.010 C 
ATOM     21  C   UNL d   1       3.687  -5.621  -1.757  0.00  0.00     0.022 C 
ATOM     22  C   UNL d   1       1.838  -7.034  -0.823  0.00  0.00     0.022 C 
ATOM     23  C   UNL d   1       1.312  -5.198  -2.410  0.00  0.00     0.022 C 
ENDBRANCH  18  20
ENDBRANCH  17  18
ENDBRANCH  16  17
ENDBRANCH   5  16
TORSDOF 5
