REMARK  2 active torsions:
REMARK  status: ('A' for Active; 'I' for Inactive)
REMARK    1  A    between atoms: C_5  and  N_1 
REMARK    2  A    between atoms: C_9  and  C_5 
ROOT
ATOM      1  N   UNL d   1       1.282  -2.168  -1.032  0.00  0.00    -0.289 N 
ATOM      2  C   UNL d   1       2.088  -1.111  -1.348  0.00  0.00     0.177 A 
ATOM      3  C   UNL d   1       1.530  -3.217  -1.886  0.00  0.00     0.244 A 
ATOM      4  N   UNL d   1       2.905  -1.478  -2.397  0.00  0.00    -0.358 N 
ATOM      5  S   UNL d   1       2.165   0.406  -0.685  0.00  0.00    -0.041 SA
ATOM      6  C   UNL d   1       2.671  -2.832  -2.812  0.00  0.00     0.225 A 
ATOM      7  O   UNL d   1       0.945  -4.293  -1.920  0.00  0.00    -0.271 OA
ATOM      8  H   UNL d   1       3.600  -0.851  -2.788  0.00  0.00     0.162 HD
ENDROOT
BRANCH   1   9
ATOM      9  C   UNL d   1       0.286  -2.252   0.029  0.00  0.00     0.173 C 
BRANCH   9  10
ATOM     10  C   UNL d   1       0.859  -2.840   1.301  0.00  0.00    -0.040 A 
ATOM     11  C   UNL d   1       1.419  -2.020   2.290  0.00  0.00     0.009 A 
ATOM     12  C   UNL d   1       1.988  -2.577   3.439  0.00  0.00     0.007 A 
ATOM     13  C   UNL d   1       2.002  -3.963   3.627  0.00  0.00    -0.062 A 
ATOM     14  C   UNL d   1       1.432  -4.784   2.649  0.00  0.00     0.007 A 
ATOM     15  C   UNL d   1       2.641  -4.546   4.852  0.00  0.00     0.048 C 
ATOM     16  C   UNL d   1       0.870  -4.228   1.496  0.00  0.00     0.009 A 
ENDBRANCH   9  10
ENDBRANCH   1   9
TORSDOF 2
