REMARK  6 active torsions:
REMARK  status: ('A' for Active; 'I' for Inactive)
REMARK    1  A    between atoms: C_6  and  N_1 
REMARK    2  A    between atoms: C_8  and  C_2 
REMARK    3  A    between atoms: C_10  and  C_2 
REMARK    4  A    between atoms: C_11  and  C_8 
REMARK    5  A    between atoms: O_21  and  C_10 
REMARK    6  A    between atoms: O_24  and  C_11 
ROOT
ATOM      1  N   UNL d   1      -2.408   0.814  -0.326  0.00  0.00    -0.269 N 
ATOM      2  C   UNL d   1      -2.394  -0.484   0.377  0.00  0.00     0.247 C 
ATOM      3  C   UNL d   1      -1.237   1.557  -0.398  0.00  0.00     0.264 C 
ATOM      4  C   UNL d   1       0.010   0.801  -0.189  0.00  0.00     0.067 A 
ATOM      5  O   UNL d   1      -1.249  -1.268  -0.099  0.00  0.00    -0.308 OA
ATOM      6  C   UNL d   1      -0.064  -0.589  -0.141  0.00  0.00     0.088 A 
ATOM      7  O   UNL d   1      -1.187   2.742  -0.710  0.00  0.00    -0.267 OA
ATOM      8  C   UNL d   1       1.249   1.448  -0.203  0.00  0.00     0.039 A 
ATOM      9  C   UNL d   1       1.104  -1.349  -0.169  0.00  0.00     0.039 A 
ATOM     10  C   UNL d   1       2.413   0.684  -0.184  0.00  0.00     0.012 A 
ATOM     11  C   UNL d   1       2.346  -0.711  -0.187  0.00  0.00     0.022 A 
ATOM     12 BR   UNL d   1       4.097   1.540  -0.179  0.00  0.00    -0.051 Br
ENDROOT
BRANCH   2  13
ATOM     13  C   UNL d   1      -2.233  -0.397   1.917  0.00  0.00     0.184 C 
BRANCH  13  14
ATOM     14  C   UNL d   1      -3.376   0.261   2.636  0.00  0.00     0.263 C 
ATOM     15  O   UNL d   1      -4.044   1.181   2.194  0.00  0.00    -0.265 OA
BRANCH  14  16
ATOM     16  O   UNL d   1      -3.498  -0.245   3.895  0.00  0.00    -0.326 OA
ATOM     17  C   UNL d   1      -4.518   0.346   4.711  0.00  0.00     0.213 C 
ENDBRANCH  14  16
ENDBRANCH  13  14
ENDBRANCH   2  13
BRANCH   2  18
ATOM     18  C   UNL d   1      -3.578  -1.445   0.050  0.00  0.00     0.316 C 
ATOM     19  O   UNL d   1      -4.399  -1.850   0.868  0.00  0.00    -0.260 OA
BRANCH  18  20
ATOM     20  O   UNL d   1      -3.556  -1.821  -1.265  0.00  0.00    -0.323 OA
ATOM     21  C   UNL d   1      -4.572  -2.734  -1.679  0.00  0.00     0.213 C 
ENDBRANCH  18  20
ENDBRANCH   2  18
BRANCH   1  22
ATOM     22  C   UNL d   1      -3.432   1.117  -1.285  0.00  0.00     0.064 A 
ATOM     23  C   UNL d   1      -3.207   1.033  -2.679  0.00  0.00     0.082 A 
ATOM     24  C   UNL d   1      -4.236   1.374  -3.571  0.00  0.00     0.058 A 
ATOM     25 CL   UNL d   1      -1.710   0.397  -3.301  0.00  0.00    -0.080 Cl
ATOM     26 CL   UNL d   1      -4.054   1.280  -5.291  0.00  0.00    -0.082 Cl
ATOM     27  C   UNL d   1      -5.480   1.793  -3.089  0.00  0.00     0.026 A 
ATOM     28  C   UNL d   1      -5.707   1.866  -1.721  0.00  0.00     0.004 A 
ATOM     29  C   UNL d   1      -4.691   1.528  -0.825  0.00  0.00     0.032 A 
ENDBRANCH   1  22
TORSDOF 6
