REMARK  2 active torsions:
REMARK  status: ('A' for Active; 'I' for Inactive)
REMARK    1  A    between atoms: C_3  and  C_5 
REMARK    2  A    between atoms: C_7  and  C_4 
ROOT
ATOM      1  N   UNL d   1       0.981  -0.115  -1.026  0.00  0.00    -0.351 N 
ATOM      2  HN  UNL d   1       1.586  -0.241  -1.838  1.00  0.00     0.166 HD
ATOM      3  C   UNL d   1      -0.144  -0.780  -0.822  0.00  0.00     0.102 A 
ATOM      4  C   UNL d   1       1.232   0.777   0.011  0.00  0.00     0.025 A 
ATOM      5  S   UNL d   1      -0.959  -0.364   0.639  0.00  0.00    -0.080 SA
ATOM      6  C   UNL d   1       0.268   0.766   1.003  0.00  0.00     0.077 A 
ENDROOT
BRANCH   4   7
ATOM      7  C   UNL d   1       2.473   1.655  -0.027  0.00  0.00     0.004 C 
ATOM      8  C   UNL d   1       3.341   1.382  -1.288  0.00  0.00     0.020 C 
ATOM      9  C   UNL d   1       4.588   2.284  -1.308  0.00  0.00    -0.013 C 
ATOM     10  C   UNL d   1       4.147   3.756  -1.313  0.00  0.00     0.009 C 
ATOM     11  C   UNL d   1       5.432   2.010  -0.054  0.00  0.00     0.009 C 
ATOM     12  C   UNL d   1       3.317   4.059  -0.058  0.00  0.00    -0.013 C 
ATOM     13  C   UNL d   1       2.072   3.157  -0.043  0.00  0.00     0.020 C 
ATOM     14  C   UNL d   1       4.163   3.776   1.194  0.00  0.00     0.009 C 
ATOM     15  C   UNL d   1       4.607   2.304   1.208  0.00  0.00    -0.013 C 
ATOM     16  C   UNL d   1       3.362   1.399   1.222  0.00  0.00     0.020 C 
ENDBRANCH   4   7
BRANCH   3  17
ATOM     17  C   UNL d   1      -0.697  -1.793  -1.733  0.00  0.00     0.081 A 
ATOM     18  N   UNL d   1      -1.872  -2.392  -1.392  0.00  0.00    -0.361 N 
ATOM     19  C   UNL d   1      -2.342  -3.315  -2.262  0.00  0.00     0.105 A 
ATOM     20  HN  UNL d   1      -2.369  -2.157  -0.532  1.00  0.00     0.165 HD
ATOM     21  C   UNL d   1      -1.679  -3.642  -3.432  0.00  0.00     0.104 A 
ATOM     22  N   UNL d   1      -0.512  -3.059  -3.786  0.00  0.00    -0.372 N 
ATOM     23  C   UNL d   1      -0.040  -2.131  -2.912  0.00  0.00     0.120 A 
ATOM     24  HN  UNL d   1      -0.021  -3.299  -4.648  1.00  0.00     0.164 HD
ENDBRANCH   3  17
TORSDOF 2
