REMARK  6 active torsions:
REMARK  status: ('A' for Active; 'I' for Inactive)
REMARK    1  A    between atoms: C_7  and  N_1 
REMARK    2  A    between atoms: C_11  and  N_3 
REMARK    3  A    between atoms: N_14  and  C_4 
REMARK    4  A    between atoms: C_10  and  C_9 
REMARK    5  A    between atoms: O_17  and  C_10 
REMARK    6  A    between atoms: C_18  and  C_11 
ROOT
ATOM      1  N   UNL d   1      -0.637   1.238   0.024  0.00  0.00    -0.254 N 
ATOM      2  C   UNL d   1      -1.401   0.056   0.058  0.00  0.00     0.338 A 
ATOM      3  N   UNL d   1      -0.684  -1.137   0.025  0.00  0.00    -0.262 N 
ATOM      4  C   UNL d   1       0.751   1.241  -0.073  0.00  0.00     0.094 A 
ATOM      5  C   UNL d   1       0.689  -1.206   0.016  0.00  0.00     0.254 A 
ATOM      6  C   UNL d   1       1.403   0.072  -0.061  0.00  0.00     0.117 A 
ATOM      7  O   UNL d   1      -2.635   0.064   0.130  0.00  0.00    -0.246 OA
ATOM      8  O   UNL d   1       1.349  -2.243   0.071  0.00  0.00    -0.268 OA
ENDROOT
BRANCH   1   9
ATOM      9  C   UNL d   1      -1.373   2.466   0.048  0.00  0.00     0.052 A 
ATOM     10  C   UNL d   1      -1.698   3.115   1.262  0.00  0.00    -0.018 A 
ATOM     11  C   UNL d   1      -2.429   4.327   1.200  0.00  0.00     0.047 A 
ATOM     12  C   UNL d   1      -1.292   2.527   2.590  0.00  0.00     0.052 C 
ATOM     13  C   UNL d   1      -2.792   4.866  -0.051  0.00  0.00     0.018 A 
ATOM     14  C   UNL d   1      -2.454   4.215  -1.234  0.00  0.00     0.003 A 
ATOM     15  C   UNL d   1      -1.748   3.019  -1.186  0.00  0.00     0.031 A 
BRANCH  11  16
ATOM     16  C   UNL d   1      -2.803   5.081   2.434  0.00  0.00     0.293 C 
ATOM     17  O   UNL d   1      -2.169   5.077   3.478  0.00  0.00    -0.259 OA
BRANCH  16  18
ATOM     18  O   UNL d   1      -3.962   5.763   2.220  0.00  0.00    -0.323 OA
ATOM     19  C   UNL d   1      -4.413   6.523   3.345  0.00  0.00     0.213 C 
ENDBRANCH  16  18
ENDBRANCH  11  16
ENDBRANCH   1   9
BRANCH   4  20
ATOM     20  N   UNL d   1       1.481   2.414  -0.177  0.00  0.00    -0.288 NA
ATOM     21  H   UNL d   1       1.002   3.227   0.203  0.00  0.00     0.125 HD
ATOM     22  H   UNL d   1       2.448   2.349   0.128  0.00  0.00     0.125 HD
ENDBRANCH   4  20
BRANCH   3  23
ATOM     23  C   UNL d   1      -1.427  -2.392   0.019  0.00  0.00     0.175 C 
BRANCH  23  24
ATOM     24  C   UNL d   1      -1.710  -2.874  -1.389  0.00  0.00    -0.040 A 
ATOM     25  C   UNL d   1      -0.789  -3.690  -2.063  0.00  0.00     0.009 A 
ATOM     26  C   UNL d   1      -1.024  -4.086  -3.381  0.00  0.00     0.001 A 
ATOM     27  C   UNL d   1      -2.180  -3.673  -4.039  0.00  0.00     0.000 A 
ATOM     28  C   UNL d   1      -3.108  -2.872  -3.377  0.00  0.00     0.001 A 
ATOM     29  C   UNL d   1      -2.874  -2.472  -2.059  0.00  0.00     0.009 A 
ENDBRANCH  23  24
ENDBRANCH   3  23
TORSDOF 6
