REMARK  7 active torsions:
REMARK  status: ('A' for Active; 'I' for Inactive)
REMARK    1  A    between atoms: C_16  and  N_1 
REMARK    2  A    between atoms: S_15  and  C_2 
REMARK    3  A    between atoms: N_3  and  C_9 
REMARK    4  A    between atoms: C_13  and  C_4 
REMARK    5  A    between atoms: S_11  and  C_13 
REMARK    6  A    between atoms: C_12  and  S_11 
REMARK    7  A    between atoms: C_17  and  C_16 
ROOT
ATOM      1  N   UNL d   1      -0.152  -0.873   0.629  0.00  0.00    -0.311 N 
ATOM      2  C   UNL d   1       0.986  -0.370   0.047  0.00  0.00     0.160 A 
ATOM      3  C   UNL d   1      -1.202  -0.299  -0.066  0.00  0.00     0.110 A 
ATOM      4  N   UNL d   1       0.665   0.390  -0.971  0.00  0.00    -0.278 N 
ATOM      5  HN  UNL d   1       1.317   0.861  -1.599  1.00  0.00     0.189 HD
ATOM      6  N   UNL d   1      -0.703   0.438  -1.042  0.00  0.00    -0.286 N 
ATOM      7  HN  UNL d   1      -1.245   0.957  -1.733  1.00  0.00     0.188 HD
ENDROOT
BRANCH   3   8
ATOM      8  C   UNL d   1      -2.659  -0.370   0.267  0.00  0.00     0.157 C 
BRANCH   8   9
ATOM      9  S   UNL d   1      -3.352  -2.049   0.122  0.00  0.00    -0.120 SA
BRANCH   9  10
ATOM     10  C   UNL d   1      -5.117  -1.728   0.076  0.00  0.00     0.034 A 
ATOM     11  C   UNL d   1      -5.959  -1.197   1.073  0.00  0.00     0.119 A 
ATOM     12  C   UNL d   1      -7.351  -1.082   0.848  0.00  0.00     0.037 A 
ATOM     13  C   UNL d   1      -7.913  -1.507  -0.356  0.00  0.00     0.003 A 
ATOM     14  C   UNL d   1      -7.097  -2.042  -1.341  0.00  0.00     0.002 A 
ATOM     15  C   UNL d   1      -5.720  -2.152  -1.127  0.00  0.00     0.021 A 
BRANCH  11  16
ATOM     16  N   UNL d   1      -5.481  -0.769   2.393  0.00  0.00    -0.114 N 
ATOM     17  O   UNL d   1      -4.419  -1.239   2.827  0.00  0.00    -0.532 OA
ATOM     18  O   UNL d   1      -6.184   0.039   3.020  0.00  0.00    -0.532 OA
ENDBRANCH  11  16
ENDBRANCH   9  10
ENDBRANCH   8   9
ENDBRANCH   3   8
BRANCH   1  19
ATOM     19  C   UNL d   1      -0.220  -1.877   1.676  0.00  0.00     0.159 C 
BRANCH  19  20
ATOM     20  C   UNL d   1      -0.387  -1.360   3.075  0.00  0.00    -0.017 C 
ATOM     21  C   UNL d   1      -0.363  -0.092   3.506  0.00  0.00     0.008 C 
ENDBRANCH  19  20
ENDBRANCH   1  19
BRANCH   2  22
ATOM     22  S   UNL d   1       2.602  -0.667   0.582  0.00  0.00    -0.105 SA
ATOM     23  H   UNL d   1       2.367  -0.853   1.888  0.00  0.00     0.110 HD
ENDBRANCH   2  22
TORSDOF 7
