REMARK  3 active torsions:
REMARK  status: ('A' for Active; 'I' for Inactive)
REMARK    1  A    between atoms: C_2  and  C_1 
REMARK       I    between atoms: N_4  and  C_2 
REMARK    2  A    between atoms: C_6  and  C_13 
REMARK    3  A    between atoms: O_21  and  C_6 
ROOT
ATOM      1  C   UNL d   1       0.095   3.132  -0.175  0.00  0.00     0.256 C 
ATOM      2  N   UNL d   1      -1.086   3.726   0.307  0.00  0.00    -0.348 N 
ATOM      3  O   UNL d   1       1.006   3.819  -0.650  0.00  0.00    -0.267 OA
ATOM      4  C   UNL d   1      -2.224   3.016   0.890  0.00  0.00     0.127 C 
ATOM      5  C   UNL d   1      -1.361   5.090  -0.138  0.00  0.00     0.127 C 
ATOM      6  C   UNL d   1      -3.304   5.239   1.488  0.00  0.00     0.087 C 
ATOM      7  C   UNL d   1      -2.049   5.922   0.941  0.00  0.00     0.035 C 
ATOM      8  C   UNL d   1      -2.958   3.823   1.957  0.00  0.00     0.035 C 
ENDROOT
BRANCH   1   9
ATOM      9  C   UNL d   1       0.367   1.665  -0.095  0.00  0.00     0.069 C 
ATOM     10  C   UNL d   1      -0.560   0.653  -0.391  0.00  0.00     0.096 C 
ATOM     11  C   UNL d   1      -0.217  -0.697  -0.228  0.00  0.00     0.003 C 
ATOM     12  O   UNL d   1      -1.784   0.995  -0.889  0.00  0.00    -0.325 OA
ATOM     13  C   UNL d   1      -1.276  -1.737  -0.402  0.00  0.00     0.212 C 
ATOM     14  C   UNL d   1       1.102  -1.047   0.071  0.00  0.00     0.054 C 
ATOM     15  O   UNL d   1      -2.528  -1.147  -0.079  0.00  0.00    -0.362 OA
ATOM     16  C   UNL d   1      -2.764  -0.043  -0.943  0.00  0.00     0.345 C 
ATOM     17  C   UNL d   1       2.046  -0.048   0.265  0.00  0.00     0.118 C 
ATOM     18  C   UNL d   1       1.689   1.294   0.210  0.00  0.00     0.062 C 
ATOM     19  F   UNL d   1       3.317  -0.387   0.512  0.00  0.00    -0.206 F 
ENDBRANCH   1   9
BRANCH   6  20
ATOM     20  C   UNL d   1      -4.442   5.240   0.478  0.00  0.00     0.143 C 
ATOM     21  O   UNL d   1      -4.943   4.246  -0.026  0.00  0.00    -0.650 OA
BRANCH  20  22
ATOM     22  O   UNL d   1      -4.900   6.485   0.196  0.00  0.00    -0.776 OA
ATOM     23  H   UNL d   1      -4.461   7.199   0.695  0.00  0.00     0.167 HD
ENDBRANCH  20  22
ENDBRANCH   6  20
TORSDOF 3
