REMARK  2 active torsions:
REMARK  status: ('A' for Active; 'I' for Inactive)
REMARK    1  A    between atoms: C_8  and  C_1 
REMARK    2  A    between atoms: C_11  and  C_5 
REMARK       I    between atoms: N_13  and  C_8 
ROOT
ATOM      1  C   UNL d   1      -2.381   1.652   0.019  0.00  0.00     0.046 A 
ATOM      2  N   UNL d   1      -3.230  -0.979  -0.067  0.00  0.00    -0.355 N 
ATOM      3  HN  UNL d   1      -3.543  -1.949  -0.049  1.00  0.00     0.166 HD
ATOM      4  C   UNL d   1      -1.413   0.620   0.025  0.00  0.00     0.008 A 
ATOM      5  C   UNL d   1      -4.136   0.024  -0.175  0.00  0.00     0.043 A 
ATOM      6  C   UNL d   1      -3.741   1.347  -0.093  0.00  0.00     0.048 A 
ATOM      7  C   UNL d   1      -1.921  -0.695   0.017  0.00  0.00     0.044 A 
ATOM      8  C   UNL d   1      -0.004   0.799  -0.001  0.00  0.00     0.033 A 
ATOM      9  C   UNL d   1      -1.036  -1.764   0.069  0.00  0.00     0.031 A 
ATOM     10  C   UNL d   1       0.859  -0.294   0.032  0.00  0.00     0.011 A 
ATOM     11  C   UNL d   1       0.348  -1.581   0.085  0.00  0.00     0.021 A 
ATOM     12 BR   UNL d   1       2.728  -0.023  -0.006  0.00  0.00    -0.051 Br
ENDROOT
BRANCH   5  13
ATOM     13  C   UNL d   1      -5.536  -0.389  -0.425  0.00  0.00    -0.009 A 
ATOM     14  C   UNL d   1      -6.011  -1.643  -0.004  0.00  0.00     0.013 A 
ATOM     15  C   UNL d   1      -7.323  -2.055  -0.264  0.00  0.00     0.001 A 
ATOM     16  C   UNL d   1      -8.193  -1.216  -0.958  0.00  0.00     0.000 A 
ATOM     17  C   UNL d   1      -7.750   0.027  -1.391  0.00  0.00     0.001 A 
ATOM     18  C   UNL d   1      -6.438   0.434  -1.130  0.00  0.00     0.013 A 
ENDBRANCH   5  13
BRANCH   1  19
ATOM     19  C   UNL d   1      -2.069   3.102   0.092  0.00  0.00     0.250 C 
ATOM     20  O   UNL d   1      -2.720   3.922  -0.544  0.00  0.00    -0.268 OA
ATOM     21  N   UNL d   1      -1.090   3.505   0.954  0.00  0.00    -0.366 N 
ATOM     22  H   UNL d   1      -0.683   2.896   1.650  0.00  0.00     0.159 HD
ATOM     23  H   UNL d   1      -0.973   4.504   1.071  0.00  0.00     0.159 HD
ENDBRANCH   1  19
TORSDOF 2
