REMARK  5 active torsions:
REMARK  status: ('A' for Active; 'I' for Inactive)
REMARK    1  A    between atoms: C_5  and  C_1 
REMARK    2  A    between atoms: O_8  and  C_2 
REMARK    3  A    between atoms: C_19  and  O_8 
REMARK    4  A    between atoms: C_11  and  O_14 
REMARK    5  A    between atoms: O_14  and  C_13 
ROOT
ATOM      1  C   UNL d   1      -1.782  -1.494  -0.005  0.00  0.00     0.197 C 
ATOM      2  C   UNL d   1      -2.297  -0.250   0.065  0.00  0.00     0.165 C 
ATOM      3  O   UNL d   1      -0.423  -1.786   0.049  0.00  0.00    -0.302 OA
ATOM      4  C   UNL d   1      -1.356   0.875   0.322  0.00  0.00     0.221 C 
ATOM      5  C   UNL d   1       0.471  -0.747   0.044  0.00  0.00     0.093 A 
ATOM      6  C   UNL d   1       0.072   0.579   0.163  0.00  0.00     0.051 A 
ATOM      7  C   UNL d   1       1.827  -1.059  -0.060  0.00  0.00     0.075 A 
ATOM      8  C   UNL d   1       1.017   1.610   0.160  0.00  0.00     0.021 A 
ATOM      9  O   UNL d   1      -1.717   1.991   0.666  0.00  0.00    -0.284 OA
ATOM     10  C   UNL d   1       2.771  -0.027  -0.067  0.00  0.00     0.081 A 
ATOM     11  C   UNL d   1       2.373   1.306   0.051  0.00  0.00     0.038 A 
ENDROOT
BRANCH   2  12
ATOM     12  O   UNL d   1      -3.673  -0.050   0.006  0.00  0.00    -0.304 OA
BRANCH  12  13
ATOM     13  C   UNL d   1      -4.182   1.069  -0.614  0.00  0.00     0.076 A 
ATOM     14  C   UNL d   1      -3.612   1.663  -1.744  0.00  0.00     0.039 A 
ATOM     15  C   UNL d   1      -4.191   2.810  -2.295  0.00  0.00     0.026 A 
ATOM     16  C   UNL d   1      -5.357   3.334  -1.741  0.00  0.00     0.034 A 
ATOM     17  C   UNL d   1      -5.957   2.716  -0.645  0.00  0.00     0.026 A 
ATOM     18 CL   UNL d   1      -6.064   4.748  -2.418  0.00  0.00    -0.084 Cl
ATOM     19  C   UNL d   1      -5.369   1.580  -0.083  0.00  0.00     0.039 A 
ENDBRANCH  12  13
ENDBRANCH   2  12
BRANCH   1  20
ATOM     20  C   UNL d   1      -2.668  -2.695  -0.139  0.00  0.00     0.442 C 
ATOM     21  F   UNL d   1      -1.960  -3.854  -0.198  0.00  0.00    -0.164 F 
ATOM     22  F   UNL d   1      -3.521  -2.820   0.910  0.00  0.00    -0.164 F 
ATOM     23  F   UNL d   1      -3.423  -2.651  -1.267  0.00  0.00    -0.164 F 
ENDBRANCH   1  20
BRANCH  10  24
ATOM     24  O   UNL d   1       4.125  -0.422  -0.093  0.00  0.00    -0.279 OA
BRANCH  24  25
ATOM     25  C   UNL d   1       5.104   0.363  -0.702  0.00  0.00     0.260 C 
ATOM     26  O   UNL d   1       4.924   1.392  -1.339  0.00  0.00    -0.265 OA
ATOM     27  C   UNL d   1       6.455  -0.247  -0.469  0.00  0.00     0.126 C 
ENDBRANCH  24  25
ENDBRANCH  10  24
TORSDOF 5
