REMARK  3 active torsions:
REMARK  status: ('A' for Active; 'I' for Inactive)
REMARK    1  A    between atoms: C_2  and  C_1 
REMARK    2  A    between atoms: N_3  and  C_1 
REMARK    3  A    between atoms: C_7  and  N_3 
ROOT
ATOM      1  C   UNL d   1       0.807  -0.281   0.222  0.00  0.00     0.082 C 
ATOM      2  S   UNL d   1      -0.328  -0.862   1.326  0.00  0.00    -0.065 SA
ENDROOT
BRANCH   1   3
ATOM      3  C   UNL d   1       0.376  -0.076  -1.248  0.00  0.00     0.052 C 
ATOM      4  C   UNL d   1       1.157  -0.893  -2.283  0.00  0.00     0.043 C 
ATOM      5  C   UNL d   1       2.420  -0.203  -2.807  0.00  0.00     0.118 C 
ATOM      6  C   UNL d   1       2.985  -0.947  -4.011  0.00  0.00     0.039 C 
ATOM      7  O   UNL d   1       2.141   1.139  -3.201  0.00  0.00    -0.381 OA
ATOM      8  C   UNL d   1       1.670   1.946  -2.119  0.00  0.00     0.118 C 
ATOM      9  C   UNL d   1       0.330   1.413  -1.617  0.00  0.00     0.043 C 
ATOM     10  C   UNL d   1       1.524   3.375  -2.629  0.00  0.00     0.039 C 
ENDBRANCH   1   3
BRANCH   1  11
ATOM     11  N   UNL d   1       2.129   0.001   0.519  0.00  0.00    -0.350 N 
ATOM     12  H   UNL d   1       2.816  -0.265  -0.168  0.00  0.00     0.166 HD
BRANCH  11  13
ATOM     13  C   UNL d   1       2.675   0.473   1.732  0.00  0.00     0.033 A 
ATOM     14  C   UNL d   1       1.961   1.295   2.608  0.00  0.00     0.036 A 
ATOM     15  C   UNL d   1       2.567   1.826   3.763  0.00  0.00    -0.054 A 
ATOM     16  C   UNL d   1       1.772   2.751   4.646  0.00  0.00     0.049 C 
ATOM     17  C   UNL d   1       3.903   1.499   4.056  0.00  0.00    -0.056 A 
ATOM     18  C   UNL d   1       4.617   0.682   3.166  0.00  0.00     0.009 A 
ATOM     19  C   UNL d   1       4.588   2.025   5.288  0.00  0.00     0.049 C 
ATOM     20  C   UNL d   1       4.014   0.195   2.003  0.00  0.00     0.030 A 
ENDBRANCH  11  13
ENDBRANCH   1  11
TORSDOF 3
