REMARK  2 active torsions:
REMARK  status: ('A' for Active; 'I' for Inactive)
REMARK    1  A    between atoms: C_4  and  C_1 
REMARK    2  A    between atoms: O_13  and  C_4 
ROOT
ATOM      1  C   UNL d   1       0.753   0.787   1.141  0.00  0.00     0.047 C 
ATOM      2  C   UNL d   1       0.263  -1.515   0.145  0.00  0.00    -0.042 C 
ATOM      3  C   UNL d   1      -1.522   0.295   0.107  0.00  0.00    -0.042 C 
ATOM      4  C   UNL d   1      -0.768   1.044   1.232  0.00  0.00     0.029 C 
ATOM      5  C   UNL d   1       0.993  -0.741   1.264  0.00  0.00     0.029 C 
ATOM      6  C   UNL d   1       1.268   1.246  -0.241  0.00  0.00     0.025 C 
ATOM      7  C   UNL d   1       0.531   0.495  -1.364  0.00  0.00    -0.012 C 
ATOM      8  C   UNL d   1      -1.250  -1.219   0.247  0.00  0.00     0.018 C 
ATOM      9  C   UNL d   1       0.780  -1.014  -1.221  0.00  0.00     0.014 C 
ATOM     10  C   UNL d   1      -0.977   0.772  -1.259  0.00  0.00     0.014 C 
ATOM     11  C   UNL d   1       0.517  -3.019   0.289  0.00  0.00     0.015 C 
ATOM     12  C   UNL d   1      -3.026   0.569   0.203  0.00  0.00     0.015 C 
ENDROOT
BRANCH   1  13
ATOM     13  C   UNL d   1       1.498   1.506   2.268  0.00  0.00     0.148 C 
ATOM     14  O   UNL d   1       2.184   0.946   3.111  0.00  0.00    -0.649 OA
BRANCH  13  15
ATOM     15  O   UNL d   1       1.347   2.850   2.276  0.00  0.00    -0.776 OA
ATOM     16  H   UNL d   1       0.783   3.207   1.567  0.00  0.00     0.167 HD
ENDBRANCH  13  15
ENDBRANCH   1  13
TORSDOF 2
