REMARK  5 active torsions:
REMARK  status: ('A' for Active; 'I' for Inactive)
REMARK    1  A    between atoms: C_2  and  C_1 
REMARK    2  A    between atoms: C_7  and  C_20 
REMARK       I    between atoms: N_9  and  C_7 
REMARK    3  A    between atoms: S_13  and  C_8 
REMARK    4  A    between atoms: C_11  and  N_9 
REMARK    5  A    between atoms: C_20  and  S_13 
ROOT
ATOM      1  C   UNL d   1      -0.881   3.984   5.238  0.00  0.00     0.184 C 
ENDROOT
BRANCH   1   2
ATOM      2  C   UNL d   1      -1.049   5.085   6.261  0.00  0.00     0.231 C 
ATOM      3  N   UNL d   1      -0.548   6.331   5.918  0.00  0.00    -0.326 N 
ATOM      4  H   UNL d   1      -0.145   6.415   4.991  0.00  0.00     0.169 HD
ATOM      5  O   UNL d   1      -1.701   4.849   7.286  0.00  0.00    -0.272 OA
BRANCH   3   6
ATOM      6  C   UNL d   1      -0.538   7.485   6.739  0.00  0.00     0.036 A 
ATOM      7  C   UNL d   1      -0.898   7.464   8.093  0.00  0.00     0.056 A 
ATOM      8  C   UNL d   1      -0.823   8.622   8.871  0.00  0.00     0.074 A 
ATOM      9 CL   UNL d   1      -1.245   8.549  10.540  0.00  0.00    -0.081 Cl
ATOM     10  C   UNL d   1      -0.395   9.814   8.298  0.00  0.00     0.138 A 
ATOM     11  C   UNL d   1      -0.045   9.859   6.953  0.00  0.00     0.046 A 
ATOM     12  F   UNL d   1      -0.305  10.934   9.030  0.00  0.00    -0.204 F 
ATOM     13  C   UNL d   1      -0.112   8.695   6.175  0.00  0.00     0.032 A 
ENDBRANCH   3   6
ENDBRANCH   1   2
BRANCH   1  14
ATOM     14  S   UNL d   1       0.792   3.900   4.533  0.00  0.00    -0.103 SA
BRANCH  14  15
ATOM     15  C   UNL d   1       0.546   2.543   3.396  0.00  0.00     0.070 A 
ATOM     16  C   UNL d   1       1.592   2.127   2.584  0.00  0.00     0.038 A 
ATOM     17  C   UNL d   1       1.329   1.193   1.581  0.00  0.00     0.020 A 
ATOM     18  C   UNL d   1       0.032   0.696   1.415  0.00  0.00     0.063 A 
ATOM     19  C   UNL d   1      -0.924   1.106   2.328  0.00  0.00     0.105 A 
ATOM     20  N   UNL d   1      -0.695   2.017   3.301  0.00  0.00    -0.360 N 
ATOM     21  HN  UNL d   1      -1.435   2.297   3.944  1.00  0.00     0.166 HD
BRANCH  18  22
ATOM     22  C   UNL d   1      -0.341  -0.179   0.259  0.00  0.00     0.418 C 
ATOM     23  F   UNL d   1      -1.662  -0.513   0.232  0.00  0.00    -0.166 F 
ATOM     24  F   UNL d   1       0.344  -1.353   0.236  0.00  0.00    -0.166 F 
ATOM     25  F   UNL d   1      -0.091   0.425  -0.936  0.00  0.00    -0.166 F 
ENDBRANCH  18  22
ENDBRANCH  14  15
ENDBRANCH   1  14
TORSDOF 5
