REMARK  2 active torsions:
REMARK  status: ('A' for Active; 'I' for Inactive)
REMARK    1  A    between atoms: C_2  and  C_1 
REMARK       I    between atoms: N_3  and  C_1 
REMARK    2  A    between atoms: C_5  and  N_3 
ROOT
ATOM      1  C   UNL d   1       0.871  -0.008   0.476  0.00  0.00     0.257 C 
ATOM      2  N   UNL d   1       0.325  -1.191   0.025  0.00  0.00    -0.321 N 
ATOM      3  O   UNL d   1       1.877   0.042   1.185  0.00  0.00    -0.267 OA
ATOM      4  H   UNL d   1      -0.298  -1.158  -0.777  0.00  0.00     0.169 HD
ENDROOT
BRANCH   2   5
ATOM      5  C   UNL d   1       0.623  -2.489   0.520  0.00  0.00     0.058 A 
ATOM      6  C   UNL d   1       0.281  -3.623  -0.244  0.00  0.00     0.082 A 
ATOM      7  C   UNL d   1       0.550  -4.908   0.254  0.00  0.00     0.058 A 
ATOM      8 CL   UNL d   1      -0.444  -3.408  -1.809  0.00  0.00    -0.080 Cl
ATOM      9 CL   UNL d   1       0.200  -6.346  -0.642  0.00  0.00    -0.082 Cl
ATOM     10  C   UNL d   1       1.127  -5.069   1.517  0.00  0.00     0.026 A 
ATOM     11  C   UNL d   1       1.442  -3.952   2.284  0.00  0.00     0.004 A 
ATOM     12  C   UNL d   1       1.195  -2.673   1.786  0.00  0.00     0.031 A 
ENDBRANCH   2   5
BRANCH   1  13
ATOM     13  C   UNL d   1       0.222   1.288   0.091  0.00  0.00     0.054 A 
ATOM     14  C   UNL d   1      -0.949   1.454  -0.663  0.00  0.00     0.049 A 
ATOM     15 CL   UNL d   1      -1.815   0.167  -1.426  0.00  0.00    -0.083 Cl
ATOM     16  C   UNL d   1      -1.498   2.736  -0.839  0.00  0.00     0.025 A 
ATOM     17  C   UNL d   1      -0.890   3.860  -0.281  0.00  0.00     0.002 A 
ATOM     18  C   UNL d   1       0.284   3.716   0.444  0.00  0.00     0.001 A 
ATOM     19  C   UNL d   1       0.833   2.445   0.625  0.00  0.00     0.019 A 
ENDBRANCH   1  13
TORSDOF 2
