REMARK  4 active torsions:
REMARK  status: ('A' for Active; 'I' for Inactive)
REMARK       I    between atoms: N_2  and  C_1 
REMARK       I    between atoms: N_4  and  C_1 
REMARK    1  A    between atoms: C_5  and  N_3 
REMARK    2  A    between atoms: C_13  and  N_4 
REMARK    3  A    between atoms: C_11  and  C_5 
REMARK    4  A    between atoms: C_12  and  C_5 
ROOT
ATOM      1  C   UNL d   1       1.004  -0.151   0.089  0.00  0.00     0.323 C 
ATOM      2  N   UNL d   1       0.412  -0.070  -1.162  0.00  0.00    -0.331 N 
ATOM      3  N   UNL d   1      -0.234   0.270  -4.039  0.00  0.00     0.105 N 
ATOM      4  N   UNL d   1       0.584   0.770   1.018  0.00  0.00    -0.309 N 
ATOM      5  O   UNL d   1       1.861  -1.007   0.313  0.00  0.00    -0.247 OA
ATOM      6  C   UNL d   1       0.824  -1.071  -2.156  0.00  0.00     0.158 C 
ATOM      7  C   UNL d   1      -0.726   0.765  -1.576  0.00  0.00     0.158 C 
ATOM      8  C   UNL d   1       0.970  -0.449  -3.552  0.00  0.00     0.293 C 
ATOM      9  C   UNL d   1      -0.552   1.301  -3.016  0.00  0.00     0.293 C 
ATOM     10  H   UNL d   1      -0.185   1.365   0.770  0.00  0.00     0.170 HD
ENDROOT
BRANCH   3  11
ATOM     11  C   UNL d   1      -1.399  -0.631  -4.303  0.00  0.00     0.289 C 
BRANCH  11  12
ATOM     12  C   UNL d   1      -2.613   0.147  -4.825  0.00  0.00    -0.021 A 
ATOM     13  C   UNL d   1      -2.533   0.902  -6.007  0.00  0.00     0.010 A 
ATOM     14  C   UNL d   1      -3.652   1.569  -6.504  0.00  0.00     0.001 A 
ATOM     15  C   UNL d   1      -4.862   1.506  -5.818  0.00  0.00     0.000 A 
ATOM     16  C   UNL d   1      -4.952   0.788  -4.627  0.00  0.00     0.001 A 
ATOM     17  C   UNL d   1      -3.836   0.111  -4.132  0.00  0.00     0.010 A 
ENDBRANCH  11  12
BRANCH  11  18
ATOM     18  C   UNL d   1      -1.107  -1.817  -5.237  0.00  0.00    -0.021 A 
ATOM     19  C   UNL d   1      -1.779  -3.037  -5.034  0.00  0.00     0.010 A 
ATOM     20  C   UNL d   1      -1.520  -4.142  -5.848  0.00  0.00     0.001 A 
ATOM     21  C   UNL d   1      -0.591  -4.045  -6.881  0.00  0.00     0.000 A 
ATOM     22  C   UNL d   1       0.055  -2.835  -7.121  0.00  0.00     0.001 A 
ATOM     23  C   UNL d   1      -0.214  -1.725  -6.317  0.00  0.00     0.010 A 
ENDBRANCH  11  18
ENDBRANCH   3  11
BRANCH   4  24
ATOM     24  C   UNL d   1       1.046   0.911   2.347  0.00  0.00     0.036 A 
ATOM     25  C   UNL d   1       2.109   0.181   2.883  0.00  0.00     0.031 A 
ATOM     26  C   UNL d   1       2.471   0.326   4.228  0.00  0.00     0.026 A 
ATOM     27  C   UNL d   1       1.775   1.215   5.036  0.00  0.00     0.034 A 
ATOM     28  C   UNL d   1       0.739   1.980   4.509  0.00  0.00     0.026 A 
ATOM     29 CL   UNL d   1       2.194   1.364   6.698  0.00  0.00    -0.084 Cl
ATOM     30  C   UNL d   1       0.377   1.831   3.166  0.00  0.00     0.031 A 
ENDBRANCH   4  24
TORSDOF 4
