REMARK  1 active torsions:
REMARK  status: ('A' for Active; 'I' for Inactive)
REMARK    1  A    between atoms: C_7  and  C_1 
ROOT
ATOM      1  C   UNL d   1      -0.488  -1.754   0.033  0.00  0.00    -0.008 A 
ATOM      2  N   UNL d   1      -0.989   1.020   0.028  0.00  0.00    -0.323 N 
ATOM      3  C   UNL d   1      -2.053   0.163   0.029  0.00  0.00     0.246 A 
ATOM      4  C   UNL d   1       0.627  -0.778   0.011  0.00  0.00     0.002 A 
ATOM      5  C   UNL d   1      -1.750  -1.287   0.039  0.00  0.00     0.087 A 
ATOM      6  C   UNL d   1       0.342   0.594   0.017  0.00  0.00     0.046 A 
ATOM      7  O   UNL d   1      -3.215   0.561   0.028  0.00  0.00    -0.268 OA
ATOM      8  C   UNL d   1       1.969  -1.186  -0.015  0.00  0.00     0.014 A 
ATOM      9  C   UNL d   1       1.369   1.540   0.009  0.00  0.00     0.030 A 
ATOM     10  C   UNL d   1       2.998  -0.242  -0.027  0.00  0.00     0.001 A 
ATOM     11  C   UNL d   1       2.698   1.119  -0.013  0.00  0.00     0.002 A 
ATOM     12  H   UNL d   1      -1.214   2.005   0.025  0.00  0.00     0.169 HD
ENDROOT
BRANCH   1  13
ATOM     13  C   UNL d   1      -0.311  -3.218   0.059  0.00  0.00    -0.025 A 
ATOM     14  C   UNL d   1      -0.251  -3.944  -1.137  0.00  0.00     0.012 A 
ATOM     15  C   UNL d   1       0.026  -5.312  -1.113  0.00  0.00     0.001 A 
ATOM     16  C   UNL d   1       0.239  -5.960   0.104  0.00  0.00     0.000 A 
ATOM     17  C   UNL d   1       0.161  -5.246   1.299  0.00  0.00     0.001 A 
ATOM     18  C   UNL d   1      -0.117  -3.879   1.279  0.00  0.00     0.012 A 
ENDBRANCH   1  13
TORSDOF 1
