REMARK  7 active torsions:
REMARK  status: ('A' for Active; 'I' for Inactive)
REMARK    1  A    between atoms: O_2  and  S_1 
REMARK    2  A    between atoms: C_11  and  S_1 
REMARK    3  A    between atoms: C_3  and  O_2 
REMARK    4  A    between atoms: C_12  and  C_4 
REMARK    5  A    between atoms: C_8  and  N_6 
REMARK    6  A    between atoms: O_27  and  C_14 
REMARK    7  A    between atoms: O_26  and  C_15 
ROOT
ATOM      1  C   UNL d   1       0.996   1.343  -2.259  0.00  0.00     0.123 A 
ATOM      2  C   UNL d   1      -0.117   2.097  -2.688  0.00  0.00     0.017 A 
ATOM      3  C   UNL d   1       2.279   1.870  -2.507  0.00  0.00     0.071 A 
ATOM      4  C   UNL d   1       2.437   3.161  -3.028  0.00  0.00     0.050 A 
ATOM      5  C   UNL d   1       0.051   3.386  -3.221  0.00  0.00     0.039 A 
ATOM      6  C   UNL d   1       1.325   3.919  -3.365  0.00  0.00     0.036 A 
ATOM      7 CL   UNL d   1       3.747   0.976  -2.328  0.00  0.00    -0.081 Cl
ATOM      8 CL   UNL d   1       1.531   5.497  -4.013  0.00  0.00    -0.084 Cl
ENDROOT
BRANCH   2   9
ATOM      9  C   UNL d   1      -1.495   1.546  -2.653  0.00  0.00     0.102 C 
ATOM     10  N   UNL d   1      -2.515   2.270  -2.992  0.00  0.00    -0.363 N 
ATOM     11  HN  UNL d   1      -2.381   3.240  -3.279  1.00  0.00     0.165 HD
BRANCH  10  12
ATOM     12  C   UNL d   1      -3.814   1.713  -2.965  0.00  0.00     0.068 A 
ATOM     13  C   UNL d   1      -4.243   0.949  -1.871  0.00  0.00     0.071 A 
ATOM     14  C   UNL d   1      -5.534   0.403  -1.787  0.00  0.00     0.092 A 
ATOM     15  C   UNL d   1      -6.434   0.670  -2.822  0.00  0.00     0.070 A 
ATOM     16  C   UNL d   1      -6.030   1.457  -3.915  0.00  0.00     0.065 A 
ATOM     17 CL   UNL d   1      -8.079   0.139  -2.877  0.00  0.00    -0.081 Cl
ATOM     18  C   UNL d   1      -4.736   1.986  -3.995  0.00  0.00     0.096 A 
BRANCH  14  19
ATOM     19  O   UNL d   1      -5.684  -0.313  -0.633  0.00  0.00    -0.354 OA
ATOM     20  C   UNL d   1      -6.833  -1.111  -0.422  0.00  0.00     0.210 C 
ENDBRANCH  14  19
BRANCH  18  21
ATOM     21  O   UNL d   1      -4.295   2.769  -5.034  0.00  0.00    -0.354 OA
ATOM     22  C   UNL d   1      -5.255   3.183  -6.001  0.00  0.00     0.210 C 
ENDBRANCH  18  21
ENDBRANCH  10  12
ENDBRANCH   2   9
BRANCH   1  23
ATOM     23  O   UNL d   1       0.744   0.121  -1.660  0.00  0.00    -0.226 OA
BRANCH  23  24
ATOM     24  S   UNL d   1       1.595  -0.378  -0.345  0.00  0.00     0.303 S 
ATOM     25  O   UNL d   1       2.009   0.789   0.417  0.00  0.00    -0.193 OA
ATOM     26  O   UNL d   1       2.546  -1.385  -0.766  0.00  0.00    -0.193 OA
BRANCH  24  27
ATOM     27  C   UNL d   1       0.421  -1.252   0.674  0.00  0.00     0.086 A 
ATOM     28  C   UNL d   1      -0.147  -2.436   0.199  0.00  0.00     0.026 A 
ATOM     29  C   UNL d   1      -0.966  -3.190   1.044  0.00  0.00     0.008 A 
ATOM     30  C   UNL d   1      -1.213  -2.772   2.360  0.00  0.00    -0.062 A 
ATOM     31  C   UNL d   1      -0.629  -1.586   2.824  0.00  0.00     0.008 A 
ATOM     32  C   UNL d   1      -2.075  -3.606   3.264  0.00  0.00     0.048 C 
ATOM     33  C   UNL d   1       0.189  -0.826   1.985  0.00  0.00     0.026 A 
ENDBRANCH  24  27
ENDBRANCH  23  24
ENDBRANCH   1  23
TORSDOF 7
