REMARK  4 active torsions:
REMARK  status: ('A' for Active; 'I' for Inactive)
REMARK    1  A    between atoms: C_4  and  N_1 
REMARK    2  A    between atoms: N_2  and  C_6 
REMARK    3  A    between atoms: C_14  and  N_3 
REMARK    4  A    between atoms: C_17  and  C_14 
ROOT
ATOM      1  N   UNL d   1      -1.990  -3.300   3.493  0.00  0.00    -0.378 N 
ATOM      2  N   UNL d   1      -2.204  -5.210   5.745  0.00  0.00     0.095 N 
ATOM      3  C   UNL d   1      -2.334  -2.831   4.845  0.00  0.00     0.153 C 
ATOM      4  C   UNL d   1      -2.241  -4.727   3.215  0.00  0.00     0.153 C 
ATOM      5  C   UNL d   1      -1.764  -5.628   4.388  0.00  0.00     0.292 C 
ATOM      6  C   UNL d   1      -1.797  -3.795   5.921  0.00  0.00     0.292 C 
ENDROOT
BRANCH   1   7
ATOM      7  C   UNL d   1      -1.151  -2.584   2.660  0.00  0.00     0.030 A 
ATOM      8  C   UNL d   1      -0.123  -1.765   3.152  0.00  0.00     0.032 A 
ATOM      9  C   UNL d   1       0.710  -1.034   2.295  0.00  0.00     0.038 A 
ATOM     10  C   UNL d   1       0.515  -1.111   0.914  0.00  0.00     0.103 A 
ATOM     11  C   UNL d   1      -0.502  -1.913   0.392  0.00  0.00     0.038 A 
ATOM     12  C   UNL d   1      -1.318  -2.640   1.266  0.00  0.00     0.032 A 
BRANCH  10  13
ATOM     13  N   UNL d   1       1.382  -0.348   0.010  0.00  0.00    -0.116 N 
ATOM     14  O   UNL d   1       1.180  -0.453  -1.209  0.00  0.00    -0.532 OA
ATOM     15  O   UNL d   1       2.266   0.358   0.514  0.00  0.00    -0.532 OA
ENDBRANCH  10  13
ENDBRANCH   1   7
BRANCH   2  16
ATOM     16  C   UNL d   1      -3.660  -5.418   5.884  0.00  0.00     0.311 C 
BRANCH  16  17
ATOM     17  C   UNL d   1      -4.263  -5.046   7.224  0.00  0.00    -0.030 A 
ATOM     18  C   UNL d   1      -5.559  -4.505   7.268  0.00  0.00     0.009 A 
ATOM     19  C   UNL d   1      -6.168  -4.207   8.488  0.00  0.00     0.001 A 
ATOM     20  C   UNL d   1      -5.492  -4.449   9.680  0.00  0.00     0.000 A 
ATOM     21  C   UNL d   1      -4.210  -4.995   9.654  0.00  0.00     0.001 A 
ATOM     22  C   UNL d   1      -3.603  -5.303   8.434  0.00  0.00     0.009 A 
ENDBRANCH  16  17
ENDBRANCH   2  16
TORSDOF 4
