REMARK  5 active torsions:
REMARK  status: ('A' for Active; 'I' for Inactive)
REMARK    1  A    between atoms: N_2  and  C_1 
REMARK    2  A    between atoms: S_8  and  C_3 
REMARK    3  A    between atoms: S_9  and  C_5 
REMARK    4  A    between atoms: C_13  and  S_8 
REMARK    5  A    between atoms: C_14  and  S_9 
ROOT
ATOM      1  C   UNL d   1       1.806  -1.289  -0.126  0.00  0.00     0.121 A 
ATOM      2  C   UNL d   1       2.474  -0.058  -0.107  0.00  0.00     0.040 A 
ATOM      3  C   UNL d   1       0.411  -1.378  -0.225  0.00  0.00     0.062 A 
ATOM      4  C   UNL d   1       0.279   1.046  -0.240  0.00  0.00     0.028 A 
ATOM      5  C   UNL d   1       1.684   1.106  -0.155  0.00  0.00     0.042 A 
ATOM      6  C   UNL d   1      -0.349  -0.210  -0.277  0.00  0.00     0.053 A 
ATOM      7 CL   UNL d   1      -2.067  -0.390  -0.370  0.00  0.00    -0.083 Cl
ENDROOT
BRANCH   2   8
ATOM      8  S   UNL d   1       4.234   0.145   0.110  0.00  0.00    -0.088 SA
BRANCH   8   9
ATOM      9  C   UNL d   1       4.879   0.144  -1.553  0.00  0.00     0.005 A 
ATOM     10  C   UNL d   1       4.507   1.111  -2.492  0.00  0.00     0.019 A 
ATOM     11  C   UNL d   1       5.139   1.168  -3.738  0.00  0.00     0.001 A 
ATOM     12  C   UNL d   1       6.150   0.261  -4.054  0.00  0.00     0.000 A 
ATOM     13  C   UNL d   1       6.521  -0.711  -3.128  0.00  0.00     0.001 A 
ATOM     14  C   UNL d   1       5.889  -0.769  -1.883  0.00  0.00     0.019 A 
ENDBRANCH   8   9
ENDBRANCH   2   8
BRANCH   1  15
ATOM     15  N   UNL d   1       2.528  -2.539   0.012  0.00  0.00    -0.114 N 
ATOM     16  O   UNL d   1       3.129  -2.740   1.073  0.00  0.00    -0.532 OA
ATOM     17  O   UNL d   1       2.419  -3.348  -0.922  0.00  0.00    -0.532 OA
ENDBRANCH   1  15
BRANCH   4  18
ATOM     18  S   UNL d   1      -0.632   2.585  -0.170  0.00  0.00    -0.089 SA
BRANCH  18  19
ATOM     19  C   UNL d   1      -0.615   3.172  -1.854  0.00  0.00     0.005 A 
ATOM     20  C   UNL d   1      -0.721   2.325  -2.962  0.00  0.00     0.019 A 
ATOM     21  C   UNL d   1      -0.744   2.850  -4.258  0.00  0.00     0.001 A 
ATOM     22  C   UNL d   1      -0.675   4.227  -4.457  0.00  0.00     0.000 A 
ATOM     23  C   UNL d   1      -0.587   5.081  -3.361  0.00  0.00     0.001 A 
ATOM     24  C   UNL d   1      -0.559   4.556  -2.067  0.00  0.00     0.019 A 
ENDBRANCH  18  19
ENDBRANCH   4  18
TORSDOF 5
