REMARK  3 active torsions:
REMARK  status: ('A' for Active; 'I' for Inactive)
REMARK       I    between atoms: N_2  and  C_1 
REMARK       I    between atoms: N_3  and  C_1 
REMARK    1  A    between atoms: C_17  and  N_3 
REMARK    2  A    between atoms: C_15  and  N_4 
REMARK    3  A    between atoms: C_14  and  C_15 
ROOT
ATOM      1  C   UNL d   1       0.974  -0.148  -0.054  0.00  0.00     0.323 C 
ATOM      2  N   UNL d   1       0.438   0.224  -1.281  0.00  0.00    -0.331 N 
ATOM      3  N   UNL d   1       0.499   0.533   1.041  0.00  0.00    -0.309 N 
ATOM      4  N   UNL d   1      -0.224   1.104  -4.031  0.00  0.00     0.095 N 
ATOM      5  O   UNL d   1       1.839  -1.021   0.015  0.00  0.00    -0.247 OA
ATOM      6  C   UNL d   1       0.893  -0.531  -2.454  0.00  0.00     0.158 C 
ATOM      7  C   UNL d   1      -0.705   1.119  -1.514  0.00  0.00     0.158 C 
ATOM      8  C   UNL d   1      -0.596   1.906  -2.844  0.00  0.00     0.292 C 
ATOM      9  C   UNL d   1       1.009   0.357  -3.701  0.00  0.00     0.292 C 
ATOM     10  H   UNL d   1      -0.421   0.933   0.968  0.00  0.00     0.170 HD
ENDROOT
BRANCH   3  11
ATOM     11  C   UNL d   1       1.083   0.553   2.327  0.00  0.00     0.036 A 
ATOM     12  C   UNL d   1       2.382   0.100   2.588  0.00  0.00     0.031 A 
ATOM     13  C   UNL d   1       2.930   0.201   3.870  0.00  0.00     0.026 A 
ATOM     14  C   UNL d   1       2.183   0.758   4.900  0.00  0.00     0.034 A 
ATOM     15  C   UNL d   1       0.885   1.206   4.661  0.00  0.00     0.026 A 
ATOM     16 CL   UNL d   1       2.869   0.913   6.469  0.00  0.00    -0.084 Cl
ATOM     17  C   UNL d   1       0.339   1.107   3.376  0.00  0.00     0.031 A 
ENDBRANCH   3  11
BRANCH   4  18
ATOM     18  C   UNL d   1      -1.340   0.233  -4.441  0.00  0.00     0.311 C 
BRANCH  18  19
ATOM     19  C   UNL d   1      -1.045  -0.653  -5.635  0.00  0.00    -0.027 A 
ATOM     20  C   UNL d   1      -1.145  -2.050  -5.511  0.00  0.00     0.048 A 
ATOM     21  C   UNL d   1      -0.895  -2.823  -6.625  0.00  0.00     0.105 A 
ATOM     22  O   UNL d   1      -0.953  -4.181  -6.675  0.00  0.00    -0.323 OA
ATOM     23  C   UNL d   1      -0.556  -2.265  -7.834  0.00  0.00     0.105 A 
ATOM     24  C   UNL d   1      -0.607  -4.414  -8.056  0.00  0.00     0.352 A 
ATOM     25  O   UNL d   1      -0.360  -3.202  -8.799  0.00  0.00    -0.323 OA
ATOM     26  C   UNL d   1      -0.443  -0.901  -7.996  0.00  0.00     0.040 A 
ATOM     27  C   UNL d   1      -0.690  -0.089  -6.883  0.00  0.00     0.012 A 
ENDBRANCH  18  19
ENDBRANCH   4  18
TORSDOF 3
