REMARK  5 active torsions:
REMARK  status: ('A' for Active; 'I' for Inactive)
REMARK    1  A    between atoms: C_16  and  C_1 
REMARK    2  A    between atoms: C_2  and  N_13 
REMARK    3  A    between atoms: N_3  and  C_2 
REMARK    4  A    between atoms: C_4  and  N_3 
REMARK    5  A    between atoms: N_13  and  N_7 
ROOT
ATOM      1  N   UNL d   1      -1.349   4.125  -0.868  0.00  0.00    -0.277 N 
ATOM      2  H   UNL d   1      -1.629   3.381  -1.493  0.00  0.00     0.189 HD
ENDROOT
BRANCH   1   3
ATOM      3  C   UNL d   1      -2.295   4.739  -0.079  0.00  0.00     0.186 C 
ATOM      4  S   UNL d   1      -2.128   6.211   0.702  0.00  0.00    -0.040 SA
BRANCH   3   5
ATOM      5  N   UNL d   1      -3.471   4.073   0.101  0.00  0.00    -0.361 N 
ATOM      6  H   UNL d   1      -4.138   4.597   0.657  0.00  0.00     0.162 HD
BRANCH   5   7
ATOM      7  C   UNL d   1      -3.743   2.657  -0.084  0.00  0.00     0.092 C 
ATOM      8  C   UNL d   1      -4.774   2.094   0.937  0.00  0.00     0.031 C 
ATOM      9  C   UNL d   1      -6.090   2.836   0.805  0.00  0.00    -0.024 C 
ATOM     10  C   UNL d   1      -5.173   0.795   0.229  0.00  0.00     0.019 C 
ATOM     11  C   UNL d   1      -6.621   2.491  -0.377  0.00  0.00    -0.026 C 
ATOM     12  C   UNL d   1      -5.665   1.521  -1.029  0.00  0.00     0.010 C 
ATOM     13  C   UNL d   1      -4.403   2.311  -1.452  0.00  0.00     0.034 C 
ENDBRANCH   5   7
ENDBRANCH   3   5
ENDBRANCH   1   3
BRANCH   1  14
ATOM     14  N   UNL d   1      -0.090   4.634  -0.956  0.00  0.00    -0.309 N 
ATOM     15  C   UNL d   1       0.715   4.105  -1.818  0.00  0.00     0.122 C 
ATOM     16  HN  UNL d   1       0.209   5.407  -0.362  1.00  0.00     0.186 HD
BRANCH  15  17
ATOM     17  C   UNL d   1       2.094   4.618  -1.941  0.00  0.00     0.024 A 
ATOM     18  C   UNL d   1       2.869   4.913  -0.807  0.00  0.00     0.047 A 
ATOM     19 CL   UNL d   1       2.405   4.482   0.802  0.00  0.00    -0.083 Cl
ATOM     20  C   UNL d   1       4.125   5.519  -0.950  0.00  0.00     0.025 A 
ATOM     21  C   UNL d   1       4.624   5.811  -2.217  0.00  0.00     0.003 A 
ATOM     22  C   UNL d   1       3.885   5.471  -3.346  0.00  0.00     0.025 A 
ATOM     23  C   UNL d   1       2.626   4.871  -3.214  0.00  0.00     0.047 A 
ATOM     24 CL   UNL d   1       1.772   4.494  -4.670  0.00  0.00    -0.083 Cl
ENDBRANCH  15  17
ENDBRANCH   1  14
TORSDOF 5
