REMARK  4 active torsions:
REMARK  status: ('A' for Active; 'I' for Inactive)
REMARK    1  A    between atoms: C_6  and  C_2 
REMARK    2  A    between atoms: C_21  and  C_11 
REMARK    3  A    between atoms: C_20  and  C_17 
REMARK    4  A    between atoms: C_18  and  C_19 
ROOT
ATOM      1  C   UNL d   1       0.283   0.484  -0.008  0.00  0.00     0.172 A 
ATOM      2  C   UNL d   1      -2.163   0.336  -0.021  0.00  0.00     0.085 A 
ATOM      3  N   UNL d   1      -0.208  -0.787  -0.013  0.00  0.00    -0.235 N 
ATOM      4  N   UNL d   1       1.585   0.508   0.021  0.00  0.00    -0.319 N 
ATOM      5  HN  UNL d   1       2.216   1.310   0.031  1.00  0.00     0.169 HD
ATOM      6  N   UNL d   1       0.809  -1.661   0.002  0.00  0.00    -0.276 N 
ATOM      7  HN  UNL d   1       0.778  -2.680  -0.008  1.00  0.00     0.189 HD
ATOM      8  C   UNL d   1      -1.591  -0.889  -0.020  0.00  0.00     0.054 A 
ATOM      9  S   UNL d   1      -0.980   1.664  -0.017  0.00  0.00    -0.046 SA
ATOM     10  C   UNL d   1       1.885  -0.847   0.032  0.00  0.00     0.132 A 
ATOM     11  C   UNL d   1      -2.241  -2.230  -0.022  0.00  0.00     0.072 C 
ENDROOT
BRANCH   2  12
ATOM     12  C   UNL d   1      -3.566   0.576  -0.025  0.00  0.00     0.183 A 
ATOM     13  O   UNL d   1      -4.130   1.845  -0.072  0.00  0.00    -0.272 OA
ATOM     14  C   UNL d   1      -5.474   1.592  -0.072  0.00  0.00     0.174 A 
ATOM     15  N   UNL d   1      -5.741   0.307  -0.020  0.00  0.00    -0.277 N 
ATOM     16  N   UNL d   1      -4.529  -0.338   0.011  0.00  0.00    -0.277 N 
ATOM     17  HN  UNL d   1      -6.664  -0.126  -0.006  1.00  0.00     0.189 HD
ATOM     18  HN  UNL d   1      -4.391  -1.348   0.053  1.00  0.00     0.189 HD
BRANCH  14  19
ATOM     19  C   UNL d   1      -6.382   2.730  -0.142  0.00  0.00     0.017 A 
ATOM     20  C   UNL d   1      -7.770   2.509  -0.185  0.00  0.00     0.032 A 
ATOM     21  C   UNL d   1      -8.679   3.578  -0.268  0.00  0.00     0.048 A 
ATOM     22  C   UNL d   1      -8.180   4.888  -0.305  0.00  0.00     0.016 A 
ATOM     23  C   UNL d   1      -6.806   5.122  -0.260  0.00  0.00     0.002 A 
ATOM     24  C   UNL d   1      -5.914   4.051  -0.179  0.00  0.00     0.016 A 
BRANCH  21  25
ATOM     25  C   UNL d   1     -10.169   3.340  -0.323  0.00  0.00     0.417 C 
ATOM     26  F   UNL d   1     -10.515   2.024  -0.276  0.00  0.00    -0.166 F 
ATOM     27  F   UNL d   1     -10.828   3.937   0.709  0.00  0.00    -0.166 F 
ATOM     28  F   UNL d   1     -10.731   3.833  -1.461  0.00  0.00    -0.166 F 
ENDBRANCH  21  25
ENDBRANCH  14  19
ENDBRANCH   2  12
BRANCH  10  29
ATOM     29  C   UNL d   1       3.256  -1.351   0.104  0.00  0.00     0.009 A 
ATOM     30  C   UNL d   1       4.345  -0.469   0.157  0.00  0.00     0.017 A 
ATOM     31  C   UNL d   1       5.652  -0.960   0.262  0.00  0.00     0.025 A 
ATOM     32  C   UNL d   1       5.877  -2.334   0.312  0.00  0.00     0.034 A 
ATOM     33  C   UNL d   1       4.808  -3.224   0.248  0.00  0.00     0.025 A 
ATOM     34 CL   UNL d   1       7.481  -2.937   0.460  0.00  0.00    -0.084 Cl
ATOM     35  C   UNL d   1       3.504  -2.733   0.143  0.00  0.00     0.017 A 
ENDBRANCH  10  29
TORSDOF 4
