REMARK  6 active torsions:
REMARK  status: ('A' for Active; 'I' for Inactive)
REMARK    1  A    between atoms: N_2  and  C_1 
REMARK    2  A    between atoms: N_4  and  C_1 
REMARK    3  A    between atoms: C_3  and  N_2 
REMARK    4  A    between atoms: C_10  and  N_4 
REMARK    5  A    between atoms: C_16  and  N_5 
REMARK    6  A    between atoms: C_20  and  C_16 
ROOT
ATOM      1  C   UNL d   1       0.987  -0.167  -0.378  0.00  0.00     0.172 C 
ATOM      2  S   UNL d   1       0.420   1.347  -0.814  0.00  0.00    -0.041 SA
ENDROOT
BRANCH   1   3
ATOM      3  N   UNL d   1       2.280  -0.635  -0.589  0.00  0.00    -0.333 N 
ATOM      4  H   UNL d   1       2.297  -1.563  -0.989  0.00  0.00     0.168 HD
BRANCH   3   5
ATOM      5  C   UNL d   1       3.461   0.133  -0.711  0.00  0.00     0.040 A 
ATOM      6  C   UNL d   1       4.470  -0.215  -1.629  0.00  0.00    -0.034 A 
ATOM      7  C   UNL d   1       5.670   0.524  -1.635  0.00  0.00     0.028 A 
ATOM      8  C   UNL d   1       4.341  -1.312  -2.652  0.00  0.00     0.050 C 
ATOM      9  C   UNL d   1       5.862   1.582  -0.748  0.00  0.00     0.011 A 
ATOM     10  C   UNL d   1       4.869   1.924   0.156  0.00  0.00     0.021 A 
ATOM     11 BR   UNL d   1       7.485   2.551  -0.777  0.00  0.00    -0.051 Br
ATOM     12  C   UNL d   1       3.676   1.200   0.175  0.00  0.00     0.031 A 
ENDBRANCH   3   5
ENDBRANCH   1   3
BRANCH   1  13
ATOM     13  N   UNL d   1       0.201  -1.184   0.132  0.00  0.00    -0.361 N 
ATOM     14  H   UNL d   1       0.690  -1.898   0.662  0.00  0.00     0.162 HD
BRANCH  13  15
ATOM     15  C   UNL d   1      -1.261  -1.198   0.317  0.00  0.00     0.112 C 
ATOM     16  C   UNL d   1      -1.750  -2.664   0.396  0.00  0.00     0.297 C 
ATOM     17  N   UNL d   1      -1.284  -3.334   1.632  0.00  0.00     0.090 N 
ATOM     18  C   UNL d   1      -1.813  -2.626   2.813  0.00  0.00     0.272 C 
ATOM     19  C   UNL d   1      -1.353  -1.170   2.849  0.00  0.00     0.032 C 
ATOM     20  C   UNL d   1      -1.716  -0.431   1.565  0.00  0.00     0.028 C 
BRANCH  17  21
ATOM     21  C   UNL d   1      -1.701  -4.748   1.681  0.00  0.00     0.272 C 
BRANCH  21  22
ATOM     22  C   UNL d   1      -1.056  -5.643   0.613  0.00  0.00     0.026 C 
ATOM     23  C   UNL d   1       0.465  -5.637   0.663  0.00  0.00     0.007 C 
ENDBRANCH  21  22
ENDBRANCH  17  21
ENDBRANCH  13  15
ENDBRANCH   1  13
TORSDOF 6
