REMARK  3 active torsions:
REMARK  status: ('A' for Active; 'I' for Inactive)
REMARK    1  A    between atoms: N_2  and  C_1 
REMARK    2  A    between atoms: N_3  and  C_1 
REMARK    3  A    between atoms: C_4  and  N_2 
ROOT
ATOM      1  N   UNL d   1       0.580   1.276   0.371  0.00  0.00    -0.362 N 
ATOM      2  H   UNL d   1      -0.399   1.253   0.116  0.00  0.00     0.162 HD
ENDROOT
BRANCH   1   3
ATOM      3  C   UNL d   1       1.235   0.093   0.099  0.00  0.00     0.170 C 
ATOM      4  S   UNL d   1       2.376  -0.565   1.139  0.00  0.00    -0.041 SA
BRANCH   3   5
ATOM      5  N   UNL d   1       0.861  -0.465  -1.132  0.00  0.00    -0.354 N 
ATOM      6  C   UNL d   1       1.440  -1.715  -1.668  0.00  0.00     0.151 C 
ATOM      7  C   UNL d   1       2.342  -1.410  -2.872  0.00  0.00     0.187 C 
ATOM      8  O   UNL d   1       1.610  -0.710  -3.894  0.00  0.00    -0.388 OA
ATOM      9  C   UNL d   1       1.091   0.528  -3.385  0.00  0.00     0.187 C 
ATOM     10  C   UNL d   1       0.158   0.288  -2.190  0.00  0.00     0.151 C 
ENDBRANCH   3   5
ENDBRANCH   1   3
BRANCH   1  11
ATOM     11  C   UNL d   1       0.889   2.250   1.418  0.00  0.00     0.092 C 
ATOM     12  C   UNL d   1       0.390   3.685   1.068  0.00  0.00     0.031 C 
ATOM     13  C   UNL d   1      -1.096   3.645   0.770  0.00  0.00    -0.024 C 
ATOM     14  C   UNL d   1       0.321   4.311   2.464  0.00  0.00     0.019 C 
ATOM     15  C   UNL d   1      -1.715   3.357   1.927  0.00  0.00    -0.026 C 
ATOM     16  C   UNL d   1      -0.653   3.253   2.995  0.00  0.00     0.010 C 
ATOM     17  C   UNL d   1       0.163   1.962   2.765  0.00  0.00     0.034 C 
ENDBRANCH   1  11
TORSDOF 3
