REMARK  4 active torsions:
REMARK  status: ('A' for Active; 'I' for Inactive)
REMARK    1  A    between atoms: C_2  and  C_1 
REMARK    2  A    between atoms: N_3  and  C_2 
REMARK    3  A    between atoms: C_6  and  C_2 
REMARK    4  A    between atoms: O_10  and  C_5 
ROOT
ATOM      1  C   UNL d   1       1.360  -2.462  -0.230  0.00  0.00     0.292 C 
ENDROOT
BRANCH   1   2
ATOM      2  C   UNL d   1       1.074  -0.952  -0.001  0.00  0.00     0.024 A 
ATOM      3  C   UNL d   1      -0.162  -0.543   0.641  0.00  0.00    -0.014 A 
ATOM      4  C   UNL d   1      -0.540   0.828   0.598  0.00  0.00    -0.025 A 
ATOM      5  C   UNL d   1      -1.084  -1.414   1.290  0.00  0.00     0.013 A 
ATOM      6  C   UNL d   1      -1.794   1.248   1.071  0.00  0.00     0.012 A 
ATOM      7  C   UNL d   1       0.322   1.779   0.052  0.00  0.00     0.015 A 
ATOM      8  C   UNL d   1      -2.694   0.347   1.629  0.00  0.00     0.001 A 
ATOM      9  C   UNL d   1      -2.330  -0.981   1.760  0.00  0.00     0.001 A 
ATOM     10  C   UNL d   1       1.542   1.402  -0.490  0.00  0.00     0.038 A 
ATOM     11  C   UNL d   1       1.902   0.060  -0.542  0.00  0.00     0.075 A 
BRANCH  11  12
ATOM     12  O   UNL d   1       3.086  -0.146  -1.196  0.00  0.00    -0.360 OA
ATOM     13  H   UNL d   1       3.351  -1.079  -1.153  0.00  0.00     0.217 HD
ENDBRANCH  11  12
ENDBRANCH   1   2
BRANCH   1  14
ATOM     14  N   UNL d   1       0.823  -2.966  -1.541  0.00  0.00     0.102 N 
ATOM     15  C   UNL d   1      -0.645  -2.861  -1.634  0.00  0.00     0.273 C 
ATOM     16  C   UNL d   1      -1.206  -3.511  -2.901  0.00  0.00     0.030 C 
ATOM     17  C   UNL d   1      -0.523  -2.976  -4.151  0.00  0.00     0.003 C 
ATOM     18  C   UNL d   1       0.987  -3.089  -4.002  0.00  0.00     0.030 C 
ATOM     19  C   UNL d   1       1.453  -2.375  -2.732  0.00  0.00     0.273 C 
ENDBRANCH   1  14
BRANCH   1  20
ATOM     20  C   UNL d   1       2.811  -2.934   0.055  0.00  0.00    -0.021 A 
ATOM     21  C   UNL d   1       3.609  -2.308   1.031  0.00  0.00     0.010 A 
ATOM     22  C   UNL d   1       4.955  -2.654   1.190  0.00  0.00     0.001 A 
ATOM     23  C   UNL d   1       5.515  -3.667   0.417  0.00  0.00     0.000 A 
ATOM     24  C   UNL d   1       4.718  -4.367  -0.482  0.00  0.00     0.001 A 
ATOM     25  C   UNL d   1       3.375  -4.019  -0.643  0.00  0.00     0.010 A 
ENDBRANCH   1  20
TORSDOF 4
