REMARK  5 active torsions:
REMARK  status: ('A' for Active; 'I' for Inactive)
REMARK    1  A    between atoms: C_6  and  C_1 
REMARK    2  A    between atoms: C_10  and  N_2 
REMARK       I    between atoms: N_8  and  C_6 
REMARK    3  A    between atoms: C_14  and  N_9 
REMARK    4  A    between atoms: C_23  and  C_14 
REMARK    5  A    between atoms: O_24  and  C_20 
ROOT
ATOM      1  C   UNL d   1      -0.768   1.492  -0.825  0.00  0.00     0.073 C 
ATOM      2  N   UNL d   1      -1.207  -0.398  -1.927  0.00  0.00    -0.260 N 
ATOM      3  C   UNL d   1      -1.149   0.161  -0.655  0.00  0.00     0.048 C 
ATOM      4  N   UNL d   1      -1.060   0.548  -2.888  0.00  0.00    -0.304 N 
ATOM      5  HN  UNL d   1      -1.163   0.433  -3.896  1.00  0.00     0.186 HD
ATOM      6  C   UNL d   1      -0.753   1.655  -2.223  0.00  0.00     0.126 C 
ATOM      7  C   UNL d   1      -1.520  -0.555   0.599  0.00  0.00     0.071 C 
ENDROOT
BRANCH   1   8
ATOM      8  C   UNL d   1      -0.587   2.495   0.226  0.00  0.00     0.257 C 
ATOM      9  N   UNL d   1       0.381   3.489   0.046  0.00  0.00    -0.344 N 
ATOM     10  C   UNL d   1       1.384   3.533  -1.020  0.00  0.00     0.156 C 
ATOM     11  C   UNL d   1       0.345   4.669   0.921  0.00  0.00     0.156 C 
ATOM     12  C   UNL d   1       2.760   4.001  -0.509  0.00  0.00     0.292 C 
ATOM     13  N   UNL d   1       2.738   5.266   0.251  0.00  0.00     0.095 N 
ATOM     14  C   UNL d   1       1.750   5.142   1.346  0.00  0.00     0.292 C 
ATOM     15  O   UNL d   1      -1.284   2.463   1.233  0.00  0.00    -0.267 OA
BRANCH  13  16
ATOM     16  C   UNL d   1       2.491   6.412  -0.640  0.00  0.00     0.311 C 
BRANCH  16  17
ATOM     17  C   UNL d   1       2.614   7.753   0.048  0.00  0.00    -0.030 A 
ATOM     18  C   UNL d   1       3.795   8.113   0.714  0.00  0.00     0.009 A 
ATOM     19  C   UNL d   1       3.891   9.340   1.372  0.00  0.00     0.001 A 
ATOM     20  C   UNL d   1       2.812  10.223   1.362  0.00  0.00     0.000 A 
ATOM     21  C   UNL d   1       1.642   9.886   0.684  0.00  0.00     0.001 A 
ATOM     22  C   UNL d   1       1.543   8.659   0.028  0.00  0.00     0.009 A 
ENDBRANCH  16  17
ENDBRANCH  13  16
ENDBRANCH   1   8
BRANCH   2  23
ATOM     23  C   UNL d   1      -1.356  -1.756  -2.326  0.00  0.00     0.056 A 
ATOM     24  C   UNL d   1      -1.934  -2.040  -3.574  0.00  0.00     0.034 A 
ATOM     25  C   UNL d   1      -2.054  -3.362  -4.018  0.00  0.00     0.039 A 
ATOM     26  C   UNL d   1      -1.569  -4.405  -3.229  0.00  0.00     0.068 A 
ATOM     27  C   UNL d   1      -0.972  -4.119  -2.000  0.00  0.00     0.039 A 
ATOM     28  C   UNL d   1      -0.874  -2.803  -1.539  0.00  0.00     0.034 A 
BRANCH  26  29
ATOM     29  O   UNL d   1      -1.573  -5.729  -3.569  0.00  0.00    -0.356 OA
ATOM     30  C   UNL d   1      -2.558  -6.132  -4.512  0.00  0.00     0.210 C 
ENDBRANCH  26  29
ENDBRANCH   2  23
TORSDOF 5
