REMARK  9 active torsions:
REMARK  status: ('A' for Active; 'I' for Inactive)
REMARK    1  A    between atoms: N_7  and  C_1 
REMARK    2  A    between atoms: C_13  and  N_4 
REMARK    3  A    between atoms: S_5  and  N_7 
REMARK    4  A    between atoms: C_8  and  S_5 
REMARK       I    between atoms: C_12  and  N_15 
REMARK    5  A    between atoms: C_23  and  C_12 
REMARK    6  A    between atoms: C_14  and  C_24 
REMARK    7  A    between atoms: O_25  and  C_14 
REMARK    8  A    between atoms: N_15  and  C_21 
REMARK    9  A    between atoms: C_24  and  C_23 
ROOT
ATOM      1  S   UNL d   1       0.649  -3.821  -0.092  0.00  0.00     0.263 S 
ATOM      2  O   UNL d   1       1.363  -3.815   1.164  0.00  0.00    -0.200 OA
ATOM      3  O   UNL d   1      -0.144  -4.977  -0.466  0.00  0.00    -0.200 OA
ENDROOT
BRANCH   1   4
ATOM      4  N   UNL d   1      -0.419  -2.541  -0.160  0.00  0.00    -0.274 N 
ATOM      5  H   UNL d   1      -1.372  -2.800  -0.397  0.00  0.00     0.179 HD
BRANCH   4   6
ATOM      6  C   UNL d   1      -0.109  -1.284   0.378  0.00  0.00     0.130 C 
ATOM      7  C   UNL d   1       1.169  -0.719   0.890  0.00  0.00     0.275 C 
ATOM      8  N   UNL d   1       0.846   0.559   1.404  0.00  0.00    -0.121 NA
ATOM      9  O   UNL d   1       2.273  -1.236   0.788  0.00  0.00    -0.270 OA
ATOM     10  N   UNL d   1      -0.434   0.885   0.874  0.00  0.00    -0.305 N 
ATOM     11  C   UNL d   1      -1.019  -0.293   0.419  0.00  0.00     0.052 C 
ATOM     12  C   UNL d   1      -1.059   2.130   1.287  0.00  0.00     0.172 C 
ATOM     13  C   UNL d   1      -2.461  -0.410   0.042  0.00  0.00     0.072 C 
BRANCH   8  14
ATOM     14  C   UNL d   1       1.867   1.529   1.447  0.00  0.00     0.039 A 
ATOM     15  C   UNL d   1       2.182   2.325   0.344  0.00  0.00     0.026 A 
ATOM     16  C   UNL d   1       3.264   3.203   0.410  0.00  0.00     0.002 A 
ATOM     17  C   UNL d   1       4.018   3.300   1.582  0.00  0.00     0.000 A 
ATOM     18  C   UNL d   1       3.695   2.517   2.691  0.00  0.00     0.002 A 
ATOM     19  C   UNL d   1       2.627   1.625   2.620  0.00  0.00     0.026 A 
ENDBRANCH   8  14
ENDBRANCH   4   6
ENDBRANCH   1   4
BRANCH   1  20
ATOM     20  C   UNL d   1       1.757  -3.533  -1.453  0.00  0.00     0.080 A 
ATOM     21  C   UNL d   1       3.127  -3.381  -1.247  0.00  0.00     0.027 A 
ATOM     22  C   UNL d   1       3.984  -3.258  -2.349  0.00  0.00     0.031 A 
ATOM     23  C   UNL d   1       3.480  -3.284  -3.659  0.00  0.00     0.034 A 
ATOM     24  C   UNL d   1       2.104  -3.436  -3.850  0.00  0.00     0.031 A 
ATOM     25  C   UNL d   1       1.245  -3.567  -2.753  0.00  0.00     0.027 A 
BRANCH  23  26
ATOM     26  N   UNL d   1       4.407  -3.175  -4.720  0.00  0.00    -0.327 N 
ATOM     27  C   UNL d   1       4.116  -2.946  -6.047  0.00  0.00     0.222 C 
ATOM     28  O   UNL d   1       3.003  -2.742  -6.531  0.00  0.00    -0.273 OA
ATOM     29  H   UNL d   1       5.383  -3.140  -4.445  0.00  0.00     0.169 HD
BRANCH  27  30
ATOM     30  C   UNL d   1       5.343  -2.847  -6.936  0.00  0.00     0.113 C 
BRANCH  30  31
ATOM     31  C   UNL d   1       5.174  -1.675  -7.895  0.00  0.00     0.119 C 
BRANCH  31  32
ATOM     32  C   UNL d   1       5.071  -0.385  -7.122  0.00  0.00     0.139 C 
ATOM     33  O   UNL d   1       6.037   0.301  -6.826  0.00  0.00    -0.650 OA
BRANCH  32  34
ATOM     34  O   UNL d   1       3.814  -0.087  -6.724  0.00  0.00    -0.776 OA
ATOM     35  H   UNL d   1       3.153  -0.795  -6.911  0.00  0.00     0.167 HD
ENDBRANCH  32  34
ENDBRANCH  31  32
ENDBRANCH  30  31
ENDBRANCH  27  30
ENDBRANCH  23  26
ENDBRANCH   1  20
TORSDOF 9
