REMARK  2 active torsions:
REMARK  status: ('A' for Active; 'I' for Inactive)
REMARK    1  A    between atoms: C_11  and  C_9 
REMARK    2  A    between atoms: O_16  and  C_10 
ROOT
ATOM      1  C   UNL d   1       0.207  -0.585   0.000  0.00  0.00     0.137 A 
ATOM      2  C   UNL d   1       0.225   0.807   0.003  0.00  0.00     0.066 A 
ATOM      3  N   UNL d   1       1.516  -0.979   0.000  0.00  0.00    -0.280 N 
ATOM      4  N   UNL d   1       2.390   0.046   0.001  0.00  0.00    -0.301 N 
ATOM      5  HN  UNL d   1       3.410   0.002   0.003  1.00  0.00     0.187 HD
ATOM      6  N   UNL d   1      -0.872  -1.394  -0.002  0.00  0.00    -0.337 N 
ATOM      7  HN  UNL d   1      -0.800  -2.412  -0.002  1.00  0.00     0.167 HD
ATOM      8  C   UNL d   1       1.612   1.139  -0.000  0.00  0.00     0.039 A 
ATOM      9  C   UNL d   1      -2.066  -0.738  -0.003  0.00  0.00     0.120 A 
ATOM     10  C   UNL d   1      -1.030   1.437   0.005  0.00  0.00     0.083 A 
ATOM     11  C   UNL d   1      -2.181   0.653  -0.002  0.00  0.00     0.071 A 
ATOM     12  C   UNL d   1       2.014  -2.332  -0.001  0.00  0.00     0.179 C 
ATOM     13  C   UNL d   1       2.283   2.463  -0.008  0.00  0.00     0.071 C 
ENDROOT
BRANCH   9  14
ATOM     14  C   UNL d   1      -3.354  -1.555  -0.002  0.00  0.00     0.432 C 
ATOM     15  F   UNL d   1      -3.163  -2.905   0.011  0.00  0.00    -0.165 F 
ATOM     16  F   UNL d   1      -4.142  -1.283   1.080  0.00  0.00    -0.165 F 
ATOM     17  F   UNL d   1      -4.134  -1.301  -1.093  0.00  0.00    -0.165 F 
ENDBRANCH   9  14
BRANCH  10  18
ATOM     18  O   UNL d   1      -1.228   2.798   0.016  0.00  0.00    -0.360 OA
ATOM     19  H   UNL d   1      -0.370   3.241   0.087  0.00  0.00     0.217 HD
ENDBRANCH  10  18
TORSDOF 2
