REMARK  5 active torsions:
REMARK  status: ('A' for Active; 'I' for Inactive)
REMARK    1  A    between atoms: C_11  and  N_1 
REMARK    2  A    between atoms: C_8  and  C_2 
REMARK    3  A    between atoms: C_12  and  C_11 
REMARK    4  A    between atoms: C_18  and  C_12 
REMARK    5  A    between atoms: O_13  and  C_18 
ROOT
ATOM      1  N   UNL d   1       0.831  -0.683  -0.122  0.00  0.00    -0.307 N 
ATOM      2  C   UNL d   1       0.910   0.700  -0.097  0.00  0.00     0.135 A 
ATOM      3  N   UNL d   1      -0.248   1.298  -0.050  0.00  0.00    -0.282 N 
ATOM      4  HN  UNL d   1      -0.430   2.301  -0.021  1.00  0.00     0.188 HD
ATOM      5  C   UNL d   1      -0.526  -0.940  -0.076  0.00  0.00     0.194 A 
ATOM      6  N   UNL d   1      -1.154   0.293  -0.047  0.00  0.00    -0.274 N 
ATOM      7  S   UNL d   1      -1.415  -2.338  -0.052  0.00  0.00    -0.039 SA
ATOM      8  H   UNL d   1      -2.151   0.459   0.015  0.00  0.00     0.189 HD
ENDROOT
BRANCH   2   9
ATOM      9  C   UNL d   1       2.166   1.500  -0.082  0.00  0.00     0.012 A 
ATOM     10  C   UNL d   1       3.331   1.144  -0.755  0.00  0.00     0.032 A 
ATOM     11  C   UNL d   1       4.432   1.983  -0.664  0.00  0.00     0.088 A 
ATOM     12  N   UNL d   1       4.431   3.154   0.001  0.00  0.00    -0.375 N 
ATOM     13  C   UNL d   1       3.274   3.513   0.596  0.00  0.00     0.088 A 
ATOM     14  HN  UNL d   1       5.264   3.741   0.052  1.00  0.00     0.164 HD
ATOM     15  C   UNL d   1       2.133   2.729   0.587  0.00  0.00     0.032 A 
ENDBRANCH   2   9
BRANCH   1  16
ATOM     16  C   UNL d   1       1.971  -1.605  -0.013  0.00  0.00     0.135 C 
BRANCH  16  17
ATOM     17  C   UNL d   1       1.754  -3.117  -0.023  0.00  0.00     0.046 C 
BRANCH  17  18
ATOM     18  C   UNL d   1       3.089  -3.859   0.027  0.00  0.00     0.168 C 
BRANCH  18  19
ATOM     19  O   UNL d   1       3.754  -3.523   1.243  0.00  0.00    -0.396 OA
ATOM     20  C   UNL d   1       4.976  -4.233   1.395  0.00  0.00     0.201 C 
ENDBRANCH  18  19
ENDBRANCH  17  18
ENDBRANCH  16  17
ENDBRANCH   1  16
TORSDOF 5
