REMARK  7 active torsions:
REMARK  status: ('A' for Active; 'I' for Inactive)
REMARK    1  A    between atoms: C_9  and  C_1 
REMARK    2  A    between atoms: S_11  and  C_4 
REMARK    3  A    between atoms: C_13  and  C_5 
REMARK    4  A    between atoms: C_10  and  C_12 
REMARK    5  A    between atoms: C_20  and  S_11 
REMARK    6  A    between atoms: O_23  and  C_14 
REMARK    7  A    between atoms: C_21  and  C_20 
ROOT
ATOM      1  C   UNL d   1       0.884   1.120   0.092  0.00  0.00     0.119 A 
ATOM      2  N   UNL d   1       1.581  -0.008   0.220  0.00  0.00    -0.335 N 
ATOM      3  HN  UNL d   1       2.592   0.016   0.354  1.00  0.00     0.168 HD
ATOM      4  C   UNL d   1       0.917  -1.190   0.168  0.00  0.00     0.087 A 
ATOM      5  C   UNL d   1      -0.463  -1.270  -0.004  0.00  0.00     0.065 A 
ATOM      6  N   UNL d   1      -0.456   1.142   0.070  0.00  0.00    -0.344 N 
ATOM      7  HN  UNL d   1      -0.964   2.027   0.084  1.00  0.00     0.167 HD
ATOM      8  C   UNL d   1      -1.119  -0.039   0.031  0.00  0.00     0.023 A 
ATOM      9  C   UNL d   1      -2.612   0.129   0.013  0.00  0.00     0.069 C 
ENDROOT
BRANCH   4  10
ATOM     10  S   UNL d   1       2.045  -2.574   0.301  0.00  0.00    -0.107 SA
BRANCH  10  11
ATOM     11  C   UNL d   1       2.952  -2.048   1.793  0.00  0.00     0.119 C 
BRANCH  11  12
ATOM     12  C   UNL d   1       4.060  -2.954   2.299  0.00  0.00    -0.048 A 
ATOM     13  C   UNL d   1       4.635  -2.639   3.548  0.00  0.00     0.024 A 
ATOM     14  C   UNL d   1       5.712  -3.373   4.074  0.00  0.00     0.048 A 
ATOM     15  C   UNL d   1       6.217  -4.450   3.336  0.00  0.00     0.016 A 
ATOM     16  C   UNL d   1       5.660  -4.777   2.101  0.00  0.00     0.001 A 
ATOM     17  C   UNL d   1       4.596  -4.032   1.584  0.00  0.00     0.008 A 
BRANCH  14  18
ATOM     18  C   UNL d   1       6.337  -3.009   5.399  0.00  0.00     0.417 C 
ATOM     19  F   UNL d   1       5.744  -1.944   6.008  0.00  0.00    -0.166 F 
ATOM     20  F   UNL d   1       6.285  -4.029   6.300  0.00  0.00    -0.166 F 
ATOM     21  F   UNL d   1       7.654  -2.682   5.281  0.00  0.00    -0.166 F 
ENDBRANCH  14  18
ENDBRANCH  11  12
ENDBRANCH  10  11
ENDBRANCH   4  10
BRANCH   5  22
ATOM     22  C   UNL d   1      -1.254  -2.511  -0.283  0.00  0.00     0.160 C 
ATOM     23  O   UNL d   1      -2.285  -2.420  -0.949  0.00  0.00    -0.293 OA
ATOM     24  C   UNL d   1      -0.809  -3.866   0.190  0.00  0.00     0.097 C 
ENDBRANCH   5  22
BRANCH   1  25
ATOM     25  C   UNL d   1       1.577   2.419  -0.030  0.00  0.00     0.041 A 
ATOM     26  C   UNL d   1       2.860   2.575  -0.608  0.00  0.00     0.082 A 
ATOM     27  C   UNL d   1       3.413   3.861  -0.759  0.00  0.00     0.038 A 
ATOM     28  C   UNL d   1       2.722   4.996  -0.331  0.00  0.00     0.003 A 
ATOM     29  C   UNL d   1       1.474   4.861   0.255  0.00  0.00     0.001 A 
ATOM     30  C   UNL d   1       0.912   3.591   0.400  0.00  0.00     0.018 A 
BRANCH  26  31
ATOM     31  O   UNL d   1       3.492   1.453  -1.082  0.00  0.00    -0.355 OA
ATOM     32  C   UNL d   1       4.910   1.507  -1.184  0.00  0.00     0.210 C 
ENDBRANCH  26  31
ENDBRANCH   1  25
TORSDOF 7
