REMARK  8 active torsions:
REMARK  status: ('A' for Active; 'I' for Inactive)
REMARK    1  A    between atoms: C_7  and  C_1 
REMARK    2  A    between atoms: N_5  and  C_2 
REMARK       I    between atoms: C_3  and  N_4 
REMARK    3  A    between atoms: C_6  and  C_3 
REMARK    4  A    between atoms: N_4  and  C_10 
REMARK    5  A    between atoms: C_11  and  N_5 
REMARK    6  A    between atoms: O_19  and  C_7 
REMARK    7  A    between atoms: C_9  and  C_8 
REMARK    8  A    between atoms: O_18  and  C_9 
ROOT
ATOM      1  C   UNL d   1       3.561  -0.252   0.548  0.00  0.00     0.061 C 
ATOM      2  C   UNL d   1       3.060  -0.544  -0.751  0.00  0.00     0.059 C 
ATOM      3  C   UNL d   1       4.892   0.162   0.694  0.00  0.00     0.032 C 
ATOM      4  C   UNL d   1       3.982  -0.704  -1.791  0.00  0.00     0.032 C 
ATOM      5  C   UNL d   1       5.778   0.086  -0.381  0.00  0.00     0.002 C 
ATOM      6  C   UNL d   1       5.336  -0.409  -1.602  0.00  0.00     0.002 C 
ENDROOT
BRANCH   1   7
ATOM      7  N   UNL d   1       2.775  -0.330   1.730  0.00  0.00    -0.321 N 
ATOM      8  C   UNL d   1       1.713  -1.200   1.944  0.00  0.00     0.257 C 
ATOM      9  O   UNL d   1       1.389  -2.122   1.195  0.00  0.00    -0.267 OA
ATOM     10  H   UNL d   1       3.140   0.166   2.530  0.00  0.00     0.169 HD
BRANCH   8  11
ATOM     11  C   UNL d   1       1.003  -1.132   3.253  0.00  0.00     0.049 A 
ATOM     12  C   UNL d   1       0.775   0.013   4.035  0.00  0.00     0.053 A 
ATOM     13  C   UNL d   1       0.126  -0.119   5.282  0.00  0.00     0.019 A 
ATOM     14  C   UNL d   1      -0.331  -1.357   5.736  0.00  0.00     0.001 A 
ATOM     15  C   UNL d   1      -0.158  -2.484   4.947  0.00  0.00     0.001 A 
ATOM     16  C   UNL d   1       0.503  -2.374   3.723  0.00  0.00     0.018 A 
BRANCH  12  17
ATOM     17  C   UNL d   1       1.088   1.383   3.562  0.00  0.00     0.177 C 
ATOM     18  O   UNL d   1       1.216   1.761   2.418  0.00  0.00    -0.646 OA
BRANCH  17  19
ATOM     19  O   UNL d   1       1.250   2.246   4.581  0.00  0.00    -0.773 OA
ATOM     20  H   UNL d   1       1.399   3.106   4.128  0.00  0.00     0.167 HD
ENDBRANCH  17  19
ENDBRANCH  12  17
ENDBRANCH   8  11
ENDBRANCH   1   7
BRANCH   2  21
ATOM     21  N   UNL d   1       1.668  -0.543  -0.947  0.00  0.00    -0.356 N 
ATOM     22  H   UNL d   1       1.207   0.045  -0.241  0.00  0.00     0.166 HD
BRANCH  21  23
ATOM     23  C   UNL d   1       0.789  -1.155  -1.811  0.00  0.00     0.032 C 
ATOM     24  C   UNL d   1      -0.545  -0.932  -1.813  0.00  0.00     0.050 C 
ATOM     25  C   UNL d   1      -1.367  -1.662  -2.818  0.00  0.00     0.121 C 
ATOM     26  S   UNL d   1      -0.170  -2.436  -3.931  0.00  0.00    -0.158 SA
ATOM     27  C   UNL d   1       1.189  -2.281  -2.729  0.00  0.00     0.132 C 
BRANCH  24  28
ATOM     28  C   UNL d   1      -1.226  -0.071  -0.822  0.00  0.00     0.291 C 
ATOM     29  O   UNL d   1      -0.661   0.737  -0.094  0.00  0.00    -0.260 OA
BRANCH  28  30
ATOM     30  O   UNL d   1      -2.544  -0.386  -0.785  0.00  0.00    -0.323 OA
ATOM     31  C   UNL d   1      -3.304   0.230   0.257  0.00  0.00     0.213 C 
ENDBRANCH  28  30
ENDBRANCH  24  28
ENDBRANCH  21  23
ENDBRANCH   2  21
TORSDOF 8
