REMARK  5 active torsions:
REMARK  status: ('A' for Active; 'I' for Inactive)
REMARK    1  A    between atoms: N_2  and  C_1 
REMARK    2  A    between atoms: N_5  and  C_3 
REMARK    3  A    between atoms: C_7  and  C_6 
REMARK    4  A    between atoms: O_14  and  C_7 
REMARK    5  A    between atoms: C_19  and  O_14 
ROOT
ATOM      1  C   UNL d   1       1.399  -0.133  -0.056  0.00  0.00     0.130 A 
ATOM      2  C   UNL d   1       0.615  -1.310  -0.060  0.00  0.00     0.063 A 
ATOM      3  C   UNL d   1       0.850   1.158  -0.024  0.00  0.00     0.056 A 
ATOM      4  C   UNL d   1      -0.533   1.315   0.020  0.00  0.00     0.042 A 
ATOM      5  C   UNL d   1      -0.776  -1.102  -0.072  0.00  0.00     0.033 A 
ATOM      6  C   UNL d   1      -1.348   0.180  -0.032  0.00  0.00     0.020 A 
ENDROOT
BRANCH   2   7
ATOM      7  N   UNL d   1       1.138  -2.592   0.022  0.00  0.00    -0.375 N 
ATOM      8  C   UNL d   1       0.362  -3.696   0.624  0.00  0.00     0.149 C 
ATOM      9  C   UNL d   1       1.335  -4.734   1.210  0.00  0.00     0.187 C 
ATOM     10  O   UNL d   1       2.256  -5.216   0.217  0.00  0.00    -0.388 OA
ATOM     11  C   UNL d   1       3.022  -4.123  -0.323  0.00  0.00     0.187 C 
ATOM     12  C   UNL d   1       2.105  -3.079  -0.984  0.00  0.00     0.149 C 
ENDBRANCH   2   7
BRANCH   1  13
ATOM     13  N   UNL d   1       2.846  -0.194   0.026  0.00  0.00    -0.113 N 
ATOM     14  O   UNL d   1       3.352  -0.704   1.034  0.00  0.00    -0.532 OA
ATOM     15  O   UNL d   1       3.476   0.315  -0.914  0.00  0.00    -0.532 OA
ENDBRANCH   1  13
BRANCH   4  16
ATOM     16  C   UNL d   1      -1.067   2.682   0.246  0.00  0.00     0.293 C 
ATOM     17  O   UNL d   1      -0.358   3.670   0.324  0.00  0.00    -0.259 OA
BRANCH  16  18
ATOM     18  O   UNL d   1      -2.397   2.622   0.496  0.00  0.00    -0.318 OA
BRANCH  18  19
ATOM     19  C   UNL d   1      -2.933   3.733   1.228  0.00  0.00     0.174 C 
ATOM     20  C   UNL d   1      -2.854   3.393   2.706  0.00  0.00     0.034 C 
ENDBRANCH  18  19
ENDBRANCH  16  18
ENDBRANCH   4  16
TORSDOF 5
