REMARK  3 active torsions:
REMARK  status: ('A' for Active; 'I' for Inactive)
REMARK    1  A    between atoms: C_3  and  O_11 
REMARK       I    between atoms: N_7  and  C_3 
REMARK    2  A    between atoms: O_11  and  N_4 
REMARK    3  A    between atoms: C_13  and  N_7 
ROOT
ATOM      1  O   UNL d   1       2.215   3.387  -0.362  0.00  0.00    -0.181 OA
ENDROOT
BRANCH   1   2
ATOM      2  C   UNL d   1       2.204   4.594  -1.003  0.00  0.00     0.387 C 
ATOM      3  N   UNL d   1       2.791   5.632  -0.320  0.00  0.00    -0.301 N 
ATOM      4  H   UNL d   1       2.837   6.461  -0.898  0.00  0.00     0.171 HD
ATOM      5  O   UNL d   1       1.749   4.790  -2.129  0.00  0.00    -0.236 OA
BRANCH   3   6
ATOM      6  C   UNL d   1       3.104   5.783   1.046  0.00  0.00     0.038 A 
ATOM      7  C   UNL d   1       2.900   4.809   2.026  0.00  0.00     0.053 A 
ATOM      8  C   UNL d   1       3.152   5.099   3.369  0.00  0.00     0.036 A 
ATOM      9 CL   UNL d   1       2.862   3.895   4.567  0.00  0.00    -0.084 Cl
ATOM     10  C   UNL d   1       3.612   6.354   3.755  0.00  0.00     0.024 A 
ATOM     11  C   UNL d   1       3.839   7.326   2.785  0.00  0.00     0.004 A 
ATOM     12  C   UNL d   1       3.589   7.039   1.440  0.00  0.00     0.029 A 
ENDBRANCH   3   6
ENDBRANCH   1   2
BRANCH   1  13
ATOM     13  N   UNL d   1       1.046   2.667  -0.662  0.00  0.00    -0.260 N 
ATOM     14  C   UNL d   1       1.073   1.453  -0.208  0.00  0.00     0.045 C 
ATOM     15  C   UNL d   1       2.232   0.768   0.340  0.00  0.00     0.020 A 
ATOM     16  C   UNL d   1      -0.223   0.640  -0.216  0.00  0.00     0.060 C 
ATOM     17  C   UNL d   1       2.038  -0.373   1.090  0.00  0.00     0.065 A 
ATOM     18  C   UNL d   1       3.637   0.936   0.271  0.00  0.00     0.040 A 
ATOM     19  O   UNL d   1       3.212  -0.916   1.487  0.00  0.00    -0.326 OA
ATOM     20  C   UNL d   1       0.761  -1.038   1.442  0.00  0.00     0.066 C 
ATOM     21  C   UNL d   1       4.186  -0.112   0.981  0.00  0.00     0.143 A 
ATOM     22  C   UNL d   1      -0.401  -0.072   1.138  0.00  0.00     0.013 C 
ATOM     23  HN  UNL d   1       0.260   3.058  -1.181  1.00  0.00     0.194 HD
ENDBRANCH   1  13
TORSDOF 3
