REMARK  6 active torsions:
REMARK  status: ('A' for Active; 'I' for Inactive)
REMARK    1  A    between atoms: N_3  and  C_1 
REMARK    2  A    between atoms: N_6  and  C_1 
REMARK    3  A    between atoms: C_2  and  N_3 
REMARK    4  A    between atoms: C_11  and  N_6 
REMARK    5  A    between atoms: C_15  and  C_11 
REMARK    6  A    between atoms: O_14  and  C_15 
ROOT
ATOM      1  N   UNL d   1       0.606  -0.213  -1.051  0.00  0.00    -0.332 N 
ATOM      2  H   UNL d   1       0.165   0.691  -1.102  0.00  0.00     0.168 HD
ENDROOT
BRANCH   1   3
ATOM      3  C   UNL d   1       1.147  -0.698  -2.263  0.00  0.00     0.046 A 
ATOM      4  C   UNL d   1       0.695  -0.113  -3.469  0.00  0.00    -0.034 A 
ATOM      5  C   UNL d   1       1.332  -0.434  -4.682  0.00  0.00     0.015 A 
ATOM      6  C   UNL d   1      -0.461   0.853  -3.565  0.00  0.00     0.050 C 
ATOM      7  C   UNL d   1       2.401  -1.327  -4.725  0.00  0.00    -0.061 A 
ATOM      8  C   UNL d   1       2.824  -1.920  -3.537  0.00  0.00     0.015 A 
ATOM      9  C   UNL d   1       3.091  -1.615  -6.024  0.00  0.00     0.048 C 
ATOM     10  C   UNL d   1       2.231  -1.604  -2.296  0.00  0.00    -0.034 A 
ATOM     11  C   UNL d   1       2.919  -2.201  -1.096  0.00  0.00     0.050 C 
ENDBRANCH   1   3
BRANCH   1  12
ATOM     12  C   UNL d   1       0.257  -0.885   0.085  0.00  0.00     0.172 C 
ATOM     13  S   UNL d   1      -0.372  -2.431   0.163  0.00  0.00    -0.041 SA
BRANCH  12  14
ATOM     14  N   UNL d   1       0.393  -0.181   1.246  0.00  0.00    -0.356 N 
ATOM     15  H   UNL d   1      -0.003  -0.660   2.055  0.00  0.00     0.162 HD
BRANCH  14  16
ATOM     16  C   UNL d   1       0.900   1.183   1.537  0.00  0.00     0.046 C 
ATOM     17  C   UNL d   1       2.193   1.522   0.773  0.00  0.00     0.040 C 
ATOM     18  C   UNL d   1      -0.191   2.218   1.221  0.00  0.00     0.040 C 
BRANCH  16  19
ATOM     19  C   UNL d   1       1.247   1.244   3.053  0.00  0.00     0.194 C 
BRANCH  19  20
ATOM     20  O   UNL d   1       0.111   0.908   3.848  0.00  0.00    -0.398 OA
ATOM     21  H   UNL d   1       0.391   0.962   4.779  0.00  0.00     0.209 HD
ENDBRANCH  19  20
ENDBRANCH  16  19
ENDBRANCH  14  16
ENDBRANCH  12  14
ENDBRANCH   1  12
TORSDOF 6
