REMARK  5 active torsions:
REMARK  status: ('A' for Active; 'I' for Inactive)
REMARK       I    between atoms: N_2  and  C_1 
REMARK    1  A    between atoms: C_3  and  C_1 
REMARK    2  A    between atoms: C_14  and  N_4 
REMARK    3  A    between atoms: C_17  and  C_14 
REMARK    4  A    between atoms: O_15  and  C_17 
REMARK    5  A    between atoms: C_16  and  O_15 
ROOT
ATOM      1  C   UNL d   1       0.924  -0.082   0.036  0.00  0.00     0.277 C 
ATOM      2  N   UNL d   1       0.193   0.859  -0.696  0.00  0.00    -0.343 N 
ATOM      3  N   UNL d   1      -0.392   3.552  -1.733  0.00  0.00     0.093 N 
ATOM      4  O   UNL d   1       2.034  -0.451  -0.351  0.00  0.00    -0.265 OA
ATOM      5  C   UNL d   1       0.643   1.244  -2.037  0.00  0.00     0.156 C 
ATOM      6  C   UNL d   1      -0.946   1.624  -0.176  0.00  0.00     0.156 C 
ATOM      7  C   UNL d   1       0.791   2.774  -2.179  0.00  0.00     0.292 C 
ATOM      8  C   UNL d   1      -0.717   3.137  -0.351  0.00  0.00     0.292 C 
ENDROOT
BRANCH   3   9
ATOM      9  C   UNL d   1      -1.521   3.385  -2.671  0.00  0.00     0.299 C 
BRANCH   9  10
ATOM     10  C   UNL d   1      -2.753   4.231  -2.311  0.00  0.00     0.206 C 
BRANCH  10  11
ATOM     11  O   UNL d   1      -3.767   4.029  -3.298  0.00  0.00    -0.349 OA
BRANCH  11  12
ATOM     12  C   UNL d   1      -4.952   4.682  -3.079  0.00  0.00     0.068 A 
ATOM     13  C   UNL d   1      -5.234   5.527  -2.001  0.00  0.00     0.037 A 
ATOM     14  C   UNL d   1      -6.482   6.147  -1.899  0.00  0.00     0.003 A 
ATOM     15  C   UNL d   1      -7.454   5.926  -2.871  0.00  0.00     0.000 A 
ATOM     16  C   UNL d   1      -7.182   5.080  -3.945  0.00  0.00     0.003 A 
ATOM     17  C   UNL d   1      -5.935   4.460  -4.045  0.00  0.00     0.037 A 
ENDBRANCH  11  12
ENDBRANCH  10  11
ENDBRANCH   9  10
ENDBRANCH   3   9
BRANCH   1  18
ATOM     18  C   UNL d   1       0.359  -0.593   1.272  0.00  0.00     0.142 A 
ATOM     19  O   UNL d   1      -0.996  -0.763   1.401  0.00  0.00    -0.317 OA
ATOM     20  C   UNL d   1      -1.226  -1.254   2.645  0.00  0.00     0.143 A 
ATOM     21  C   UNL d   1      -0.042  -1.436   3.317  0.00  0.00     0.027 A 
ATOM     22  C   UNL d   1       0.981  -1.036   2.425  0.00  0.00     0.045 A 
ENDBRANCH   1  18
TORSDOF 5
