REMARK  7 active torsions:
REMARK  status: ('A' for Active; 'I' for Inactive)
REMARK    1  A    between atoms: O_18  and  C_1 
REMARK    2  A    between atoms: C_4  and  N_2 
REMARK    3  A    between atoms: O_19  and  C_5 
REMARK    4  A    between atoms: O_20  and  C_6 
REMARK    5  A    between atoms: N_7  and  C_8 
REMARK       I    between atoms: C_9  and  N_7 
REMARK    6  A    between atoms: C_11  and  C_12 
REMARK    7  A    between atoms: O_22  and  C_17 
ROOT
ATOM      1  N   UNL d   1      -3.686  -0.574  -0.242  0.00  0.00    -0.363 N 
ATOM      2  HN  UNL d   1      -3.367  -1.476  -0.596  1.00  0.00     0.165 HD
ATOM      3  C   UNL d   1      -2.885   0.199   0.421  0.00  0.00     0.100 C 
ENDROOT
BRANCH   1   4
ATOM      4  C   UNL d   1      -5.012  -0.137  -0.463  0.00  0.00     0.061 A 
ATOM      5  C   UNL d   1      -6.082  -1.053  -0.363  0.00  0.00     0.061 A 
ATOM      6  C   UNL d   1      -7.383  -0.632  -0.658  0.00  0.00     0.035 A 
ATOM      7  C   UNL d   1      -7.632   0.678  -1.076  0.00  0.00     0.039 A 
ATOM      8  C   UNL d   1      -6.583   1.581  -1.208  0.00  0.00     0.070 A 
ATOM      9  C   UNL d   1      -5.283   1.165  -0.912  0.00  0.00     0.068 A 
BRANCH   5  10
ATOM     10  N   UNL d   1      -5.787  -2.371   0.058  0.00  0.00    -0.326 N 
ATOM     11  C   UNL d   1      -6.604  -3.475  -0.079  0.00  0.00     0.218 C 
ATOM     12  O   UNL d   1      -7.663  -3.524  -0.698  0.00  0.00    -0.274 OA
ATOM     13  C   UNL d   1      -6.107  -4.694   0.655  0.00  0.00     0.117 C 
ATOM     14  H   UNL d   1      -4.818  -2.503   0.334  0.00  0.00     0.169 HD
ENDBRANCH   5  10
BRANCH   8  15
ATOM     15  O   UNL d   1      -6.686   2.882  -1.616  0.00  0.00    -0.356 OA
ATOM     16  C   UNL d   1      -7.985   3.340  -1.972  0.00  0.00     0.210 C 
ENDBRANCH   8  15
ENDBRANCH   1   4
BRANCH   3  17
ATOM     17  C   UNL d   1      -1.450  -0.120   0.568  0.00  0.00    -0.015 A 
ATOM     18  C   UNL d   1      -0.865  -1.114  -0.219  0.00  0.00     0.052 A 
ATOM     19  C   UNL d   1       0.495  -1.421  -0.097  0.00  0.00     0.105 A 
ATOM     20  C   UNL d   1       1.268  -0.724   0.849  0.00  0.00     0.135 A 
ATOM     21  C   UNL d   1       0.691   0.331   1.598  0.00  0.00     0.105 A 
ATOM     22  C   UNL d   1      -0.675   0.614   1.466  0.00  0.00     0.052 A 
BRANCH  19  23
ATOM     23  O   UNL d   1       0.877  -2.405  -0.968  0.00  0.00    -0.353 OA
ATOM     24  C   UNL d   1       2.219  -2.863  -0.955  0.00  0.00     0.210 C 
ENDBRANCH  19  23
BRANCH  20  25
ATOM     25  O   UNL d   1       2.605  -1.012   0.969  0.00  0.00    -0.351 OA
ATOM     26  C   UNL d   1       2.990  -1.393   2.291  0.00  0.00     0.210 C 
ENDBRANCH  20  25
BRANCH  21  27
ATOM     27  O   UNL d   1       1.533   1.023   2.433  0.00  0.00    -0.353 OA
ATOM     28  C   UNL d   1       1.070   2.257   2.967  0.00  0.00     0.210 C 
ENDBRANCH  21  27
ENDBRANCH   3  17
TORSDOF 7
