REMARK  4 active torsions:
REMARK  status: ('A' for Active; 'I' for Inactive)
REMARK    1  A    between atoms: C_5  and  C_1 
REMARK    2  A    between atoms: O_20  and  C_1 
REMARK    3  A    between atoms: C_7  and  C_5 
REMARK    4  A    between atoms: C_8  and  C_7 
ROOT
ATOM      1  C   UNL d   1      -1.302  -1.460  -0.033  0.00  0.00     0.174 A 
ATOM      2  C   UNL d   1      -2.548  -0.579   0.312  0.00  0.00     0.262 A 
ATOM      3  C   UNL d   1      -0.171  -0.486   0.164  0.00  0.00     0.014 A 
ATOM      4  N   UNL d   1      -2.066   0.662   0.728  0.00  0.00    -0.324 N 
ATOM      5  C   UNL d   1      -0.688   0.740   0.590  0.00  0.00     0.044 A 
ATOM      6  C   UNL d   1       1.181  -0.635  -0.096  0.00  0.00     0.032 A 
ATOM      7  O   UNL d   1      -3.724  -0.914   0.291  0.00  0.00    -0.269 OA
ATOM      8  C   UNL d   1       0.105   1.853   0.760  0.00  0.00     0.031 A 
ATOM      9  C   UNL d   1       1.994   0.491   0.041  0.00  0.00     0.011 A 
ATOM     10  C   UNL d   1       1.467   1.725   0.465  0.00  0.00     0.021 A 
ATOM     11 BR   UNL d   1       3.829   0.366  -0.403  0.00  0.00    -0.051 Br
ATOM     12  H   UNL d   1      -2.678   1.426   0.969  0.00  0.00     0.169 HD
ENDROOT
BRANCH   1  13
ATOM     13  C   UNL d   1      -1.398  -2.085  -1.420  0.00  0.00     0.137 C 
BRANCH  13  14
ATOM     14  C   UNL d   1      -1.435  -1.101  -2.579  0.00  0.00     0.163 C 
ATOM     15  O   UNL d   1      -1.456   0.117  -2.423  0.00  0.00    -0.292 OA
BRANCH  14  16
ATOM     16  C   UNL d   1      -1.467  -1.646  -3.972  0.00  0.00     0.013 A 
ATOM     17  C   UNL d   1      -1.484  -3.024  -4.226  0.00  0.00     0.054 A 
ATOM     18  C   UNL d   1      -1.600  -3.433  -5.538  0.00  0.00     0.105 A 
ATOM     19  O   UNL d   1      -1.661  -4.725  -5.957  0.00  0.00    -0.323 OA
ATOM     20  C   UNL d   1      -1.685  -2.539  -6.579  0.00  0.00     0.105 A 
ATOM     21  C   UNL d   1      -1.807  -4.543  -7.381  0.00  0.00     0.352 A 
ATOM     22  O   UNL d   1      -1.826  -3.157  -7.781  0.00  0.00    -0.323 OA
ATOM     23  C   UNL d   1      -1.639  -1.180  -6.370  0.00  0.00     0.040 A 
ATOM     24  C   UNL d   1      -1.524  -0.731  -5.050  0.00  0.00     0.018 A 
ENDBRANCH  14  16
ENDBRANCH  13  14
ENDBRANCH   1  13
BRANCH   1  25
ATOM     25  O   UNL d   1      -1.150  -2.521   0.914  0.00  0.00    -0.375 OA
ATOM     26  H   UNL d   1      -1.074  -2.111   1.793  0.00  0.00     0.211 HD
ENDBRANCH   1  25
TORSDOF 4
