REMARK  1 active torsions:
REMARK  status: ('A' for Active; 'I' for Inactive)
REMARK    1  A    between atoms: C_6  and  C_2 
ROOT
ATOM      1  N   UNL d   1      -1.336  -1.637  -0.142  0.00  0.00    -0.260 NA
ATOM      2  C   UNL d   1      -2.369  -0.597   0.011  0.00  0.00     0.239 A 
ATOM      3  O   UNL d   1      -1.788   0.733   0.089  0.00  0.00    -0.324 OA
ATOM      4  C   UNL d   1      -0.167  -0.859  -0.062  0.00  0.00     0.046 A 
ATOM      5  C   UNL d   1      -0.445   0.494   0.019  0.00  0.00     0.092 A 
ATOM      6  C   UNL d   1       1.138  -1.310  -0.088  0.00  0.00     0.050 A 
ATOM      7  C   UNL d   1       0.543   1.455   0.066  0.00  0.00     0.040 A 
ATOM      8  C   UNL d   1       2.158  -0.357  -0.035  0.00  0.00     0.035 A 
ATOM      9  C   UNL d   1       1.869   1.017   0.034  0.00  0.00     0.026 A 
ATOM     10 CL   UNL d   1       3.801  -0.873  -0.058  0.00  0.00    -0.084 Cl
ATOM     11  H   UNL d   1      -1.353  -2.342   0.590  0.00  0.00     0.130 HD
ENDROOT
BRANCH   2  12
ATOM     12  C   UNL d   1      -3.237  -0.886   1.229  0.00  0.00    -0.013 A 
ATOM     13  C   UNL d   1      -2.902  -0.404   2.506  0.00  0.00     0.036 A 
ATOM     14  C   UNL d   1      -3.720  -0.668   3.611  0.00  0.00     0.056 A 
ATOM     15 CL   UNL d   1      -3.244  -0.016   5.139  0.00  0.00    -0.083 Cl
ATOM     16  C   UNL d   1      -4.879  -1.435   3.453  0.00  0.00     0.055 A 
ATOM     17  C   UNL d   1      -5.204  -1.946   2.194  0.00  0.00     0.026 A 
ATOM     18 CL   UNL d   1      -5.949  -1.784   4.763  0.00  0.00    -0.083 Cl
ATOM     19  C   UNL d   1      -4.387  -1.679   1.092  0.00  0.00     0.013 A 
ENDBRANCH   2  12
TORSDOF 1
