REMARK  5 active torsions:
REMARK  status: ('A' for Active; 'I' for Inactive)
REMARK    1  A    between atoms: C_4  and  C_2 
REMARK    2  A    between atoms: C_8  and  C_3 
REMARK    3  A    between atoms: O_9  and  C_4 
REMARK    4  A    between atoms: C_7  and  C_17 
REMARK    5  A    between atoms: C_17  and  O_9 
ROOT
ATOM      1  S   UNL d   1      -1.015   0.001   0.015  0.00  0.00    -0.084 SA
ATOM      2  C   UNL d   1       0.129   1.272   0.034  0.00  0.00     0.081 A 
ATOM      3  C   UNL d   1       0.198  -1.224  -0.018  0.00  0.00     0.016 A 
ATOM      4  C   UNL d   1       1.416   0.772   0.003  0.00  0.00     0.026 A 
ATOM      5  C   UNL d   1       1.456  -0.649  -0.015  0.00  0.00     0.021 A 
ENDROOT
BRANCH   2   6
ATOM      6  C   UNL d   1      -0.224   2.681   0.104  0.00  0.00     0.300 C 
ATOM      7  O   UNL d   1       0.599   3.591   0.127  0.00  0.00    -0.259 OA
BRANCH   6   8
ATOM      8  O   UNL d   1      -1.569   2.871   0.194  0.00  0.00    -0.310 OA
BRANCH   8   9
ATOM      9  C   UNL d   1      -1.973   4.202   0.544  0.00  0.00     0.244 C 
BRANCH   9  10
ATOM     10  C   UNL d   1      -2.118   4.230   2.020  0.00  0.00     0.076 A 
ATOM     11  O   UNL d   1      -3.339   3.891   2.524  0.00  0.00    -0.325 OA
ATOM     12  C   UNL d   1      -3.235   3.933   3.877  0.00  0.00     0.142 A 
ATOM     13  C   UNL d   1      -1.965   4.302   4.252  0.00  0.00     0.027 A 
ATOM     14  C   UNL d   1      -1.241   4.500   3.051  0.00  0.00     0.037 A 
ENDBRANCH   9  10
ENDBRANCH   8   9
ENDBRANCH   6   8
ENDBRANCH   2   6
BRANCH   3  15
ATOM     15  C   UNL d   1      -0.148  -2.661  -0.026  0.00  0.00    -0.019 A 
ATOM     16  C   UNL d   1      -1.311  -3.146  -0.646  0.00  0.00     0.014 A 
ATOM     17  C   UNL d   1      -1.598  -4.518  -0.671  0.00  0.00     0.024 A 
ATOM     18  C   UNL d   1      -0.721  -5.421  -0.080  0.00  0.00     0.034 A 
ATOM     19  C   UNL d   1       0.436  -4.968   0.543  0.00  0.00     0.024 A 
ATOM     20 CL   UNL d   1      -1.068  -7.107  -0.125  0.00  0.00    -0.084 Cl
ATOM     21  C   UNL d   1       0.719  -3.598   0.569  0.00  0.00     0.014 A 
ENDBRANCH   3  15
TORSDOF 5
