REMARK  3 active torsions:
REMARK  status: ('A' for Active; 'I' for Inactive)
REMARK       I    between atoms: N_2  and  C_1 
REMARK       I    between atoms: N_5  and  C_1 
REMARK    1  A    between atoms: C_3  and  C_10 
REMARK    2  A    between atoms: C_11  and  C_4 
REMARK    3  A    between atoms: C_9  and  N_5 
ROOT
ATOM      1  N   UNL d   1      -3.277   1.026  -2.185  0.00  0.00    -0.372 N 
ATOM      2  HN  UNL d   1      -3.714   1.051  -3.106  1.00  0.00     0.164 HD
ATOM      3  C   UNL d   1      -1.269   0.927  -0.804  0.00  0.00     0.053 A 
ATOM      4  C   UNL d   1      -3.450   1.042   0.226  0.00  0.00     0.035 A 
ATOM      5  C   UNL d   1      -2.061   0.986   0.342  0.00  0.00     0.053 A 
ATOM      6  C   UNL d   1      -1.932   0.952  -2.033  0.00  0.00     0.117 A 
ATOM      7  C   UNL d   1      -4.005   1.065  -1.047  0.00  0.00     0.108 A 
ENDROOT
BRANCH   3   8
ATOM      8  N   UNL d   1       0.140   0.819  -0.791  0.00  0.00    -0.307 N 
ATOM      9  C   UNL d   1       0.966   0.893   0.307  0.00  0.00     0.322 C 
ATOM     10  N   UNL d   1       2.308   0.739   0.027  0.00  0.00    -0.334 N 
ATOM     11  O   UNL d   1       0.588   1.099   1.457  0.00  0.00    -0.247 OA
ATOM     12  C   UNL d   1       3.292   0.845   1.090  0.00  0.00     0.127 C 
ATOM     13  C   UNL d   1       2.960   0.580  -1.265  0.00  0.00     0.127 C 
ATOM     14  C   UNL d   1       4.529   1.358   0.376  0.00  0.00     0.022 C 
ATOM     15  C   UNL d   1       4.455   0.650  -0.971  0.00  0.00     0.022 C 
ATOM     16  H   UNL d   1       0.587   0.699  -1.684  0.00  0.00     0.170 HD
ENDBRANCH   3   8
BRANCH   4  17
ATOM     17  C   UNL d   1      -4.275   1.026   1.389  0.00  0.00    -0.060 C 
ATOM     18  C   UNL d   1      -4.978   0.969   2.364  0.00  0.00    -0.061 C 
BRANCH  18  19
ATOM     19  C   UNL d   1      -5.846   0.873   3.494  0.00  0.00     0.018 A 
ATOM     20  C   UNL d   1      -6.953   0.023   3.442  0.00  0.00     0.020 A 
ATOM     21  C   UNL d   1      -7.830  -0.050   4.524  0.00  0.00     0.001 A 
ATOM     22  C   UNL d   1      -7.598   0.723   5.661  0.00  0.00     0.000 A 
ATOM     23  C   UNL d   1      -6.483   1.560   5.722  0.00  0.00     0.001 A 
ATOM     24  C   UNL d   1      -5.604   1.634   4.639  0.00  0.00     0.020 A 
ENDBRANCH  18  19
ENDBRANCH   4  17
TORSDOF 3
