REMARK  2 active torsions:
REMARK  status: ('A' for Active; 'I' for Inactive)
REMARK    1  A    between atoms: C_3  and  C_1 
REMARK    2  A    between atoms: C_5  and  C_3 
ROOT
ATOM      1  C   UNL d   1      -1.222   0.966   0.343  0.00  0.00    -0.052 A 
ATOM      2  C   UNL d   1      -4.000   0.639   0.218  0.00  0.00     0.034 A 
ATOM      3 CL   UNL d   1      -5.708   0.441   0.150  0.00  0.00    -0.084 Cl
ATOM      4  C   UNL d   1      -3.448   1.913   0.107  0.00  0.00     0.024 A 
ATOM      5  C   UNL d   1      -3.179  -0.473   0.390  0.00  0.00     0.024 A 
ATOM      6  C   UNL d   1      -1.792  -0.311   0.446  0.00  0.00     0.009 A 
ATOM      7  C   UNL d   1      -2.063   2.077   0.171  0.00  0.00     0.009 A 
ENDROOT
BRANCH   1   8
ATOM      8  C   UNL d   1       0.280   1.141   0.404  0.00  0.00     0.107 C 
BRANCH   8   9
ATOM      9  C   UNL d   1       0.968   0.924  -0.930  0.00  0.00     0.075 C 
ATOM     10  S   UNL d   1       2.185  -0.195  -1.147  0.00  0.00    -0.066 SA
ATOM     11  N   UNL d   1       0.604   1.736  -1.965  0.00  0.00    -0.393 N 
ATOM     12  H   UNL d   1       1.027   1.585  -2.875  0.00  0.00     0.156 HD
ATOM     13  H   UNL d   1      -0.223   2.319  -1.930  0.00  0.00     0.156 HD
ENDBRANCH   8   9
ENDBRANCH   1   8
TORSDOF 2
