REMARK  3 active torsions:
REMARK  status: ('A' for Active; 'I' for Inactive)
REMARK    1  A    between atoms: C_4  and  C_1 
REMARK    2  A    between atoms: C_12  and  C_10 
REMARK    3  A    between atoms: O_13  and  C_12 
ROOT
ATOM      1  C   UNL d   1       2.059  -2.448  -0.063  0.00  0.00     0.032 A 
ATOM      2  S   UNL d   1       3.366  -2.733   0.997  0.00  0.00    -0.090 SA
ATOM      3  C   UNL d   1       1.920  -3.466  -0.982  0.00  0.00     0.022 A 
ATOM      4  C   UNL d   1       3.718  -4.249   0.282  0.00  0.00     0.007 A 
ATOM      5  C   UNL d   1       2.885  -4.498  -0.793  0.00  0.00     0.018 A 
ENDROOT
BRANCH   1   6
ATOM      6  C   UNL d   1       1.149  -1.257  -0.010  0.00  0.00     0.056 A 
ATOM      7  N   UNL d   1       0.043  -1.168  -0.842  0.00  0.00    -0.353 N 
ATOM      8  C   UNL d   1      -0.631  -0.069  -0.578  0.00  0.00     0.047 A 
ATOM      9  HN  UNL d   1      -0.210  -1.853  -1.554  1.00  0.00     0.166 HD
ATOM     10  C   UNL d   1      -1.903   0.320  -1.244  0.00  0.00     0.076 C 
ATOM     11  S   UNL d   1       0.046   0.942   0.636  0.00  0.00    -0.087 SA
ATOM     12  C   UNL d   1       1.312  -0.193   0.855  0.00  0.00     0.082 A 
ENDBRANCH   1   6
BRANCH   4  13
ATOM     13  C   UNL d   1       4.826  -5.087   0.830  0.00  0.00     0.210 C 
BRANCH  13  14
ATOM     14  O   UNL d   1       4.468  -6.455   0.671  0.00  0.00    -0.396 OA
ATOM     15  H   UNL d   1       3.629  -6.579   1.148  0.00  0.00     0.209 HD
ENDBRANCH  13  14
ENDBRANCH   4  13
TORSDOF 3
