REMARK  3 active torsions:
REMARK  status: ('A' for Active; 'I' for Inactive)
REMARK    1  A    between atoms: N_2  and  C_5 
REMARK    2  A    between atoms: C_6  and  C_3 
REMARK       I    between atoms: N_9  and  C_6 
REMARK    3  A    between atoms: C_10  and  N_9 
ROOT
ATOM      1  N   UNL d   1      -1.608   0.952  -0.109  0.00  0.00    -0.349 N 
ATOM      2  C   UNL d   1      -2.370  -0.185  -0.277  0.00  0.00     0.102 A 
ATOM      3  C   UNL d   1      -0.262   0.652  -0.081  0.00  0.00     0.076 A 
ATOM      4  C   UNL d   1       0.873   1.478   0.049  0.00  0.00     0.130 A 
ATOM      5  C   UNL d   1      -1.482  -1.244  -0.356  0.00  0.00     0.049 A 
ATOM      6  C   UNL d   1      -0.164  -0.733  -0.220  0.00  0.00    -0.005 A 
ATOM      7  C   UNL d   1       2.134   0.856   0.058  0.00  0.00     0.038 A 
ATOM      8  C   UNL d   1       1.115  -1.327  -0.217  0.00  0.00     0.014 A 
ATOM      9  C   UNL d   1       2.251  -0.526  -0.071  0.00  0.00     0.003 A 
ATOM     10  H   UNL d   1      -1.996   1.888  -0.023  0.00  0.00     0.166 HD
ENDROOT
BRANCH   2  11
ATOM     11  C   UNL d   1      -3.812  -0.120  -0.366  0.00  0.00     0.272 C 
ATOM     12  N   UNL d   1      -4.457  -1.334  -0.228  0.00  0.00    -0.320 N 
ATOM     13  H   UNL d   1      -3.936  -2.066   0.240  0.00  0.00     0.169 HD
ATOM     14  O   UNL d   1      -4.385   0.962  -0.485  0.00  0.00    -0.266 OA
BRANCH  12  15
ATOM     15  C   UNL d   1      -5.864  -1.478  -0.237  0.00  0.00     0.052 A 
ATOM     16  C   UNL d   1      -6.479  -2.398   0.627  0.00  0.00     0.040 A 
ATOM     17  C   UNL d   1      -7.871  -2.479   0.701  0.00  0.00     0.063 A 
ATOM     18 BR   UNL d   1      -5.456  -3.499   1.790  0.00  0.00    -0.049 Br
ATOM     19  C   UNL d   1      -8.643  -1.677  -0.132  0.00  0.00     0.117 A 
ATOM     20  C   UNL d   1      -8.053  -0.812  -1.044  0.00  0.00     0.044 A 
ATOM     21  F   UNL d   1      -9.978  -1.739  -0.052  0.00  0.00    -0.206 F 
ATOM     22  C   UNL d   1      -6.663  -0.708  -1.093  0.00  0.00     0.034 A 
ENDBRANCH  12  15
ENDBRANCH   2  11
BRANCH   4  23
ATOM     23  N   UNL d   1       0.794   2.938   0.171  0.00  0.00    -0.113 N 
ATOM     24  O   UNL d   1      -0.334   3.450   0.169  0.00  0.00    -0.532 OA
ATOM     25  O   UNL d   1       1.856   3.573   0.268  0.00  0.00    -0.532 OA
ENDBRANCH   4  23
TORSDOF 3
