REMARK  3 active torsions:
REMARK  status: ('A' for Active; 'I' for Inactive)
REMARK    1  A    between atoms: C_3  and  N_1 
REMARK       I    between atoms: C_6  and  N_7 
REMARK    2  A    between atoms: N_7  and  C_8 
REMARK    3  A    between atoms: C_16  and  C_10 
ROOT
ATOM      1  C   UNL d   1       0.267   1.090  -0.031  0.00  0.00     0.040 A 
ATOM      2  C   UNL d   1      -0.838   1.224   0.829  0.00  0.00     0.059 A 
ATOM      3  C   UNL d   1      -1.557   2.412   0.939  0.00  0.00     0.036 A 
ATOM      4  C   UNL d   1       0.603   2.167  -0.867  0.00  0.00    -0.035 A 
ATOM      5  C   UNL d   1      -0.136   3.361  -0.779  0.00  0.00     0.011 A 
ATOM      6  C   UNL d   1      -1.201   3.484   0.119  0.00  0.00     0.030 A 
ATOM      7  C   UNL d   1       1.730   2.096  -1.859  0.00  0.00     0.050 C 
ENDROOT
BRANCH   1   8
ATOM      8  N   UNL d   1       0.977  -0.129  -0.110  0.00  0.00    -0.365 N 
ATOM      9  C   UNL d   1       1.173  -0.796   0.983  0.00  0.00     0.100 C 
ATOM     10  HN  UNL d   1       1.326  -0.474  -1.004  1.00  0.00     0.165 HD
BRANCH   9  11
ATOM     11  C   UNL d   1       1.826  -2.118   0.990  0.00  0.00    -0.019 A 
ATOM     12  C   UNL d   1       2.409  -2.634  -0.170  0.00  0.00     0.038 A 
ATOM     13  C   UNL d   1       3.018  -3.891  -0.137  0.00  0.00     0.056 A 
ATOM     14 CL   UNL d   1       3.732  -4.474  -1.599  0.00  0.00    -0.083 Cl
ATOM     15  C   UNL d   1       3.037  -4.631   1.053  0.00  0.00     0.055 A 
ATOM     16  C   UNL d   1       2.441  -4.112   2.207  0.00  0.00     0.026 A 
ATOM     17 CL   UNL d   1       3.777  -6.188   1.165  0.00  0.00    -0.083 Cl
ATOM     18  C   UNL d   1       1.835  -2.854   2.178  0.00  0.00     0.014 A 
ENDBRANCH   9  11
ENDBRANCH   1   8
BRANCH   3  19
ATOM     19  N   UNL d   1      -2.635   2.583   1.834  0.00  0.00    -0.327 N 
ATOM     20  C   UNL d   1      -3.065   1.682   2.796  0.00  0.00     0.218 C 
ATOM     21  O   UNL d   1      -2.571   0.591   3.061  0.00  0.00    -0.274 OA
ATOM     22  C   UNL d   1      -4.267   2.165   3.570  0.00  0.00     0.117 C 
ATOM     23  H   UNL d   1      -3.107   3.477   1.791  0.00  0.00     0.169 HD
ENDBRANCH   3  19
TORSDOF 3
