REMARK  3 active torsions:
REMARK  status: ('A' for Active; 'I' for Inactive)
REMARK    1  A    between atoms: N_2  and  C_1 
REMARK       I    between atoms: C_4  and  N_2 
REMARK    2  A    between atoms: O_10  and  C_5 
REMARK    3  A    between atoms: O_11  and  C_8 
ROOT
ATOM      1  C   UNL d   1       1.501  -0.504   0.150  0.00  0.00     0.071 A 
ATOM      2  C   UNL d   1       0.515  -1.476  -0.049  0.00  0.00     0.069 A 
ATOM      3  C   UNL d   1       1.117   0.847   0.236  0.00  0.00     0.095 A 
ATOM      4  C   UNL d   1      -0.226   1.213   0.152  0.00  0.00     0.042 A 
ATOM      5  C   UNL d   1      -0.837  -1.116  -0.122  0.00  0.00     0.070 A 
ATOM      6  C   UNL d   1      -1.198   0.230  -0.035  0.00  0.00     0.039 A 
ENDROOT
BRANCH   1   7
ATOM      7  N   UNL d   1       2.870  -0.815   0.309  0.00  0.00    -0.325 N 
ATOM      8  C   UNL d   1       3.494  -2.026   0.077  0.00  0.00     0.218 C 
ATOM      9  O   UNL d   1       2.969  -3.054  -0.337  0.00  0.00    -0.274 OA
ATOM     10  C   UNL d   1       4.976  -1.985   0.353  0.00  0.00     0.117 C 
ATOM     11  H   UNL d   1       3.443  -0.035   0.608  0.00  0.00     0.169 HD
ENDBRANCH   1   7
BRANCH   3  12
ATOM     12  O   UNL d   1       2.029   1.843   0.485  0.00  0.00    -0.354 OA
ATOM     13  C   UNL d   1       2.841   2.137  -0.655  0.00  0.00     0.210 C 
ENDBRANCH   3  12
BRANCH   5  14
ATOM     14  O   UNL d   1      -1.883  -1.987  -0.264  0.00  0.00    -0.356 OA
ATOM     15  C   UNL d   1      -1.581  -3.373  -0.128  0.00  0.00     0.210 C 
ENDBRANCH   5  14
TORSDOF 3
