REMARK  3 active torsions:
REMARK  status: ('A' for Active; 'I' for Inactive)
REMARK    1  A    between atoms: C_5  and  N_1 
REMARK    2  A    between atoms: C_2  and  C_6 
REMARK       I    between atoms: N_10  and  C_2 
REMARK    3  A    between atoms: N_16  and  N_10 
ROOT
ATOM      1  N   UNL d   1       6.942  -0.246   4.211  0.00  0.00    -0.191 NA
ATOM      2  C   UNL d   1       5.990  -0.201   3.548  0.00  0.00     0.099 C 
ATOM      3  C   UNL d   1       2.497  -0.042   1.105  0.00  0.00     0.030 A 
ATOM      4  C   UNL d   1       2.713  -1.084   2.022  0.00  0.00     0.031 A 
ATOM      5  C   UNL d   1       3.482   0.956   1.044  0.00  0.00     0.031 A 
ATOM      6  C   UNL d   1       4.818  -0.144   2.734  0.00  0.00     0.044 A 
ATOM      7  C   UNL d   1       3.856  -1.145   2.825  0.00  0.00     0.025 A 
ATOM      8  C   UNL d   1       4.629   0.911   1.845  0.00  0.00     0.025 A 
ENDROOT
BRANCH   3   9
ATOM      9  N   UNL d   1       1.356  -0.003   0.329  0.00  0.00    -0.381 N 
ATOM     10  C   UNL d   1       0.789   1.243  -0.179  0.00  0.00     0.123 C 
ATOM     11  C   UNL d   1      -0.696   1.280   0.196  0.00  0.00     0.034 C 
ATOM     12  C   UNL d   1      -1.445   0.031  -0.297  0.00  0.00     0.082 C 
ATOM     13  C   UNL d   1      -0.729  -1.246   0.173  0.00  0.00     0.034 C 
ATOM     14  C   UNL d   1       0.754  -1.232  -0.199  0.00  0.00     0.123 C 
BRANCH  12  15
ATOM     15  C   UNL d   1      -1.613   0.041  -1.816  0.00  0.00     0.235 C 
ATOM     16  O   UNL d   1      -1.196  -0.847  -2.557  0.00  0.00    -0.272 OA
ATOM     17  N   UNL d   1      -2.292   1.152  -2.303  0.00  0.00    -0.294 N 
ATOM     18  H   UNL d   1      -2.861   1.712  -1.671  0.00  0.00     0.183 HD
BRANCH  17  19
ATOM     19  N   UNL d   1      -2.552   1.234  -3.688  0.00  0.00    -0.247 NA
ATOM     20  H   UNL d   1      -2.230   0.345  -4.103  0.00  0.00     0.143 HD
ATOM     21  H   UNL d   1      -1.920   1.932  -4.089  0.00  0.00     0.143 HD
ENDBRANCH  17  19
ENDBRANCH  12  15
ENDBRANCH   3   9
TORSDOF 3
