REMARK  4 active torsions:
REMARK  status: ('A' for Active; 'I' for Inactive)
REMARK       I    between atoms: N_2  and  C_1 
REMARK       I    between atoms: N_6  and  C_1 
REMARK    1  A    between atoms: C_4  and  N_2 
REMARK    2  A    between atoms: N_3  and  C_5 
REMARK    3  A    between atoms: C_13  and  N_6 
REMARK    4  A    between atoms: C_7  and  C_8 
ROOT
ATOM      1  C   UNL d   1       0.902   0.244   0.484  0.00  0.00     0.303 C 
ATOM      2  N   UNL d   1       0.231   1.382   0.066  0.00  0.00    -0.208 NA
ATOM      3  N   UNL d   1       0.074  -0.833   0.714  0.00  0.00    -0.313 N 
ATOM      4  O   UNL d   1       2.086   0.182   0.792  0.00  0.00    -0.253 OA
ATOM      5  H   UNL d   1      -0.668   1.390   0.531  0.00  0.00     0.138 HD
ATOM      6  H   UNL d   1       0.457  -1.496   1.377  0.00  0.00     0.170 HD
ENDROOT
BRANCH   2   7
ATOM      7  C   UNL d   1       0.898   2.633   0.114  0.00  0.00     0.043 A 
ATOM      8  C   UNL d   1       1.657   3.145  -0.969  0.00  0.00     0.052 A 
ATOM      9  C   UNL d   1       2.271   4.397  -0.749  0.00  0.00     0.031 A 
ATOM     10  C   UNL d   1       2.130   5.114   0.447  0.00  0.00     0.002 A 
ATOM     11  C   UNL d   1       1.351   4.603   1.470  0.00  0.00     0.002 A 
ATOM     12  C   UNL d   1       0.731   3.373   1.306  0.00  0.00     0.026 A 
BRANCH   8  13
ATOM     13  N   UNL d   1       1.719   2.595  -2.249  0.00  0.00    -0.375 N 
ATOM     14  C   UNL d   1       2.982   2.584  -3.012  0.00  0.00     0.149 C 
ATOM     15  C   UNL d   1       2.653   2.696  -4.513  0.00  0.00     0.187 C 
ATOM     16  O   UNL d   1       1.787   1.633  -4.947  0.00  0.00    -0.388 OA
ATOM     17  C   UNL d   1       0.559   1.672  -4.208  0.00  0.00     0.187 C 
ATOM     18  C   UNL d   1       0.792   1.552  -2.697  0.00  0.00     0.149 C 
ENDBRANCH   8  13
ENDBRANCH   2   7
BRANCH   3  19
ATOM     19  C   UNL d   1      -1.172  -1.133   0.140  0.00  0.00     0.035 A 
ATOM     20  C   UNL d   1      -1.426  -0.941  -1.216  0.00  0.00     0.030 A 
ATOM     21  C   UNL d   1      -2.637  -1.361  -1.777  0.00  0.00     0.010 A 
ATOM     22  C   UNL d   1      -3.634  -1.970  -0.997  0.00  0.00    -0.051 A 
ATOM     23  C   UNL d   1      -3.370  -2.114   0.376  0.00  0.00     0.010 A 
ATOM     24  C   UNL d   1      -2.142  -1.731   0.931  0.00  0.00     0.030 A 
BRANCH  22  25
ATOM     25  C   UNL d   1      -4.920  -2.503  -1.656  0.00  0.00    -0.024 C 
ATOM     26  C   UNL d   1      -5.890  -3.170  -0.655  0.00  0.00     0.019 C 
ATOM     27  C   UNL d   1      -5.684  -1.357  -2.350  0.00  0.00     0.019 C 
ATOM     28  C   UNL d   1      -4.553  -3.572  -2.711  0.00  0.00     0.019 C 
ENDBRANCH  22  25
ENDBRANCH   3  19
TORSDOF 4
