REMARK  0 active torsions:
REMARK  status: ('A' for Active; 'I' for Inactive)
ROOT
ATOM      1  C   UNL d   1       2.362  -0.663  -0.088  0.00  0.00     0.119 A 
ATOM      2  C   UNL d   1       2.325   0.829  -0.067  0.00  0.00     0.267 A 
ATOM      3  C   UNL d   1       1.218  -1.387  -0.052  0.00  0.00    -0.023 A 
ATOM      4  N   UNL d   1       1.095   1.426  -0.033  0.00  0.00    -0.322 N 
ATOM      5  C   UNL d   1      -0.092  -0.681  -0.021  0.00  0.00    -0.002 A 
ATOM      6  C   UNL d   1      -0.110   0.721  -0.021  0.00  0.00     0.045 A 
ATOM      7  C   UNL d   1       3.652  -1.269  -0.151  0.00  0.00     0.105 C 
ATOM      8  N   UNL d   1       4.672  -1.819  -0.210  0.00  0.00    -0.191 NA
ATOM      9  O   UNL d   1       3.345   1.511  -0.079  0.00  0.00    -0.267 OA
ATOM     10  C   UNL d   1       1.190  -2.896  -0.052  0.00  0.00     0.051 C 
ATOM     11  C   UNL d   1      -1.325  -1.351  -0.007  0.00  0.00     0.014 A 
ATOM     12  C   UNL d   1      -1.312   1.435  -0.015  0.00  0.00     0.030 A 
ATOM     13  C   UNL d   1      -2.531  -0.642  -0.008  0.00  0.00     0.001 A 
ATOM     14  C   UNL d   1      -2.525   0.750  -0.015  0.00  0.00     0.002 A 
ATOM     15  H   UNL d   1       1.098   2.437  -0.022  0.00  0.00     0.169 HD
ENDROOT
TORSDOF 0
