REMARK  2 active torsions:
REMARK  status: ('A' for Active; 'I' for Inactive)
REMARK    1  A    between atoms: C_3  and  C_1 
REMARK    2  A    between atoms: C_5  and  C_3 
ROOT
ATOM      1  C   UNL d   1       0.383   1.848  -1.457  0.00  0.00    -0.052 A 
ATOM      2  C   UNL d   1       0.425   4.626  -1.944  0.00  0.00    -0.062 A 
ATOM      3  C   UNL d   1       1.010   2.719  -0.557  0.00  0.00     0.008 A 
ATOM      4  C   UNL d   1      -0.237   2.383  -2.594  0.00  0.00     0.008 A 
ATOM      5  C   UNL d   1      -0.214   3.759  -2.836  0.00  0.00     0.007 A 
ATOM      6  C   UNL d   1       1.032   4.095  -0.800  0.00  0.00     0.007 A 
ATOM      7  C   UNL d   1       0.472   6.102  -2.199  0.00  0.00     0.048 C 
ENDROOT
BRANCH   1   8
ATOM      8  C   UNL d   1       0.359   0.358  -1.202  0.00  0.00     0.107 C 
BRANCH   8   9
ATOM      9  C   UNL d   1      -0.847  -0.082  -0.395  0.00  0.00     0.075 C 
ATOM     10  S   UNL d   1      -2.270  -0.611  -1.086  0.00  0.00    -0.066 SA
ATOM     11  N   UNL d   1      -0.722  -0.053   0.964  0.00  0.00    -0.393 N 
ATOM     12  H   UNL d   1      -1.521  -0.303   1.535  0.00  0.00     0.156 HD
ATOM     13  H   UNL d   1       0.086   0.338   1.432  0.00  0.00     0.156 HD
ENDBRANCH   8   9
ENDBRANCH   1   8
TORSDOF 2
