REMARK  3 active torsions:
REMARK  status: ('A' for Active; 'I' for Inactive)
REMARK    1  A    between atoms: N_2  and  S_1 
REMARK    2  A    between atoms: C_5  and  S_1 
REMARK    3  A    between atoms: N_8  and  C_4 
ROOT
ATOM      1  S   UNL d   1       0.916   0.019   0.148  0.00  0.00     0.263 S 
ATOM      2  O   UNL d   1       0.253  -1.264   0.011  0.00  0.00    -0.200 OA
ATOM      3  O   UNL d   1       2.366   0.078   0.209  0.00  0.00    -0.200 OA
ENDROOT
BRANCH   1   4
ATOM      4  N   UNL d   1       0.298   0.803   1.428  0.00  0.00    -0.277 N 
ATOM      5  C   UNL d   1       0.530   0.264   2.574  0.00  0.00     0.188 C 
ATOM      6  HN  UNL d   1      -0.238   1.666   1.331  1.00  0.00     0.179 HD
BRANCH   5   7
ATOM      7  N   UNL d   1       0.118   0.734   3.801  0.00  0.00    -0.385 N 
ATOM      8  C   UNL d   1       0.438   0.045   5.041  0.00  0.00     0.149 C 
ATOM      9  C   UNL d   1      -0.655   1.958   3.937  0.00  0.00     0.149 C 
ENDBRANCH   5   7
ENDBRANCH   1   4
BRANCH   1  10
ATOM     10  C   UNL d   1       0.416   1.016  -1.244  0.00  0.00     0.079 A 
ATOM     11  C   UNL d   1       1.254   2.040  -1.695  0.00  0.00     0.026 A 
ATOM     12  C   UNL d   1       0.905   2.761  -2.839  0.00  0.00     0.008 A 
ATOM     13  C   UNL d   1      -0.271   2.459  -3.541  0.00  0.00    -0.062 A 
ATOM     14  C   UNL d   1      -1.106   1.436  -3.071  0.00  0.00     0.008 A 
ATOM     15  C   UNL d   1      -0.605   3.213  -4.795  0.00  0.00     0.048 C 
ATOM     16  C   UNL d   1      -0.764   0.711  -1.927  0.00  0.00     0.026 A 
ENDBRANCH   1  10
TORSDOF 3
