REMARK  6 active torsions:
REMARK  status: ('A' for Active; 'I' for Inactive)
REMARK    1  A    between atoms: C_8  and  C_1 
REMARK       I    between atoms: N_14  and  C_8 
REMARK    2  A    between atoms: C_10  and  C_21 
REMARK    3  A    between atoms: C_22  and  N_14 
REMARK    4  A    between atoms: S_19  and  C_23 
REMARK    5  A    between atoms: C_21  and  S_19 
REMARK    6  A    between atoms: C_23  and  C_22 
ROOT
ATOM      1  C   UNL d   1      -1.597  -2.168   0.497  0.00  0.00     0.262 C 
ATOM      2  O   UNL d   1      -1.714  -2.406   1.696  0.00  0.00    -0.267 OA
ATOM      3  N   UNL d   1      -1.741  -3.184  -0.433  0.00  0.00    -0.356 N 
ATOM      4  H   UNL d   1      -1.841  -2.960  -1.413  0.00  0.00     0.162 HD
ENDROOT
BRANCH   3   5
ATOM      5  C   UNL d   1      -1.946  -4.561  -0.020  0.00  0.00     0.133 C 
BRANCH   5   6
ATOM      6  C   UNL d   1      -3.422  -4.914   0.172  0.00  0.00     0.093 C 
BRANCH   6   7
ATOM      7  S   UNL d   1      -3.673  -6.669   0.632  0.00  0.00    -0.163 SA
BRANCH   7   8
ATOM      8  C   UNL d   1      -2.791  -6.693   2.225  0.00  0.00     0.114 C 
BRANCH   8   9
ATOM      9  C   UNL d   1      -2.873  -8.035   2.911  0.00  0.00    -0.027 A 
ATOM     10  C   UNL d   1      -1.878  -9.021   2.781  0.00  0.00     0.042 A 
ATOM     11  C   UNL d   1      -1.963 -10.221   3.493  0.00  0.00     0.048 A 
ATOM     12 CL   UNL d   1      -0.502  -8.805   1.756  0.00  0.00    -0.084 Cl
ATOM     13  C   UNL d   1      -3.056 -10.456   4.322  0.00  0.00     0.035 A 
ATOM     14  C   UNL d   1      -4.071  -9.511   4.437  0.00  0.00     0.024 A 
ATOM     15 CL   UNL d   1      -3.154 -11.925   5.212  0.00  0.00    -0.084 Cl
ATOM     16  C   UNL d   1      -3.981  -8.308   3.734  0.00  0.00     0.011 A 
ENDBRANCH   8   9
ENDBRANCH   7   8
ENDBRANCH   6   7
ENDBRANCH   5   6
ENDBRANCH   3   5
BRANCH   1  17
ATOM     17  C   UNL d   1      -1.344  -0.853  -0.040  0.00  0.00     0.114 A 
ATOM     18  C   UNL d   1      -0.706  -0.362  -1.174  0.00  0.00     0.046 A 
ATOM     19  N   UNL d   1      -0.714   1.029  -1.281  0.00  0.00    -0.298 N 
ATOM     20  C   UNL d   1       0.015  -1.082  -2.256  0.00  0.00     0.071 C 
ATOM     21  N   UNL d   1      -1.308   1.607  -0.255  0.00  0.00    -0.269 N 
ATOM     22  HN  UNL d   1      -0.306   1.541  -2.063  1.00  0.00     0.187 HD
ATOM     23  S   UNL d   1      -1.862   0.512   0.872  0.00  0.00     0.009 SA
ATOM     24  HN  UNL d   1      -1.417   2.617  -0.162  1.00  0.00     0.195 HD
ENDBRANCH   1  17
TORSDOF 6
