REMARK  5 active torsions:
REMARK  status: ('A' for Active; 'I' for Inactive)
REMARK    1  A    between atoms: O_2  and  S_1 
REMARK    2  A    between atoms: C_9  and  S_1 
REMARK    3  A    between atoms: C_3  and  O_2 
REMARK    4  A    between atoms: C_10  and  C_4 
REMARK    5  A    between atoms: C_8  and  N_6 
ROOT
ATOM      1  C   UNL d   1      -4.996   3.954   2.334  0.00  0.00     0.123 A 
ATOM      2  C   UNL d   1      -3.630   3.709   2.528  0.00  0.00     0.017 A 
ATOM      3  C   UNL d   1      -5.519   5.157   2.858  0.00  0.00     0.071 A 
ATOM      4  C   UNL d   1      -4.739   6.034   3.620  0.00  0.00     0.050 A 
ATOM      5  C   UNL d   1      -2.849   4.583   3.310  0.00  0.00     0.039 A 
ATOM      6  C   UNL d   1      -3.409   5.726   3.864  0.00  0.00     0.036 A 
ATOM      7 CL   UNL d   1      -7.180   5.586   2.614  0.00  0.00    -0.081 Cl
ATOM      8 CL   UNL d   1      -2.464   6.732   4.889  0.00  0.00    -0.084 Cl
ENDROOT
BRANCH   2   9
ATOM      9  C   UNL d   1      -2.870   2.520   2.127  0.00  0.00     0.102 C 
ATOM     10  N   UNL d   1      -2.249   2.250   1.024  0.00  0.00    -0.365 N 
ATOM     11  HN  UNL d   1      -1.653   1.423   1.049  1.00  0.00     0.165 HD
BRANCH  10  12
ATOM     12  C   UNL d   1      -2.277   2.933  -0.205  0.00  0.00     0.038 A 
ATOM     13  C   UNL d   1      -2.622   4.275  -0.375  0.00  0.00     0.037 A 
ATOM     14  C   UNL d   1      -2.754   4.863  -1.648  0.00  0.00    -0.054 A 
ATOM     15  C   UNL d   1      -3.245   6.282  -1.745  0.00  0.00     0.049 C 
ATOM     16  C   UNL d   1      -2.429   4.117  -2.790  0.00  0.00    -0.056 A 
ATOM     17  C   UNL d   1      -2.023   2.788  -2.631  0.00  0.00     0.016 A 
ATOM     18  C   UNL d   1      -2.497   4.710  -4.168  0.00  0.00     0.049 C 
ATOM     19  C   UNL d   1      -1.944   2.192  -1.358  0.00  0.00    -0.035 A 
ATOM     20  C   UNL d   1      -1.484   0.758  -1.292  0.00  0.00     0.050 C 
ENDBRANCH  10  12
ENDBRANCH   2   9
BRANCH   1  21
ATOM     21  O   UNL d   1      -5.941   3.056   1.898  0.00  0.00    -0.226 OA
BRANCH  21  22
ATOM     22  S   UNL d   1      -5.842   2.190   0.529  0.00  0.00     0.303 S 
ATOM     23  O   UNL d   1      -4.924   1.086   0.742  0.00  0.00    -0.193 OA
ATOM     24  O   UNL d   1      -5.746   3.089  -0.600  0.00  0.00    -0.193 OA
BRANCH  22  25
ATOM     25  C   UNL d   1      -7.448   1.394   0.441  0.00  0.00     0.086 A 
ATOM     26  C   UNL d   1      -8.330   1.669  -0.607  0.00  0.00     0.026 A 
ATOM     27  C   UNL d   1      -9.463   0.862  -0.776  0.00  0.00     0.008 A 
ATOM     28  C   UNL d   1      -9.714  -0.213   0.091  0.00  0.00    -0.062 A 
ATOM     29  C   UNL d   1      -8.848  -0.439   1.169  0.00  0.00     0.008 A 
ATOM     30  C   UNL d   1     -10.813  -1.191  -0.205  0.00  0.00     0.048 C 
ATOM     31  C   UNL d   1      -7.720   0.362   1.348  0.00  0.00     0.026 A 
ENDBRANCH  22  25
ENDBRANCH  21  22
ENDBRANCH   1  21
TORSDOF 5
