REMARK  2 active torsions:
REMARK  status: ('A' for Active; 'I' for Inactive)
REMARK    1  A    between atoms: C_9  and  C_7 
REMARK    2  A    between atoms: C_10  and  C_8 
ROOT
ATOM      1  N   UNL d   1       0.988   1.408  -0.349  0.00  0.00    -0.324 N 
ATOM      2  HN  UNL d   1       1.017   2.401  -0.578  1.00  0.00     0.180 HD
ATOM      3  C   UNL d   1      -0.064   0.718  -0.051  0.00  0.00     0.033 C 
ATOM      4  N   UNL d   1       2.048   0.557  -0.301  0.00  0.00    -0.231 NA
ATOM      5  C   UNL d   1       0.213  -0.690   0.408  0.00  0.00     0.061 C 
ATOM      6  C   UNL d   1      -1.484   1.165  -0.050  0.00  0.00    -0.033 C 
ATOM      7  C   UNL d   1       1.695  -0.816   0.085  0.00  0.00     0.119 C 
ATOM      8  C   UNL d   1      -1.801   2.395  -0.479  0.00  0.00     0.020 C 
ATOM      9  C   UNL d   1      -0.706  -1.682  -0.300  0.00  0.00     0.013 C 
ATOM     10  C   UNL d   1      -2.433   0.086   0.411  0.00  0.00     0.040 C 
ATOM     11  C   UNL d   1      -2.168  -1.207  -0.366  0.00  0.00     0.005 C 
ATOM     12  H   UNL d   1       2.868   0.935   0.167  0.00  0.00     0.147 HD
ENDROOT
BRANCH   8  13
ATOM     13  C   UNL d   1      -3.170   2.920  -0.498  0.00  0.00    -0.036 A 
ATOM     14  C   UNL d   1      -3.679   3.568   0.634  0.00  0.00     0.013 A 
ATOM     15  C   UNL d   1      -4.987   4.063   0.635  0.00  0.00     0.024 A 
ATOM     16  C   UNL d   1      -5.786   3.907  -0.495  0.00  0.00     0.034 A 
ATOM     17  C   UNL d   1      -5.293   3.254  -1.624  0.00  0.00     0.024 A 
ATOM     18 CL   UNL d   1      -7.392   4.526  -0.497  0.00  0.00    -0.084 Cl
ATOM     19  C   UNL d   1      -3.984   2.759  -1.625  0.00  0.00     0.013 A 
ENDBRANCH   8  13
BRANCH   7  20
ATOM     20  C   UNL d   1       2.489  -1.375   1.251  0.00  0.00    -0.038 A 
ATOM     21  C   UNL d   1       2.798  -0.601   2.382  0.00  0.00     0.010 A 
ATOM     22  C   UNL d   1       3.536  -1.143   3.438  0.00  0.00     0.024 A 
ATOM     23  C   UNL d   1       3.955  -2.469   3.382  0.00  0.00     0.034 A 
ATOM     24  C   UNL d   1       3.622  -3.265   2.289  0.00  0.00     0.024 A 
ATOM     25 CL   UNL d   1       4.891  -3.127   4.667  0.00  0.00    -0.084 Cl
ATOM     26  C   UNL d   1       2.889  -2.721   1.231  0.00  0.00     0.010 A 
ENDBRANCH   7  20
TORSDOF 2
