REMARK  4 active torsions:
REMARK  status: ('A' for Active; 'I' for Inactive)
REMARK    1  A    between atoms: N_2  and  S_1 
REMARK    2  A    between atoms: C_3  and  S_1 
REMARK    3  A    between atoms: C_17  and  N_4 
REMARK    4  A    between atoms: C_16  and  C_17 
ROOT
ATOM      1  N   UNL d   1       0.674   0.751   0.959  0.00  0.00    -0.203 NA
ATOM      2  N   UNL d   1       1.868   3.410   1.625  0.00  0.00     0.095 N 
ATOM      3  C   UNL d   1      -0.057   2.020   0.659  0.00  0.00     0.138 C 
ATOM      4  C   UNL d   1       1.574   0.929   2.139  0.00  0.00     0.138 C 
ATOM      5  C   UNL d   1       0.919   3.214   0.505  0.00  0.00     0.288 C 
ATOM      6  C   UNL d   1       2.530   2.122   1.942  0.00  0.00     0.288 C 
ENDROOT
BRANCH   1   7
ATOM      7  S   UNL d   1       1.343  -0.070  -0.378  0.00  0.00     0.243 S 
ATOM      8  O   UNL d   1       2.417  -0.920   0.092  0.00  0.00    -0.206 OA
ATOM      9  O   UNL d   1       1.547   0.867  -1.461  0.00  0.00    -0.206 OA
BRANCH   7  10
ATOM     10  C   UNL d   1       0.012  -1.150  -0.871  0.00  0.00     0.076 A 
ATOM     11  C   UNL d   1      -0.988  -0.676  -1.726  0.00  0.00     0.048 A 
ATOM     12  C   UNL d   1      -1.966  -1.559  -2.180  0.00  0.00     0.035 A 
ATOM     13 CL   UNL d   1      -3.210  -0.988  -3.224  0.00  0.00    -0.084 Cl
ATOM     14  C   UNL d   1      -1.941  -2.905  -1.810  0.00  0.00     0.024 A 
ATOM     15  C   UNL d   1      -0.931  -3.376  -0.971  0.00  0.00     0.003 A 
ATOM     16  C   UNL d   1       0.048  -2.500  -0.498  0.00  0.00     0.025 A 
ENDBRANCH   7  10
ENDBRANCH   1   7
BRANCH   2  17
ATOM     17  C   UNL d   1       1.205   4.033   2.780  0.00  0.00     0.311 C 
BRANCH  17  18
ATOM     18  C   UNL d   1       2.161   4.473   3.871  0.00  0.00    -0.027 A 
ATOM     19  C   UNL d   1       1.938   4.079   5.201  0.00  0.00     0.048 A 
ATOM     20  C   UNL d   1       2.819   4.518   6.167  0.00  0.00     0.105 A 
ATOM     21  O   UNL d   1       2.747   4.226   7.493  0.00  0.00    -0.323 OA
ATOM     22  C   UNL d   1       3.891   5.323   5.863  0.00  0.00     0.105 A 
ATOM     23  C   UNL d   1       3.904   4.936   7.989  0.00  0.00     0.352 A 
ATOM     24  O   UNL d   1       4.630   5.639   6.958  0.00  0.00    -0.323 OA
ATOM     25  C   UNL d   1       4.140   5.739   4.574  0.00  0.00     0.040 A 
ATOM     26  C   UNL d   1       3.263   5.311   3.572  0.00  0.00     0.012 A 
ENDBRANCH  17  18
ENDBRANCH   2  17
TORSDOF 4
