REMARK  2 active torsions:
REMARK  status: ('A' for Active; 'I' for Inactive)
REMARK    1  A    between atoms: C_7  and  N_1 
REMARK    2  A    between atoms: S_10  and  C_2 
ROOT
ATOM      1  N   UNL d   1       2.397  -0.602  -0.092  0.00  0.00    -0.257 N 
ATOM      2  C   UNL d   1       2.319   0.790  -0.158  0.00  0.00     0.154 A 
ATOM      3  C   UNL d   1       1.246  -1.385   0.005  0.00  0.00     0.266 A 
ATOM      4  N   UNL d   1       1.202   1.446  -0.146  0.00  0.00    -0.335 N 
ATOM      5  HN  UNL d   1       1.197   2.465  -0.186  1.00  0.00     0.168 HD
ATOM      6  C   UNL d   1      -0.033  -0.661  -0.012  0.00  0.00     0.059 A 
ATOM      7  C   UNL d   1       0.004   0.729  -0.079  0.00  0.00     0.049 A 
ATOM      8  O   UNL d   1       1.225  -2.612   0.109  0.00  0.00    -0.267 OA
ATOM      9  C   UNL d   1      -1.250  -1.353   0.029  0.00  0.00     0.019 A 
ATOM     10  C   UNL d   1      -1.204   1.430  -0.092  0.00  0.00     0.030 A 
ATOM     11  C   UNL d   1      -2.448  -0.644   0.001  0.00  0.00     0.001 A 
ATOM     12  C   UNL d   1      -2.425   0.749  -0.055  0.00  0.00     0.002 A 
ENDROOT
BRANCH   1  13
ATOM     13  C   UNL d   1       3.637  -1.303  -0.107  0.00  0.00     0.056 A 
ATOM     14  C   UNL d   1       4.122  -1.843  -1.321  0.00  0.00    -0.034 A 
ATOM     15  C   UNL d   1       5.324  -2.566  -1.312  0.00  0.00     0.009 A 
ATOM     16  C   UNL d   1       3.384  -1.729  -2.627  0.00  0.00     0.050 C 
ATOM     17  C   UNL d   1       6.041  -2.743  -0.132  0.00  0.00     0.001 A 
ATOM     18  C   UNL d   1       5.557  -2.217   1.063  0.00  0.00     0.009 A 
ATOM     19  C   UNL d   1       4.346  -1.509   1.099  0.00  0.00    -0.034 A 
ATOM     20  C   UNL d   1       3.862  -1.018   2.436  0.00  0.00     0.050 C 
ENDBRANCH   1  13
BRANCH   2  21
ATOM     21  S   UNL d   1       3.821   1.707  -0.270  0.00  0.00    -0.098 SA
ATOM     22  C   UNL d   1       3.215   3.403  -0.375  0.00  0.00     0.099 C 
ENDBRANCH   2  21
TORSDOF 2
