REMARK  7 active torsions:
REMARK  status: ('A' for Active; 'I' for Inactive)
REMARK    1  A    between atoms: N_2  and  S_1 
REMARK    2  A    between atoms: C_13  and  S_1 
REMARK    3  A    between atoms: C_5  and  N_2 
REMARK    4  A    between atoms: O_25  and  C_8 
REMARK       I    between atoms: C_9  and  N_14 
REMARK    5  A    between atoms: C_10  and  C_9 
REMARK    6  A    between atoms: O_26  and  C_11 
REMARK    7  A    between atoms: N_14  and  C_24 
ROOT
ATOM      1  S   UNL d   1       0.979   0.127  -0.051  0.00  0.00     0.247 S 
ATOM      2  O   UNL d   1       0.096   1.183   0.401  0.00  0.00    -0.205 OA
ATOM      3  O   UNL d   1       1.116  -1.089   0.720  0.00  0.00    -0.205 OA
ENDROOT
BRANCH   1   4
ATOM      4  N   UNL d   1       2.509   0.834  -0.251  0.00  0.00    -0.166 NA
ATOM      5  H   UNL d   1       2.820   1.066   0.695  0.00  0.00     0.147 HD
BRANCH   4   6
ATOM      6  C   UNL d   1       3.504   0.007  -0.830  0.00  0.00     0.101 A 
ATOM      7  N   UNL d   1       4.148  -0.760   0.051  0.00  0.00    -0.312 N 
ATOM      8  C   UNL d   1       5.087  -1.558  -0.466  0.00  0.00     0.226 A 
ATOM      9  HN  UNL d   1       3.938  -0.740   1.049  1.00  0.00     0.170 HD
ATOM     10  N   UNL d   1       5.424  -1.619  -1.759  0.00  0.00    -0.302 N 
ATOM     11  C   UNL d   1       4.756  -0.805  -2.587  0.00  0.00     0.147 A 
ATOM     12  HN  UNL d   1       6.151  -2.250  -2.096  1.00  0.00     0.171 HD
ATOM     13  C   UNL d   1       3.757   0.038  -2.178  0.00  0.00     0.099 A 
BRANCH   8  14
ATOM     14  O   UNL d   1       5.745  -2.360   0.440  0.00  0.00    -0.327 OA
ATOM     15  C   UNL d   1       6.761  -3.151  -0.169  0.00  0.00     0.213 C 
ENDBRANCH   8  14
BRANCH  11  16
ATOM     16  O   UNL d   1       5.078  -0.801  -3.929  0.00  0.00    -0.341 OA
ATOM     17  C   UNL d   1       6.173  -1.666  -4.236  0.00  0.00     0.211 C 
ENDBRANCH  11  16
ENDBRANCH   4   6
ENDBRANCH   1   4
BRANCH   1  18
ATOM     18  C   UNL d   1       0.484  -0.326  -1.696  0.00  0.00     0.075 A 
ATOM     19  C   UNL d   1       0.771  -1.609  -2.169  0.00  0.00     0.027 A 
ATOM     20  C   UNL d   1       0.361  -1.984  -3.453  0.00  0.00     0.031 A 
ATOM     21  C   UNL d   1      -0.376  -1.101  -4.256  0.00  0.00     0.035 A 
ATOM     22  C   UNL d   1      -0.660   0.178  -3.760  0.00  0.00     0.031 A 
ATOM     23  C   UNL d   1      -0.236   0.570  -2.484  0.00  0.00     0.027 A 
BRANCH  21  24
ATOM     24  N   UNL d   1      -0.823  -1.581  -5.507  0.00  0.00    -0.321 N 
ATOM     25  C   UNL d   1      -1.603  -0.911  -6.431  0.00  0.00     0.279 C 
ATOM     26  O   UNL d   1      -1.953   0.262  -6.341  0.00  0.00    -0.265 OA
ATOM     27  H   UNL d   1      -0.609  -2.541  -5.746  0.00  0.00     0.169 HD
BRANCH  25  28
ATOM     28  C   UNL d   1      -2.023  -1.723  -7.564  0.00  0.00     0.142 A 
ATOM     29  O   UNL d   1      -1.619  -3.028  -7.676  0.00  0.00    -0.317 OA
ATOM     30  C   UNL d   1      -2.202  -3.528  -8.799  0.00  0.00     0.143 A 
ATOM     31  C   UNL d   1      -2.975  -2.572  -9.414  0.00  0.00     0.027 A 
ATOM     32  C   UNL d   1      -2.847  -1.403  -8.630  0.00  0.00     0.045 A 
ENDBRANCH  25  28
ENDBRANCH  21  24
ENDBRANCH   1  18
TORSDOF 7
