REMARK  6 active torsions:
REMARK  status: ('A' for Active; 'I' for Inactive)
REMARK    1  A    between atoms: C_10  and  N_1 
REMARK    2  A    between atoms: C_8  and  C_2 
REMARK    3  A    between atoms: S_15  and  C_5 
REMARK    4  A    between atoms: C_9  and  C_18 
REMARK    5  A    between atoms: O_17  and  C_13 
REMARK    6  A    between atoms: C_18  and  O_17 
ROOT
ATOM      1  N   UNL d   1      -0.278  -1.306   0.002  0.00  0.00    -0.275 N 
ATOM      2  C   UNL d   1       0.997  -0.719   0.024  0.00  0.00     0.140 A 
ATOM      3  N   UNL d   1       0.864   0.595   0.028  0.00  0.00    -0.282 N 
ATOM      4  HN  UNL d   1       1.627   1.269   0.093  1.00  0.00     0.188 HD
ATOM      5  C   UNL d   1      -1.139  -0.219  -0.089  0.00  0.00     0.165 A 
ATOM      6  N   UNL d   1      -0.461   0.903  -0.071  0.00  0.00    -0.278 N 
ATOM      7  HN  UNL d   1      -0.855   1.843  -0.122  1.00  0.00     0.189 HD
ENDROOT
BRANCH   2   8
ATOM      8  C   UNL d   1       2.301  -1.387  -0.034  0.00  0.00     0.025 A 
ATOM      9  C   UNL d   1       3.370  -0.903   0.716  0.00  0.00     0.105 A 
ATOM     10  N   UNL d   1       4.608  -1.458   0.732  0.00  0.00    -0.346 N 
ATOM     11  C   UNL d   1       4.820  -2.528  -0.057  0.00  0.00     0.142 A 
ATOM     12  HN  UNL d   1       5.350  -1.078   1.319  1.00  0.00     0.167 HD
ATOM     13  C   UNL d   1       3.833  -3.057  -0.875  0.00  0.00     0.057 A 
ATOM     14  C   UNL d   1       2.566  -2.471  -0.868  0.00  0.00     0.021 A 
BRANCH  11  15
ATOM     15  O   UNL d   1       6.109  -2.976  -0.045  0.00  0.00    -0.327 OA
BRANCH  15  16
ATOM     16  C   UNL d   1       6.254  -4.399  -0.060  0.00  0.00     0.294 C 
BRANCH  16  17
ATOM     17  C   UNL d   1       7.713  -4.818   0.086  0.00  0.00     0.408 C 
ATOM     18  F   UNL d   1       8.543  -3.787   0.347  0.00  0.00    -0.169 F 
ATOM     19  F   UNL d   1       7.856  -5.719   1.087  0.00  0.00    -0.169 F 
ATOM     20  F   UNL d   1       8.152  -5.415  -1.049  0.00  0.00    -0.169 F 
ENDBRANCH  16  17
ENDBRANCH  15  16
ENDBRANCH  11  15
ENDBRANCH   2   8
BRANCH   1  21
ATOM     21  C   UNL d   1      -0.597  -2.698   0.081  0.00  0.00     0.043 A 
ATOM     22  C   UNL d   1       0.162  -3.545   0.905  0.00  0.00     0.032 A 
ATOM     23  C   UNL d   1      -0.116  -4.914   0.958  0.00  0.00     0.026 A 
ATOM     24  C   UNL d   1      -1.166  -5.439   0.211  0.00  0.00     0.034 A 
ATOM     25  C   UNL d   1      -1.932  -4.607  -0.601  0.00  0.00     0.026 A 
ATOM     26 CL   UNL d   1      -1.512  -7.121   0.285  0.00  0.00    -0.084 Cl
ATOM     27  C   UNL d   1      -1.641  -3.241  -0.679  0.00  0.00     0.032 A 
ENDBRANCH   1  21
BRANCH   5  28
ATOM     28  S   UNL d   1      -2.874  -0.241  -0.037  0.00  0.00    -0.105 SA
ATOM     29  H   UNL d   1      -3.074  -1.436   0.532  0.00  0.00     0.110 HD
ENDBRANCH   5  28
TORSDOF 6
