REMARK  7 active torsions:
REMARK  status: ('A' for Active; 'I' for Inactive)
REMARK    1  A    between atoms: C_3  and  C_1 
REMARK    2  A    between atoms: C_4  and  C_2 
REMARK    3  A    between atoms: C_5  and  C_3 
REMARK    4  A    between atoms: C_8  and  O_13 
REMARK    5  A    between atoms: N_14  and  C_10 
REMARK    6  A    between atoms: O_13  and  C_17 
REMARK    7  A    between atoms: C_24  and  N_14 
ROOT
ATOM      1  C   UNL d   1      -0.900  -3.673   0.000  0.00  0.00     0.110 C 
ATOM      2  C   UNL d   1      -0.552  -4.974  -0.028  0.00  0.00     0.115 C 
ATOM      3  C   UNL d   1       0.114  -2.665   0.027  0.00  0.00     0.105 C 
ATOM      4  N   UNL d   1       1.009  -1.929   0.044  0.00  0.00    -0.191 NA
ENDROOT
BRANCH   1   5
ATOM      5  C   UNL d   1      -2.333  -3.222  -0.065  0.00  0.00     0.207 C 
ATOM      6  O   UNL d   1      -2.607  -2.084  -0.425  0.00  0.00    -0.286 OA
BRANCH   5   7
ATOM      7  C   UNL d   1      -3.385  -4.159   0.350  0.00  0.00     0.057 A 
ATOM      8  C   UNL d   1      -4.693  -4.176  -0.146  0.00  0.00     0.173 A 
ATOM      9  O   UNL d   1      -5.406  -5.178   0.456  0.00  0.00    -0.310 OA
ATOM     10  C   UNL d   1      -4.601  -5.790   1.358  0.00  0.00     0.051 A 
ATOM     11  C   UNL d   1      -3.365  -5.187   1.357  0.00  0.00     0.050 A 
ATOM     12  C   UNL d   1      -5.201  -6.911   2.117  0.00  0.00     0.076 C 
BRANCH   8  13
ATOM     13  C   UNL d   1      -5.453  -3.400  -1.166  0.00  0.00     0.440 C 
ATOM     14  F   UNL d   1      -4.712  -2.480  -1.827  0.00  0.00    -0.164 F 
ATOM     15  F   UNL d   1      -5.968  -4.221  -2.122  0.00  0.00    -0.164 F 
ATOM     16  F   UNL d   1      -6.506  -2.743  -0.615  0.00  0.00    -0.164 F 
ENDBRANCH   8  13
ENDBRANCH   5   7
ENDBRANCH   1   5
BRANCH   2  17
ATOM     17  N   UNL d   1       0.698  -5.548   0.084  0.00  0.00    -0.364 N 
ATOM     18  H   UNL d   1       1.489  -4.910   0.167  0.00  0.00     0.165 HD
BRANCH  17  19
ATOM     19  C   UNL d   1       1.039  -6.913   0.160  0.00  0.00     0.034 A 
ATOM     20  C   UNL d   1       0.103  -7.954   0.062  0.00  0.00     0.066 A 
ATOM     21  C   UNL d   1       0.506  -9.293   0.052  0.00  0.00     0.080 A 
ATOM     22  C   UNL d   1       1.847  -9.605   0.268  0.00  0.00     0.037 A 
ATOM     23  C   UNL d   1       2.789  -8.590   0.413  0.00  0.00     0.005 A 
ATOM     24  C   UNL d   1       2.388  -7.255   0.338  0.00  0.00     0.029 A 
BRANCH  21  25
ATOM     25  O   UNL d   1      -0.318 -10.364  -0.123  0.00  0.00    -0.255 OA
BRANCH  25  26
ATOM     26  C   UNL d   1      -1.486 -10.213  -0.922  0.00  0.00     0.530 C 
ATOM     27  F   UNL d   1      -1.511  -9.083  -1.660  0.00  0.00    -0.144 F 
ATOM     28  F   UNL d   1      -1.563 -11.259  -1.774  0.00  0.00    -0.144 F 
ATOM     29  F   UNL d   1      -2.578 -10.234  -0.126  0.00  0.00    -0.144 F 
ENDBRANCH  25  26
ENDBRANCH  21  25
ENDBRANCH  17  19
ENDBRANCH   2  17
TORSDOF 7
