REMARK  6 active torsions:
REMARK  status: ('A' for Active; 'I' for Inactive)
REMARK    1  A    between atoms: C_8  and  C_2 
REMARK    2  A    between atoms: S_9  and  C_5 
REMARK    3  A    between atoms: C_14  and  S_9 
REMARK    4  A    between atoms: C_11  and  C_14 
REMARK    5  A    between atoms: C_13  and  C_11 
REMARK    6  A    between atoms: O_25  and  C_22 
ROOT
ATOM      1  N   UNL d   1       0.849   0.042   0.129  0.00  0.00    -0.315 N 
ATOM      2  C   UNL d   1       0.010   1.127  -0.066  0.00  0.00     0.134 A 
ATOM      3  N   UNL d   1      -1.234   0.670  -0.087  0.00  0.00    -0.283 N 
ATOM      4  HN  UNL d   1      -2.071   1.242  -0.200  1.00  0.00     0.188 HD
ATOM      5  C   UNL d   1       0.032  -1.059   0.200  0.00  0.00     0.163 A 
ATOM      6  N   UNL d   1      -1.218  -0.696   0.066  0.00  0.00    -0.278 N 
ATOM      7  HN  UNL d   1      -2.031  -1.313   0.074  1.00  0.00     0.189 HD
ATOM      8  C   UNL d   1       2.281   0.033   0.282  0.00  0.00     0.160 C 
ENDROOT
BRANCH   5   9
ATOM      9  S   UNL d   1       0.623  -2.664   0.455  0.00  0.00    -0.085 SA
BRANCH   9  10
ATOM     10  C   UNL d   1      -0.910  -3.644   0.438  0.00  0.00     0.166 C 
BRANCH  10  11
ATOM     11  C   UNL d   1      -0.634  -5.110   0.764  0.00  0.00     0.169 C 
ATOM     12  O   UNL d   1       0.493  -5.563   0.964  0.00  0.00    -0.291 OA
BRANCH  11  13
ATOM     13  C   UNL d   1      -1.794  -6.056   0.851  0.00  0.00     0.011 A 
ATOM     14  C   UNL d   1      -3.116  -5.663   0.614  0.00  0.00     0.018 A 
ATOM     15  C   UNL d   1      -4.166  -6.587   0.737  0.00  0.00     0.037 A 
ATOM     16  C   UNL d   1      -3.903  -7.909   1.098  0.00  0.00     0.068 A 
ATOM     17  C   UNL d   1      -2.586  -8.314   1.299  0.00  0.00     0.037 A 
ATOM     18  C   UNL d   1      -1.538  -7.394   1.187  0.00  0.00     0.018 A 
BRANCH  16  19
ATOM     19  O   UNL d   1      -4.846  -8.890   1.234  0.00  0.00    -0.356 OA
ATOM     20  C   UNL d   1      -6.120  -8.453   1.697  0.00  0.00     0.210 C 
ENDBRANCH  16  19
ENDBRANCH  11  13
ENDBRANCH  10  11
ENDBRANCH   9  10
ENDBRANCH   5   9
BRANCH   2  21
ATOM     21  C   UNL d   1       0.380   2.550  -0.157  0.00  0.00     0.010 A 
ATOM     22  C   UNL d   1      -0.487   3.522   0.374  0.00  0.00     0.027 A 
ATOM     23  C   UNL d   1      -0.161   4.895   0.359  0.00  0.00    -0.025 A 
ATOM     24  C   UNL d   1      -1.030   5.872   0.882  0.00  0.00     0.012 A 
ATOM     25  C   UNL d   1       1.073   5.306  -0.189  0.00  0.00    -0.026 A 
ATOM     26  C   UNL d   1      -0.676   7.225   0.872  0.00  0.00     0.001 A 
ATOM     27  C   UNL d   1       0.554   7.619   0.352  0.00  0.00     0.001 A 
ATOM     28  C   UNL d   1       1.424   6.666  -0.174  0.00  0.00     0.012 A 
ATOM     29  C   UNL d   1       1.921   4.344  -0.753  0.00  0.00     0.013 A 
ATOM     30  C   UNL d   1       1.560   2.991  -0.763  0.00  0.00     0.016 A 
ENDBRANCH   2  21
TORSDOF 6
