REMARK  6 active torsions:
REMARK  status: ('A' for Active; 'I' for Inactive)
REMARK    1  A    between atoms: C_11  and  C_1 
REMARK    2  A    between atoms: N_7  and  C_2 
REMARK    3  A    between atoms: C_17  and  C_3 
REMARK       I    between atoms: C_10  and  N_7 
REMARK    4  A    between atoms: C_8  and  C_10 
REMARK    5  A    between atoms: C_12  and  CA_9 
REMARK    6  A    between atoms: OXT_23  and  C_12 
ROOT
ATOM      1  C   UNL d   1       1.537   0.762  -0.043  0.00  0.00     0.147 A 
ATOM      2  C   UNL d   1       0.217  -1.044   0.068  0.00  0.00     0.138 A 
ATOM      3  C   UNL d   1       1.546  -0.674  -0.118  0.00  0.00     0.053 A 
ATOM      4  N   UNL d   1       0.295   1.223   0.191  0.00  0.00    -0.292 N 
ATOM      5  HN  UNL d   1       0.005   2.196   0.293  1.00  0.00     0.187 HD
ATOM      6  N   UNL d   1      -0.481   0.130   0.262  0.00  0.00    -0.280 N 
ATOM      7  C   UNL d   1      -1.910   0.344   0.237  0.00  0.00     0.179 C 
ENDROOT
BRANCH   2   8
ATOM      8  N   UNL d   1      -0.279  -2.339  -0.009  0.00  0.00    -0.306 N 
ATOM      9  C   UNL d   1      -1.232  -2.877   0.919  0.00  0.00     0.276 C 
ATOM     10  O   UNL d   1      -1.649  -2.211   1.852  0.00  0.00    -0.266 OA
ATOM     11  H   UNL d   1       0.125  -2.982  -0.677  0.00  0.00     0.170 HD
BRANCH   9  12
ATOM     12  C   UNL d   1      -1.734  -4.228   0.583  0.00  0.00     0.134 A 
ATOM     13  CA  UNL d   1      -2.093  -5.146   1.554  0.00  0.00     0.139 A 
ATOM     14  N   UNL d   1      -2.786  -6.292   1.266  0.00  0.00    -0.357 N 
ATOM     15  C   UNL d   1      -3.055  -6.487  -0.051  0.00  0.00     0.105 A 
ATOM     16  HN  UNL d   1      -3.079  -6.950   1.987  1.00  0.00     0.165 HD
ATOM     17  C   UNL d   1      -2.640  -5.599  -1.034  0.00  0.00     0.105 A 
ATOM     18  N   UNL d   1      -1.969  -4.454  -0.749  0.00  0.00    -0.358 N 
ATOM     19  HN  UNL d   1      -1.661  -3.806  -1.474  1.00  0.00     0.165 HD
BRANCH  13  20
ATOM     20  C   UNL d   1      -1.595  -5.042   2.944  0.00  0.00     0.196 C 
ATOM     21  O   UNL d   1      -0.641  -4.357   3.263  0.00  0.00    -0.645 OA
BRANCH  20  22
ATOM     22  OXT UNL d   1      -2.264  -5.870   3.773  0.00  0.00    -0.772 OA
ATOM     23  HXT UNL d   1      -2.912  -6.426   3.280  0.00  0.00     0.167 HD
ENDBRANCH  20  22
ENDBRANCH  13  20
ENDBRANCH   9  12
ENDBRANCH   2   8
BRANCH   3  24
ATOM     24  C   UNL d   1       2.689  -1.580  -0.246  0.00  0.00    -0.020 A 
ATOM     25  C   UNL d   1       2.681  -2.682  -1.112  0.00  0.00     0.012 A 
ATOM     26  C   UNL d   1       3.804  -3.511  -1.227  0.00  0.00     0.001 A 
ATOM     27  C   UNL d   1       4.967  -3.219  -0.520  0.00  0.00     0.000 A 
ATOM     28  C   UNL d   1       4.998  -2.120   0.332  0.00  0.00     0.001 A 
ATOM     29  C   UNL d   1       3.859  -1.325   0.488  0.00  0.00     0.012 A 
ENDBRANCH   3  24
BRANCH   1  30
ATOM     30  C   UNL d   1       2.692   1.725  -0.200  0.00  0.00     0.434 C 
ATOM     31  F   UNL d   1       3.752   1.178  -0.852  0.00  0.00    -0.165 F 
ATOM     32  F   UNL d   1       2.350   2.832  -0.911  0.00  0.00    -0.165 F 
ATOM     33  F   UNL d   1       3.157   2.153   1.004  0.00  0.00    -0.165 F 
ENDBRANCH   1  30
TORSDOF 6
