REMARK  3 active torsions:
REMARK  status: ('A' for Active; 'I' for Inactive)
REMARK    1  A    between atoms: N_2  and  S_1 
REMARK    2  A    between atoms: C_6  and  S_1 
REMARK    3  A    between atoms: S_9  and  C_3 
ROOT
ATOM      1  S   UNL d   1       1.139   0.111   0.064  0.00  0.00     0.266 S 
ATOM      2  O   UNL d   1       1.269   0.879  -1.155  0.00  0.00    -0.200 OA
ATOM      3  O   UNL d   1       2.301  -0.119   0.899  0.00  0.00    -0.200 OA
ENDROOT
BRANCH   1   4
ATOM      4  N   UNL d   1       0.422  -1.391  -0.288  0.00  0.00    -0.251 N 
ATOM      5  C   UNL d   1      -0.668  -1.614  -1.171  0.00  0.00     0.151 C 
ATOM      6  N   UNL d   1      -1.150  -2.783  -1.403  0.00  0.00    -0.370 N 
ATOM      7  C   UNL d   1      -0.578  -3.962  -0.761  0.00  0.00     0.123 C 
ATOM      8  HN  UNL d   1      -1.940  -2.887  -2.041  1.00  0.00     0.161 HD
ATOM      9  C   UNL d   1       0.878  -3.776  -0.411  0.00  0.00     0.041 C 
ATOM     10  C   UNL d   1       1.015  -2.536   0.449  0.00  0.00     0.145 C 
BRANCH   5  11
ATOM     11  S   UNL d   1      -1.470  -0.248  -1.904  0.00  0.00    -0.098 SA
ATOM     12  C   UNL d   1      -2.141  -0.991  -3.400  0.00  0.00     0.099 C 
ENDBRANCH   5  11
ENDBRANCH   1   4
BRANCH   1  13
ATOM     13  C   UNL d   1       0.002   0.995   1.119  0.00  0.00     0.080 A 
ATOM     14  C   UNL d   1      -1.228   0.472   1.530  0.00  0.00     0.027 A 
ATOM     15  C   UNL d   1      -2.046   1.225   2.379  0.00  0.00     0.025 A 
ATOM     16  C   UNL d   1      -1.623   2.474   2.835  0.00  0.00     0.034 A 
ATOM     17  C   UNL d   1      -0.395   2.995   2.433  0.00  0.00     0.025 A 
ATOM     18 CL   UNL d   1      -2.617   3.370   3.917  0.00  0.00    -0.084 Cl
ATOM     19  C   UNL d   1       0.416   2.258   1.569  0.00  0.00     0.027 A 
ENDBRANCH   1  13
TORSDOF 3
