REMARK  6 active torsions:
REMARK  status: ('A' for Active; 'I' for Inactive)
REMARK    1  A    between atoms: C_3  and  S_1 
REMARK    2  A    between atoms: N_4  and  S_1 
REMARK    3  A    between atoms: S_2  and  C_5 
REMARK    4  A    between atoms: N_17  and  S_2 
REMARK    5  A    between atoms: C_16  and  N_4 
REMARK    6  A    between atoms: N_7  and  C_8 
REMARK       I    between atoms: C_15  and  N_7 
ROOT
ATOM      1  S   UNL d   1       1.122   0.079  -0.020  0.00  0.00     0.263 S 
ATOM      2  O   UNL d   1       0.591  -0.959  -0.878  0.00  0.00    -0.200 OA
ATOM      3  O   UNL d   1       2.547   0.288   0.111  0.00  0.00    -0.200 OA
ENDROOT
BRANCH   1   4
ATOM      4  C   UNL d   1       0.448  -0.191   1.604  0.00  0.00     0.081 A 
ATOM      5  C   UNL d   1       1.190   0.158   2.733  0.00  0.00     0.051 A 
ATOM      6  C   UNL d   1       0.683  -0.141   4.002  0.00  0.00     0.062 A 
ATOM      7 CL   UNL d   1       1.636   0.305   5.379  0.00  0.00    -0.082 Cl
ATOM      8  C   UNL d   1      -0.558  -0.791   4.164  0.00  0.00     0.056 A 
ATOM      9  C   UNL d   1      -1.281  -1.131   3.015  0.00  0.00     0.033 A 
ATOM     10  C   UNL d   1      -0.781  -0.840   1.740  0.00  0.00     0.027 A 
BRANCH   8  11
ATOM     11  N   UNL d   1      -1.008  -1.086   5.477  0.00  0.00    -0.326 N 
ATOM     12  C   UNL d   1      -2.188  -1.701   5.847  0.00  0.00     0.218 C 
ATOM     13  O   UNL d   1      -3.078  -2.083   5.096  0.00  0.00    -0.274 OA
ATOM     14  C   UNL d   1      -2.336  -1.873   7.339  0.00  0.00     0.117 C 
ATOM     15  H   UNL d   1      -0.371  -0.807   6.217  0.00  0.00     0.169 HD
ENDBRANCH   8  11
ENDBRANCH   1   4
BRANCH   1  16
ATOM     16  N   UNL d   1       0.391   1.498  -0.503  0.00  0.00    -0.281 N 
ATOM     17  H   UNL d   1      -0.247   1.443  -1.295  0.00  0.00     0.179 HD
BRANCH  16  18
ATOM     18  C   UNL d   1       0.748   2.755   0.031  0.00  0.00     0.044 A 
ATOM     19  C   UNL d   1      -0.083   3.329   0.985  0.00  0.00     0.054 A 
ATOM     20  C   UNL d   1       0.189   4.623   1.433  0.00  0.00     0.076 A 
ATOM     21  C   UNL d   1       1.258   5.356   0.910  0.00  0.00     0.025 A 
ATOM     22  C   UNL d   1       2.091   4.766  -0.042  0.00  0.00     0.004 A 
ATOM     23  C   UNL d   1       1.837   3.462  -0.480  0.00  0.00     0.030 A 
BRANCH  20  24
ATOM     24  S   UNL d   1      -0.870   5.349   2.643  0.00  0.00     0.239 S 
ATOM     25  O   UNL d   1      -0.796   6.789   2.538  0.00  0.00    -0.206 OA
ATOM     26  O   UNL d   1      -2.123   4.633   2.667  0.00  0.00    -0.206 OA
BRANCH  24  27
ATOM     27  N   UNL d   1      -0.075   4.941   4.062  0.00  0.00    -0.225 NA
ATOM     28  H   UNL d   1       0.229   5.786   4.546  0.00  0.00     0.136 HD
ATOM     29  H   UNL d   1      -0.662   4.328   4.628  0.00  0.00     0.136 HD
ENDBRANCH  24  27
ENDBRANCH  20  24
ENDBRANCH  16  18
ENDBRANCH   1  16
TORSDOF 6
