REMARK  5 active torsions:
REMARK  status: ('A' for Active; 'I' for Inactive)
REMARK    1  A    between atoms: C_6  and  C_2 
REMARK    2  A    between atoms: S_12  and  C_3 
REMARK    3  A    between atoms: C_15  and  C_11 
REMARK    4  A    between atoms: C_18  and  S_12 
REMARK    5  A    between atoms: C_13  and  C_18 
ROOT
ATOM      1  C   UNL d   1       2.278  -0.704   0.021  0.00  0.00     0.088 A 
ATOM      2  C   UNL d   1       1.069  -1.441   0.045  0.00  0.00    -0.004 A 
ATOM      3  C   UNL d   1       2.206   0.710   0.018  0.00  0.00     0.092 A 
ATOM      4  N   UNL d   1       1.030   1.386   0.025  0.00  0.00    -0.352 N 
ATOM      5  HN  UNL d   1       1.001   2.405   0.018  1.00  0.00     0.166 HD
ATOM      6  C   UNL d   1      -0.124  -0.730   0.052  0.00  0.00    -0.024 A 
ATOM      7  C   UNL d   1      -0.089   0.657   0.040  0.00  0.00     0.017 A 
ATOM      8  C   UNL d   1       3.535  -1.382   0.025  0.00  0.00     0.103 C 
ATOM      9  N   UNL d   1       4.552  -1.946   0.030  0.00  0.00    -0.191 NA
ATOM     10  C   UNL d   1      -1.537  -1.218   0.138  0.00  0.00     0.042 C 
ATOM     11  C   UNL d   1      -1.467   1.246   0.123  0.00  0.00     0.058 C 
ATOM     12  C   UNL d   1      -2.332   0.038  -0.251  0.00  0.00     0.011 C 
ENDROOT
BRANCH   2  13
ATOM     13  C   UNL d   1       1.003  -2.914   0.045  0.00  0.00     0.014 C 
ATOM     14  C   UNL d   1       0.893  -3.626   1.180  0.00  0.00     0.012 C 
BRANCH  14  15
ATOM     15  C   UNL d   1       0.659  -5.080   1.236  0.00  0.00    -0.036 A 
ATOM     16  C   UNL d   1       1.197  -5.824   2.298  0.00  0.00     0.011 A 
ATOM     17  C   UNL d   1       0.910  -7.181   2.448  0.00  0.00     0.001 A 
ATOM     18  C   UNL d   1       0.063  -7.819   1.538  0.00  0.00     0.000 A 
ATOM     19  C   UNL d   1      -0.482  -7.097   0.477  0.00  0.00     0.001 A 
ATOM     20  C   UNL d   1      -0.188  -5.738   0.329  0.00  0.00     0.011 A 
ENDBRANCH  14  15
ENDBRANCH   2  13
BRANCH   3  21
ATOM     21  S   UNL d   1       3.669   1.755  -0.012  0.00  0.00    -0.107 SA
BRANCH  21  22
ATOM     22  C   UNL d   1       2.976   3.275   0.719  0.00  0.00     0.107 C 
BRANCH  22  23
ATOM     23  C   UNL d   1       4.029   4.339   0.833  0.00  0.00    -0.026 C 
ATOM     24  C   UNL d   1       4.428   4.882   1.992  0.00  0.00     0.007 C 
ENDBRANCH  22  23
ENDBRANCH  21  22
ENDBRANCH   3  21
TORSDOF 5
