REMARK  2 active torsions:
REMARK  status: ('A' for Active; 'I' for Inactive)
REMARK    1  A    between atoms: S_2  and  N_1 
REMARK    2  A    between atoms: C_10  and  S_2 
ROOT
ATOM      1  N   UNL d   1       2.784   0.909   0.970  0.00  0.00    -0.280 N 
ATOM      2  C   UNL d   1       3.765   1.997   1.031  0.00  0.00     0.235 C 
ATOM      3  N   UNL d   1       5.089   1.403   1.173  0.00  0.00    -0.322 N 
ATOM      4  C   UNL d   1       5.571   1.491   2.467  0.00  0.00     0.256 C 
ATOM      5  C   UNL d   1       3.718   2.857   2.269  0.00  0.00     0.000 A 
ATOM      6  C   UNL d   1       4.739   2.484   3.145  0.00  0.00     0.042 A 
ATOM      7  O   UNL d   1       6.509   0.903   2.969  0.00  0.00    -0.267 OA
ATOM      8  C   UNL d   1       3.311  -0.463   0.787  0.00  0.00     0.139 C 
ATOM      9  C   UNL d   1       5.564   0.442   0.209  0.00  0.00     0.130 C 
ATOM     10  C   UNL d   1       4.420  -0.443  -0.262  0.00  0.00     0.041 C 
ATOM     11  C   UNL d   1       2.934   3.954   2.586  0.00  0.00     0.012 A 
ATOM     12  C   UNL d   1       4.971   3.101   4.362  0.00  0.00     0.018 A 
ATOM     13  C   UNL d   1       3.171   4.628   3.793  0.00  0.00     0.001 A 
ATOM     14  C   UNL d   1       4.169   4.194   4.684  0.00  0.00     0.001 A 
ENDROOT
BRANCH   1  15
ATOM     15  S   UNL d   1       1.171   1.227   0.658  0.00  0.00     0.262 S 
ATOM     16  O   UNL d   1       0.385   0.404   1.556  0.00  0.00    -0.200 OA
ATOM     17  O   UNL d   1       0.965   2.653   0.567  0.00  0.00    -0.200 OA
BRANCH  15  18
ATOM     18  C   UNL d   1       0.919   0.574  -0.987  0.00  0.00     0.079 A 
ATOM     19  C   UNL d   1       0.295  -0.672  -1.149  0.00  0.00     0.025 A 
ATOM     20  C   UNL d   1       0.076  -1.173  -2.432  0.00  0.00     0.002 A 
ATOM     21  C   UNL d   1       0.458  -0.424  -3.545  0.00  0.00     0.000 A 
ATOM     22  C   UNL d   1       1.054   0.828  -3.379  0.00  0.00     0.002 A 
ATOM     23  C   UNL d   1       1.284   1.335  -2.099  0.00  0.00     0.025 A 
ENDBRANCH  15  18
ENDBRANCH   1  15
TORSDOF 2
