REMARK  2 active torsions:
REMARK  status: ('A' for Active; 'I' for Inactive)
REMARK    1  A    between atoms: C_7  and  C_1 
REMARK    2  A    between atoms: O_18  and  C_16 
ROOT
ATOM      1  C   UNL d   1       0.667   1.260  -0.199  0.00  0.00     0.033 C 
ATOM      2  N   UNL d   1      -0.726  -1.242   0.182  0.00  0.00    -0.295 N 
ATOM      3  C   UNL d   1       1.393  -0.016   0.339  0.00  0.00     0.199 C 
ATOM      4  C   UNL d   1      -0.836   1.211   0.250  0.00  0.00     0.199 C 
ATOM      5  C   UNL d   1       0.626  -1.271  -0.021  0.00  0.00     0.243 C 
ATOM      6  C   UNL d   1      -1.475  -0.129  -0.090  0.00  0.00     0.243 C 
ATOM      7  C   UNL d   1       1.572  -0.015   1.797  0.00  0.00     0.074 C 
ATOM      8  C   UNL d   1      -1.651   2.292  -0.343  0.00  0.00     0.074 C 
ATOM      9  N   UNL d   1      -2.248   3.184  -0.781  0.00  0.00    -0.196 NA
ATOM     10  N   UNL d   1       1.667  -0.013   2.955  0.00  0.00    -0.196 NA
ATOM     11  O   UNL d   1       1.164  -2.258  -0.514  0.00  0.00    -0.272 OA
ATOM     12  O   UNL d   1      -2.587  -0.264  -0.589  0.00  0.00    -0.272 OA
ATOM     13  C   UNL d   1       0.735   1.235  -1.762  0.00  0.00     0.024 C 
ATOM     14  H   UNL d   1      -1.189  -2.098  -0.107  0.00  0.00     0.171 HD
ENDROOT
BRANCH   1  15
ATOM     15  C   UNL d   1       1.440   2.533   0.258  0.00  0.00    -0.044 A 
ATOM     16  C   UNL d   1       2.792   2.703  -0.121  0.00  0.00     0.044 A 
ATOM     17  C   UNL d   1       3.499   3.875   0.168  0.00  0.00     0.068 A 
ATOM     18  C   UNL d   1       2.862   4.904   0.853  0.00  0.00     0.037 A 
ATOM     19  C   UNL d   1       1.549   4.745   1.284  0.00  0.00     0.003 A 
ATOM     20  C   UNL d   1       0.854   3.566   1.009  0.00  0.00     0.008 A 
BRANCH  17  21
ATOM     21  O   UNL d   1       4.795   4.134  -0.184  0.00  0.00    -0.356 OA
ATOM     22  C   UNL d   1       5.504   3.092  -0.842  0.00  0.00     0.210 C 
ENDBRANCH  17  21
ENDBRANCH   1  15
TORSDOF 2
