REMARK  3 active torsions:
REMARK  status: ('A' for Active; 'I' for Inactive)
REMARK    1  A    between atoms: N_4  and  C_1 
REMARK    2  A    between atoms: N_5  and  C_2 
REMARK    3  A    between atoms: N_6  and  C_3 
ROOT
ATOM      1  C   UNL d   1       1.749  -1.164   0.110  0.00  0.00     0.133 A 
ATOM      2  C   UNL d   1       1.668   1.188  -0.102  0.00  0.00     0.133 A 
ATOM      3  C   UNL d   1       2.489   0.046   0.037  0.00  0.00     0.097 A 
ATOM      4  C   UNL d   1       0.258   1.147  -0.143  0.00  0.00     0.062 A 
ATOM      5  C   UNL d   1       0.344  -1.241   0.053  0.00  0.00     0.062 A 
ATOM      6  C   UNL d   1      -0.392  -0.074  -0.064  0.00  0.00     0.038 A 
ATOM      7 CL   UNL d   1      -2.107  -0.140  -0.107  0.00  0.00    -0.084 Cl
ENDROOT
BRANCH   3   8
ATOM      8  N   UNL d   1       3.874   0.050   0.153  0.00  0.00    -0.373 N 
ATOM      9  C   UNL d   1       4.625   1.145   0.811  0.00  0.00     0.149 C 
ATOM     10  C   UNL d   1       5.954   0.600   1.368  0.00  0.00     0.187 C 
ATOM     11  O   UNL d   1       6.734  -0.039   0.345  0.00  0.00    -0.388 OA
ATOM     12  C   UNL d   1       5.998  -1.126  -0.242  0.00  0.00     0.187 C 
ATOM     13  C   UNL d   1       4.694  -0.621  -0.888  0.00  0.00     0.149 C 
ENDBRANCH   3   8
BRANCH   2  14
ATOM     14  N   UNL d   1       2.232   2.504  -0.298  0.00  0.00    -0.113 N 
ATOM     15  O   UNL d   1       2.724   2.748  -1.407  0.00  0.00    -0.532 OA
ATOM     16  O   UNL d   1       2.138   3.300   0.647  0.00  0.00    -0.532 OA
ENDBRANCH   2  14
BRANCH   1  17
ATOM     17  N   UNL d   1       2.420  -2.433   0.333  0.00  0.00    -0.113 N 
ATOM     18  O   UNL d   1       2.948  -2.616   1.434  0.00  0.00    -0.532 OA
ATOM     19  O   UNL d   1       2.368  -3.255  -0.594  0.00  0.00    -0.532 OA
ENDBRANCH   1  17
TORSDOF 3
