REMARK  5 active torsions:
REMARK  status: ('A' for Active; 'I' for Inactive)
REMARK    1  A    between atoms: C_2  and  S_1 
REMARK    2  A    between atoms: N_3  and  S_1 
REMARK    3  A    between atoms: C_9  and  N_3 
REMARK    4  A    between atoms: O_13  and  C_12 
REMARK    5  A    between atoms: C_14  and  O_13 
ROOT
ATOM      1  C   UNL d   1       0.817   2.516   0.617  0.00  0.00     0.076 A 
ATOM      2  C   UNL d   1       2.109   2.667   1.140  0.00  0.00     0.103 A 
ATOM      3  C   UNL d   1      -0.127   3.525   0.812  0.00  0.00     0.033 A 
ATOM      4  C   UNL d   1       2.397   3.769   1.958  0.00  0.00     0.039 A 
ATOM      5  C   UNL d   1       0.200   4.661   1.557  0.00  0.00     0.002 A 
ATOM      6  C   UNL d   1       1.452   4.773   2.151  0.00  0.00     0.003 A 
ENDROOT
BRANCH   1   7
ATOM      7  N   UNL d   1       0.436   1.311  -0.059  0.00  0.00    -0.278 N 
ATOM      8  H   UNL d   1       1.003   0.499   0.192  0.00  0.00     0.179 HD
BRANCH   7   9
ATOM      9  S   UNL d   1       0.111   1.349  -1.711  0.00  0.00     0.267 S 
ATOM     10  O   UNL d   1      -0.421   0.049  -2.055  0.00  0.00    -0.200 OA
ATOM     11  O   UNL d   1      -0.596   2.561  -2.065  0.00  0.00    -0.200 OA
BRANCH   9  12
ATOM     12  C   UNL d   1       1.593   1.427  -2.562  0.00  0.00     0.135 A 
ATOM     13  C   UNL d   1       2.388   0.386  -2.991  0.00  0.00     0.098 A 
ATOM     14  O   UNL d   1       3.481   0.906  -3.611  0.00  0.00    -0.241 OA
ATOM     15  C   UNL d   1       2.331  -1.088  -2.964  0.00  0.00     0.081 C 
ATOM     16  N   UNL d   1       3.408   2.283  -3.617  0.00  0.00    -0.264 N 
ATOM     17  C   UNL d   1       2.260   2.595  -2.998  0.00  0.00     0.054 A 
ATOM     18  HN  UNL d   1       4.089   2.932  -4.012  1.00  0.00     0.194 HD
ATOM     19  C   UNL d   1       1.866   4.019  -2.894  0.00  0.00     0.072 C 
ENDBRANCH   9  12
ENDBRANCH   7   9
ENDBRANCH   1   7
BRANCH   2  20
ATOM     20  O   UNL d   1       3.050   1.696   0.844  0.00  0.00    -0.309 OA
BRANCH  20  21
ATOM     21  C   UNL d   1       4.364   2.114   0.740  0.00  0.00     0.076 A 
ATOM     22  C   UNL d   1       5.330   1.357   1.400  0.00  0.00     0.037 A 
ATOM     23  C   UNL d   1       6.657   1.790   1.413  0.00  0.00     0.003 A 
ATOM     24  C   UNL d   1       7.017   2.970   0.759  0.00  0.00     0.000 A 
ATOM     25  C   UNL d   1       6.059   3.698   0.055  0.00  0.00     0.003 A 
ATOM     26  C   UNL d   1       4.737   3.256   0.022  0.00  0.00     0.037 A 
ENDBRANCH  20  21
ENDBRANCH   2  20
TORSDOF 5
