REMARK  5 active torsions:
REMARK  status: ('A' for Active; 'I' for Inactive)
REMARK    1  A    between atoms: C_7  and  C_1 
REMARK    2  A    between atoms: C_8  and  N_2 
REMARK    3  A    between atoms: C_9  and  C_6 
REMARK    4  A    between atoms: O_12  and  C_7 
REMARK    5  A    between atoms: C_11  and  C_8 
ROOT
ATOM      1  C   UNL d   1      -0.450  -1.220   0.271  0.00  0.00     0.126 A 
ATOM      2  N   UNL d   1       0.825  -0.729   0.114  0.00  0.00    -0.281 N 
ATOM      3  N   UNL d   1       0.873   0.622   0.057  0.00  0.00    -0.301 N 
ATOM      4  HN  UNL d   1       1.703   1.211  -0.006  1.00  0.00     0.187 HD
ATOM      5  C   UNL d   1      -1.264  -0.097   0.240  0.00  0.00     0.065 A 
ATOM      6  C   UNL d   1      -0.403   1.018   0.100  0.00  0.00     0.036 A 
ENDROOT
BRANCH   2   7
ATOM      7  C   UNL d   1       2.064  -1.478  -0.085  0.00  0.00     0.188 C 
BRANCH   7   8
ATOM      8  C   UNL d   1       2.740  -1.890   1.201  0.00  0.00    -0.038 A 
ATOM      9  C   UNL d   1       3.241  -0.929   2.095  0.00  0.00     0.015 A 
ATOM     10  C   UNL d   1       3.997  -1.309   3.214  0.00  0.00    -0.061 A 
ATOM     11  C   UNL d   1       4.595  -0.281   4.128  0.00  0.00     0.048 C 
ATOM     12  C   UNL d   1       4.221  -2.669   3.457  0.00  0.00     0.007 A 
ATOM     13  C   UNL d   1       3.708  -3.633   2.590  0.00  0.00     0.001 A 
ATOM     14  C   UNL d   1       2.977  -3.247   1.466  0.00  0.00     0.009 A 
ENDBRANCH   7   8
ENDBRANCH   2   7
BRANCH   1  15
ATOM     15  C   UNL d   1      -0.784  -2.616   0.377  0.00  0.00     0.195 C 
ATOM     16  O   UNL d   1      -0.114  -3.548  -0.044  0.00  0.00    -0.645 OA
BRANCH  15  17
ATOM     17  O   UNL d   1      -1.961  -2.815   1.018  0.00  0.00    -0.772 OA
ATOM     18  H   UNL d   1      -2.317  -2.006   1.427  0.00  0.00     0.167 HD
ENDBRANCH  15  17
ENDBRANCH   1  15
BRANCH   6  19
ATOM     19  C   UNL d   1      -0.762   2.496   0.037  0.00  0.00    -0.007 C 
ATOM     20  C   UNL d   1      -0.811   3.072   1.465  0.00  0.00     0.021 C 
ATOM     21  C   UNL d   1       0.274   3.296  -0.783  0.00  0.00     0.021 C 
ATOM     22  C   UNL d   1      -2.139   2.712  -0.626  0.00  0.00     0.021 C 
ENDBRANCH   6  19
TORSDOF 5
