REMARK  2 active torsions:
REMARK  status: ('A' for Active; 'I' for Inactive)
REMARK    1  A    between atoms: N_9  and  C_2 
REMARK    2  A    between atoms: O_12  and  C_11 
ROOT
ATOM      1  C   UNL d   1       2.413   0.785   0.007  0.00  0.00     0.096 A 
ATOM      2  C   UNL d   1       2.436  -0.698   0.006  0.00  0.00     0.163 A 
ATOM      3  O   UNL d   1       1.210  -1.340   0.109  0.00  0.00    -0.289 OA
ATOM      4  C   UNL d   1       1.254   1.460   0.032  0.00  0.00     0.041 A 
ATOM      5  C   UNL d   1      -0.019  -0.641   0.081  0.00  0.00     0.121 A 
ATOM      6  C   UNL d   1      -0.016   0.752   0.031  0.00  0.00     0.002 A 
ATOM      7  C   UNL d   1       3.643   1.496  -0.028  0.00  0.00     0.104 C 
ATOM      8  N   UNL d   1       4.645   2.077  -0.067  0.00  0.00    -0.191 NA
ATOM      9  C   UNL d   1      -1.210  -1.380   0.075  0.00  0.00     0.102 A 
ATOM     10  C   UNL d   1      -1.232   1.431  -0.038  0.00  0.00     0.014 A 
ATOM     11  C   UNL d   1      -2.428   0.713  -0.075  0.00  0.00     0.004 A 
ATOM     12  C   UNL d   1      -2.418  -0.685  -0.021  0.00  0.00     0.040 A 
ENDROOT
BRANCH   2  13
ATOM     13  N   UNL d   1       3.478  -1.450  -0.077  0.00  0.00    -0.378 N 
ATOM     14  H   UNL d   1       4.347  -0.918  -0.158  0.00  0.00     0.158 HD
ATOM     15  HN  UNL d   1       3.440  -2.470  -0.064  1.00  0.00     0.158 HD
ENDBRANCH   2  13
BRANCH   9  16
ATOM     16  O   UNL d   1      -1.089  -2.740   0.160  0.00  0.00    -0.353 OA
ATOM     17  C   UNL d   1      -2.289  -3.503   0.178  0.00  0.00     0.210 C 
ENDBRANCH   9  16
TORSDOF 2
