REMARK  5 active torsions:
REMARK  status: ('A' for Active; 'I' for Inactive)
REMARK    1  A    between atoms: N_2  and  C_1 
REMARK    2  A    between atoms: N_8  and  C_3 
REMARK    3  A    between atoms: C_9  and  C_4 
REMARK    4  A    between atoms: C_10  and  N_8 
REMARK    5  A    between atoms: O_16  and  C_9 
ROOT
ATOM      1  C   UNL d   1       0.856   1.138   0.288  0.00  0.00     0.147 A 
ATOM      2  C   UNL d   1      -0.532   1.179   0.164  0.00  0.00     0.139 A 
ATOM      3  C   UNL d   1       0.849  -1.250   0.071  0.00  0.00     0.057 A 
ATOM      4  C   UNL d   1       1.565  -0.068   0.234  0.00  0.00     0.059 A 
ATOM      5  N   UNL d   1      -1.222   0.018   0.037  0.00  0.00    -0.349 N 
ATOM      6  HN  UNL d   1      -2.240   0.024  -0.021  1.00  0.00     0.167 HD
ATOM      7  C   UNL d   1      -0.534  -1.157  -0.012  0.00  0.00     0.107 A 
ENDROOT
BRANCH   2   8
ATOM      8  N   UNL d   1      -1.241   2.390   0.135  0.00  0.00    -0.340 N 
ATOM      9  H   UNL d   1      -0.913   3.046  -0.560  0.00  0.00     0.167 HD
BRANCH   8  10
ATOM     10  C   UNL d   1      -2.533   2.658   0.627  0.00  0.00     0.039 A 
ATOM     11  C   UNL d   1      -3.422   3.521  -0.047  0.00  0.00    -0.035 A 
ATOM     12  C   UNL d   1      -3.150   4.096  -1.411  0.00  0.00     0.050 C 
ATOM     13  C   UNL d   1      -4.639   3.873   0.567  0.00  0.00     0.009 A 
ATOM     14  C   UNL d   1      -5.005   3.336   1.799  0.00  0.00     0.001 A 
ATOM     15  C   UNL d   1      -4.173   2.414   2.421  0.00  0.00     0.002 A 
ATOM     16  C   UNL d   1      -2.954   2.072   1.833  0.00  0.00     0.030 A 
ENDBRANCH   8  10
ENDBRANCH   2   8
BRANCH   1  17
ATOM     17  N   UNL d   1       1.600   2.348   0.527  0.00  0.00    -0.112 N 
ATOM     18  O   UNL d   1       1.377   2.969   1.571  0.00  0.00    -0.532 OA
ATOM     19  O   UNL d   1       2.447   2.652  -0.323  0.00  0.00    -0.532 OA
ENDBRANCH   1  17
BRANCH   3  20
ATOM     20  C   UNL d   1       1.484  -2.586  -0.007  0.00  0.00     0.294 C 
ATOM     21  O   UNL d   1       0.857  -3.623  -0.131  0.00  0.00    -0.259 OA
BRANCH  20  22
ATOM     22  O   UNL d   1       2.830  -2.459   0.075  0.00  0.00    -0.322 OA
ATOM     23  C   UNL d   1       3.543  -3.696   0.008  0.00  0.00     0.213 C 
ENDBRANCH  20  22
ENDBRANCH   3  20
TORSDOF 5
