REMARK  11 active torsions:
REMARK  status: ('A' for Active; 'I' for Inactive)
REMARK    1  A    between atoms: C_3  and  C_12 
REMARK       I    between atoms: C_4  and  N_7 
REMARK    2  A    between atoms: C_15  and  C_4 
REMARK    3  A    between atoms: C_9  and  C_5 
REMARK    4  A    between atoms: C_10  and  C_6 
REMARK    5  A    between atoms: N_7  and  C_16 
REMARK    6  A    between atoms: S_11  and  C_8 
REMARK    7  A    between atoms: O_26  and  C_9 
REMARK    8  A    between atoms: O_25  and  C_10 
REMARK    9  A    between atoms: C_17  and  S_11 
REMARK   10  A    between atoms: C_33  and  O_25 
REMARK   11  A    between atoms: C_32  and  O_26 
ROOT
ATOM      1  C   UNL d   1       3.600   1.984   0.690  0.00  0.00     0.052 C 
ATOM      2  C   UNL d   1       3.253   1.957  -0.674  0.00  0.00     0.032 C 
ATOM      3  C   UNL d   1       4.016   3.215   1.249  0.00  0.00     0.031 C 
ATOM      4  C   UNL d   1       3.515   3.101  -1.459  0.00  0.00     0.021 C 
ATOM      5  C   UNL d   1       4.211   4.352   0.465  0.00  0.00     0.002 C 
ATOM      6  C   UNL d   1       4.001   4.282  -0.901  0.00  0.00     0.002 C 
ENDROOT
BRANCH   2   7
ATOM      7  S   UNL d   1       2.441   0.653  -1.587  0.00  0.00    -0.088 SA
BRANCH   7   8
ATOM      8  C   UNL d   1       0.832   0.526  -0.833  0.00  0.00     0.010 A 
ATOM      9  C   UNL d   1      -0.118   1.547  -0.894  0.00  0.00     0.054 A 
ATOM     10  C   UNL d   1      -1.397   1.297  -0.398  0.00  0.00     0.110 A 
ATOM     11  N   UNL d   1      -1.757   0.121   0.177  0.00  0.00    -0.346 N 
ATOM     12  C   UNL d   1      -0.811  -0.850   0.230  0.00  0.00     0.110 A 
ATOM     13  HN  UNL d   1      -2.694  -0.025   0.552  1.00  0.00     0.166 HD
ATOM     14  C   UNL d   1       0.472  -0.697  -0.276  0.00  0.00     0.054 A 
BRANCH  10  15
ATOM     15  C   UNL d   1      -2.450   2.354  -0.543  0.00  0.00     0.310 C 
ATOM     16  O   UNL d   1      -2.237   3.440  -1.064  0.00  0.00    -0.258 OA
BRANCH  15  17
ATOM     17  O   UNL d   1      -3.645   1.937  -0.049  0.00  0.00    -0.317 OA
BRANCH  17  18
ATOM     18  C   UNL d   1      -4.751   2.841  -0.203  0.00  0.00     0.175 C 
ATOM     19  C   UNL d   1      -4.759   3.880   0.904  0.00  0.00     0.034 C 
ENDBRANCH  17  18
ENDBRANCH  15  17
ENDBRANCH  10  15
BRANCH  12  20
ATOM     20  C   UNL d   1      -1.159  -2.147   0.882  0.00  0.00     0.310 C 
ATOM     21  O   UNL d   1      -0.382  -3.088   0.959  0.00  0.00    -0.258 OA
BRANCH  20  22
ATOM     22  O   UNL d   1      -2.412  -2.111   1.402  0.00  0.00    -0.317 OA
BRANCH  22  23
ATOM     23  C   UNL d   1      -2.814  -3.291   2.112  0.00  0.00     0.175 C 
ATOM     24  C   UNL d   1      -2.298  -3.243   3.539  0.00  0.00     0.034 C 
ENDBRANCH  22  23
ENDBRANCH  20  22
ENDBRANCH  12  20
ENDBRANCH   7   8
ENDBRANCH   2   7
BRANCH   1  25
ATOM     25  N   UNL d   1       3.646   0.903   1.614  0.00  0.00    -0.322 N 
ATOM     26  C   UNL d   1       3.904  -0.434   1.356  0.00  0.00     0.256 C 
ATOM     27  O   UNL d   1       4.009  -0.979   0.263  0.00  0.00    -0.267 OA
ATOM     28  H   UNL d   1       3.870   1.188   2.559  0.00  0.00     0.169 HD
BRANCH  26  29
ATOM     29  C   UNL d   1       4.245  -1.238   2.571  0.00  0.00     0.033 A 
ATOM     30  C   UNL d   1       3.684  -0.963   3.826  0.00  0.00     0.033 A 
ATOM     31  C   UNL d   1       4.169  -1.604   4.980  0.00  0.00     0.048 A 
ATOM     32  C   UNL d   1       5.186  -2.564   4.852  0.00  0.00     0.016 A 
ATOM     33  C   UNL d   1       5.696  -2.893   3.596  0.00  0.00     0.002 A 
ATOM     34  C   UNL d   1       5.228  -2.232   2.459  0.00  0.00     0.017 A 
BRANCH  31  35
ATOM     35  C   UNL d   1       3.651  -1.235   6.349  0.00  0.00     0.417 C 
ATOM     36  F   UNL d   1       2.685  -0.274   6.316  0.00  0.00    -0.166 F 
ATOM     37  F   UNL d   1       3.114  -2.290   7.016  0.00  0.00    -0.166 F 
ATOM     38  F   UNL d   1       4.635  -0.740   7.151  0.00  0.00    -0.166 F 
ENDBRANCH  31  35
ENDBRANCH  26  29
ENDBRANCH   1  25
TORSDOF 11
