REMARK  8 active torsions:
REMARK  status: ('A' for Active; 'I' for Inactive)
REMARK    1  A    between atoms: C_3  and  N_1 
REMARK       I    between atoms: C_2  and  N_10 
REMARK       I    between atoms: N_8  and  C_2 
REMARK    2  A    between atoms: C_20  and  C_3 
REMARK    3  A    between atoms: C_21  and  C_3 
REMARK    4  A    between atoms: C_4  and  C_22 
REMARK       I    between atoms: N_11  and  C_4 
REMARK    5  A    between atoms: C_5  and  N_8 
REMARK    6  A    between atoms: S_16  and  C_9 
REMARK    7  A    between atoms: N_10  and  N_11 
REMARK    8  A    between atoms: C_22  and  S_16 
ROOT
ATOM      1  C   UNL d   1      -1.837  -2.578  -1.808  0.00  0.00     0.178 C 
ENDROOT
BRANCH   1   2
ATOM      2  C   UNL d   1      -3.024  -1.651  -1.693  0.00  0.00     0.245 C 
ATOM      3  N   UNL d   1      -3.504  -1.169  -2.890  0.00  0.00    -0.265 N 
ATOM      4  H   UNL d   1      -3.111  -1.404  -3.806  0.00  0.00     0.190 HD
ATOM      5  O   UNL d   1      -3.511  -1.324  -0.607  0.00  0.00    -0.271 OA
BRANCH   3   6
ATOM      6  N   UNL d   1      -4.601  -0.289  -2.885  0.00  0.00    -0.249 N 
ATOM      7  C   UNL d   1      -4.991   0.216  -4.112  0.00  0.00     0.339 C 
ATOM      8  N   UNL d   1      -6.018   1.131  -4.005  0.00  0.00    -0.308 N 
ATOM      9  O   UNL d   1      -4.451  -0.166  -5.148  0.00  0.00    -0.245 OA
ATOM     10  H   UNL d   1      -6.279   1.403  -3.068  0.00  0.00     0.170 HD
ATOM     11  H   UNL d   1      -4.677   0.280  -2.047  0.00  0.00     0.192 HD
BRANCH   8  12
ATOM     12  C   UNL d   1      -6.606   1.846  -5.074  0.00  0.00     0.039 A 
ATOM     13  C   UNL d   1      -6.430   1.495  -6.416  0.00  0.00     0.053 A 
ATOM     14  C   UNL d   1      -6.935   2.309  -7.430  0.00  0.00     0.037 A 
ATOM     15 CL   UNL d   1      -6.668   1.881  -9.076  0.00  0.00    -0.084 Cl
ATOM     16  C   UNL d   1      -7.634   3.471  -7.126  0.00  0.00     0.048 A 
ATOM     17  C   UNL d   1      -7.862   3.790  -5.791  0.00  0.00     0.037 A 
ATOM     18  C   UNL d   1      -7.370   2.977  -4.765  0.00  0.00     0.053 A 
ATOM     19 CL   UNL d   1      -8.727   5.225  -5.399  0.00  0.00    -0.084 Cl
ENDBRANCH   8  12
ENDBRANCH   3   6
ENDBRANCH   1   2
BRANCH   1  20
ATOM     20  S   UNL d   1      -0.274  -1.664  -1.752  0.00  0.00    -0.151 SA
BRANCH  20  21
ATOM     21  C   UNL d   1      -0.339  -1.060   0.005  0.00  0.00     0.104 C 
ATOM     22  C   UNL d   1       0.967  -0.301   0.377  0.00  0.00     0.290 C 
ATOM     23  N   UNL d   1       0.326   0.943  -0.149  0.00  0.00     0.104 N 
ATOM     24  C   UNL d   1      -0.989   0.339   0.183  0.00  0.00     0.290 C 
BRANCH  23  25
ATOM     25  C   UNL d   1       0.677   2.117   0.676  0.00  0.00     0.289 C 
BRANCH  25  26
ATOM     26  C   UNL d   1       2.038   2.671   0.233  0.00  0.00    -0.021 A 
ATOM     27  C   UNL d   1       2.243   3.104  -1.091  0.00  0.00     0.010 A 
ATOM     28  C   UNL d   1       3.454   3.678  -1.480  0.00  0.00     0.001 A 
ATOM     29  C   UNL d   1       4.486   3.812  -0.556  0.00  0.00     0.000 A 
ATOM     30  C   UNL d   1       4.312   3.359   0.752  0.00  0.00     0.001 A 
ATOM     31  C   UNL d   1       3.097   2.792   1.145  0.00  0.00     0.010 A 
ENDBRANCH  25  26
BRANCH  25  32
ATOM     32  C   UNL d   1      -0.370   3.243   0.667  0.00  0.00    -0.021 A 
ATOM     33  C   UNL d   1      -0.503   4.065   1.801  0.00  0.00     0.010 A 
ATOM     34  C   UNL d   1      -1.421   5.116   1.821  0.00  0.00     0.001 A 
ATOM     35  C   UNL d   1      -2.218   5.367   0.706  0.00  0.00     0.000 A 
ATOM     36  C   UNL d   1      -2.089   4.576  -0.432  0.00  0.00     0.001 A 
ATOM     37  C   UNL d   1      -1.167   3.526  -0.455  0.00  0.00     0.010 A 
ENDBRANCH  25  32
ENDBRANCH  23  25
ENDBRANCH  20  21
ENDBRANCH   1  20
TORSDOF 8
