REMARK  3 active torsions:
REMARK  status: ('A' for Active; 'I' for Inactive)
REMARK    1  A    between atoms: C_4  and  C_1 
REMARK       I    between atoms: N_9  and  C_4 
REMARK    2  A    between atoms: N_11  and  N_9 
REMARK    3  A    between atoms: C_10  and  N_11 
ROOT
ATOM      1  C   UNL d   1       0.033  -2.383  -0.722  0.00  0.00     0.276 C 
ATOM      2  N   UNL d   1       0.794  -3.433  -0.215  0.00  0.00    -0.282 N 
ATOM      3  O   UNL d   1       0.492  -1.239  -0.751  0.00  0.00    -0.266 OA
ATOM      4  H   UNL d   1       0.323  -4.249   0.158  0.00  0.00     0.184 HD
ENDROOT
BRANCH   2   5
ATOM      5  N   UNL d   1       2.060  -3.133   0.346  0.00  0.00    -0.200 NA
ATOM      6  H   UNL d   1       2.389  -2.198   0.057  0.00  0.00     0.153 HD
BRANCH   5   7
ATOM      7  C   UNL d   1       3.052  -4.121   0.090  0.00  0.00     0.066 A 
ATOM      8  C   UNL d   1       4.415  -3.761   0.057  0.00  0.00     0.142 A 
ATOM      9  C   UNL d   1       5.424  -4.711  -0.115  0.00  0.00     0.086 A 
ATOM     10  F   UNL d   1       4.767  -2.471   0.181  0.00  0.00    -0.204 F 
ATOM     11  C   UNL d   1       5.071  -6.047  -0.229  0.00  0.00     0.119 A 
ATOM     12  C   UNL d   1       3.744  -6.443  -0.155  0.00  0.00     0.044 A 
ATOM     13  F   UNL d   1       6.026  -6.973  -0.397  0.00  0.00    -0.206 F 
ATOM     14  C   UNL d   1       2.743  -5.487   0.021  0.00  0.00     0.031 A 
ENDBRANCH   5   7
ENDBRANCH   2   5
BRANCH   1  15
ATOM     15  C   UNL d   1      -1.290  -2.723  -1.207  0.00  0.00     0.115 A 
ATOM     16  C   UNL d   1      -2.313  -1.909  -1.683  0.00  0.00     0.046 A 
ATOM     17  N   UNL d   1      -3.443  -2.595  -2.125  0.00  0.00    -0.298 N 
ATOM     18  C   UNL d   1      -2.352  -0.427  -1.785  0.00  0.00     0.071 C 
ATOM     19  N   UNL d   1      -3.313  -3.902  -2.000  0.00  0.00    -0.269 N 
ATOM     20  HN  UNL d   1      -4.275  -2.139  -2.501  1.00  0.00     0.187 HD
ATOM     21  S   UNL d   1      -1.844  -4.342  -1.349  0.00  0.00     0.009 SA
ATOM     22  HN  UNL d   1      -4.033  -4.570  -2.274  1.00  0.00     0.195 HD
ENDBRANCH   1  15
TORSDOF 3
