REMARK  7 active torsions:
REMARK  status: ('A' for Active; 'I' for Inactive)
REMARK    1  A    between atoms: C_4  and  C_1 
REMARK    2  A    between atoms: C_8  and  C_2 
REMARK    3  A    between atoms: C_3  and  C_11 
REMARK    4  A    between atoms: O_10  and  C_4 
REMARK    5  A    between atoms: N_5  and  O_10 
REMARK    6  A    between atoms: O_15  and  C_8 
REMARK    7  A    between atoms: C_13  and  C_12 
ROOT
ATOM      1  C   UNL d   1      -6.096   7.289  -0.228  0.00  0.00     0.017 A 
ATOM      2  C   UNL d   1      -4.574   4.931  -0.112  0.00  0.00    -0.019 A 
ATOM      3  C   UNL d   1      -6.458   6.261   0.646  0.00  0.00     0.021 A 
ATOM      4  C   UNL d   1      -4.971   7.135  -1.045  0.00  0.00     0.021 A 
ATOM      5  C   UNL d   1      -5.702   5.083   0.702  0.00  0.00     0.014 A 
ATOM      6  C   UNL d   1      -4.208   5.959  -0.988  0.00  0.00     0.014 A 
ENDROOT
BRANCH   2   7
ATOM      7  C   UNL d   1      -3.750   3.698  -0.051  0.00  0.00     0.126 C 
ATOM      8  N   UNL d   1      -4.036   2.728   0.757  0.00  0.00    -0.268 N 
ATOM      9  HN  UNL d   1      -4.829   2.721   1.399  1.00  0.00     0.194 HD
BRANCH   8  10
ATOM     10  O   UNL d   1      -3.097   1.678   0.625  0.00  0.00    -0.195 OA
BRANCH  10  11
ATOM     11  C   UNL d   1      -3.439   0.644   1.455  0.00  0.00     0.316 C 
ATOM     12  O   UNL d   1      -4.376   0.614   2.246  0.00  0.00    -0.257 OA
BRANCH  11  13
ATOM     13  C   UNL d   1      -2.462  -0.480   1.393  0.00  0.00     0.063 A 
ATOM     14  C   UNL d   1      -1.758  -0.887   0.253  0.00  0.00     0.050 A 
ATOM     15 CL   UNL d   1      -1.927  -0.149  -1.300  0.00  0.00    -0.083 Cl
ATOM     16  C   UNL d   1      -0.882  -1.985   0.324  0.00  0.00     0.025 A 
ATOM     17  C   UNL d   1      -0.707  -2.687   1.517  0.00  0.00     0.002 A 
ATOM     18  C   UNL d   1      -1.413  -2.302   2.650  0.00  0.00     0.001 A 
ATOM     19  C   UNL d   1      -2.286  -1.211   2.588  0.00  0.00     0.019 A 
ENDBRANCH  11  13
ENDBRANCH  10  11
ENDBRANCH   8  10
ENDBRANCH   2   7
BRANCH   1  20
ATOM     20  C   UNL d   1      -6.872   8.494  -0.291  0.00  0.00    -0.064 C 
ATOM     21  C   UNL d   1      -7.515   9.510  -0.346  0.00  0.00    -0.064 C 
BRANCH  21  22
ATOM     22  C   UNL d   1      -8.300  10.753  -0.419  0.00  0.00     0.114 C 
ATOM     23  C   UNL d   1      -7.418  11.925  -0.850  0.00  0.00     0.060 C 
ATOM     24  C   UNL d   1      -8.965  11.050   0.923  0.00  0.00     0.060 C 
BRANCH  22  25
ATOM     25  O   UNL d   1      -9.335  10.595  -1.388  0.00  0.00    -0.378 OA
ATOM     26  H   UNL d   1      -8.909  10.329  -2.220  0.00  0.00     0.211 HD
ENDBRANCH  22  25
ENDBRANCH  21  22
ENDBRANCH   1  20
TORSDOF 7
