REMARK  5 active torsions:
REMARK  status: ('A' for Active; 'I' for Inactive)
REMARK    1  A    between atoms: C_10  and  C_2 
REMARK       I    between atoms: N_15  and  C_10 
REMARK    2  A    between atoms: C_11  and  O_18 
REMARK       I    between atoms: C_12  and  N_16 
REMARK       I    between atoms: N_17  and  C_12 
REMARK    3  A    between atoms: N_16  and  N_15 
REMARK    4  A    between atoms: C_24  and  N_17 
REMARK    5  A    between atoms: O_18  and  C_25 
ROOT
ATOM      1  C   UNL d   1      -2.593  -5.126   0.111  0.00  0.00     0.339 C 
ATOM      2  N   UNL d   1      -2.553  -3.749  -0.022  0.00  0.00    -0.248 N 
ATOM      3  N   UNL d   1      -3.864  -5.635  -0.026  0.00  0.00    -0.308 N 
ATOM      4  O   UNL d   1      -1.568  -5.761   0.363  0.00  0.00    -0.245 OA
ATOM      5  H   UNL d   1      -3.205  -3.276  -0.645  0.00  0.00     0.192 HD
ATOM      6  H   UNL d   1      -4.612  -4.957  -0.033  0.00  0.00     0.170 HD
ENDROOT
BRANCH   2   7
ATOM      7  N   UNL d   1      -1.273  -3.167   0.050  0.00  0.00    -0.262 N 
ATOM      8  C   UNL d   1      -1.139  -1.816  -0.181  0.00  0.00     0.270 C 
ATOM      9  O   UNL d   1      -2.081  -1.120  -0.556  0.00  0.00    -0.266 OA
ATOM     10  H   UNL d   1      -0.551  -3.783   0.418  0.00  0.00     0.190 HD
BRANCH   8  11
ATOM     11  C   UNL d   1       0.209  -1.206   0.060  0.00  0.00     0.036 A 
ATOM     12  C   UNL d   1       1.360  -2.007   0.240  0.00  0.00     0.051 A 
ATOM     13  C   UNL d   1       2.549  -1.287   0.475  0.00  0.00     0.086 A 
ATOM     14  C   UNL d   1       2.595   0.168   0.522  0.00  0.00     0.085 A 
ATOM     15  N   UNL d   1       3.787  -1.751   0.684  0.00  0.00    -0.240 N 
ATOM     16  N   UNL d   1       3.856   0.541   0.762  0.00  0.00    -0.240 N 
ATOM     17  C   UNL d   1       1.450   0.960   0.332  0.00  0.00     0.035 A 
ATOM     18  O   UNL d   1       4.585  -0.632   0.861  0.00  0.00    -0.156 OA
ATOM     19  HN  UNL d   1       4.209   1.494   0.854  1.00  0.00     0.197 HD
ATOM     20  C   UNL d   1       0.268   0.224   0.101  0.00  0.00     0.019 A 
ATOM     21  HN  UNL d   1       4.082  -2.727   0.708  1.00  0.00     0.197 HD
ENDBRANCH   8  11
ENDBRANCH   2   7
BRANCH   3  22
ATOM     22  C   UNL d   1      -4.244  -6.997  -0.012  0.00  0.00     0.036 A 
ATOM     23  C   UNL d   1      -3.336  -8.058   0.007  0.00  0.00     0.032 A 
ATOM     24  C   UNL d   1      -3.773  -9.392  -0.005  0.00  0.00     0.039 A 
ATOM     25  C   UNL d   1      -5.133  -9.684  -0.005  0.00  0.00     0.078 A 
ATOM     26  C   UNL d   1      -6.046  -8.626  -0.045  0.00  0.00     0.039 A 
ATOM     27  C   UNL d   1      -5.610  -7.295  -0.046  0.00  0.00     0.032 A 
BRANCH  25  28
ATOM     28  O   UNL d   1      -5.709 -10.917   0.032  0.00  0.00    -0.255 OA
BRANCH  28  29
ATOM     29  C   UNL d   1      -4.917 -12.053   0.339  0.00  0.00     0.530 C 
ATOM     30  F   UNL d   1      -3.945 -11.794   1.237  0.00  0.00    -0.144 F 
ATOM     31  F   UNL d   1      -5.723 -12.999   0.873  0.00  0.00    -0.144 F 
ATOM     32  F   UNL d   1      -4.366 -12.557  -0.787  0.00  0.00    -0.144 F 
ENDBRANCH  28  29
ENDBRANCH  25  28
ENDBRANCH   3  22
TORSDOF 5
