REMARK  12 active torsions:
REMARK  status: ('A' for Active; 'I' for Inactive)
REMARK    1  A    between atoms: C_4  and  C_1 
REMARK    2  A    between atoms: C_5  and  C_1 
REMARK    3  A    between atoms: C_2  and  C_3 
REMARK    4  A    between atoms: O_18  and  C_4 
REMARK    5  A    between atoms: O_17  and  C_5 
REMARK    6  A    between atoms: C_6  and  N_15 
REMARK    7  A    between atoms: N_16  and  C_7 
REMARK    8  A    between atoms: N_15  and  C_21 
REMARK    9  A    between atoms: C_22  and  N_16 
REMARK   10  A    between atoms: C_24  and  O_17 
REMARK   11  A    between atoms: C_23  and  O_18 
REMARK   12  A    between atoms: C_21  and  C_22 
ROOT
ATOM      1  C   UNL d   1       2.982   1.507   2.104  0.00  0.00     0.133 C 
ENDROOT
BRANCH   1   2
ATOM      2  C   UNL d   1       4.116   0.967   2.992  0.00  0.00     0.113 C 
BRANCH   2   3
ATOM      3  N   UNL d   1       5.444   1.320   2.463  0.00  0.00    -0.277 NA
ATOM      4  H   UNL d   1       5.510   2.310   2.229  0.00  0.00     0.129 HD
BRANCH   3   5
ATOM      5  C   UNL d   1       6.506   0.942   3.299  0.00  0.00     0.095 A 
ATOM      6  C   UNL d   1       7.832   1.190   2.948  0.00  0.00     0.086 A 
ATOM      7  C   UNL d   1       8.847   0.754   3.825  0.00  0.00     0.021 A 
ATOM      8  C   UNL d   1       8.528   0.093   5.001  0.00  0.00     0.018 A 
ATOM      9  C   UNL d   1       7.195  -0.121   5.264  0.00  0.00     0.089 A 
ATOM     10  N   UNL d   1       6.203   0.282   4.444  0.00  0.00    -0.356 N 
ATOM     11  HN  UNL d   1       5.230   0.092   4.684  1.00  0.00     0.166 HD
BRANCH   6  12
ATOM     12  C   UNL d   1       8.245   1.875   1.681  0.00  0.00     0.420 C 
ATOM     13  F   UNL d   1       7.236   2.357   0.904  0.00  0.00    -0.166 F 
ATOM     14  F   UNL d   1       9.042   2.956   1.932  0.00  0.00    -0.166 F 
ATOM     15  F   UNL d   1       8.987   1.066   0.871  0.00  0.00    -0.166 F 
ENDBRANCH   6  12
ENDBRANCH   3   5
ENDBRANCH   2   3
ENDBRANCH   1   2
BRANCH   1  16
ATOM     16  N   UNL d   1       3.097   1.008   0.736  0.00  0.00    -0.397 N 
ATOM     17  H   UNL d   1       4.071   0.884   0.447  0.00  0.00     0.158 HD
BRANCH  16  18
ATOM     18  C   UNL d   1       2.171   0.264   0.034  0.00  0.00     0.107 C 
ATOM     19  C   UNL d   1       0.829   0.165   0.059  0.00  0.00     0.129 C 
BRANCH  19  20
ATOM     20  C   UNL d   1      -0.025   1.000   0.935  0.00  0.00     0.300 C 
ATOM     21  O   UNL d   1       0.212   2.142   1.288  0.00  0.00    -0.259 OA
BRANCH  20  22
ATOM     22  O   UNL d   1      -1.060   0.238   1.380  0.00  0.00    -0.318 OA
BRANCH  22  23
ATOM     23  C   UNL d   1      -1.734   0.699   2.557  0.00  0.00     0.174 C 
ATOM     24  C   UNL d   1      -1.235  -0.177   3.689  0.00  0.00     0.034 C 
ENDBRANCH  22  23
ENDBRANCH  20  22
ENDBRANCH  19  20
BRANCH  19  25
ATOM     25  C   UNL d   1       0.242  -0.806  -0.898  0.00  0.00     0.300 C 
ATOM     26  O   UNL d   1       0.855  -1.710  -1.438  0.00  0.00    -0.259 OA
BRANCH  25  27
ATOM     27  O   UNL d   1      -1.035  -0.441  -1.188  0.00  0.00    -0.318 OA
BRANCH  27  28
ATOM     28  C   UNL d   1      -1.565  -0.952  -2.416  0.00  0.00     0.174 C 
ATOM     29  C   UNL d   1      -1.202   0.043  -3.502  0.00  0.00     0.034 C 
ENDBRANCH  27  28
ENDBRANCH  25  27
ENDBRANCH  19  25
ENDBRANCH  16  18
ENDBRANCH   1  16
TORSDOF 12
