REMARK  4 active torsions:
REMARK  status: ('A' for Active; 'I' for Inactive)
REMARK    1  A    between atoms: O_12  and  C_2 
REMARK    2  A    between atoms: C_11  and  C_14 
REMARK    3  A    between atoms: C_13  and  C_11 
REMARK    4  A    between atoms: C_14  and  O_12 
ROOT
ATOM      1  C   UNL d   1       0.004   0.715  -0.305  0.00  0.00     0.042 A 
ATOM      2  C   UNL d   1       1.210   1.401  -0.152  0.00  0.00     0.156 A 
ATOM      3  C   UNL d   1       0.128  -0.675  -0.410  0.00  0.00     0.049 A 
ATOM      4  N   UNL d   1       2.417   0.813  -0.115  0.00  0.00    -0.332 N 
ATOM      5  HN  UNL d   1       3.282   1.344  -0.012  1.00  0.00     0.168 HD
ATOM      6  N   UNL d   1       1.315  -1.292  -0.369  0.00  0.00    -0.351 N 
ATOM      7  HN  UNL d   1       1.390  -2.306  -0.446  1.00  0.00     0.166 HD
ATOM      8  C   UNL d   1      -1.270   1.329  -0.363  0.00  0.00     0.020 A 
ATOM      9  C   UNL d   1      -1.029  -1.429  -0.567  0.00  0.00     0.054 A 
ATOM     10  C   UNL d   1       2.402  -0.520  -0.221  0.00  0.00     0.182 A 
ATOM     11  C   UNL d   1      -2.286  -0.826  -0.625  0.00  0.00     0.036 A 
ATOM     12  C   UNL d   1      -2.414   0.554  -0.524  0.00  0.00     0.025 A 
ATOM     13 CL   UNL d   1      -3.692  -1.798  -0.824  0.00  0.00    -0.084 Cl
ENDROOT
BRANCH   2  14
ATOM     14  O   UNL d   1       1.131   2.777  -0.045  0.00  0.00    -0.327 OA
BRANCH  14  15
ATOM     15  C   UNL d   1       2.395   3.423   0.042  0.00  0.00     0.261 C 
BRANCH  15  16
ATOM     16  C   UNL d   1       2.156   4.923   0.071  0.00  0.00     0.183 C 
ATOM     17  O   UNL d   1       2.463   5.599   1.055  0.00  0.00    -0.290 OA
BRANCH  16  18
ATOM     18  C   UNL d   1       1.581   5.600  -1.134  0.00  0.00     0.012 A 
ATOM     19  C   UNL d   1       1.213   4.903  -2.290  0.00  0.00     0.016 A 
ATOM     20  C   UNL d   1       0.739   5.594  -3.410  0.00  0.00     0.007 A 
ATOM     21  C   UNL d   1       0.629   6.989  -3.394  0.00  0.00    -0.062 A 
ATOM     22  C   UNL d   1       0.972   7.683  -2.230  0.00  0.00     0.007 A 
ATOM     23  C   UNL d   1       0.194   7.720  -4.630  0.00  0.00     0.048 C 
ATOM     24  C   UNL d   1       1.440   6.994  -1.107  0.00  0.00     0.016 A 
ENDBRANCH  16  18
ENDBRANCH  15  16
ENDBRANCH  14  15
ENDBRANCH   2  14
TORSDOF 4
