REMARK  5 active torsions:
REMARK  status: ('A' for Active; 'I' for Inactive)
REMARK       I    between atoms: C_3  and  N_1 
REMARK    1  A    between atoms: C_5  and  C_2 
REMARK    2  A    between atoms: C_10  and  C_3 
REMARK    3  A    between atoms: C_6  and  C_5 
REMARK       I    between atoms: N_8  and  C_6 
REMARK    4  A    between atoms: C_14  and  N_8 
REMARK    5  A    between atoms: O_21  and  C_16 
ROOT
ATOM      1  N   UNL d   1      -1.417  -1.337   0.418  0.00  0.00    -0.333 N 
ATOM      2  C   UNL d   1       0.075  -1.267   0.335  0.00  0.00     0.188 C 
ATOM      3  C   UNL d   1      -2.300  -1.997   1.288  0.00  0.00     0.254 C 
ATOM      4  C   UNL d   1       0.544   0.012   1.078  0.00  0.00     0.241 C 
ATOM      5  N   UNL d   1      -0.216   1.149   0.884  0.00  0.00    -0.358 N 
ATOM      6  O   UNL d   1      -3.505  -1.728   1.312  0.00  0.00    -0.267 OA
ATOM      7  O   UNL d   1       1.611   0.090   1.695  0.00  0.00    -0.271 OA
ATOM      8  C   UNL d   1      -2.011  -0.159  -0.244  0.00  0.00     0.147 C 
ATOM      9  C   UNL d   1      -1.624   1.105   0.531  0.00  0.00     0.142 C 
ATOM     10  H   UNL d   1       0.139   1.967   1.371  0.00  0.00     0.162 HD
ENDROOT
BRANCH   2  11
ATOM     11  C   UNL d   1       1.038  -2.424   0.599  0.00  0.00     0.138 C 
BRANCH  11  12
ATOM     12  C   UNL d   1       0.966  -3.560  -0.387  0.00  0.00     0.224 C 
ATOM     13  N   UNL d   1       0.246  -4.647   0.066  0.00  0.00    -0.327 N 
ATOM     14  H   UNL d   1      -0.426  -4.497   0.799  0.00  0.00     0.169 HD
ATOM     15  O   UNL d   1       1.537  -3.481  -1.469  0.00  0.00    -0.273 OA
BRANCH  13  16
ATOM     16  C   UNL d   1       0.227  -5.922  -0.523  0.00  0.00     0.034 A 
ATOM     17  C   UNL d   1       1.280  -6.399  -1.300  0.00  0.00     0.032 A 
ATOM     18  C   UNL d   1       1.196  -7.654  -1.901  0.00  0.00     0.039 A 
ATOM     19  C   UNL d   1       0.047  -8.428  -1.744  0.00  0.00     0.068 A 
ATOM     20  C   UNL d   1      -0.969  -7.999  -0.896  0.00  0.00     0.039 A 
ATOM     21  C   UNL d   1      -0.877  -6.748  -0.285  0.00  0.00     0.032 A 
BRANCH  19  22
ATOM     22  O   UNL d   1      -0.148  -9.626  -2.375  0.00  0.00    -0.356 OA
ATOM     23  C   UNL d   1       0.240  -9.589  -3.748  0.00  0.00     0.210 C 
ENDBRANCH  19  22
ENDBRANCH  13  16
ENDBRANCH  11  12
ENDBRANCH   2  11
BRANCH   3  24
ATOM     24  C   UNL d   1      -1.908  -3.122   2.157  0.00  0.00     0.032 C 
ATOM     25  C   UNL d   1      -0.813  -3.078   3.014  0.00  0.00     0.017 C 
ATOM     26  C   UNL d   1      -0.371  -4.253   3.631  0.00  0.00     0.001 C 
ATOM     27  C   UNL d   1      -1.099  -5.436   3.502  0.00  0.00     0.000 C 
ATOM     28  C   UNL d   1      -2.297  -5.438   2.790  0.00  0.00     0.001 C 
ATOM     29  C   UNL d   1      -2.695  -4.287   2.108  0.00  0.00     0.017 C 
ENDBRANCH   3  24
TORSDOF 5
