REMARK  6 active torsions:
REMARK  status: ('A' for Active; 'I' for Inactive)
REMARK    1  A    between atoms: C_3  and  C_1 
REMARK    2  A    between atoms: C_2  and  N_4 
REMARK    3  A    between atoms: N_5  and  C_2 
REMARK    4  A    between atoms: N_4  and  N_7 
REMARK    5  A    between atoms: C_13  and  N_5 
REMARK    6  A    between atoms: N_7  and  C_12 
ROOT
ATOM      1  N   UNL d   1      -1.934  -0.488  -4.323  0.00  0.00    -0.293 N 
ATOM      2  H   UNL d   1      -1.778  -1.216  -3.631  0.00  0.00     0.183 HD
ENDROOT
BRANCH   1   3
ATOM      3  C   UNL d   1      -2.850  -0.829  -5.302  0.00  0.00     0.187 C 
ATOM      4  S   UNL d   1      -3.801   0.256  -6.157  0.00  0.00    -0.040 SA
BRANCH   3   5
ATOM      5  N   UNL d   1      -3.035  -2.172  -5.513  0.00  0.00    -0.332 N 
ATOM      6  H   UNL d   1      -3.923  -2.407  -5.944  0.00  0.00     0.168 HD
BRANCH   5   7
ATOM      7  C   UNL d   1      -2.176  -3.242  -5.205  0.00  0.00     0.034 A 
ATOM      8  C   UNL d   1      -2.744  -4.497  -4.972  0.00  0.00     0.029 A 
ATOM      9  C   UNL d   1      -1.931  -5.586  -4.651  0.00  0.00     0.002 A 
ATOM     10  C   UNL d   1      -0.546  -5.436  -4.609  0.00  0.00     0.000 A 
ATOM     11  C   UNL d   1       0.028  -4.198  -4.891  0.00  0.00     0.002 A 
ATOM     12  C   UNL d   1      -0.785  -3.102  -5.184  0.00  0.00     0.029 A 
ENDBRANCH   5   7
ENDBRANCH   3   5
ENDBRANCH   1   3
BRANCH   1  13
ATOM     13  N   UNL d   1      -2.029   0.794  -3.742  0.00  0.00    -0.204 NA
ATOM     14  H   UNL d   1      -2.520   1.453  -4.357  0.00  0.00     0.153 HD
BRANCH  13  15
ATOM     15  C   UNL d   1      -0.823   1.340  -3.247  0.00  0.00     0.028 A 
ATOM     16  C   UNL d   1       0.256   0.560  -2.805  0.00  0.00     0.041 A 
ATOM     17  C   UNL d   1       1.387   1.147  -2.204  0.00  0.00     0.049 A 
ATOM     18  C   UNL d   1       1.423   2.537  -2.031  0.00  0.00     0.016 A 
ATOM     19  C   UNL d   1       0.347   3.323  -2.435  0.00  0.00     0.003 A 
ATOM     20  C   UNL d   1      -0.769   2.724  -3.022  0.00  0.00     0.025 A 
BRANCH  17  21
ATOM     21  C   UNL d   1       2.540   0.303  -1.728  0.00  0.00     0.417 C 
ATOM     22  F   UNL d   1       2.378  -1.030  -1.956  0.00  0.00    -0.166 F 
ATOM     23  F   UNL d   1       2.757   0.425  -0.387  0.00  0.00    -0.166 F 
ATOM     24  F   UNL d   1       3.717   0.640  -2.325  0.00  0.00    -0.166 F 
ENDBRANCH  17  21
ENDBRANCH  13  15
ENDBRANCH   1  13
TORSDOF 6
