REMARK  4 active torsions:
REMARK  status: ('A' for Active; 'I' for Inactive)
REMARK    1  A    between atoms: C_8  and  C_1 
REMARK    2  A    between atoms: C_7  and  C_2 
REMARK    3  A    between atoms: O_13  and  C_8 
REMARK    4  A    between atoms: C_20  and  O_13 
ROOT
ATOM      1  C   UNL d   1       1.448   1.029   0.085  0.00  0.00     0.066 C 
ATOM      2  C   UNL d   1       0.192   1.868  -0.062  0.00  0.00     0.162 C 
ATOM      3  C   UNL d   1       1.377  -0.319   0.027  0.00  0.00     0.024 C 
ATOM      4  C   UNL d   1      -1.061  -0.265  -0.009  0.00  0.00     0.321 C 
ATOM      5  N   UNL d   1       0.135  -0.908  -0.093  0.00  0.00    -0.312 N 
ATOM      6  N   UNL d   1      -0.999   1.073   0.182  0.00  0.00    -0.330 N 
ATOM      7  O   UNL d   1      -2.128  -0.864  -0.060  0.00  0.00    -0.247 OA
ATOM      8  C   UNL d   1       2.508  -1.313   0.045  0.00  0.00     0.069 C 
ATOM      9  H   UNL d   1       0.059  -1.917  -0.164  0.00  0.00     0.170 HD
ATOM     10  H   UNL d   1      -1.897   1.538   0.205  0.00  0.00     0.165 HD
ENDROOT
BRANCH   2  11
ATOM     11  C   UNL d   1       0.103   3.118   0.810  0.00  0.00    -0.020 A 
ATOM     12  C   UNL d   1      -0.082   4.430   0.265  0.00  0.00    -0.017 A 
ATOM     13  C   UNL d   1      -0.110   5.532   1.158  0.00  0.00    -0.025 A 
ATOM     14  C   UNL d   1      -0.235   4.723  -1.116  0.00  0.00     0.013 A 
ATOM     15  C   UNL d   1      -0.265   6.840   0.668  0.00  0.00     0.012 A 
ATOM     16  C   UNL d   1       0.020   5.325   2.539  0.00  0.00     0.012 A 
ATOM     17  C   UNL d   1      -0.402   7.089  -0.695  0.00  0.00     0.001 A 
ATOM     18  C   UNL d   1      -0.390   6.029  -1.588  0.00  0.00     0.001 A 
ATOM     19  C   UNL d   1       0.172   4.046   3.062  0.00  0.00     0.002 A 
ATOM     20  C   UNL d   1       0.210   2.953   2.208  0.00  0.00     0.010 A 
ENDBRANCH   2  11
BRANCH   1  21
ATOM     21  C   UNL d   1       2.755   1.720   0.237  0.00  0.00     0.293 C 
ATOM     22  O   UNL d   1       3.729   1.234   0.793  0.00  0.00    -0.259 OA
BRANCH  21  23
ATOM     23  O   UNL d   1       2.726   2.959  -0.316  0.00  0.00    -0.318 OA
BRANCH  23  24
ATOM     24  C   UNL d   1       3.924   3.742  -0.171  0.00  0.00     0.174 C 
ATOM     25  C   UNL d   1       4.137   4.223   1.257  0.00  0.00     0.034 C 
ENDBRANCH  23  24
ENDBRANCH  21  23
ENDBRANCH   1  21
TORSDOF 4
