REMARK  7 active torsions:
REMARK  status: ('A' for Active; 'I' for Inactive)
REMARK    1  A    between atoms: N_3  and  C_1 
REMARK    2  A    between atoms: C_2  and  N_3 
REMARK    3  A    between atoms: N_10  and  C_2 
REMARK    4  A    between atoms: C_15  and  N_10 
REMARK    5  A    between atoms: C_11  and  C_15 
REMARK    6  A    between atoms: C_16  and  C_11 
REMARK    7  A    between atoms: O_14  and  C_16 
ROOT
ATOM      1  N   UNL d   1       2.639  -0.553  -0.107  0.00  0.00    -0.332 N 
ATOM      2  H   UNL d   1       2.717  -1.564  -0.199  0.00  0.00     0.168 HD
ENDROOT
BRANCH   1   3
ATOM      3  C   UNL d   1       3.834   0.040   0.207  0.00  0.00     0.172 C 
ATOM      4  S   UNL d   1       4.118   1.185   1.388  0.00  0.00    -0.041 SA
BRANCH   3   5
ATOM      5  N   UNL d   1       4.906  -0.423  -0.520  0.00  0.00    -0.367 N 
ATOM      6  H   UNL d   1       5.784   0.028  -0.285  0.00  0.00     0.161 HD
BRANCH   5   7
ATOM      7  C   UNL d   1       4.824  -1.096  -1.808  0.00  0.00     0.124 C 
BRANCH   7   8
ATOM      8  C   UNL d   1       5.257  -2.559  -1.763  0.00  0.00     0.046 C 
BRANCH   8   9
ATOM      9  C   UNL d   1       4.439  -3.436  -0.819  0.00  0.00     0.168 C 
BRANCH   9  10
ATOM     10  O   UNL d   1       3.032  -3.235  -0.939  0.00  0.00    -0.396 OA
ATOM     11  C   UNL d   1       2.471  -3.788  -2.123  0.00  0.00     0.201 C 
ENDBRANCH   9  10
ENDBRANCH   8   9
ENDBRANCH   7   8
ENDBRANCH   5   7
ENDBRANCH   3   5
ENDBRANCH   1   3
BRANCH   1  12
ATOM     12  C   UNL d   1       1.323  -0.068   0.075  0.00  0.00     0.046 A 
ATOM     13  C   UNL d   1       0.915   1.187  -0.419  0.00  0.00    -0.034 A 
ATOM     14  C   UNL d   1      -0.452   1.532  -0.364  0.00  0.00     0.015 A 
ATOM     15  C   UNL d   1       1.815   2.185  -1.097  0.00  0.00     0.050 C 
ATOM     16  C   UNL d   1      -1.415   0.641   0.114  0.00  0.00    -0.061 A 
ATOM     17  C   UNL d   1      -1.000  -0.597   0.599  0.00  0.00     0.015 A 
ATOM     18  C   UNL d   1      -2.868   1.009   0.070  0.00  0.00     0.048 C 
ATOM     19  C   UNL d   1       0.358  -0.959   0.602  0.00  0.00    -0.034 A 
ATOM     20  C   UNL d   1       0.719  -2.306   1.171  0.00  0.00     0.050 C 
ENDBRANCH   1  12
TORSDOF 7
