REMARK  4 active torsions:
REMARK  status: ('A' for Active; 'I' for Inactive)
REMARK    1  A    between atoms: C_6  and  C_3 
REMARK    2  A    between atoms: C_8  and  C_6 
REMARK    3  A    between atoms: O_15  and  C_7 
REMARK    4  A    between atoms: O_16  and  C_11 
ROOT
ATOM      1  C   UNL d   1      -4.885  -0.337   0.920  0.00  0.00     0.102 A 
ATOM      2  C   UNL d   1      -3.202   1.088  -0.104  0.00  0.00    -0.031 A 
ATOM      3  C   UNL d   1      -5.759  -0.016  -0.129  0.00  0.00     0.099 A 
ATOM      4  C   UNL d   1      -3.607   0.229   0.927  0.00  0.00     0.051 A 
ATOM      5  C   UNL d   1      -5.369   0.850  -1.151  0.00  0.00     0.040 A 
ATOM      6  C   UNL d   1      -4.086   1.399  -1.140  0.00  0.00     0.014 A 
ENDROOT
BRANCH   2   7
ATOM      7  C   UNL d   1      -1.841   1.625  -0.104  0.00  0.00     0.046 C 
BRANCH   7   8
ATOM      8  C   UNL d   1      -0.809   1.010  -0.687  0.00  0.00     0.105 A 
ATOM      9  C   UNL d   1       0.601   1.507  -0.690  0.00  0.00     0.276 A 
ATOM     10  N   UNL d   1       1.292   0.563  -1.397  0.00  0.00    -0.274 N 
ATOM     11  O   UNL d   1       1.026   2.520  -0.174  0.00  0.00    -0.266 OA
ATOM     12  C   UNL d   1       0.471  -0.448  -1.824  0.00  0.00     0.327 A 
ATOM     13  H   UNL d   1       2.279   0.601  -1.584  0.00  0.00     0.173 HD
ATOM     14  N   UNL d   1      -0.810  -0.165  -1.381  0.00  0.00    -0.304 N 
ATOM     15  O   UNL d   1       0.805  -1.420  -2.476  0.00  0.00    -0.247 OA
ATOM     16  H   UNL d   1      -1.610  -0.753  -1.562  0.00  0.00     0.171 HD
ENDBRANCH   7   8
ENDBRANCH   2   7
BRANCH   1  17
ATOM     17  O   UNL d   1      -5.360  -1.202   1.872  0.00  0.00    -0.353 OA
ATOM     18  C   UNL d   1      -4.482  -1.539   2.937  0.00  0.00     0.210 C 
ENDBRANCH   1  17
BRANCH   3  19
ATOM     19  O   UNL d   1      -7.013  -0.566  -0.148  0.00  0.00    -0.358 OA
ATOM     20  H   UNL d   1      -7.497  -0.234  -0.920  0.00  0.00     0.217 HD
ENDBRANCH   3  19
TORSDOF 4
