REMARK  7 active torsions:
REMARK  status: ('A' for Active; 'I' for Inactive)
REMARK    1  A    between atoms: C_2  and  C_1 
REMARK       I    between atoms: N_9  and  C_2 
REMARK    2  A    between atoms: N_13  and  C_3 
REMARK    3  A    between atoms: O_17  and  C_4 
REMARK    4  A    between atoms: O_19  and  C_6 
REMARK    5  A    between atoms: C_20  and  N_9 
REMARK    6  A    between atoms: C_14  and  C_21 
REMARK    7  A    between atoms: C_21  and  C_20 
ROOT
ATOM      1  C   UNL d   1       1.267   3.219  -1.498  0.00  0.00     0.253 C 
ATOM      2  O   UNL d   1       1.624   3.742  -2.554  0.00  0.00    -0.268 OA
ATOM      3  N   UNL d   1       1.572   3.757  -0.262  0.00  0.00    -0.357 N 
ATOM      4  H   UNL d   1       1.401   3.215   0.575  0.00  0.00     0.162 HD
ENDROOT
BRANCH   3   5
ATOM      5  C   UNL d   1       2.315   5.003  -0.124  0.00  0.00     0.127 C 
BRANCH   5   6
ATOM      6  C   UNL d   1       1.399   6.234  -0.096  0.00  0.00     0.058 C 
BRANCH   6   7
ATOM      7  C   UNL d   1       2.177   7.529  -0.020  0.00  0.00    -0.054 A 
ATOM      8  C   UNL d   1       2.571   8.189  -1.199  0.00  0.00     0.046 A 
ATOM      9  C   UNL d   1       3.325   9.376  -1.164  0.00  0.00     0.102 A 
ATOM     10  C   UNL d   1       3.676   9.920   0.083  0.00  0.00     0.101 A 
ATOM     11  C   UNL d   1       3.296   9.253   1.258  0.00  0.00     0.040 A 
ATOM     12  C   UNL d   1       2.550   8.074   1.209  0.00  0.00     0.010 A 
BRANCH   9  13
ATOM     13  O   UNL d   1       3.772  10.020  -2.287  0.00  0.00    -0.353 OA
ATOM     14  C   UNL d   1       3.459   9.455  -3.553  0.00  0.00     0.210 C 
ENDBRANCH   9  13
BRANCH  10  15
ATOM     15  O   UNL d   1       4.429  11.041   0.324  0.00  0.00    -0.353 OA
ATOM     16  C   UNL d   1       4.329  12.100  -0.620  0.00  0.00     0.210 C 
ENDBRANCH  10  15
ENDBRANCH   6   7
ENDBRANCH   5   6
ENDBRANCH   3   5
BRANCH   1  17
ATOM     17  C   UNL d   1       0.450   1.962  -1.525  0.00  0.00     0.054 A 
ATOM     18  C   UNL d   1       0.549   1.049  -2.611  0.00  0.00     0.023 A 
ATOM     19  C   UNL d   1      -0.299  -0.075  -2.603  0.00  0.00     0.026 A 
ATOM     20  C   UNL d   1      -1.252  -0.265  -1.599  0.00  0.00     0.026 A 
ATOM     21  C   UNL d   1      -1.346   0.650  -0.558  0.00  0.00     0.035 A 
ATOM     22  C   UNL d   1      -0.504   1.758  -0.512  0.00  0.00     0.042 A 
ATOM     23 CL   UNL d   1      -2.517   0.417   0.680  0.00  0.00    -0.084 Cl
BRANCH  18  24
ATOM     24  N   UNL d   1       1.551   1.188  -3.589  0.00  0.00    -0.296 NA
ATOM     25  C   UNL d   1       1.338   0.627  -4.914  0.00  0.00     0.113 C 
ATOM     26  H   UNL d   1       1.877   2.163  -3.627  0.00  0.00     0.127 HD
ENDBRANCH  18  24
ENDBRANCH   1  17
TORSDOF 7
