REMARK  6 active torsions:
REMARK  status: ('A' for Active; 'I' for Inactive)
REMARK    1  A    between atoms: C_7  and  C_1 
REMARK    2  A    between atoms: C_12  and  C_2 
REMARK    3  A    between atoms: N_5  and  C_8 
REMARK    4  A    between atoms: C_6  and  C_11 
REMARK    5  A    between atoms: C_11  and  O_15 
REMARK    6  A    between atoms: O_15  and  C_12 
ROOT
ATOM      1  C   UNL d   1      -1.244  -0.795   0.365  0.00  0.00     0.079 A 
ATOM      2  C   UNL d   1       0.092  -1.252   0.073  0.00  0.00     0.027 A 
ATOM      3  N   UNL d   1      -1.237   0.509   0.677  0.00  0.00    -0.260 N 
ATOM      4  HN  UNL d   1      -2.036   1.071   0.970  1.00  0.00     0.195 HD
ATOM      5  O   UNL d   1       0.057   0.939   0.523  0.00  0.00    -0.242 OA
ATOM      6  C   UNL d   1       0.847  -0.097   0.147  0.00  0.00     0.083 A 
ATOM      7  C   UNL d   1       2.259   0.260  -0.085  0.00  0.00     0.079 C 
ENDROOT
BRANCH   2   8
ATOM      8  C   UNL d   1       0.514  -2.635  -0.280  0.00  0.00     0.222 C 
BRANCH   8   9
ATOM      9  O   UNL d   1       1.908  -2.987  -0.109  0.00  0.00    -0.313 OA
BRANCH   9  10
ATOM     10  C   UNL d   1       2.358  -3.056   1.169  0.00  0.00     0.296 C 
ATOM     11  O   UNL d   1       1.888  -2.456   2.115  0.00  0.00    -0.259 OA
BRANCH  10  12
ATOM     12  C   UNL d   1       3.451  -4.065   1.294  0.00  0.00     0.072 A 
ATOM     13  C   UNL d   1       3.963  -4.442   2.544  0.00  0.00     0.120 A 
ATOM     14  C   UNL d   1       4.899  -5.476   2.697  0.00  0.00     0.060 A 
ATOM     15  C   UNL d   1       5.335  -6.153   1.567  0.00  0.00     0.036 A 
ATOM     16  C   UNL d   1       4.869  -5.787   0.303  0.00  0.00     0.025 A 
ATOM     17 CL   UNL d   1       6.433  -7.464   1.728  0.00  0.00    -0.084 Cl
ATOM     18  C   UNL d   1       3.938  -4.747   0.165  0.00  0.00     0.022 A 
BRANCH  13  19
ATOM     19  N   UNL d   1       3.538  -3.796   3.761  0.00  0.00    -0.115 N 
ATOM     20  O   UNL d   1       2.572  -4.297   4.349  0.00  0.00    -0.532 OA
ATOM     21  O   UNL d   1       4.246  -2.859   4.166  0.00  0.00    -0.532 OA
ENDBRANCH  13  19
ENDBRANCH  10  12
ENDBRANCH   9  10
ENDBRANCH   8   9
ENDBRANCH   2   8
BRANCH   1  22
ATOM     22  C   UNL d   1      -2.523  -1.513   0.307  0.00  0.00     0.037 A 
ATOM     23  C   UNL d   1      -2.818  -2.591   1.163  0.00  0.00     0.048 A 
ATOM     24 CL   UNL d   1      -1.745  -3.127   2.410  0.00  0.00    -0.083 Cl
ATOM     25  C   UNL d   1      -4.045  -3.269   1.072  0.00  0.00     0.025 A 
ATOM     26  C   UNL d   1      -5.019  -2.855   0.168  0.00  0.00     0.003 A 
ATOM     27  C   UNL d   1      -4.764  -1.766  -0.657  0.00  0.00     0.025 A 
ATOM     28  C   UNL d   1      -3.526  -1.109  -0.602  0.00  0.00     0.048 A 
ATOM     29 CL   UNL d   1      -3.310   0.190  -1.732  0.00  0.00    -0.083 Cl
ENDBRANCH   1  22
TORSDOF 6
