REMARK  4 active torsions:
REMARK  status: ('A' for Active; 'I' for Inactive)
REMARK    1  A    between atoms: C_2  and  C_1 
REMARK       I    between atoms: C_3  and  N_10 
REMARK    2  A    between atoms: C_14  and  C_3 
REMARK    3  A    between atoms: N_10  and  N_4 
REMARK    4  A    between atoms: C_9  and  C_6 
ROOT
ATOM      1  N   UNL d   1      -0.944   1.323  -6.145  0.00  0.00    -0.305 N 
ATOM      2  HN  UNL d   1      -0.783   2.224  -5.695  1.00  0.00     0.186 HD
ATOM      3  C   UNL d   1      -0.702   0.259  -5.457  0.00  0.00     0.138 C 
ENDROOT
BRANCH   1   4
ATOM      4  N   UNL d   1      -1.405   1.332  -7.449  0.00  0.00    -0.262 N 
ATOM      5  C   UNL d   1      -1.599   0.184  -8.242  0.00  0.00     0.271 C 
ATOM      6  O   UNL d   1      -1.470  -0.982  -7.854  0.00  0.00    -0.266 OA
ATOM      7  C   UNL d   1      -1.695   2.706  -7.868  0.00  0.00     0.181 C 
BRANCH   5   8
ATOM      8  C   UNL d   1      -2.028   0.319  -9.668  0.00  0.00     0.034 A 
ATOM      9  C   UNL d   1      -1.499   1.282 -10.537  0.00  0.00     0.019 A 
ATOM     10  C   UNL d   1      -1.977   1.391 -11.847  0.00  0.00     0.025 A 
ATOM     11  C   UNL d   1      -2.931   0.490 -12.317  0.00  0.00     0.034 A 
ATOM     12  C   UNL d   1      -3.404  -0.527 -11.492  0.00  0.00     0.025 A 
ATOM     13 CL   UNL d   1      -3.516   0.629 -13.929  0.00  0.00    -0.084 Cl
ATOM     14  C   UNL d   1      -2.956  -0.610 -10.170  0.00  0.00     0.019 A 
ENDBRANCH   5   8
ENDBRANCH   1   4
BRANCH   3  15
ATOM     15  C   UNL d   1      -0.228   0.331  -4.047  0.00  0.00     0.071 A 
ATOM     16  N   UNL d   1      -0.074  -0.906  -3.487  0.00  0.00    -0.363 N 
ATOM     17  C   UNL d   1       0.344  -0.968  -2.203  0.00  0.00     0.104 A 
ATOM     18  HN  UNL d   1      -0.268  -1.753  -4.020  1.00  0.00     0.165 HD
ATOM     19  C   UNL d   1       0.625   0.146  -1.428  0.00  0.00     0.065 A 
ATOM     20  C   UNL d   1       0.456   1.402  -2.020  0.00  0.00     0.043 A 
ATOM     21  C   UNL d   1       0.025   1.511  -3.346  0.00  0.00     0.062 A 
ATOM     22 CL   UNL d   1      -0.145   3.112  -3.963  0.00  0.00    -0.082 Cl
BRANCH  19  23
ATOM     23  C   UNL d   1       1.089  -0.023  -0.013  0.00  0.00     0.418 C 
ATOM     24  F   UNL d   1       1.348   1.158   0.613  0.00  0.00    -0.166 F 
ATOM     25  F   UNL d   1       2.231  -0.753   0.074  0.00  0.00    -0.166 F 
ATOM     26  F   UNL d   1       0.170  -0.663   0.760  0.00  0.00    -0.166 F 
ENDBRANCH  19  23
ENDBRANCH   3  15
TORSDOF 4
