REMARK  5 active torsions:
REMARK  status: ('A' for Active; 'I' for Inactive)
REMARK    1  A    between atoms: C_7  and  C_1 
REMARK    2  A    between atoms: C_8  and  C_2 
REMARK       I    between atoms: N_15  and  C_8 
REMARK    3  A    between atoms: C_9  and  C_12 
REMARK    4  A    between atoms: N_13  and  N_15 
REMARK    5  A    between atoms: C_26  and  C_25 
ROOT
ATOM      1  C   UNL d   1       3.635  -1.469   0.163  0.00  0.00     0.288 C 
ATOM      2  N   UNL d   1       3.500  -2.851   0.118  0.00  0.00    -0.265 N 
ATOM      3  O   UNL d   1       4.677  -0.847   0.345  0.00  0.00    -0.264 OA
ATOM      4  H   UNL d   1       2.573  -3.267   0.076  0.00  0.00     0.190 HD
ENDROOT
BRANCH   1   5
ATOM      5  C   UNL d   1       2.362  -0.721   0.002  0.00  0.00     0.135 A 
ATOM      6  C   UNL d   1       2.292   0.518  -0.613  0.00  0.00     0.149 A 
ATOM      7  N   UNL d   1       1.108   1.219  -0.601  0.00  0.00    -0.349 N 
ATOM      8  C   UNL d   1       0.046   0.669   0.012  0.00  0.00     0.059 A 
ATOM      9  HN  UNL d   1       1.038   2.133  -1.047  1.00  0.00     0.166 HD
ATOM     10  C   UNL d   1       0.125  -0.616   0.594  0.00  0.00     0.059 A 
ATOM     11  C   UNL d   1      -1.145   1.380   0.076  0.00  0.00     0.032 A 
ATOM     12  C   UNL d   1      -1.004  -1.134   1.220  0.00  0.00     0.032 A 
ATOM     13  N   UNL d   1       1.271  -1.327   0.568  0.00  0.00    -0.348 N 
ATOM     14  C   UNL d   1      -2.198  -0.410   1.284  0.00  0.00     0.002 A 
ATOM     15  C   UNL d   1      -2.268   0.853   0.710  0.00  0.00     0.002 A 
ATOM     16  HN  UNL d   1       1.323  -2.271   0.952  1.00  0.00     0.166 HD
BRANCH   6  17
ATOM     17  C   UNL d   1       3.454   1.149  -1.348  0.00  0.00     0.435 C 
ATOM     18  F   UNL d   1       4.407   0.295  -1.808  0.00  0.00    -0.165 F 
ATOM     19  F   UNL d   1       3.029   1.792  -2.484  0.00  0.00    -0.165 F 
ATOM     20  F   UNL d   1       4.091   2.107  -0.619  0.00  0.00    -0.165 F 
ENDBRANCH   6  17
ENDBRANCH   1   5
BRANCH   2  21
ATOM     21  N   UNL d   1       4.617  -3.627   0.156  0.00  0.00    -0.308 N 
ATOM     22  C   UNL d   1       4.449  -4.911   0.119  0.00  0.00     0.118 C 
ATOM     23  HN  UNL d   1       5.549  -3.215   0.211  1.00  0.00     0.186 HD
BRANCH  22  24
ATOM     24  C   UNL d   1       5.613  -5.824   0.147  0.00  0.00    -0.019 A 
ATOM     25  C   UNL d   1       6.914  -5.307   0.168  0.00  0.00     0.013 A 
ATOM     26  C   UNL d   1       8.013  -6.170   0.209  0.00  0.00     0.017 A 
ATOM     27  C   UNL d   1       7.826  -7.559   0.229  0.00  0.00     0.048 A 
ATOM     28  C   UNL d   1       6.516  -8.069   0.201  0.00  0.00     0.017 A 
ATOM     29  C   UNL d   1       5.414  -7.209   0.156  0.00  0.00     0.013 A 
BRANCH  27  30
ATOM     30  C   UNL d   1       9.007  -8.501   0.284  0.00  0.00     0.417 C 
ATOM     31  F   UNL d   1      10.213  -7.867   0.306  0.00  0.00    -0.166 F 
ATOM     32  F   UNL d   1       8.984  -9.296   1.389  0.00  0.00    -0.166 F 
ATOM     33  F   UNL d   1       9.049  -9.345  -0.783  0.00  0.00    -0.166 F 
ENDBRANCH  27  30
ENDBRANCH  22  24
ENDBRANCH   2  21
TORSDOF 5
