REMARK  8 active torsions:
REMARK  status: ('A' for Active; 'I' for Inactive)
REMARK    1  A    between atoms: N_2  and  S_1 
REMARK    2  A    between atoms: C_8  and  S_1 
REMARK    3  A    between atoms: N_7  and  C_4 
REMARK    4  A    between atoms: S_9  and  C_4 
REMARK    5  A    between atoms: C_11  and  N_7 
REMARK    6  A    between atoms: C_14  and  S_9 
REMARK    7  A    between atoms: C_10  and  C_14 
REMARK    8  A    between atoms: O_16  and  C_10 
ROOT
ATOM      1  N   UNL d   1       0.160  -0.802  -1.433  0.00  0.00    -0.260 N 
ATOM      2  HN  UNL d   1       0.318  -0.237  -0.598  1.00  0.00     0.181 HD
ATOM      3  C   UNL d   1       0.592  -0.338  -2.558  0.00  0.00     0.154 C 
ENDROOT
BRANCH   3   4
ATOM      4  N   UNL d   1       1.261   0.860  -2.633  0.00  0.00    -0.336 N 
ATOM      5  H   UNL d   1       1.272   1.330  -3.538  0.00  0.00     0.168 HD
BRANCH   4   6
ATOM      6  C   UNL d   1       2.113   1.389  -1.648  0.00  0.00     0.035 A 
ATOM      7  C   UNL d   1       2.788   0.573  -0.728  0.00  0.00     0.053 A 
ATOM      8  C   UNL d   1       3.584   1.130   0.273  0.00  0.00     0.036 A 
ATOM      9 CL   UNL d   1       4.420   0.098   1.369  0.00  0.00    -0.084 Cl
ATOM     10  C   UNL d   1       3.707   2.510   0.391  0.00  0.00     0.024 A 
ATOM     11  C   UNL d   1       3.031   3.337  -0.506  0.00  0.00     0.004 A 
ATOM     12  C   UNL d   1       2.244   2.779  -1.520  0.00  0.00     0.029 A 
ENDBRANCH   4   6
ENDBRANCH   3   4
BRANCH   3  13
ATOM     13  S   UNL d   1       0.459  -1.139  -4.118  0.00  0.00    -0.083 SA
BRANCH  13  14
ATOM     14  C   UNL d   1      -1.137  -0.520  -4.701  0.00  0.00     0.192 C 
BRANCH  14  15
ATOM     15  C   UNL d   1      -1.093   0.944  -5.082  0.00  0.00     0.149 C 
ATOM     16  O   UNL d   1      -0.169   1.714  -4.855  0.00  0.00    -0.649 OA
BRANCH  15  17
ATOM     17  O   UNL d   1      -2.221   1.354  -5.714  0.00  0.00    -0.776 OA
ATOM     18  H   UNL d   1      -2.897   0.660  -5.843  0.00  0.00     0.167 HD
ENDBRANCH  15  17
ENDBRANCH  14  15
ENDBRANCH  13  14
ENDBRANCH   3  13
BRANCH   1  19
ATOM     19  S   UNL d   1      -0.607  -2.198  -1.251  0.00  0.00     0.264 S 
ATOM     20  O   UNL d   1       0.233  -3.300  -1.673  0.00  0.00    -0.200 OA
ATOM     21  O   UNL d   1      -1.959  -2.058  -1.764  0.00  0.00    -0.200 OA
BRANCH  19  22
ATOM     22  C   UNL d   1      -0.725  -2.341   0.526  0.00  0.00     0.079 A 
ATOM     23  C   UNL d   1      -1.970  -2.382   1.158  0.00  0.00     0.025 A 
ATOM     24  C   UNL d   1      -2.027  -2.521   2.546  0.00  0.00     0.002 A 
ATOM     25  C   UNL d   1      -0.850  -2.615   3.292  0.00  0.00     0.000 A 
ATOM     26  C   UNL d   1       0.392  -2.565   2.656  0.00  0.00     0.002 A 
ATOM     27  C   UNL d   1       0.459  -2.428   1.270  0.00  0.00     0.025 A 
ENDBRANCH  19  22
ENDBRANCH   1  19
TORSDOF 8
