REMARK  4 active torsions:
REMARK  status: ('A' for Active; 'I' for Inactive)
REMARK    1  A    between atoms: C_3  and  C_1 
REMARK    2  A    between atoms: C_6  and  C_3 
REMARK    3  A    between atoms: O_10  and  C_6 
REMARK    4  A    between atoms: C_11  and  O_10 
ROOT
ATOM      1  C   UNL d   1      -0.787  -1.016  -0.324  0.00  0.00     0.078 C 
ATOM      2  N   UNL d   1       0.571  -0.939  -0.296  0.00  0.00    -0.321 N 
ATOM      3  S   UNL d   1      -1.505   0.523  -0.005  0.00  0.00    -0.103 SA
ATOM      4  C   UNL d   1       1.153   0.288  -0.093  0.00  0.00     0.232 C 
ATOM      5  O   UNL d   1       2.361   0.470  -0.023  0.00  0.00    -0.272 OA
ATOM      6  C   UNL d   1       0.110   1.380  -0.013  0.00  0.00     0.184 C 
ATOM      7  H   UNL d   1       1.154  -1.765  -0.420  0.00  0.00     0.169 HD
ENDROOT
BRANCH   1   8
ATOM      8  C   UNL d   1      -1.504  -2.111  -0.590  0.00  0.00     0.119 C 
BRANCH   8   9
ATOM      9  C   UNL d   1      -0.859  -3.368  -1.010  0.00  0.00     0.285 C 
ATOM     10  O   UNL d   1       0.342  -3.578  -1.000  0.00  0.00    -0.260 OA
BRANCH   9  11
ATOM     11  O   UNL d   1      -1.826  -4.168  -1.520  0.00  0.00    -0.318 OA
BRANCH  11  12
ATOM     12  C   UNL d   1      -1.365  -5.261  -2.329  0.00  0.00     0.174 C 
ATOM     13  C   UNL d   1      -1.321  -4.796  -3.773  0.00  0.00     0.034 C 
ENDBRANCH  11  12
ENDBRANCH   9  11
ENDBRANCH   8   9
ENDBRANCH   1   8
TORSDOF 4
