REMARK  6 active torsions:
REMARK  status: ('A' for Active; 'I' for Inactive)
REMARK    1  A    between atoms: C_2  and  S_1 
REMARK    2  A    between atoms: C_5  and  S_1 
REMARK    3  A    between atoms: N_7  and  C_3 
REMARK    4  A    between atoms: S_15  and  C_3 
REMARK    5  A    between atoms: C_18  and  N_7 
REMARK    6  A    between atoms: C_11  and  C_18 
ROOT
ATOM      1  C   UNL d   1       0.403  -1.526  -0.906  0.00  0.00     0.171 C 
ATOM      2  C   UNL d   1      -0.220  -2.523  -0.222  0.00  0.00     0.078 C 
ATOM      3  C   UNL d   1       0.774  -0.283  -0.322  0.00  0.00     0.114 C 
ATOM      4  N   UNL d   1       1.077   0.745   0.124  0.00  0.00    -0.191 NA
ENDROOT
BRANCH   1   5
ATOM      5  S   UNL d   1       0.970  -1.691  -2.541  0.00  0.00     0.219 S 
ATOM      6  O   UNL d   1       0.462  -2.870  -3.220  0.00  0.00    -0.216 OA
ATOM      7  O   UNL d   1       2.393  -1.416  -2.591  0.00  0.00    -0.216 OA
BRANCH   5   8
ATOM      8  C   UNL d   1       0.174  -0.311  -3.385  0.00  0.00     0.065 A 
ATOM      9  C   UNL d   1       0.801   0.941  -3.431  0.00  0.00     0.025 A 
ATOM     10  C   UNL d   1       0.194   1.991  -4.127  0.00  0.00     0.025 A 
ATOM     11  C   UNL d   1      -1.015   1.780  -4.790  0.00  0.00     0.034 A 
ATOM     12  C   UNL d   1      -1.626   0.525  -4.766  0.00  0.00     0.025 A 
ATOM     13 CL   UNL d   1      -1.753   3.070  -5.657  0.00  0.00    -0.084 Cl
ATOM     14  C   UNL d   1      -1.031  -0.527  -4.064  0.00  0.00     0.025 A 
ENDBRANCH   5   8
ENDBRANCH   1   5
BRANCH   2  15
ATOM     15  N   UNL d   1      -0.496  -3.795  -0.724  0.00  0.00    -0.281 NA
ATOM     16  H   UNL d   1      -0.336  -4.476   0.014  0.00  0.00     0.128 HD
BRANCH  15  17
ATOM     17  C   UNL d   1      -1.790  -4.109  -1.362  0.00  0.00     0.139 C 
BRANCH  17  18
ATOM     18  C   UNL d   1      -2.224  -5.551  -1.243  0.00  0.00    -0.004 A 
ATOM     19  S   UNL d   1      -3.898  -5.935  -1.313  0.00  0.00    -0.105 SA
ATOM     20  C   UNL d   1      -3.592  -7.611  -1.177  0.00  0.00     0.050 A 
ATOM     21  C   UNL d   1      -2.248  -7.882  -1.061  0.00  0.00     0.008 A 
ATOM     22  C   UNL d   1      -1.458  -6.694  -1.103  0.00  0.00     0.016 A 
ENDBRANCH  17  18
ENDBRANCH  15  17
ENDBRANCH   2  15
BRANCH   2  23
ATOM     23  S   UNL d   1      -0.581  -2.191   1.502  0.00  0.00    -0.120 SA
ATOM     24  C   UNL d   1      -1.588  -3.581   2.053  0.00  0.00     0.097 C 
ENDBRANCH   2  23
TORSDOF 6
