REMARK  7 active torsions:
REMARK  status: ('A' for Active; 'I' for Inactive)
REMARK    1  A    between atoms: N_3  and  C_1 
REMARK    2  A    between atoms: S_12  and  C_4 
REMARK    3  A    between atoms: C_5  and  S_12 
REMARK    4  A    between atoms: S_20  and  C_7 
REMARK    5  A    between atoms: C_15  and  C_17 
REMARK    6  A    between atoms: C_26  and  S_20 
REMARK    7  A    between atoms: C_25  and  C_26 
ROOT
ATOM      1  C   UNL d   1       1.555  -3.886  -0.320  0.00  0.00     0.136 A 
ATOM      2  S   UNL d   1       2.630  -5.194  -0.597  0.00  0.00    -0.037 SA
ATOM      3  C   UNL d   1       3.760  -4.376   0.399  0.00  0.00     0.129 A 
ATOM      4  N   UNL d   1       2.049  -2.930   0.440  0.00  0.00    -0.286 N 
ATOM      5  HN  UNL d   1       1.547  -2.077   0.684  1.00  0.00     0.188 HD
ATOM      6  N   UNL d   1       3.334  -3.224   0.870  0.00  0.00    -0.287 N 
ATOM      7  HN  UNL d   1       3.885  -2.618   1.478  1.00  0.00     0.188 HD
ENDROOT
BRANCH   3   8
ATOM      8  S   UNL d   1       5.357  -5.011   0.727  0.00  0.00    -0.099 SA
BRANCH   8   9
ATOM      9  C   UNL d   1       5.710  -4.224   2.324  0.00  0.00     0.120 C 
BRANCH   9  10
ATOM     10  C   UNL d   1       7.078  -4.607   2.844  0.00  0.00    -0.048 A 
ATOM     11  C   UNL d   1       8.202  -3.814   2.555  0.00  0.00     0.024 A 
ATOM     12  C   UNL d   1       9.479  -4.162   3.028  0.00  0.00     0.048 A 
ATOM     13  C   UNL d   1       9.622  -5.325   3.799  0.00  0.00     0.016 A 
ATOM     14  C   UNL d   1       8.517  -6.123   4.086  0.00  0.00     0.001 A 
ATOM     15  C   UNL d   1       7.252  -5.770   3.609  0.00  0.00     0.008 A 
BRANCH  12  16
ATOM     16  C   UNL d   1      10.688  -3.313   2.722  0.00  0.00     0.417 C 
ATOM     17  F   UNL d   1      10.410  -2.220   1.957  0.00  0.00    -0.166 F 
ATOM     18  F   UNL d   1      11.287  -2.834   3.849  0.00  0.00    -0.166 F 
ATOM     19  F   UNL d   1      11.653  -4.001   2.051  0.00  0.00    -0.166 F 
ENDBRANCH  12  16
ENDBRANCH   9  10
ENDBRANCH   8   9
ENDBRANCH   3   8
BRANCH   1  20
ATOM     20  S   UNL d   1       0.004  -3.763  -1.111  0.00  0.00    -0.038 SA
BRANCH  20  21
ATOM     21  C   UNL d   1      -1.014  -3.678   0.311  0.00  0.00     0.120 A 
ATOM     22  S   UNL d   1      -2.480  -2.772   0.301  0.00  0.00    -0.039 SA
ATOM     23  C   UNL d   1      -2.808  -3.327   1.872  0.00  0.00     0.161 A 
ATOM     24  C   UNL d   1      -1.805  -4.152   2.319  0.00  0.00     0.133 A 
ATOM     25  N   UNL d   1      -0.779  -4.368   1.409  0.00  0.00    -0.352 N 
ATOM     26  HN  UNL d   1       0.031  -4.968   1.565  1.00  0.00     0.166 HD
BRANCH  23  27
ATOM     27  N   UNL d   1      -3.997  -2.958   2.572  0.00  0.00    -0.107 N 
ATOM     28  O   UNL d   1      -4.137  -3.436   3.705  0.00  0.00    -0.531 OA
ATOM     29  O   UNL d   1      -4.799  -2.203   2.007  0.00  0.00    -0.531 OA
ENDBRANCH  23  27
ENDBRANCH  20  21
ENDBRANCH   1  20
TORSDOF 7
