REMARK  3 active torsions:
REMARK  status: ('A' for Active; 'I' for Inactive)
REMARK    1  A    between atoms: C_7  and  C_1 
REMARK    2  A    between atoms: O_10  and  C_7 
REMARK    3  A    between atoms: C_12  and  O_10 
ROOT
ATOM      1  C   UNL d   1       0.498  -1.480  -0.072  0.00  0.00     0.101 A 
ATOM      2  C   UNL d   1      -0.578  -0.612  -0.097  0.00  0.00     0.133 A 
ATOM      3  N   UNL d   1       1.309   0.661  -0.103  0.00  0.00    -0.307 N 
ATOM      4  HN  UNL d   1       1.936   1.465  -0.114  1.00  0.00     0.186 HD
ATOM      5  N   UNL d   1      -0.041   0.654  -0.097  0.00  0.00    -0.281 N 
ATOM      6  C   UNL d   1       1.628  -0.634  -0.090  0.00  0.00     0.129 A 
ATOM      7  N   UNL d   1      -1.906  -0.872  -0.102  0.00  0.00    -0.383 N 
ATOM      8  C   UNL d   1      -0.724   1.925  -0.072  0.00  0.00     0.179 C 
ATOM      9  H   UNL d   1      -2.226  -1.840  -0.004  0.00  0.00     0.157 HD
ATOM     10  H   UNL d   1      -2.632  -0.185   0.062  0.00  0.00     0.157 HD
ENDROOT
BRANCH   1  11
ATOM     11  C   UNL d   1       0.454  -2.922   0.011  0.00  0.00     0.298 C 
ATOM     12  O   UNL d   1      -0.586  -3.569   0.093  0.00  0.00    -0.259 OA
BRANCH  11  13
ATOM     13  O   UNL d   1       1.705  -3.464   0.090  0.00  0.00    -0.318 OA
BRANCH  13  14
ATOM     14  C   UNL d   1       1.765  -4.811   0.575  0.00  0.00     0.174 C 
ATOM     15  C   UNL d   1       1.844  -4.767   2.091  0.00  0.00     0.034 C 
ENDBRANCH  13  14
ENDBRANCH  11  13
ENDBRANCH   1  11
TORSDOF 3
