REMARK  2 active torsions:
REMARK  status: ('A' for Active; 'I' for Inactive)
REMARK    1  A    between atoms: S_7  and  C_1 
REMARK    2  A    between atoms: C_8  and  S_7 
ROOT
ATOM      1  C   UNL d   1       0.133  -1.076  -0.026  0.00  0.00     0.052 A 
ATOM      2  N   UNL d   1      -0.725   1.045   0.003  0.00  0.00    -0.304 N 
ATOM      3  HN  UNL d   1      -1.360   1.843   0.024  1.00  0.00     0.186 HD
ATOM      4  N   UNL d   1       0.614   1.056  -0.027  0.00  0.00    -0.304 N 
ATOM      5  C   UNL d   1       1.188  -0.187  -0.058  0.00  0.00     0.041 A 
ATOM      6  C   UNL d   1      -1.034  -0.257   0.001  0.00  0.00     0.041 A 
ATOM      7  C   UNL d   1       2.663  -0.315  -0.111  0.00  0.00     0.071 C 
ATOM      8  C   UNL d   1      -2.461  -0.669   0.021  0.00  0.00     0.071 C 
ATOM      9  H   UNL d   1       1.079   1.957  -0.029  0.00  0.00     0.186 HD
ENDROOT
BRANCH   1  10
ATOM     10  S   UNL d   1       0.065  -2.824  -0.021  0.00  0.00    -0.086 SA
BRANCH  10  11
ATOM     11  C   UNL d   1       1.738  -3.405  -0.054  0.00  0.00     0.005 A 
ATOM     12  C   UNL d   1       2.420  -3.671   1.139  0.00  0.00     0.020 A 
ATOM     13  C   UNL d   1       3.718  -4.191   1.111  0.00  0.00     0.025 A 
ATOM     14  C   UNL d   1       4.330  -4.457  -0.113  0.00  0.00     0.034 A 
ATOM     15  C   UNL d   1       3.659  -4.202  -1.308  0.00  0.00     0.025 A 
ATOM     16 CL   UNL d   1       5.919  -5.114  -0.150  0.00  0.00    -0.084 Cl
ATOM     17  C   UNL d   1       2.361  -3.683  -1.277  0.00  0.00     0.020 A 
ENDBRANCH  10  11
ENDBRANCH   1  10
TORSDOF 2
