REMARK  6 active torsions:
REMARK  status: ('A' for Active; 'I' for Inactive)
REMARK    1  A    between atoms: O_8  and  C_1 
REMARK    2  A    between atoms: C_2  and  C_5 
REMARK    3  A    between atoms: N_10  and  N_3 
REMARK    4  A    between atoms: C_23  and  O_8 
REMARK    5  A    between atoms: C_9  and  N_10 
REMARK    6  A    between atoms: C_11  and  C_17 
ROOT
ATOM      1  N   UNL d   1      -5.051  -6.105   0.774  0.00  0.00    -0.303 N 
ATOM      2  HN  UNL d   1      -5.935  -6.612   0.740  1.00  0.00     0.186 HD
ATOM      3  C   UNL d   1      -4.771  -5.162  -0.083  0.00  0.00     0.032 C 
ATOM      4  C   UNL d   1      -3.440  -4.426  -0.135  0.00  0.00     0.070 C 
ENDROOT
BRANCH   3   5
ATOM      5  C   UNL d   1      -5.812  -4.766  -1.097  0.00  0.00    -0.012 A 
ATOM      6  C   UNL d   1      -6.987  -5.517  -1.218  0.00  0.00     0.016 A 
ATOM      7  C   UNL d   1      -7.948  -5.181  -2.179  0.00  0.00     0.038 A 
ATOM      8  C   UNL d   1      -7.753  -4.090  -3.031  0.00  0.00     0.076 A 
ATOM      9  C   UNL d   1      -6.620  -3.293  -2.867  0.00  0.00     0.038 A 
ATOM     10  C   UNL d   1      -5.644  -3.645  -1.925  0.00  0.00     0.016 A 
BRANCH   8  11
ATOM     11  O   UNL d   1      -8.738  -3.902  -3.975  0.00  0.00    -0.307 OA
BRANCH  11  12
ATOM     12  C   UNL d   1      -8.503  -3.115  -5.082  0.00  0.00     0.122 A 
ATOM     13  C   UNL d   1      -7.478  -3.350  -6.006  0.00  0.00     0.085 A 
ATOM     14 CL   UNL d   1      -6.380  -4.676  -5.908  0.00  0.00    -0.080 Cl
ATOM     15  C   UNL d   1      -7.368  -2.493  -7.096  0.00  0.00     0.114 A 
ATOM     16  N   UNL d   1      -8.222  -1.475  -7.354  0.00  0.00    -0.372 N 
ATOM     17  C   UNL d   1      -9.247  -1.317  -6.486  0.00  0.00     0.114 A 
ATOM     18  HN  UNL d   1      -8.099  -0.860  -8.159  1.00  0.00     0.164 HD
ATOM     19  C   UNL d   1      -9.427  -2.097  -5.351  0.00  0.00     0.085 A 
ATOM     20 CL   UNL d   1     -10.789  -1.798  -4.338  0.00  0.00    -0.080 Cl
ENDBRANCH  11  12
ENDBRANCH   8  11
ENDBRANCH   3   5
BRANCH   1  21
ATOM     21  N   UNL d   1      -4.109  -6.380   1.717  0.00  0.00    -0.285 N 
ATOM     22  H   UNL d   1      -3.705  -5.610   2.250  0.00  0.00     0.188 HD
BRANCH  21  23
ATOM     23  C   UNL d   1      -4.333  -7.419   2.635  0.00  0.00     0.120 A 
ATOM     24  N   UNL d   1      -3.788  -7.258   3.861  0.00  0.00    -0.351 N 
ATOM     25  C   UNL d   1      -3.940  -8.253   4.759  0.00  0.00     0.090 A 
ATOM     26  HN  UNL d   1      -3.276  -6.408   4.100  1.00  0.00     0.166 HD
ATOM     27  C   UNL d   1      -4.610  -9.431   4.491  0.00  0.00     0.033 A 
ATOM     28  C   UNL d   1      -5.163  -9.605   3.220  0.00  0.00     0.052 A 
ATOM     29  C   UNL d   1      -5.016  -8.577   2.281  0.00  0.00     0.066 A 
BRANCH  28  30
ATOM     30  C   UNL d   1      -5.887 -10.877   2.884  0.00  0.00     0.417 C 
ATOM     31  F   UNL d   1      -6.376 -10.912   1.610  0.00  0.00    -0.166 F 
ATOM     32  F   UNL d   1      -5.091 -11.976   3.005  0.00  0.00    -0.166 F 
ATOM     33  F   UNL d   1      -6.953 -11.100   3.699  0.00  0.00    -0.166 F 
ENDBRANCH  28  30
ENDBRANCH  21  23
ENDBRANCH   1  21
TORSDOF 6
