REMARK  1 active torsions:
REMARK  status: ('A' for Active; 'I' for Inactive)
REMARK    1  A    between atoms: C_12  and  C_7 
ROOT
ATOM      1  C   UNL d   1       1.020   0.814  -0.036  0.00  0.00     0.104 A 
ATOM      2  N   UNL d   1       0.631  -0.514  -0.021  0.00  0.00    -0.265 N 
ATOM      3  N   UNL d   1      -0.016   1.629  -0.088  0.00  0.00    -0.343 N 
ATOM      4  HN  UNL d   1       0.002   2.647  -0.130  1.00  0.00     0.167 HD
ATOM      5  C   UNL d   1       1.506  -1.596   0.022  0.00  0.00     0.254 A 
ATOM      6  C   UNL d   1       2.479   1.216   0.057  0.00  0.00     0.036 A 
ATOM      7  C   UNL d   1       3.434   0.004   0.054  0.00  0.00    -0.056 A 
ATOM      8  C   UNL d   1       2.949  -1.254   0.041  0.00  0.00     0.079 A 
ATOM      9  C   UNL d   1      -0.756  -0.524  -0.040  0.00  0.00     0.070 A 
ATOM     10  C   UNL d   1      -1.118   0.819  -0.073  0.00  0.00     0.061 A 
ATOM     11  O   UNL d   1       1.095  -2.751   0.042  0.00  0.00    -0.268 OA
ATOM     12  C   UNL d   1       2.635   1.999   1.380  0.00  0.00     0.028 C 
ATOM     13  C   UNL d   1       2.781   2.145  -1.139  0.00  0.00     0.028 C 
ATOM     14  C   UNL d   1      -1.712  -1.552  -0.017  0.00  0.00     0.032 A 
ATOM     15  C   UNL d   1      -2.475   1.177  -0.075  0.00  0.00     0.032 A 
ATOM     16  C   UNL d   1      -3.062  -1.176  -0.012  0.00  0.00     0.002 A 
ATOM     17  C   UNL d   1      -3.440   0.165  -0.038  0.00  0.00     0.002 A 
ENDROOT
BRANCH   7  18
ATOM     18  C   UNL d   1       4.948   0.254   0.039  0.00  0.00     0.007 C 
ATOM     19  C   UNL d   1       5.662  -0.303   1.277  0.00  0.00     0.014 C 
ATOM     20  C   UNL d   1       5.599  -0.298  -1.237  0.00  0.00     0.014 C 
ENDBRANCH   7  18
TORSDOF 1
