REMARK  4 active torsions:
REMARK  status: ('A' for Active; 'I' for Inactive)
REMARK    1  A    between atoms: S_11  and  C_2 
REMARK    2  A    between atoms: C_8  and  C_3 
REMARK    3  A    between atoms: C_16  and  S_11 
REMARK    4  A    between atoms: C_17  and  C_16 
ROOT
ATOM      1  C   UNL d   1       2.507   0.754   0.199  0.00  0.00     0.090 A 
ATOM      2  C   UNL d   1       2.494  -0.642   0.116  0.00  0.00     0.092 A 
ATOM      3  C   UNL d   1       1.288   1.474   0.116  0.00  0.00     0.013 A 
ATOM      4  N   UNL d   1       1.349  -1.346  -0.007  0.00  0.00    -0.352 N 
ATOM      5  HN  UNL d   1       1.368  -2.364  -0.077  1.00  0.00     0.166 HD
ATOM      6  C   UNL d   1       0.083   0.734  -0.011  0.00  0.00    -0.022 A 
ATOM      7  C   UNL d   1       0.172  -0.669  -0.034  0.00  0.00     0.017 A 
ATOM      8  C   UNL d   1       3.756   1.436   0.393  0.00  0.00     0.103 C 
ATOM      9  N   UNL d   1       4.760   2.002   0.526  0.00  0.00    -0.191 NA
ATOM     10  C   UNL d   1      -1.279   1.399  -0.051  0.00  0.00     0.041 C 
ATOM     11  C   UNL d   1      -1.057  -1.545  -0.116  0.00  0.00     0.057 C 
ATOM     12  C   UNL d   1      -2.436   0.489  -0.457  0.00  0.00     0.005 C 
ATOM     13  C   UNL d   1      -2.341  -0.832   0.287  0.00  0.00     0.006 C 
ENDROOT
BRANCH   2  14
ATOM     14  S   UNL d   1       3.999  -1.599   0.305  0.00  0.00    -0.106 SA
BRANCH  14  15
ATOM     15  C   UNL d   1       3.723  -3.000  -0.835  0.00  0.00     0.119 C 
BRANCH  15  16
ATOM     16  C   UNL d   1       4.993  -3.819  -0.959  0.00  0.00    -0.049 A 
ATOM     17  C   UNL d   1       5.326  -4.773   0.017  0.00  0.00     0.008 A 
ATOM     18  C   UNL d   1       6.531  -5.477  -0.046  0.00  0.00     0.007 A 
ATOM     19  C   UNL d   1       7.437  -5.242  -1.091  0.00  0.00    -0.062 A 
ATOM     20  C   UNL d   1       7.105  -4.302  -2.075  0.00  0.00     0.007 A 
ATOM     21  C   UNL d   1       8.745  -5.977  -1.129  0.00  0.00     0.048 C 
ATOM     22  C   UNL d   1       5.897  -3.597  -2.008  0.00  0.00     0.008 A 
ENDBRANCH  15  16
ENDBRANCH  14  15
ENDBRANCH   2  14
BRANCH   3  23
ATOM     23  C   UNL d   1       1.311   2.965   0.142  0.00  0.00     0.017 A 
ATOM     24  S   UNL d   1       0.374   3.857   1.280  0.00  0.00    -0.101 SA
ATOM     25  C   UNL d   1       0.887   5.361   0.655  0.00  0.00     0.050 A 
ATOM     26  C   UNL d   1       1.859   5.208  -0.304  0.00  0.00     0.008 A 
ATOM     27  C   UNL d   1       2.091   3.834  -0.608  0.00  0.00     0.020 A 
ENDBRANCH   3  23
TORSDOF 4
