REMARK  7 active torsions:
REMARK  status: ('A' for Active; 'I' for Inactive)
REMARK    1  A    between atoms: N_2  and  C_1 
REMARK    2  A    between atoms: N_4  and  C_1 
REMARK    3  A    between atoms: C_5  and  N_2 
REMARK    4  A    between atoms: C_13  and  N_4 
REMARK    5  A    between atoms: C_11  and  C_13 
REMARK    6  A    between atoms: C_14  and  C_11 
REMARK    7  A    between atoms: O_12  and  C_14 
ROOT
ATOM      1  C   UNL d   1       1.132  -0.022  -0.002  0.00  0.00     0.172 C 
ATOM      2  S   UNL d   1       0.322  -0.840  -1.212  0.00  0.00    -0.041 SA
ENDROOT
BRANCH   1   3
ATOM      3  N   UNL d   1       0.585   0.716   1.015  0.00  0.00    -0.333 N 
ATOM      4  H   UNL d   1       1.113   1.546   1.268  0.00  0.00     0.168 HD
BRANCH   3   5
ATOM      5  C   UNL d   1      -0.611   0.507   1.726  0.00  0.00     0.034 A 
ATOM      6  C   UNL d   1      -1.179  -0.756   1.890  0.00  0.00     0.030 A 
ATOM      7  C   UNL d   1      -2.278  -0.932   2.735  0.00  0.00     0.009 A 
ATOM      8  C   UNL d   1      -2.834   0.156   3.417  0.00  0.00    -0.062 A 
ATOM      9  C   UNL d   1      -2.285   1.427   3.225  0.00  0.00     0.009 A 
ATOM     10  C   UNL d   1      -3.986  -0.057   4.354  0.00  0.00     0.048 C 
ATOM     11  C   UNL d   1      -1.170   1.598   2.400  0.00  0.00     0.030 A 
ENDBRANCH   3   5
ENDBRANCH   1   3
BRANCH   1  12
ATOM     12  N   UNL d   1       2.503  -0.019  -0.040  0.00  0.00    -0.367 N 
ATOM     13  H   UNL d   1       2.875  -0.564  -0.812  0.00  0.00     0.161 HD
BRANCH  12  14
ATOM     14  C   UNL d   1       3.362   0.108   1.130  0.00  0.00     0.124 C 
BRANCH  14  15
ATOM     15  C   UNL d   1       4.340   1.271   1.022  0.00  0.00     0.046 C 
BRANCH  15  16
ATOM     16  C   UNL d   1       3.663   2.639   1.001  0.00  0.00     0.168 C 
BRANCH  16  17
ATOM     17  O   UNL d   1       2.780   2.759   2.117  0.00  0.00    -0.396 OA
ATOM     18  C   UNL d   1       2.206   4.059   2.192  0.00  0.00     0.201 C 
ENDBRANCH  16  17
ENDBRANCH  15  16
ENDBRANCH  14  15
ENDBRANCH  12  14
ENDBRANCH   1  12
TORSDOF 7
