REMARK  3 active torsions:
REMARK  status: ('A' for Active; 'I' for Inactive)
REMARK    1  A    between atoms: C_7  and  C_1 
REMARK    2  A    between atoms: N_2  and  C_8 
REMARK    3  A    between atoms: O_15  and  C_7 
ROOT
ATOM      1  C   UNL d   1       2.156  -0.930  -0.002  0.00  0.00     0.080 A 
ATOM      2  S   UNL d   1       1.771   0.733   0.006  0.00  0.00    -0.083 SA
ATOM      3  C   UNL d   1       1.012  -1.702  -0.005  0.00  0.00     0.038 A 
ATOM      4  C   UNL d   1      -0.198  -0.934  -0.005  0.00  0.00    -0.015 A 
ATOM      5  C   UNL d   1       0.074   0.435   0.002  0.00  0.00     0.016 A 
ATOM      6  C   UNL d   1      -2.579  -0.406  -0.011  0.00  0.00     0.103 A 
ATOM      7  C   UNL d   1      -1.549  -1.359  -0.011  0.00  0.00     0.048 A 
ATOM      8  C   UNL d   1      -0.961   1.394   0.004  0.00  0.00     0.022 A 
ATOM      9  C   UNL d   1      -2.290   0.959  -0.003  0.00  0.00     0.037 A 
ENDROOT
BRANCH   1  10
ATOM     10  C   UNL d   1       3.521  -1.427  -0.005  0.00  0.00     0.183 C 
ATOM     11  O   UNL d   1       3.835  -2.608  -0.009  0.00  0.00    -0.646 OA
BRANCH  10  12
ATOM     12  O   UNL d   1       4.455  -0.441  -0.004  0.00  0.00    -0.772 OA
ATOM     13  H   UNL d   1       4.049   0.446  -0.001  0.00  0.00     0.167 HD
ENDBRANCH  10  12
ENDBRANCH   1  10
BRANCH   6  14
ATOM     14  N   UNL d   1      -3.976  -0.858  -0.023  0.00  0.00    -0.116 N 
ATOM     15  O   UNL d   1      -4.188  -2.079  -0.034  0.00  0.00    -0.532 OA
ATOM     16  O   UNL d   1      -4.862   0.009  -0.023  0.00  0.00    -0.532 OA
ENDBRANCH   6  14
TORSDOF 3
