REMARK  3 active torsions:
REMARK  status: ('A' for Active; 'I' for Inactive)
REMARK    1  A    between atoms: C_4  and  C_1 
REMARK       I    between atoms: N_9  and  C_4 
REMARK    2  A    between atoms: N_10  and  N_9 
REMARK    3  A    between atoms: C_11  and  N_10 
ROOT
ATOM      1  C   UNL d   1       0.052  -2.413  -0.750  0.00  0.00     0.276 C 
ATOM      2  N   UNL d   1       0.820  -3.452  -0.238  0.00  0.00    -0.282 N 
ATOM      3  O   UNL d   1       0.510  -1.268  -0.777  0.00  0.00    -0.266 OA
ATOM      4  H   UNL d   1       0.454  -4.381  -0.043  0.00  0.00     0.184 HD
ENDROOT
BRANCH   2   5
ATOM      5  N   UNL d   1       2.038  -3.108   0.382  0.00  0.00    -0.200 NA
ATOM      6  H   UNL d   1       2.281  -2.134   0.167  0.00  0.00     0.153 HD
BRANCH   5   7
ATOM      7  C   UNL d   1       3.107  -3.993   0.084  0.00  0.00     0.066 A 
ATOM      8  C   UNL d   1       2.952  -5.384  -0.043  0.00  0.00     0.139 A 
ATOM      9  F   UNL d   1       1.728  -5.937   0.022  0.00  0.00    -0.204 F 
ATOM     10  C   UNL d   1       4.046  -6.230  -0.223  0.00  0.00     0.044 A 
ATOM     11  C   UNL d   1       5.333  -5.699  -0.263  0.00  0.00     0.003 A 
ATOM     12  C   UNL d   1       5.518  -4.326  -0.113  0.00  0.00     0.002 A 
ATOM     13  C   UNL d   1       4.416  -3.484   0.074  0.00  0.00     0.028 A 
ENDBRANCH   5   7
ENDBRANCH   2   5
BRANCH   1  14
ATOM     14  C   UNL d   1      -1.271  -2.748  -1.227  0.00  0.00     0.115 A 
ATOM     15  C   UNL d   1      -2.297  -1.927  -1.685  0.00  0.00     0.046 A 
ATOM     16  N   UNL d   1      -3.444  -2.607  -2.089  0.00  0.00    -0.298 N 
ATOM     17  C   UNL d   1      -2.329  -0.445  -1.790  0.00  0.00     0.071 C 
ATOM     18  N   UNL d   1      -3.322  -3.914  -1.953  0.00  0.00    -0.269 N 
ATOM     19  HN  UNL d   1      -4.281  -2.148  -2.448  1.00  0.00     0.187 HD
ATOM     20  S   UNL d   1      -1.839  -4.363  -1.340  0.00  0.00     0.009 SA
ATOM     21  HN  UNL d   1      -4.056  -4.578  -2.198  1.00  0.00     0.195 HD
ENDBRANCH   1  14
TORSDOF 3
