REMARK  4 active torsions:
REMARK  status: ('A' for Active; 'I' for Inactive)
REMARK    1  A    between atoms: C_9  and  N_1 
REMARK    2  A    between atoms: C_11  and  N_4 
REMARK    3  A    between atoms: C_16  and  C_11 
REMARK    4  A    between atoms: C_17  and  C_16 
ROOT
ATOM      1  N   UNL d   1       0.906  -1.447  -0.002  0.00  0.00    -0.246 N 
ATOM      2  C   UNL d   1      -0.259  -0.720  -0.117  0.00  0.00     0.150 A 
ATOM      3  C   UNL d   1       2.141  -0.788   0.067  0.00  0.00     0.338 C 
ATOM      4  N   UNL d   1       2.140   0.615  -0.099  0.00  0.00    -0.264 N 
ATOM      5  C   UNL d   1      -0.220   0.642  -0.145  0.00  0.00     0.147 A 
ATOM      6  C   UNL d   1       0.980   1.405  -0.120  0.00  0.00     0.282 C 
ATOM      7  N   UNL d   1      -1.549  -1.172  -0.118  0.00  0.00    -0.336 N 
ATOM      8  HN  UNL d   1      -1.868  -2.141  -0.116  1.00  0.00     0.168 HD
ATOM      9  N   UNL d   1      -1.521   1.049  -0.146  0.00  0.00    -0.345 N 
ATOM     10  C   UNL d   1      -2.291  -0.084  -0.123  0.00  0.00     0.182 A 
ATOM     11  O   UNL d   1       3.198  -1.397   0.252  0.00  0.00    -0.246 OA
ATOM     12  O   UNL d   1       0.961   2.630  -0.095  0.00  0.00    -0.265 OA
ATOM     13  H   UNL d   1      -1.851   2.007  -0.128  0.00  0.00     0.167 HD
ENDROOT
BRANCH   4  14
ATOM     14  C   UNL d   1       3.426   1.326   0.014  0.00  0.00     0.142 C 
BRANCH  14  15
ATOM     15  C   UNL d   1       4.563   0.806  -0.887  0.00  0.00     0.059 C 
BRANCH  15  16
ATOM     16  C   UNL d   1       5.845   1.597  -0.751  0.00  0.00    -0.057 A 
ATOM     17  C   UNL d   1       6.964   1.026  -0.122  0.00  0.00     0.007 A 
ATOM     18  C   UNL d   1       8.168   1.728  -0.039  0.00  0.00     0.001 A 
ATOM     19  C   UNL d   1       8.264   3.009  -0.575  0.00  0.00     0.000 A 
ATOM     20  C   UNL d   1       7.155   3.591  -1.188  0.00  0.00     0.001 A 
ATOM     21  C   UNL d   1       5.952   2.889  -1.278  0.00  0.00     0.007 A 
ENDBRANCH  15  16
ENDBRANCH  14  15
ENDBRANCH   4  14
BRANCH   1  22
ATOM     22  C   UNL d   1       0.809  -2.865   0.085  0.00  0.00     0.051 A 
ATOM     23  C   UNL d   1       1.403  -3.595   1.137  0.00  0.00    -0.035 A 
ATOM     24  C   UNL d   1       1.987  -2.956   2.369  0.00  0.00     0.050 C 
ATOM     25  C   UNL d   1       1.434  -4.999   1.065  0.00  0.00     0.009 A 
ATOM     26  C   UNL d   1       0.862  -5.676  -0.011  0.00  0.00     0.001 A 
ATOM     27  C   UNL d   1       0.228  -4.960  -1.021  0.00  0.00     0.002 A 
ATOM     28  C   UNL d   1       0.193  -3.566  -0.969  0.00  0.00     0.031 A 
ENDBRANCH   1  22
TORSDOF 4
