REMARK  1 active torsions:
REMARK  status: ('A' for Active; 'I' for Inactive)
REMARK    1  A    between atoms: C_10  and  N_3 
ROOT
ATOM      1  C   UNL d   1      -1.396  -0.035   0.080  0.00  0.00     0.334 A 
ATOM      2  N   UNL d   1      -0.668   1.127   0.190  0.00  0.00    -0.274 N 
ATOM      3  N   UNL d   1      -0.638  -1.202  -0.140  0.00  0.00    -0.273 N 
ATOM      4  C   UNL d   1       1.440   0.018  -0.141  0.00  0.00     0.128 A 
ATOM      5  C   UNL d   1       0.749  -1.126  -0.234  0.00  0.00     0.130 A 
ATOM      6  C   UNL d   1       0.683   1.268   0.046  0.00  0.00     0.271 A 
ATOM      7  C   UNL d   1       2.855   0.042  -0.198  0.00  0.00     0.106 C 
ATOM      8  N   UNL d   1       4.014  -0.007  -0.243  0.00  0.00    -0.191 NA
ATOM      9  O   UNL d   1      -2.622   0.043   0.137  0.00  0.00    -0.246 OA
ATOM     10  O   UNL d   1       1.222   2.369   0.069  0.00  0.00    -0.266 OA
ATOM     11  H   UNL d   1      -1.207   1.973   0.295  0.00  0.00     0.173 HD
ENDROOT
BRANCH   3  12
ATOM     12  C   UNL d   1      -1.311  -2.468  -0.273  0.00  0.00     0.043 A 
ATOM     13  C   UNL d   1      -0.849  -3.431  -1.185  0.00  0.00     0.030 A 
ATOM     14  C   UNL d   1      -1.495  -4.663  -1.319  0.00  0.00     0.002 A 
ATOM     15  C   UNL d   1      -2.599  -4.963  -0.525  0.00  0.00     0.000 A 
ATOM     16  C   UNL d   1      -3.062  -4.026   0.394  0.00  0.00     0.002 A 
ATOM     17  C   UNL d   1      -2.430  -2.785   0.512  0.00  0.00     0.030 A 
ENDBRANCH   3  12
TORSDOF 1
