REMARK  3 active torsions:
REMARK  status: ('A' for Active; 'I' for Inactive)
REMARK    1  A    between atoms: C_4  and  C_1 
REMARK       I    between atoms: C_2  and  N_6 
REMARK       I    between atoms: N_5  and  C_2 
REMARK    2  A    between atoms: N_7  and  C_3 
REMARK    3  A    between atoms: C_8  and  N_5 
ROOT
ATOM      1  C   UNL d   1      -3.467   5.699  -0.795  0.00  0.00     0.323 C 
ATOM      2  N   UNL d   1      -3.695   6.247  -2.042  0.00  0.00    -0.307 N 
ATOM      3  N   UNL d   1      -3.572   4.312  -0.748  0.00  0.00    -0.333 N 
ATOM      4  N   UNL d   1      -1.420   2.346  -0.148  0.00  0.00    -0.267 NA
ATOM      5  O   UNL d   1      -3.238   6.354   0.216  0.00  0.00    -0.247 OA
ATOM      6  C   UNL d   1      -3.412   3.673   0.563  0.00  0.00     0.142 C 
ATOM      7  C   UNL d   1      -1.961   3.271   0.888  0.00  0.00     0.117 C 
ATOM      8  C   UNL d   1      -2.062   3.191  -2.409  0.00  0.00     0.035 C 
ATOM      9  C   UNL d   1      -3.481   3.411  -1.896  0.00  0.00     0.129 C 
ATOM     10  C   UNL d   1      -0.963   3.082  -1.352  0.00  0.00     0.098 C 
ATOM     11  H   UNL d   1      -4.400   5.733  -2.555  0.00  0.00     0.170 HD
ENDROOT
BRANCH   2  12
ATOM     12  C   UNL d   1      -3.778   7.652  -2.259  0.00  0.00     0.064 A 
ATOM     13  C   UNL d   1      -4.889   8.131  -2.987  0.00  0.00     0.061 A 
ATOM     14 CL   UNL d   1      -6.040   7.034  -3.680  0.00  0.00    -0.082 Cl
ATOM     15  C   UNL d   1      -5.119   9.498  -3.140  0.00  0.00     0.026 A 
ATOM     16  C   UNL d   1      -4.230  10.411  -2.585  0.00  0.00     0.002 A 
ATOM     17  C   UNL d   1      -3.089   9.953  -1.927  0.00  0.00     0.009 A 
ATOM     18  C   UNL d   1      -2.827   8.576  -1.786  0.00  0.00    -0.034 A 
ATOM     19  C   UNL d   1      -1.518   8.189  -1.153  0.00  0.00     0.050 C 
ENDBRANCH   2  12
BRANCH   4  20
ATOM     20  C   UNL d   1      -0.522   1.381   0.336  0.00  0.00     0.097 A 
ATOM     21  C   UNL d   1      -0.900   0.366   1.223  0.00  0.00     0.086 A 
ATOM     22  C   UNL d   1       0.074  -0.572   1.636  0.00  0.00     0.021 A 
ATOM     23  C   UNL d   1       1.361  -0.526   1.128  0.00  0.00     0.018 A 
ATOM     24  C   UNL d   1       1.644   0.477   0.234  0.00  0.00     0.089 A 
ATOM     25  N   UNL d   1       0.747   1.412  -0.146  0.00  0.00    -0.356 N 
ATOM     26  HN  UNL d   1       1.024   2.145  -0.798  1.00  0.00     0.166 HD
BRANCH  21  27
ATOM     27  C   UNL d   1      -2.286   0.197   1.772  0.00  0.00     0.420 C 
ATOM     28  F   UNL d   1      -3.300   0.617   0.969  0.00  0.00    -0.166 F 
ATOM     29  F   UNL d   1      -2.583  -1.111   2.047  0.00  0.00    -0.166 F 
ATOM     30  F   UNL d   1      -2.454   0.847   2.961  0.00  0.00    -0.166 F 
ENDBRANCH  21  27
ENDBRANCH   4  20
TORSDOF 3
