REMARK  4 active torsions:
REMARK  status: ('A' for Active; 'I' for Inactive)
REMARK    1  A    between atoms: C_3  and  S_1 
REMARK    2  A    between atoms: N_12  and  S_1 
REMARK       I    between atoms: C_2  and  N_4 
REMARK    3  A    between atoms: C_5  and  C_2 
REMARK    4  A    between atoms: N_4  and  C_11 
ROOT
ATOM      1  C   UNL d   1      -1.877  -2.017   7.550  0.00  0.00     0.076 A 
ATOM      2  C   UNL d   1      -1.230  -2.575   6.442  0.00  0.00     0.054 A 
ATOM      3  C   UNL d   1      -0.777  -1.743   5.420  0.00  0.00     0.036 A 
ATOM      4  C   UNL d   1      -2.039  -0.635   7.676  0.00  0.00     0.025 A 
ATOM      5  C   UNL d   1      -1.556   0.199   6.674  0.00  0.00     0.004 A 
ATOM      6  C   UNL d   1      -0.935  -0.354   5.550  0.00  0.00     0.029 A 
ENDROOT
BRANCH   3   7
ATOM      7  N   UNL d   1      -0.215  -2.211   4.213  0.00  0.00    -0.323 N 
ATOM      8  C   UNL d   1      -0.033  -3.527   3.822  0.00  0.00     0.256 C 
ATOM      9  O   UNL d   1      -0.262  -4.527   4.492  0.00  0.00    -0.267 OA
ATOM     10  H   UNL d   1      -0.040  -1.497   3.519  0.00  0.00     0.169 HD
BRANCH   8  11
ATOM     11  C   UNL d   1       0.416  -3.705   2.408  0.00  0.00     0.032 A 
ATOM     12  C   UNL d   1       1.227  -2.768   1.755  0.00  0.00     0.024 A 
ATOM     13  C   UNL d   1       1.521  -2.901   0.386  0.00  0.00    -0.055 A 
ATOM     14  C   UNL d   1       2.376  -1.859  -0.282  0.00  0.00     0.049 C 
ATOM     15  C   UNL d   1       1.032  -4.018  -0.321  0.00  0.00    -0.056 A 
ATOM     16  C   UNL d   1       0.272  -4.983   0.358  0.00  0.00     0.008 A 
ATOM     17  C   UNL d   1       1.257  -4.174  -1.801  0.00  0.00     0.049 C 
ATOM     18  C   UNL d   1      -0.032  -4.830   1.711  0.00  0.00     0.017 A 
ENDBRANCH   8  11
ENDBRANCH   3   7
BRANCH   1  19
ATOM     19  S   UNL d   1      -2.654  -3.092   8.719  0.00  0.00     0.239 S 
ATOM     20  O   UNL d   1      -3.582  -2.324   9.518  0.00  0.00    -0.206 OA
ATOM     21  O   UNL d   1      -1.665  -3.966   9.295  0.00  0.00    -0.206 OA
BRANCH  19  22
ATOM     22  N   UNL d   1      -3.620  -4.027   7.711  0.00  0.00    -0.225 NA
ATOM     23  H   UNL d   1      -4.580  -3.688   7.694  0.00  0.00     0.136 HD
ATOM     24  H   UNL d   1      -3.511  -5.016   7.930  0.00  0.00     0.136 HD
ENDBRANCH  19  22
ENDBRANCH   1  19
TORSDOF 4
