REMARK  5 active torsions:
REMARK  status: ('A' for Active; 'I' for Inactive)
REMARK    1  A    between atoms: C_6  and  C_1 
REMARK    2  A    between atoms: C_11  and  C_6 
REMARK    3  A    between atoms: C_17  and  C_11 
REMARK    4  A    between atoms: S_12  and  C_17 
REMARK    5  A    between atoms: C_13  and  S_12 
ROOT
ATOM      1  C   UNL d   1       3.986   0.024  -0.042  0.00  0.00     0.167 C 
ATOM      2  O   UNL d   1       4.651  -1.011  -0.087  0.00  0.00    -0.292 OA
ENDROOT
BRANCH   1   3
ATOM      3  C   UNL d   1       2.518   0.017  -0.011  0.00  0.00     0.058 A 
ATOM      4  S   UNL d   1       1.669   1.389   0.559  0.00  0.00    -0.085 SA
ATOM      5  C   UNL d   1       0.135   0.691   0.279  0.00  0.00     0.016 A 
ATOM      6  C   UNL d   1      -1.117   1.298   0.504  0.00  0.00     0.021 A 
ATOM      7  C   UNL d   1       0.252  -0.607  -0.214  0.00  0.00    -0.010 A 
ATOM      8  C   UNL d   1      -2.278   0.574   0.227  0.00  0.00     0.025 A 
ATOM      9  C   UNL d   1      -2.190  -0.721  -0.258  0.00  0.00     0.035 A 
ATOM     10  C   UNL d   1      -0.948  -1.319  -0.484  0.00  0.00     0.037 A 
ATOM     11 CL   UNL d   1      -3.630  -1.603  -0.594  0.00  0.00    -0.084 Cl
ATOM     12  C   UNL d   1       1.643  -1.004  -0.372  0.00  0.00    -0.030 A 
ATOM     13  C   UNL d   1       2.026  -2.360  -0.892  0.00  0.00     0.050 C 
ENDBRANCH   1   3
BRANCH   1  14
ATOM     14  C   UNL d   1       4.705   1.369  -0.001  0.00  0.00     0.095 C 
BRANCH  14  15
ATOM     15  C   UNL d   1       6.071   1.267  -0.669  0.00  0.00     0.087 C 
BRANCH  15  16
ATOM     16  S   UNL d   1       6.903   2.892  -0.587  0.00  0.00    -0.130 SA
BRANCH  16  17
ATOM     17  C   UNL d   1       8.381   2.610  -1.549  0.00  0.00     0.000 A 
ATOM     18  C   UNL d   1       8.914   3.697  -2.255  0.00  0.00     0.020 A 
ATOM     19  C   UNL d   1      10.074   3.553  -3.021  0.00  0.00     0.025 A 
ATOM     20  C   UNL d   1      10.714   2.318  -3.076  0.00  0.00     0.034 A 
ATOM     21  C   UNL d   1      10.211   1.234  -2.363  0.00  0.00     0.025 A 
ATOM     22 CL   UNL d   1      12.134   2.131  -4.028  0.00  0.00    -0.084 Cl
ATOM     23  C   UNL d   1       9.049   1.382  -1.598  0.00  0.00     0.020 A 
ENDBRANCH  16  17
ENDBRANCH  15  16
ENDBRANCH  14  15
ENDBRANCH   1  14
TORSDOF 5
