REMARK  3 active torsions:
REMARK  status: ('A' for Active; 'I' for Inactive)
REMARK    1  A    between atoms: C_11  and  C_1 
REMARK    2  A    between atoms: C_12  and  C_5 
REMARK    3  A    between atoms: C_6  and  C_8 
ROOT
ATOM      1  C   UNL d   1       1.044   0.588   0.099  0.00  0.00     0.140 C 
ATOM      2  N   UNL d   1      -0.246   1.163  -0.066  0.00  0.00    -0.351 N 
ATOM      3  N   UNL d   1       1.014  -0.702   0.245  0.00  0.00    -0.303 N 
ATOM      4  HN  UNL d   1       1.811  -1.332   0.339  1.00  0.00     0.182 HD
ATOM      5  C   UNL d   1      -1.192   0.071  -0.157  0.00  0.00     0.209 C 
ATOM      6  N   UNL d   1      -0.324  -1.039   0.247  0.00  0.00    -0.211 NA
ATOM      7  H   UNL d   1      -0.372   2.147  -0.246  0.00  0.00     0.163 HD
ATOM      8  H   UNL d   1      -0.528  -1.895  -0.270  0.00  0.00     0.149 HD
ENDROOT
BRANCH   1   9
ATOM      9  C   UNL d   1       2.225   1.459  -0.017  0.00  0.00     0.077 A 
ATOM     10  N   UNL d   1       1.957   2.778  -0.231  0.00  0.00    -0.362 N 
ATOM     11  C   UNL d   1       3.026   3.589  -0.413  0.00  0.00     0.104 A 
ATOM     12  HN  UNL d   1       1.002   3.135  -0.252  1.00  0.00     0.165 HD
ATOM     13  C   UNL d   1       4.345   3.151  -0.403  0.00  0.00     0.063 A 
ATOM     14  C   UNL d   1       4.577   1.786  -0.186  0.00  0.00     0.020 A 
ATOM     15  C   UNL d   1       3.503   0.921   0.011  0.00  0.00     0.034 A 
BRANCH  13  16
ATOM     16  C   UNL d   1       5.478   4.111  -0.620  0.00  0.00     0.418 C 
ATOM     17  F   UNL d   1       5.069   5.392  -0.825  0.00  0.00    -0.166 F 
ATOM     18  F   UNL d   1       6.329   4.151   0.440  0.00  0.00    -0.166 F 
ATOM     19  F   UNL d   1       6.234   3.779  -1.701  0.00  0.00    -0.166 F 
ENDBRANCH  13  16
ENDBRANCH   1   9
BRANCH   5  20
ATOM     20  C   UNL d   1      -1.687  -0.006  -1.583  0.00  0.00    -0.019 A 
ATOM     21  C   UNL d   1      -0.797  -0.181  -2.664  0.00  0.00     0.017 A 
ATOM     22  C   UNL d   1      -1.248  -0.191  -3.988  0.00  0.00    -0.061 A 
ATOM     23  C   UNL d   1      -0.283  -0.347  -5.127  0.00  0.00     0.048 C 
ATOM     24  C   UNL d   1      -2.613  -0.036  -4.239  0.00  0.00     0.007 A 
ATOM     25  C   UNL d   1      -3.511   0.126  -3.183  0.00  0.00     0.001 A 
ATOM     26  C   UNL d   1      -3.052   0.144  -1.865  0.00  0.00     0.011 A 
ENDBRANCH   5  20
TORSDOF 3
