REMARK  6 active torsions:
REMARK  status: ('A' for Active; 'I' for Inactive)
REMARK    1  A    between atoms: N_4  and  C_3 
REMARK       I    between atoms: C_5  and  N_4 
REMARK    2  A    between atoms: O_11  and  C_5 
REMARK    3  A    between atoms: C_15  and  C_6 
REMARK    4  A    between atoms: C_10  and  C_15 
REMARK    5  A    between atoms: C_17  and  O_11 
REMARK    6  A    between atoms: O_23  and  C_18 
ROOT
ATOM      1  N   UNL d   1       1.929   1.393   0.269  0.00  0.00    -0.288 N 
ATOM      2  C   UNL d   1       3.273   1.262   0.047  0.00  0.00     0.371 C 
ATOM      3  O   UNL d   1       3.910   2.280  -0.226  0.00  0.00    -0.238 OA
ATOM      4  H   UNL d   1       1.651   2.362   0.281  0.00  0.00     0.172 HD
ENDROOT
BRANCH   1   5
ATOM      5  C   UNL d   1       0.957   0.463   0.541  0.00  0.00     0.116 A 
ATOM      6  N   UNL d   1       1.102  -0.893   0.360  0.00  0.00    -0.339 N 
ATOM      7  C   UNL d   1      -0.044  -1.505   0.620  0.00  0.00     0.056 A 
ATOM      8  HN  UNL d   1       1.963  -1.357   0.070  1.00  0.00     0.168 HD
ATOM      9  S   UNL d   1      -1.301  -0.487   1.223  0.00  0.00    -0.085 SA
ATOM     10  C   UNL d   1      -0.289   0.864   0.982  0.00  0.00     0.100 A 
BRANCH   7  11
ATOM     11  C   UNL d   1      -0.315  -2.979   0.445  0.00  0.00     0.103 C 
BRANCH  11  12
ATOM     12  C   UNL d   1      -1.417  -3.261  -0.553  0.00  0.00    -0.045 A 
ATOM     13  C   UNL d   1      -1.296  -3.111  -1.923  0.00  0.00     0.057 A 
ATOM     14  S   UNL d   1      -2.738  -3.476  -2.765  0.00  0.00    -0.113 SA
ATOM     15  C   UNL d   1      -3.554  -3.858  -1.315  0.00  0.00     0.050 A 
ATOM     16  C   UNL d   1      -2.740  -3.708  -0.212  0.00  0.00     0.015 A 
ENDBRANCH  11  12
ENDBRANCH   7  11
ENDBRANCH   1   5
BRANCH   2  17
ATOM     17  O   UNL d   1       3.821   0.004   0.246  0.00  0.00    -0.261 OA
BRANCH  17  18
ATOM     18  C   UNL d   1       5.186   0.123   0.534  0.00  0.00     0.081 A 
ATOM     19  C   UNL d   1       5.567   0.475   1.829  0.00  0.00     0.040 A 
ATOM     20  C   UNL d   1       6.919   0.645   2.126  0.00  0.00     0.039 A 
ATOM     21  C   UNL d   1       7.896   0.448   1.145  0.00  0.00     0.068 A 
ATOM     22  C   UNL d   1       7.507   0.062  -0.142  0.00  0.00     0.039 A 
ATOM     23  C   UNL d   1       6.147  -0.109  -0.450  0.00  0.00     0.040 A 
BRANCH  21  24
ATOM     24  O   UNL d   1       9.175   0.662   1.579  0.00  0.00    -0.356 OA
ATOM     25  C   UNL d   1      10.217   0.586   0.615  0.00  0.00     0.210 C 
ENDBRANCH  21  24
ENDBRANCH  17  18
ENDBRANCH   2  17
TORSDOF 6
