REMARK  7 active torsions:
REMARK  status: ('A' for Active; 'I' for Inactive)
REMARK    1  A    between atoms: C_4  and  C_1 
REMARK    2  A    between atoms: C_2  and  C_5 
REMARK    3  A    between atoms: C_10  and  C_3 
REMARK    4  A    between atoms: C_6  and  C_10 
REMARK    5  A    between atoms: O_22  and  C_10 
REMARK    6  A    between atoms: O_23  and  C_12 
REMARK    7  A    between atoms: O_24  and  C_13 
ROOT
ATOM      1  C   UNL d   1      -0.194   1.116   3.404  0.00  0.00    -0.024 A 
ATOM      2  C   UNL d   1      -0.432  -1.320   3.265  0.00  0.00     0.049 A 
ATOM      3  C   UNL d   1      -0.121  -0.009   1.226  0.00  0.00     0.049 A 
ATOM      4  C   UNL d   1      -0.071   1.157   2.005  0.00  0.00     0.026 A 
ATOM      5  C   UNL d   1      -0.380  -0.135   4.020  0.00  0.00     0.026 A 
ATOM      6  C   UNL d   1      -0.296  -1.244   1.869  0.00  0.00     0.032 A 
ENDROOT
BRANCH   1   7
ATOM      7  C   UNL d   1      -0.203   2.394   4.234  0.00  0.00     0.184 C 
BRANCH   7   8
ATOM      8  C   UNL d   1       0.801   2.424   5.375  0.00  0.00    -0.022 A 
ATOM      9  C   UNL d   1       0.355   2.539   6.705  0.00  0.00     0.049 A 
ATOM     10  C   UNL d   1       1.255   2.606   7.784  0.00  0.00     0.102 A 
ATOM     11  C   UNL d   1       2.633   2.568   7.514  0.00  0.00     0.101 A 
ATOM     12  C   UNL d   1       3.075   2.450   6.190  0.00  0.00     0.040 A 
ATOM     13  C   UNL d   1       2.175   2.372   5.131  0.00  0.00     0.013 A 
BRANCH  10  14
ATOM     14  O   UNL d   1       0.846   2.706   9.087  0.00  0.00    -0.353 OA
ATOM     15  C   UNL d   1      -0.547   2.725   9.367  0.00  0.00     0.210 C 
ENDBRANCH  10  14
BRANCH  11  16
ATOM     16  O   UNL d   1       3.683   2.641   8.397  0.00  0.00    -0.353 OA
ATOM     17  C   UNL d   1       3.416   2.777   9.784  0.00  0.00     0.210 C 
ENDBRANCH  11  16
ENDBRANCH   7   8
BRANCH   7  18
ATOM     18  O   UNL d   1      -0.003   3.535   3.398  0.00  0.00    -0.386 OA
ATOM     19  H   UNL d   1       0.681   4.093   3.802  0.00  0.00     0.210 HD
ENDBRANCH   7  18
ENDBRANCH   1   7
BRANCH   2  20
ATOM     20  C   UNL d   1      -0.654  -2.660   3.926  0.00  0.00     0.417 C 
ATOM     21  F   UNL d   1      -0.816  -2.583   5.276  0.00  0.00    -0.166 F 
ATOM     22  F   UNL d   1       0.380  -3.521   3.720  0.00  0.00    -0.166 F 
ATOM     23  F   UNL d   1      -1.766  -3.290   3.454  0.00  0.00    -0.166 F 
ENDBRANCH   2  20
BRANCH   3  24
ATOM     24  C   UNL d   1      -0.015   0.060  -0.279  0.00  0.00     0.417 C 
ATOM     25  F   UNL d   1       0.135   1.323  -0.769  0.00  0.00    -0.166 F 
ATOM     26  F   UNL d   1       1.044  -0.649  -0.755  0.00  0.00    -0.166 F 
ATOM     27  F   UNL d   1      -1.116  -0.450  -0.897  0.00  0.00    -0.166 F 
ENDBRANCH   3  24
TORSDOF 7
