REMARK  4 active torsions:
REMARK  status: ('A' for Active; 'I' for Inactive)
REMARK    1  A    between atoms: C_3  and  C_1 
REMARK       I    between atoms: N_10  and  C_3 
REMARK    2  A    between atoms: C_6  and  C_8 
REMARK    3  A    between atoms: C_7  and  C_9 
REMARK    4  A    between atoms: C_13  and  N_10 
ROOT
ATOM      1  C   UNL d   1      -2.782  -2.200  -0.364  0.00  0.00     0.262 C 
ATOM      2  N   UNL d   1      -2.582  -3.567  -0.356  0.00  0.00    -0.323 N 
ATOM      3  O   UNL d   1      -1.883  -1.367  -0.273  0.00  0.00    -0.267 OA
ATOM      4  H   UNL d   1      -3.377  -4.155  -0.612  0.00  0.00     0.169 HD
ENDROOT
BRANCH   2   5
ATOM      5  C   UNL d   1      -1.403  -4.237   0.049  0.00  0.00     0.036 A 
ATOM      6  C   UNL d   1      -0.327  -3.586   0.661  0.00  0.00     0.045 A 
ATOM      7  C   UNL d   1       0.776  -4.299   1.161  0.00  0.00     0.050 A 
ATOM      8  C   UNL d   1       0.811  -5.690   1.006  0.00  0.00     0.032 A 
ATOM      9  C   UNL d   1      -0.249  -6.368   0.386  0.00  0.00     0.050 A 
ATOM     10  C   UNL d   1      -1.351  -5.630  -0.090  0.00  0.00     0.045 A 
BRANCH   7  11
ATOM     11  C   UNL d   1       1.870  -3.557   1.893  0.00  0.00     0.417 C 
ATOM     12  F   UNL d   1       2.814  -4.380   2.429  0.00  0.00    -0.166 F 
ATOM     13  F   UNL d   1       2.542  -2.686   1.095  0.00  0.00    -0.166 F 
ATOM     14  F   UNL d   1       1.388  -2.822   2.934  0.00  0.00    -0.166 F 
ENDBRANCH   7  11
BRANCH   9  15
ATOM     15  C   UNL d   1      -0.229  -7.874   0.261  0.00  0.00     0.417 C 
ATOM     16  F   UNL d   1       0.840  -8.454   0.876  0.00  0.00    -0.166 F 
ATOM     17  F   UNL d   1      -1.332  -8.454   0.809  0.00  0.00    -0.166 F 
ATOM     18  F   UNL d   1      -0.186  -8.292  -1.033  0.00  0.00    -0.166 F 
ENDBRANCH   9  15
ENDBRANCH   2   5
BRANCH   1  19
ATOM     19  C   UNL d   1      -4.204  -1.736  -0.461  0.00  0.00     0.108 C 
ATOM     20  C   UNL d   1      -5.344  -2.630  -0.760  0.00  0.00     0.304 C 
ATOM     21  O   UNL d   1      -6.611  -2.055  -0.836  0.00  0.00    -0.274 OA
ATOM     22  O   UNL d   1      -5.176  -3.834  -0.944  0.00  0.00    -0.259 OA
ATOM     23  C   UNL d   1      -6.829  -0.709  -0.483  0.00  0.00     0.089 A 
ATOM     24  C   UNL d   1      -5.760   0.109  -0.140  0.00  0.00    -0.001 A 
ATOM     25  C   UNL d   1      -8.141  -0.242  -0.450  0.00  0.00     0.038 A 
ATOM     26  C   UNL d   1      -4.417  -0.437  -0.186  0.00  0.00     0.037 C 
ATOM     27  C   UNL d   1      -6.009   1.419   0.276  0.00  0.00     0.014 A 
ATOM     28  C   UNL d   1      -7.322   1.893   0.340  0.00  0.00     0.001 A 
ATOM     29  C   UNL d   1      -8.385   1.067  -0.032  0.00  0.00     0.003 A 
ENDBRANCH   1  19
TORSDOF 4
