REMARK  5 active torsions:
REMARK  status: ('A' for Active; 'I' for Inactive)
REMARK    1  A    between atoms: N_2  and  C_1 
REMARK    2  A    between atoms: O_10  and  C_3 
REMARK    3  A    between atoms: N_14  and  C_4 
REMARK    4  A    between atoms: C_5  and  C_11 
REMARK    5  A    between atoms: C_17  and  O_10 
ROOT
ATOM      1  C   UNL d   1      -0.283  -1.475   0.293  0.00  0.00     0.197 A 
ATOM      2  C   UNL d   1       0.931  -0.858   0.079  0.00  0.00     0.186 A 
ATOM      3  C   UNL d   1      -1.450  -0.778   0.021  0.00  0.00     0.141 A 
ATOM      4  N   UNL d   1       1.030   0.389  -0.430  0.00  0.00    -0.331 N 
ATOM      5  HN  UNL d   1       1.930   0.825  -0.631  1.00  0.00     0.168 HD
ATOM      6  N   UNL d   1      -1.342   0.491  -0.445  0.00  0.00    -0.337 N 
ATOM      7  HN  UNL d   1      -2.178   1.043  -0.637  1.00  0.00     0.168 HD
ATOM      8  C   UNL d   1      -0.124   1.012  -0.651  0.00  0.00     0.184 A 
ENDROOT
BRANCH   2   9
ATOM      9  O   UNL d   1       2.104  -1.538   0.402  0.00  0.00    -0.291 OA
BRANCH   9  10
ATOM     10  C   UNL d   1       3.237  -0.774   0.569  0.00  0.00     0.078 A 
ATOM     11  C   UNL d   1       3.263   0.331   1.425  0.00  0.00     0.053 A 
ATOM     12  C   UNL d   1       4.401   1.145   1.496  0.00  0.00     0.050 A 
ATOM     13  C   UNL d   1       5.541   0.780   0.762  0.00  0.00     0.016 A 
ATOM     14  C   UNL d   1       5.536  -0.368  -0.035  0.00  0.00     0.004 A 
ATOM     15  C   UNL d   1       4.382  -1.146  -0.134  0.00  0.00     0.037 A 
BRANCH  12  16
ATOM     16  C   UNL d   1       4.388   2.414   2.308  0.00  0.00     0.417 C 
ATOM     17  F   UNL d   1       3.191   2.663   2.912  0.00  0.00    -0.166 F 
ATOM     18  F   UNL d   1       5.315   2.410   3.305  0.00  0.00    -0.166 F 
ATOM     19  F   UNL d   1       4.654   3.516   1.552  0.00  0.00    -0.166 F 
ENDBRANCH  12  16
ENDBRANCH   9  10
ENDBRANCH   2   9
BRANCH   1  20
ATOM     20  N   UNL d   1      -0.277  -2.781   0.854  0.00  0.00    -0.107 N 
ATOM     21  O   UNL d   1      -0.099  -3.727   0.074  0.00  0.00    -0.531 OA
ATOM     22  O   UNL d   1      -0.435  -2.879   2.080  0.00  0.00    -0.531 OA
ENDBRANCH   1  20
BRANCH   3  23
ATOM     23  N   UNL d   1      -2.750  -1.252   0.234  0.00  0.00    -0.374 N 
ATOM     24  C   UNL d   1      -3.815  -0.266   0.029  0.00  0.00     0.150 C 
ATOM     25  C   UNL d   1      -3.080  -2.605  -0.215  0.00  0.00     0.150 C 
ENDBRANCH   3  23
TORSDOF 5
