REMARK  5 active torsions:
REMARK  status: ('A' for Active; 'I' for Inactive)
REMARK    1  A    between atoms: C_3  and  C_1 
REMARK    2  A    between atoms: S_4  and  C_2 
REMARK    3  A    between atoms: O_7  and  C_3 
REMARK    4  A    between atoms: C_6  and  S_4 
REMARK    5  A    between atoms: O_14  and  C_8 
ROOT
ATOM      1  C   UNL d   1       0.570  -0.216  -0.271  0.00  0.00     0.054 A 
ATOM      2  C   UNL d   1       0.785  -1.496  -0.820  0.00  0.00     0.022 A 
ATOM      3  C   UNL d   1       0.271   0.860  -1.130  0.00  0.00     0.020 A 
ATOM      4  C   UNL d   1       0.704  -1.657  -2.216  0.00  0.00     0.020 A 
ATOM      5  C   UNL d   1       0.187   0.678  -2.511  0.00  0.00     0.001 A 
ATOM      6  C   UNL d   1       0.412  -0.580  -3.054  0.00  0.00     0.001 A 
ENDROOT
BRANCH   2   7
ATOM      7  S   UNL d   1       1.084  -2.986   0.133  0.00  0.00    -0.089 SA
BRANCH   7   8
ATOM      8  C   UNL d   1       2.864  -3.033   0.160  0.00  0.00     0.005 A 
ATOM      9  C   UNL d   1       3.557  -2.565   1.280  0.00  0.00     0.021 A 
ATOM     10  C   UNL d   1       4.955  -2.620   1.323  0.00  0.00     0.038 A 
ATOM     11  C   UNL d   1       5.672  -3.141   0.246  0.00  0.00     0.068 A 
ATOM     12  C   UNL d   1       4.976  -3.634  -0.860  0.00  0.00     0.038 A 
ATOM     13  C   UNL d   1       3.580  -3.585  -0.904  0.00  0.00     0.021 A 
BRANCH  11  14
ATOM     14  O   UNL d   1       7.033  -3.231   0.155  0.00  0.00    -0.356 OA
ATOM     15  C   UNL d   1       7.785  -2.598   1.183  0.00  0.00     0.210 C 
ENDBRANCH  11  14
ENDBRANCH   7   8
ENDBRANCH   2   7
BRANCH   1  16
ATOM     16  C   UNL d   1       0.651   0.136   1.177  0.00  0.00     0.177 C 
ATOM     17  O   UNL d   1       0.938   1.259   1.558  0.00  0.00    -0.646 OA
BRANCH  16  18
ATOM     18  O   UNL d   1       0.310  -0.844   2.039  0.00  0.00    -0.773 OA
ATOM     19  H   UNL d   1       0.117  -1.703   1.614  0.00  0.00     0.167 HD
ENDBRANCH  16  18
ENDBRANCH   1  16
TORSDOF 5
