REMARK  2 active torsions:
REMARK  status: ('A' for Active; 'I' for Inactive)
REMARK    1  A    between atoms: C_6  and  N_1 
REMARK    2  A    between atoms: C_15  and  C_6 
ROOT
ATOM      1  N   UNL d   1       0.077  -1.580  -0.048  0.00  0.00    -0.341 N 
ATOM      2  C   UNL d   1      -0.714   0.508   0.027  0.00  0.00     0.005 A 
ATOM      3  C   UNL d   1       0.715   0.557  -0.010  0.00  0.00     0.005 A 
ATOM      4  C   UNL d   1      -1.090  -0.837  -0.006  0.00  0.00     0.046 A 
ATOM      5  C   UNL d   1       1.183  -0.753  -0.117  0.00  0.00     0.046 A 
ATOM      6  C   UNL d   1       2.551  -1.044  -0.254  0.00  0.00     0.032 A 
ATOM      7  C   UNL d   1      -2.439  -1.232   0.000  0.00  0.00     0.032 A 
ATOM      8  C   UNL d   1       1.647   1.617   0.021  0.00  0.00     0.033 A 
ATOM      9  C   UNL d   1      -1.718   1.498   0.071  0.00  0.00     0.033 A 
ATOM     10  C   UNL d   1      -3.059   1.109   0.067  0.00  0.00     0.011 A 
ATOM     11  C   UNL d   1       3.010   1.329  -0.080  0.00  0.00     0.011 A 
ATOM     12  C   UNL d   1       3.457   0.021  -0.234  0.00  0.00     0.021 A 
ATOM     13  C   UNL d   1      -3.418  -0.234   0.032  0.00  0.00     0.021 A 
ATOM     14 BR   UNL d   1       4.265   2.743  -0.006  0.00  0.00    -0.051 Br
ATOM     15 BR   UNL d   1      -4.409   2.436   0.091  0.00  0.00    -0.051 Br
ENDROOT
BRANCH   1  16
ATOM     16  C   UNL d   1       0.130  -3.041   0.046  0.00  0.00     0.168 C 
BRANCH  16  17
ATOM     17  C   UNL d   1      -0.188  -3.778  -1.234  0.00  0.00    -0.040 A 
ATOM     18  C   UNL d   1      -0.306  -3.155  -2.485  0.00  0.00     0.009 A 
ATOM     19  C   UNL d   1      -0.661  -3.891  -3.618  0.00  0.00     0.001 A 
ATOM     20  C   UNL d   1      -0.880  -5.262  -3.523  0.00  0.00     0.000 A 
ATOM     21  C   UNL d   1      -0.725  -5.905  -2.298  0.00  0.00     0.001 A 
ATOM     22  C   UNL d   1      -0.378  -5.170  -1.163  0.00  0.00     0.009 A 
ENDBRANCH  16  17
ENDBRANCH   1  16
TORSDOF 2
