REMARK  6 active torsions:
REMARK  status: ('A' for Active; 'I' for Inactive)
REMARK    1  A    between atoms: N_5  and  S_1 
REMARK    2  A    between atoms: C_9  and  S_1 
REMARK    3  A    between atoms: S_2  and  C_10 
REMARK    4  A    between atoms: N_6  and  S_2 
REMARK    5  A    between atoms: C_18  and  N_5 
REMARK    6  A    between atoms: C_19  and  N_6 
ROOT
ATOM      1  C   UNL d   1      -0.721  -2.824   2.648  0.00  0.00    -0.041 A 
ATOM      2  C   UNL d   1      -1.357  -4.626   4.023  0.00  0.00    -0.041 A 
ATOM      3  C   UNL d   1      -0.175  -4.014   2.116  0.00  0.00    -0.019 A 
ATOM      4  C   UNL d   1      -0.546  -5.121   2.977  0.00  0.00    -0.019 A 
ATOM      5  C   UNL d   1       0.268  -1.559   0.885  0.00  0.00     0.080 A 
ATOM      6  C   UNL d   1      -1.666  -6.839   4.844  0.00  0.00     0.080 A 
ATOM      7  C   UNL d   1      -1.512  -3.122   3.905  0.00  0.00     0.078 A 
ATOM      8  C   UNL d   1      -0.499  -1.590   2.056  0.00  0.00     0.033 A 
ATOM      9  C   UNL d   1      -1.918  -5.467   4.971  0.00  0.00     0.033 A 
ATOM     10  C   UNL d   1      -0.234  -6.471   2.908  0.00  0.00     0.014 A 
ATOM     11  C   UNL d   1       0.572  -3.982   0.949  0.00  0.00     0.014 A 
ATOM     12  C   UNL d   1       0.797  -2.744   0.331  0.00  0.00     0.026 A 
ATOM     13  C   UNL d   1      -0.794  -7.336   3.856  0.00  0.00     0.026 A 
ENDROOT
BRANCH   5  14
ATOM     14  S   UNL d   1       0.714   0.020   0.177  0.00  0.00     0.263 S 
ATOM     15  O   UNL d   1       0.759   0.983   1.256  0.00  0.00    -0.200 OA
ATOM     16  O   UNL d   1       1.868  -0.207  -0.668  0.00  0.00    -0.200 OA
BRANCH  14  17
ATOM     17  N   UNL d   1      -0.557   0.394  -0.873  0.00  0.00    -0.280 N 
ATOM     18  H   UNL d   1      -0.469  -0.092  -1.763  0.00  0.00     0.179 HD
BRANCH  17  19
ATOM     19  C   UNL d   1      -1.869   0.551  -0.343  0.00  0.00     0.048 A 
ATOM     20  C   UNL d   1      -2.295   1.767   0.214  0.00  0.00    -0.035 A 
ATOM     21  C   UNL d   1      -1.460   3.019   0.197  0.00  0.00     0.050 C 
ATOM     22  C   UNL d   1      -3.560   1.822   0.822  0.00  0.00     0.009 A 
ATOM     23  C   UNL d   1      -4.393   0.703   0.842  0.00  0.00     0.001 A 
ATOM     24  C   UNL d   1      -3.975  -0.486   0.251  0.00  0.00     0.002 A 
ATOM     25  C   UNL d   1      -2.716  -0.561  -0.342  0.00  0.00     0.030 A 
ENDBRANCH  17  19
ENDBRANCH  14  17
ENDBRANCH   5  14
BRANCH   6  26
ATOM     26  S   UNL d   1      -2.493  -7.981   5.936  0.00  0.00     0.263 S 
ATOM     27  O   UNL d   1      -1.694  -9.178   6.024  0.00  0.00    -0.200 OA
ATOM     28  O   UNL d   1      -2.873  -7.235   7.120  0.00  0.00    -0.200 OA
BRANCH  26  29
ATOM     29  N   UNL d   1      -3.940  -8.308   5.116  0.00  0.00    -0.280 N 
ATOM     30  H   UNL d   1      -4.629  -7.571   5.247  0.00  0.00     0.179 HD
BRANCH  29  31
ATOM     31  C   UNL d   1      -3.912  -8.943   3.838  0.00  0.00     0.048 A 
ATOM     32  C   UNL d   1      -3.891 -10.342   3.722  0.00  0.00    -0.035 A 
ATOM     33  C   UNL d   1      -3.932 -11.259   4.911  0.00  0.00     0.050 C 
ATOM     34  C   UNL d   1      -3.843 -10.915   2.440  0.00  0.00     0.009 A 
ATOM     35  C   UNL d   1      -3.862 -10.117   1.296  0.00  0.00     0.001 A 
ATOM     36  C   UNL d   1      -3.914  -8.732   1.421  0.00  0.00     0.002 A 
ATOM     37  C   UNL d   1      -3.933  -8.146   2.688  0.00  0.00     0.030 A 
ENDBRANCH  29  31
ENDBRANCH  26  29
ENDBRANCH   6  26
TORSDOF 6
