REMARK  5 active torsions:
REMARK  status: ('A' for Active; 'I' for Inactive)
REMARK    1  A    between atoms: N_5  and  C_1 
REMARK    2  A    between atoms: C_4  and  C_8 
REMARK       I    between atoms: C_7  and  N_6 
REMARK    3  A    between atoms: C_9  and  C_7 
REMARK    4  A    between atoms: C_13  and  C_12 
REMARK    5  A    between atoms: O_25  and  C_13 
ROOT
ATOM      1  N   UNL d   1       0.094   2.702   0.025  0.00  0.00    -0.214 N 
ATOM      2  N   UNL d   1       0.690   5.495   0.028  0.00  0.00    -0.346 N 
ATOM      3  C   UNL d   1       1.275   6.658   0.487  0.00  0.00     0.243 C 
ATOM      4  C   UNL d   1      -0.433   3.531   1.119  0.00  0.00     0.161 C 
ATOM      5  C   UNL d   1       1.347   3.183  -0.570  0.00  0.00     0.161 C 
ATOM      6  C   UNL d   1       1.145   4.625  -1.069  0.00  0.00     0.146 C 
ATOM      7  C   UNL d   1      -0.543   5.008   0.671  0.00  0.00     0.146 C 
ATOM      8  O   UNL d   1       0.806   7.313   1.418  0.00  0.00    -0.268 OA
ENDROOT
BRANCH   1   9
ATOM      9  C   UNL d   1      -0.021   1.330   0.155  0.00  0.00     0.680 A 
ATOM     10  N   UNL d   1       0.557   0.555  -0.776  0.00  0.00    -0.186 N 
ATOM     11  C   UNL d   1       0.354  -0.788  -0.736  0.00  0.00     0.133 A 
ATOM     12  HN  UNL d   1       1.141   0.968  -1.504  1.00  0.00     0.184 HD
ATOM     13  C   UNL d   1      -0.409  -1.375   0.252  0.00  0.00     0.052 A 
ATOM     14  C   UNL d   1      -0.943  -0.516   1.178  0.00  0.00     0.108 A 
ATOM     15  N   UNL d   1      -0.769   0.817   1.142  0.00  0.00    -0.202 N 
ATOM     16  HN  UNL d   1      -1.194   1.421   1.846  1.00  0.00     0.183 HD
BRANCH  11  17
ATOM     17  C   UNL d   1       0.962  -1.664  -1.817  0.00  0.00     0.433 C 
ATOM     18  F   UNL d   1       1.693  -0.989  -2.748  0.00  0.00    -0.165 F 
ATOM     19  F   UNL d   1       1.799  -2.614  -1.304  0.00  0.00    -0.165 F 
ATOM     20  F   UNL d   1       0.016  -2.357  -2.517  0.00  0.00    -0.165 F 
ENDBRANCH  11  17
ENDBRANCH   1   9
BRANCH   3  21
ATOM     21  C   UNL d   1       2.529   7.122  -0.160  0.00  0.00     0.081 C 
ATOM     22  C   UNL d   1       3.139   8.226   0.299  0.00  0.00     0.086 C 
BRANCH  22  23
ATOM     23  C   UNL d   1       4.390   8.661  -0.346  0.00  0.00     0.165 C 
ATOM     24  O   UNL d   1       4.921   8.076  -1.277  0.00  0.00    -0.647 OA
BRANCH  23  25
ATOM     25  O   UNL d   1       4.888   9.783   0.204  0.00  0.00    -0.773 OA
ATOM     26  H   UNL d   1       4.368  10.160   0.937  0.00  0.00     0.167 HD
ENDBRANCH  23  25
ENDBRANCH  22  23
ENDBRANCH   3  21
TORSDOF 5
