REMARK  6 active torsions:
REMARK  status: ('A' for Active; 'I' for Inactive)
REMARK    1  A    between atoms: C_2  and  C_1 
REMARK       I    between atoms: N_6  and  C_1 
REMARK    2  A    between atoms: C_7  and  C_3 
REMARK    3  A    between atoms: O_8  and  C_4 
REMARK    4  A    between atoms: C_5  and  N_6 
REMARK    5  A    between atoms: O_14  and  C_7 
REMARK    6  A    between atoms: C_15  and  O_8 
ROOT
ATOM      1  C   UNL d   1       0.743  -0.232  -0.065  0.00  0.00     0.260 C 
ATOM      2  N   UNL d   1       2.103  -0.477  -0.174  0.00  0.00    -0.322 N 
ATOM      3  O   UNL d   1      -0.008  -0.798   0.716  0.00  0.00    -0.267 OA
ATOM      4  H   UNL d   1       2.683   0.279  -0.534  0.00  0.00     0.169 HD
ENDROOT
BRANCH   1   5
ATOM      5  C   UNL d   1       0.229   0.805  -0.984  0.00  0.00     0.083 A 
ATOM      6  C   UNL d   1      -0.644   1.812  -0.588  0.00  0.00     0.163 A 
ATOM      7  N   UNL d   1      -1.143   2.726  -1.466  0.00  0.00    -0.346 N 
ATOM      8  C   UNL d   1      -0.831   2.592  -2.770  0.00  0.00     0.090 A 
ATOM      9  HN  UNL d   1      -1.737   3.491  -1.146  1.00  0.00     0.167 HD
ATOM     10  C   UNL d   1       0.009   1.608  -3.254  0.00  0.00     0.018 A 
ATOM     11  C   UNL d   1       0.557   0.708  -2.345  0.00  0.00     0.023 A 
BRANCH   6  12
ATOM     12  O   UNL d   1      -0.978   1.944   0.757  0.00  0.00    -0.293 OA
BRANCH  12  13
ATOM     13  C   UNL d   1      -2.079   2.720   1.055  0.00  0.00     0.077 A 
ATOM     14  C   UNL d   1      -3.326   2.501   0.461  0.00  0.00     0.037 A 
ATOM     15  C   UNL d   1      -4.403   3.334   0.767  0.00  0.00     0.003 A 
ATOM     16  C   UNL d   1      -4.246   4.365   1.693  0.00  0.00     0.000 A 
ATOM     17  C   UNL d   1      -3.015   4.551   2.328  0.00  0.00     0.003 A 
ATOM     18  C   UNL d   1      -1.933   3.724   2.009  0.00  0.00     0.037 A 
ENDBRANCH  12  13
ENDBRANCH   6  12
ENDBRANCH   1   5
BRANCH   2  19
ATOM     19  C   UNL d   1       2.767  -1.610   0.363  0.00  0.00     0.052 A 
ATOM     20  C   UNL d   1       4.095  -1.506   0.834  0.00  0.00     0.070 A 
ATOM     21  C   UNL d   1       4.804  -2.651   1.256  0.00  0.00    -0.043 A 
ATOM     22  C   UNL d   1       6.214  -2.629   1.783  0.00  0.00     0.049 C 
ATOM     23  C   UNL d   1       4.165  -3.899   1.181  0.00  0.00     0.008 A 
ATOM     24  C   UNL d   1       2.844  -4.001   0.746  0.00  0.00     0.003 A 
ATOM     25  C   UNL d   1       2.143  -2.861   0.353  0.00  0.00     0.030 A 
BRANCH  20  26
ATOM     26  C   UNL d   1       4.702  -0.159   0.952  0.00  0.00     0.179 C 
ATOM     27  O   UNL d   1       5.798   0.137   0.506  0.00  0.00    -0.646 OA
BRANCH  26  28
ATOM     28  O   UNL d   1       3.891   0.720   1.583  0.00  0.00    -0.773 OA
ATOM     29  H   UNL d   1       3.054   0.329   1.917  0.00  0.00     0.167 HD
ENDBRANCH  26  28
ENDBRANCH  20  26
ENDBRANCH   2  19
TORSDOF 6
