REMARK  11 active torsions:
REMARK  status: ('A' for Active; 'I' for Inactive)
REMARK       I    between atoms: C_2  and  N_1 
REMARK    1  A    between atoms: C_3  and  N_1 
REMARK    2  A    between atoms: C_5  and  C_2 
REMARK    3  A    between atoms: N_7  and  C_3 
REMARK    4  A    between atoms: C_4  and  C_15 
REMARK    5  A    between atoms: C_15  and  N_7 
REMARK    6  A    between atoms: C_19  and  C_18 
REMARK    7  A    between atoms: C_20  and  C_19 
REMARK    8  A    between atoms: C_23  and  C_20 
REMARK    9  A    between atoms: C_21  and  C_22 
REMARK   10  A    between atoms: C_22  and  C_24 
REMARK   11  A    between atoms: C_24  and  C_23 
ROOT
ATOM      1  N   UNL d   1       1.234   0.095   0.269  0.00  0.00    -0.300 N 
ATOM      2  C   UNL d   1       0.376  -0.222   1.346  0.00  0.00     0.257 C 
ATOM      3  O   UNL d   1      -0.785  -0.544   1.101  0.00  0.00    -0.267 OA
ATOM      4  H   UNL d   1       0.698  -0.045  -0.576  0.00  0.00     0.171 HD
ENDROOT
BRANCH   2   5
ATOM      5  C   UNL d   1       0.881  -0.343   2.733  0.00  0.00     0.032 C 
ATOM      6  C   UNL d   1       1.580   0.671   3.369  0.00  0.00     0.017 C 
ATOM      7  C   UNL d   1       2.218   0.435   4.588  0.00  0.00     0.008 C 
ATOM      8  C   UNL d   1       2.063  -0.789   5.245  0.00  0.00    -0.058 C 
ATOM      9  C   UNL d   1       1.183  -1.734   4.701  0.00  0.00     0.008 C 
ATOM     10  C   UNL d   1       0.611  -1.520   3.441  0.00  0.00     0.017 C 
BRANCH   8  11
ATOM     11  C   UNL d   1       2.826  -1.046   6.521  0.00  0.00     0.038 C 
BRANCH  11  12
ATOM     12  C   UNL d   1       3.593  -2.375   6.554  0.00  0.00     0.005 C 
BRANCH  12  13
ATOM     13  C   UNL d   1       4.672  -2.495   5.469  0.00  0.00     0.000 C 
BRANCH  13  14
ATOM     14  C   UNL d   1       5.380  -3.848   5.567  0.00  0.00     0.000 C 
BRANCH  14  15
ATOM     15  C   UNL d   1       6.454  -4.016   4.491  0.00  0.00    -0.000 C 
BRANCH  15  16
ATOM     16  C   UNL d   1       7.132  -5.382   4.608  0.00  0.00    -0.005 C 
ATOM     17  C   UNL d   1       8.210  -5.569   3.553  0.00  0.00     0.005 C 
ENDBRANCH  15  16
ENDBRANCH  14  15
ENDBRANCH  13  14
ENDBRANCH  12  13
ENDBRANCH  11  12
ENDBRANCH   8  11
ENDBRANCH   2   5
BRANCH   1  18
ATOM     18  C   UNL d   1       2.445   0.738  -0.021  0.00  0.00     0.174 C 
ATOM     19  S   UNL d   1       3.369   1.779   0.887  0.00  0.00    -0.041 SA
BRANCH  18  20
ATOM     20  N   UNL d   1       2.935   0.480  -1.274  0.00  0.00    -0.361 N 
ATOM     21  H   UNL d   1       3.833   0.936  -1.421  0.00  0.00     0.162 HD
BRANCH  20  22
ATOM     22  C   UNL d   1       2.805  -0.780  -1.979  0.00  0.00     0.187 C 
BRANCH  22  23
ATOM     23  C   UNL d   1       3.685  -0.730  -3.171  0.00  0.00     0.070 A 
ATOM     24  O   UNL d   1       5.022  -0.585  -2.932  0.00  0.00    -0.325 OA
ATOM     25  C   UNL d   1       5.639  -0.548  -4.142  0.00  0.00     0.142 A 
ATOM     26  C   UNL d   1       4.718  -0.668  -5.154  0.00  0.00     0.027 A 
ATOM     27  C   UNL d   1       3.453  -0.779  -4.530  0.00  0.00     0.036 A 
ENDBRANCH  22  23
ENDBRANCH  20  22
ENDBRANCH  18  20
ENDBRANCH   1  18
TORSDOF 11
