REMARK  4 active torsions:
REMARK  status: ('A' for Active; 'I' for Inactive)
REMARK    1  A    between atoms: C_5  and  S_1 
REMARK    2  A    between atoms: N_8  and  S_1 
REMARK    3  A    between atoms: C_6  and  C_2 
REMARK    4  A    between atoms: C_15  and  N_8 
ROOT
ATOM      1  S   UNL d   1       1.162   0.050   0.001  0.00  0.00     0.264 S 
ATOM      2  O   UNL d   1       0.615   0.520  -1.255  0.00  0.00    -0.200 OA
ATOM      3  O   UNL d   1       2.593   0.028   0.226  0.00  0.00    -0.200 OA
ENDROOT
BRANCH   1   4
ATOM      4  C   UNL d   1       0.542  -1.605   0.213  0.00  0.00     0.094 A 
ATOM      5  C   UNL d   1      -0.831  -1.922   0.201  0.00  0.00     0.071 A 
ATOM      6  C   UNL d   1      -1.192  -3.287   0.301  0.00  0.00     0.018 A 
ATOM      7  C   UNL d   1      -0.231  -4.295   0.380  0.00  0.00     0.001 A 
ATOM      8  C   UNL d   1       1.118  -3.967   0.367  0.00  0.00     0.002 A 
ATOM      9  C   UNL d   1       1.504  -2.630   0.289  0.00  0.00     0.026 A 
BRANCH   5  10
ATOM     10  C   UNL d   1      -1.974  -0.940   0.083  0.00  0.00     0.419 C 
ATOM     11  F   UNL d   1      -1.661   0.376   0.186  0.00  0.00    -0.166 F 
ATOM     12  F   UNL d   1      -2.659  -1.074  -1.083  0.00  0.00    -0.166 F 
ATOM     13  F   UNL d   1      -2.893  -1.148   1.072  0.00  0.00    -0.166 F 
ENDBRANCH   5  10
ENDBRANCH   1   4
BRANCH   1  14
ATOM     14  N   UNL d   1       0.481   0.972   1.207  0.00  0.00    -0.281 N 
ATOM     15  H   UNL d   1      -0.339   1.499   0.899  0.00  0.00     0.179 HD
BRANCH  14  16
ATOM     16  C   UNL d   1       0.637   0.740   2.591  0.00  0.00     0.045 A 
ATOM     17  C   UNL d   1      -0.311  -0.052   3.243  0.00  0.00     0.069 A 
ATOM     18  C   UNL d   1      -0.406   0.144   4.612  0.00  0.00     0.106 A 
ATOM     19  O   UNL d   1      -1.378  -0.349   5.426  0.00  0.00    -0.296 OA
ATOM     20  C   UNL d   1       0.407   0.973   5.361  0.00  0.00     0.068 A 
ATOM     21  C   UNL d   1      -1.135   0.262   6.625  0.00  0.00     0.120 A 
ATOM     22  C   UNL d   1      -2.185   0.093   7.650  0.00  0.00     0.098 C 
ATOM     23  N   UNL d   1      -0.048   1.013   6.657  0.00  0.00    -0.338 N 
ATOM     24  HN  UNL d   1       0.356   1.504   7.453  1.00  0.00     0.168 HD
ATOM     25  C   UNL d   1       1.445   1.658   4.713  0.00  0.00     0.035 A 
ATOM     26  C   UNL d   1       1.526   1.551   3.311  0.00  0.00     0.032 A 
ENDBRANCH  14  16
ENDBRANCH   1  14
TORSDOF 4
