REMARK  5 active torsions:
REMARK  status: ('A' for Active; 'I' for Inactive)
REMARK    1  A    between atoms: C_13  and  C_1 
REMARK    2  A    between atoms: C_6  and  S_14 
REMARK    3  A    between atoms: S_19  and  C_7 
REMARK    4  A    between atoms: C_16  and  C_13 
REMARK    5  A    between atoms: S_14  and  C_16 
ROOT
ATOM      1  C   UNL d   1       3.849  -0.150   0.150  0.00  0.00     0.176 C 
ATOM      2  O   UNL d   1       4.391  -1.235   0.387  0.00  0.00    -0.291 OA
ENDROOT
BRANCH   1   3
ATOM      3  C   UNL d   1       2.387  -0.029   0.070  0.00  0.00     0.059 A 
ATOM      4  S   UNL d   1       1.627   1.494   0.201  0.00  0.00    -0.085 SA
ATOM      5  C   UNL d   1       0.051   0.836   0.097  0.00  0.00     0.016 A 
ATOM      6  C   UNL d   1      -1.163   1.550   0.137  0.00  0.00     0.021 A 
ATOM      7  C   UNL d   1       0.088  -0.553  -0.030  0.00  0.00    -0.010 A 
ATOM      8  C   UNL d   1      -2.367   0.846   0.069  0.00  0.00     0.025 A 
ATOM      9  C   UNL d   1      -2.358  -0.535  -0.039  0.00  0.00     0.035 A 
ATOM     10  C   UNL d   1      -1.153  -1.240  -0.092  0.00  0.00     0.037 A 
ATOM     11 CL   UNL d   1      -3.849  -1.394  -0.104  0.00  0.00    -0.084 Cl
ATOM     12  C   UNL d   1       1.452  -1.051  -0.077  0.00  0.00    -0.029 A 
ATOM     13  C   UNL d   1       1.789  -2.504  -0.248  0.00  0.00     0.050 C 
ENDBRANCH   1   3
BRANCH   1  14
ATOM     14  C   UNL d   1       4.695   1.118  -0.014  0.00  0.00     0.166 C 
BRANCH  14  15
ATOM     15  S   UNL d   1       6.374   0.761  -0.634  0.00  0.00    -0.096 SA
BRANCH  15  16
ATOM     16  C   UNL d   1       5.955  -0.069  -2.115  0.00  0.00     0.129 A 
ATOM     17  S   UNL d   1       6.928  -1.283  -2.823  0.00  0.00    -0.038 SA
ATOM     18  C   UNL d   1       5.663  -1.507  -3.959  0.00  0.00     0.128 A 
ATOM     19  N   UNL d   1       4.654  -0.676  -3.824  0.00  0.00    -0.287 N 
ATOM     20  N   UNL d   1       4.827   0.172  -2.749  0.00  0.00    -0.287 N 
ATOM     21  HN  UNL d   1       3.841  -0.660  -4.439  1.00  0.00     0.188 HD
ATOM     22  HN  UNL d   1       4.162   0.897  -2.480  1.00  0.00     0.188 HD
BRANCH  18  23
ATOM     23  S   UNL d   1       5.701  -2.754  -5.184  0.00  0.00    -0.108 SA
ATOM     24  C   UNL d   1       3.951  -2.818  -5.629  0.00  0.00     0.097 C 
ENDBRANCH  18  23
ENDBRANCH  15  16
ENDBRANCH  14  15
ENDBRANCH   1  14
TORSDOF 5
