REMARK  4 active torsions:
REMARK  status: ('A' for Active; 'I' for Inactive)
REMARK    1  A    between atoms: C_3  and  C_1 
REMARK    2  A    between atoms: C_15  and  N_2 
REMARK    3  A    between atoms: C_16  and  C_10 
REMARK    4  A    between atoms: C_17  and  C_11 
ROOT
ATOM      1  C   UNL d   1      -0.357  -2.765  -0.113  0.00  0.00     0.054 A 
ATOM      2  N   UNL d   1      -0.191  -4.878   1.014  0.00  0.00    -0.340 N 
ATOM      3  HN  UNL d   1       0.081  -5.428   1.828  1.00  0.00     0.167 HD
ATOM      4  C   UNL d   1       0.010  -3.529   0.993  0.00  0.00     0.059 A 
ATOM      5  C   UNL d   1      -0.753  -5.471  -0.055  0.00  0.00     0.116 A 
ATOM      6  N   UNL d   1      -1.149  -4.810  -1.150  0.00  0.00    -0.351 N 
ATOM      7  HN  UNL d   1      -1.596  -5.285  -1.934  1.00  0.00     0.166 HD
ATOM      8  C   UNL d   1      -0.924  -3.486  -1.158  0.00  0.00     0.107 A 
ENDROOT
BRANCH   1   9
ATOM      9  C   UNL d   1      -0.123  -1.334  -0.272  0.00  0.00     0.152 A 
ATOM     10  N   UNL d   1      -0.993  -0.398  -0.829  0.00  0.00    -0.224 N 
ATOM     11  N   UNL d   1      -0.299   0.743  -1.047  0.00  0.00     0.001 NA
ATOM     12  N   UNL d   1       0.888   0.561  -0.495  0.00  0.00    -0.007 NA
ATOM     13  N   UNL d   1       1.019  -0.715  -0.029  0.00  0.00    -0.269 N 
ATOM     14  HN  UNL d   1       1.842  -1.116   0.422  1.00  0.00     0.185 HD
BRANCH  10  15
ATOM     15  C   UNL d   1      -2.368  -0.486  -1.154  0.00  0.00     0.056 A 
ATOM     16  C   UNL d   1      -3.228  -1.338  -0.451  0.00  0.00     0.032 A 
ATOM     17  C   UNL d   1      -4.580  -1.403  -0.798  0.00  0.00     0.009 A 
ATOM     18  C   UNL d   1      -5.085  -0.626  -1.847  0.00  0.00    -0.062 A 
ATOM     19  C   UNL d   1      -4.221   0.224  -2.545  0.00  0.00     0.009 A 
ATOM     20  C   UNL d   1      -6.549  -0.674  -2.172  0.00  0.00     0.048 C 
ATOM     21  C   UNL d   1      -2.872   0.307  -2.194  0.00  0.00     0.032 A 
ENDBRANCH  10  15
ENDBRANCH   1   9
BRANCH   4  22
ATOM     22  C   UNL d   1       0.636  -3.018   2.243  0.00  0.00    -0.008 A 
ATOM     23  C   UNL d   1       1.569  -3.813   2.943  0.00  0.00     0.014 A 
ATOM     24  C   UNL d   1       2.182  -3.369   4.120  0.00  0.00     0.001 A 
ATOM     25  C   UNL d   1       1.884  -2.108   4.625  0.00  0.00     0.000 A 
ATOM     26  C   UNL d   1       0.958  -1.307   3.967  0.00  0.00     0.001 A 
ATOM     27  C   UNL d   1       0.327  -1.767   2.806  0.00  0.00     0.014 A 
ENDBRANCH   4  22
BRANCH   5  28
ATOM     28  C   UNL d   1      -0.900  -6.938  -0.047  0.00  0.00     0.008 A 
ATOM     29  C   UNL d   1      -1.524  -7.618  -1.114  0.00  0.00     0.015 A 
ATOM     30  C   UNL d   1      -1.638  -9.013  -1.128  0.00  0.00     0.001 A 
ATOM     31  C   UNL d   1      -1.134  -9.758  -0.068  0.00  0.00     0.000 A 
ATOM     32  C   UNL d   1      -0.516  -9.116   0.999  0.00  0.00     0.001 A 
ATOM     33  C   UNL d   1      -0.406  -7.718   1.015  0.00  0.00     0.015 A 
ENDBRANCH   5  28
TORSDOF 4
