REMARK  2 active torsions:
REMARK  status: ('A' for Active; 'I' for Inactive)
REMARK    1  A    between atoms: C_16  and  N_4 
REMARK    2  A    between atoms: C_28  and  C_24 
ROOT
ATOM      1  C   UNL d   1       2.730  -0.688  -0.015  0.00  0.00     0.139 A 
ATOM      2  C   UNL d   1       1.780   0.288   0.019  0.00  0.00     0.105 A 
ATOM      3  N   UNL d   1       4.085  -0.290  -0.120  0.00  0.00    -0.288 N 
ATOM      4  N   UNL d   1       2.307  -2.059  -0.004  0.00  0.00    -0.262 N 
ATOM      5  N   UNL d   1       3.538   1.995   0.071  0.00  0.00    -0.270 N 
ATOM      6  C   UNL d   1       4.513   1.034   0.026  0.00  0.00     0.332 C 
ATOM      7  C   UNL d   1       2.194   1.726  -0.022  0.00  0.00     0.267 C 
ATOM      8  C   UNL d   1       0.936  -2.425  -0.014  0.00  0.00     0.266 A 
ATOM      9  C   UNL d   1      -0.063  -1.364   0.000  0.00  0.00     0.061 A 
ATOM     10  C   UNL d   1       0.341  -0.054   0.035  0.00  0.00     0.068 A 
ATOM     11  N   UNL d   1      -0.572   0.947   0.063  0.00  0.00    -0.354 N 
ATOM     12  HN  UNL d   1      -0.259   1.917   0.100  1.00  0.00     0.166 HD
ATOM     13  C   UNL d   1      -1.429  -1.673  -0.001  0.00  0.00     0.033 A 
ATOM     14  C   UNL d   1      -2.372  -0.643   0.017  0.00  0.00    -0.008 A 
ATOM     15  C   UNL d   1      -1.892   0.671   0.043  0.00  0.00     0.043 A 
ATOM     16  O   UNL d   1       5.708   1.331   0.077  0.00  0.00    -0.246 OA
ATOM     17  O   UNL d   1       1.387   2.648  -0.138  0.00  0.00    -0.267 OA
ATOM     18  O   UNL d   1       0.507  -3.579  -0.003  0.00  0.00    -0.267 OA
ATOM     19  C   UNL d   1      -3.756  -0.905   0.002  0.00  0.00     0.021 A 
ATOM     20  C   UNL d   1       5.196  -1.181  -0.427  0.00  0.00     0.163 C 
ATOM     21  C   UNL d   1       3.932   3.396   0.061  0.00  0.00     0.164 C 
ATOM     22  C   UNL d   1      -2.821   1.706   0.045  0.00  0.00     0.031 A 
ATOM     23  C   UNL d   1      -4.680   0.146  -0.002  0.00  0.00    -0.058 A 
ATOM     24  C   UNL d   1      -4.201   1.457   0.025  0.00  0.00     0.009 A 
ENDROOT
BRANCH   4  25
ATOM     25  C   UNL d   1       3.168  -3.204   0.090  0.00  0.00     0.044 A 
ATOM     26  C   UNL d   1       3.133  -4.179  -0.924  0.00  0.00     0.030 A 
ATOM     27  C   UNL d   1       3.989  -5.279  -0.883  0.00  0.00     0.002 A 
ATOM     28  C   UNL d   1       4.877  -5.423   0.176  0.00  0.00     0.000 A 
ATOM     29  C   UNL d   1       4.887  -4.488   1.214  0.00  0.00     0.002 A 
ATOM     30  C   UNL d   1       4.024  -3.389   1.182  0.00  0.00     0.030 A 
ENDBRANCH   4  25
BRANCH  23  31
ATOM     31  C   UNL d   1      -6.160  -0.139  -0.025  0.00  0.00     0.034 C 
ATOM     32  C   UNL d   1      -6.742  -0.287   1.372  0.00  0.00     0.010 C 
ENDBRANCH  23  31
TORSDOF 2
