REMARK  4 active torsions:
REMARK  status: ('A' for Active; 'I' for Inactive)
REMARK    1  A    between atoms: C_8  and  C_3 
REMARK    2  A    between atoms: C_7  and  C_6 
REMARK    3  A    between atoms: C_9  and  C_7 
REMARK    4  A    between atoms: O_14  and  C_9 
ROOT
ATOM      1  N   UNL d   1      -0.574  -1.194  -0.054  0.00  0.00    -0.320 N 
ATOM      2  HN  UNL d   1      -1.168  -2.022  -0.089  1.00  0.00     0.169 HD
ATOM      3  C   UNL d   1       0.707  -1.242   0.120  0.00  0.00     0.083 A 
ATOM      4  C   UNL d   1      -1.052   0.086  -0.185  0.00  0.00     0.237 A 
ATOM      5  S   UNL d   1       1.549   0.289   0.191  0.00  0.00    -0.096 SA
ATOM      6  C   UNL d   1      -0.016   1.180  -0.025  0.00  0.00     0.156 A 
ATOM      7  O   UNL d   1      -2.208   0.358  -0.503  0.00  0.00    -0.272 OA
ENDROOT
BRANCH   3   8
ATOM      8  C   UNL d   1       1.455  -2.514   0.222  0.00  0.00    -0.001 A 
ATOM      9  C   UNL d   1       2.689  -2.608   0.875  0.00  0.00     0.038 A 
ATOM     10  C   UNL d   1       3.344  -3.838   0.940  0.00  0.00     0.035 A 
ATOM     11 CL   UNL d   1       4.856  -3.955   1.754  0.00  0.00    -0.084 Cl
ATOM     12  C   UNL d   1       2.786  -4.976   0.358  0.00  0.00     0.024 A 
ATOM     13  C   UNL d   1       1.555  -4.888  -0.290  0.00  0.00     0.003 A 
ATOM     14  C   UNL d   1       0.889  -3.663  -0.352  0.00  0.00     0.014 A 
ENDBRANCH   3   8
BRANCH   6  15
ATOM     15  C   UNL d   1      -0.050   2.127  -1.215  0.00  0.00     0.135 C 
BRANCH  15  16
ATOM     16  C   UNL d   1      -0.003   1.425  -2.549  0.00  0.00     0.141 C 
ATOM     17  O   UNL d   1       1.027   1.265  -3.187  0.00  0.00    -0.650 OA
BRANCH  16  18
ATOM     18  O   UNL d   1      -1.196   0.968  -2.983  0.00  0.00    -0.776 OA
ATOM     19  H   UNL d   1      -1.951   1.049  -2.357  0.00  0.00     0.167 HD
ENDBRANCH  16  18
ENDBRANCH  15  16
ENDBRANCH   6  15
TORSDOF 4
