REMARK  3 active torsions:
REMARK  status: ('A' for Active; 'I' for Inactive)
REMARK       I    between atoms: N_3  and  C_1 
REMARK       I    between atoms: N_6  and  C_1 
REMARK    1  A    between atoms: C_8  and  N_3 
REMARK    2  A    between atoms: C_12  and  N_6 
REMARK    3  A    between atoms: C_20  and  C_15 
ROOT
ATOM      1  N   UNL d   1       1.240   4.488  -6.670  0.00  0.00    -0.197 NA
ATOM      2  C   UNL d   1       1.348   3.333  -6.594  0.00  0.00     0.063 C 
ATOM      3  C   UNL d   1       1.488   1.869  -6.528  0.00  0.00     0.162 C 
ENDROOT
BRANCH   3   4
ATOM      4  C   UNL d   1       1.183   1.318  -5.157  0.00  0.00    -0.045 A 
ATOM      5  C   UNL d   1      -0.119   0.962  -4.783  0.00  0.00     0.010 A 
ATOM      6  C   UNL d   1      -0.395   0.522  -3.480  0.00  0.00     0.030 A 
ATOM      7  C   UNL d   1       0.625   0.429  -2.526  0.00  0.00     0.036 A 
ATOM      8  C   UNL d   1       1.927   0.755  -2.917  0.00  0.00     0.030 A 
ATOM      9  C   UNL d   1       2.205   1.200  -4.211  0.00  0.00     0.010 A 
BRANCH   7  10
ATOM     10  N   UNL d   1       0.280   0.014  -1.216  0.00  0.00    -0.309 N 
ATOM     11  C   UNL d   1       1.143  -0.064  -0.136  0.00  0.00     0.325 C 
ATOM     12  N   UNL d   1       0.524  -0.577   0.996  0.00  0.00    -0.309 N 
ATOM     13  O   UNL d   1       2.325   0.257  -0.176  0.00  0.00    -0.247 OA
ATOM     14  H   UNL d   1      -0.369  -1.024   0.864  0.00  0.00     0.170 HD
ATOM     15  H   UNL d   1      -0.699  -0.147  -1.038  0.00  0.00     0.170 HD
BRANCH  12  16
ATOM     16  C   UNL d   1       1.162  -0.782   2.246  0.00  0.00     0.038 A 
ATOM     17  C   UNL d   1       2.386  -0.200   2.587  0.00  0.00     0.054 A 
ATOM     18  C   UNL d   1       3.010  -0.492   3.803  0.00  0.00     0.042 A 
ATOM     19 CL   UNL d   1       4.540   0.247   4.122  0.00  0.00    -0.084 Cl
ATOM     20  C   UNL d   1       2.410  -1.361   4.721  0.00  0.00    -0.040 A 
ATOM     21  C   UNL d   1       1.161  -1.912   4.399  0.00  0.00     0.011 A 
ATOM     22  C   UNL d   1       3.072  -1.701   6.026  0.00  0.00     0.050 C 
ATOM     23  C   UNL d   1       0.539  -1.619   3.176  0.00  0.00     0.030 A 
ENDBRANCH  12  16
ENDBRANCH   7  10
ENDBRANCH   3   4
TORSDOF 3
