REMARK  4 active torsions:
REMARK  status: ('A' for Active; 'I' for Inactive)
REMARK    1  A    between atoms: C_2  and  S_1 
REMARK    2  A    between atoms: C_4  and  S_1 
REMARK    3  A    between atoms: C_7  and  C_3 
REMARK    4  A    between atoms: C_8  and  C_6 
REMARK       I    between atoms: N_13  and  C_7 
REMARK       I    between atoms: N_14  and  C_8 
ROOT
ATOM      1  C   UNL d   1       0.589  -1.723   0.874  0.00  0.00     0.048 C 
ATOM      2  C   UNL d   1       1.196  -2.886   0.230  0.00  0.00     0.009 A 
ATOM      3  C   UNL d   1       2.223  -2.986  -0.791  0.00  0.00     0.044 A 
ATOM      4  C   UNL d   1       0.686  -4.160   0.642  0.00  0.00    -0.024 A 
ATOM      5  C   UNL d   1      -0.593  -1.878   1.625  0.00  0.00     0.022 C 
ATOM      6  C   UNL d   1       2.712  -4.225  -1.260  0.00  0.00     0.018 A 
ATOM      7  C   UNL d   1      -1.089  -3.134   1.933  0.00  0.00     0.002 C 
ATOM      8  C   UNL d   1       2.249  -5.427  -0.742  0.00  0.00     0.002 A 
ATOM      9  C   UNL d   1      -0.412  -4.260   1.501  0.00  0.00     0.012 C 
ATOM     10  C   UNL d   1       1.232  -5.379   0.203  0.00  0.00     0.012 A 
ENDROOT
BRANCH   1  11
ATOM     11  S   UNL d   1       1.520  -0.221   1.422  0.00  0.00     0.086 S 
ATOM     12  O   UNL d   1       2.954  -0.442   1.040  0.00  0.00    -0.247 OA
BRANCH  11  13
ATOM     13  C   UNL d   1       0.845   1.084   0.361  0.00  0.00     0.052 C 
ATOM     14  C   UNL d   1      -0.379   1.761   0.536  0.00  0.00     0.051 C 
ATOM     15  C   UNL d   1      -0.778   2.718  -0.433  0.00  0.00     0.018 C 
ATOM     16  C   UNL d   1       0.020   3.040  -1.528  0.00  0.00     0.001 C 
ATOM     17  C   UNL d   1       1.270   2.464  -1.637  0.00  0.00     0.002 C 
ATOM     18  C   UNL d   1       1.681   1.529  -0.685  0.00  0.00     0.022 C 
BRANCH  14  19
ATOM     19  C   UNL d   1      -1.376   1.629   1.639  0.00  0.00     0.252 C 
ATOM     20  O   UNL d   1      -2.570   1.738   1.367  0.00  0.00    -0.268 OA
ATOM     21  N   UNL d   1      -0.947   1.492   2.946  0.00  0.00    -0.361 N 
ATOM     22  C   UNL d   1      -1.897   1.591   4.043  0.00  0.00     0.149 C 
ATOM     23  H   UNL d   1       0.037   1.514   3.172  0.00  0.00     0.162 HD
ENDBRANCH  14  19
ENDBRANCH  11  13
ENDBRANCH   1  11
BRANCH   3  24
ATOM     24  C   UNL d   1       2.620  -1.825  -1.625  0.00  0.00     0.252 C 
ATOM     25  O   UNL d   1       1.773  -1.009  -1.956  0.00  0.00    -0.268 OA
ATOM     26  N   UNL d   1       3.920  -1.798  -2.093  0.00  0.00    -0.361 N 
ATOM     27  C   UNL d   1       4.430  -0.667  -2.821  0.00  0.00     0.149 C 
ATOM     28  H   UNL d   1       4.567  -2.526  -1.826  0.00  0.00     0.162 HD
ENDBRANCH   3  24
TORSDOF 4
