REMARK  4 active torsions:
REMARK  status: ('A' for Active; 'I' for Inactive)
REMARK    1  A    between atoms: S_12  and  C_3 
REMARK    2  A    between atoms: C_4  and  C_10 
REMARK    3  A    between atoms: N_15  and  C_5 
REMARK    4  A    between atoms: C_10  and  S_12 
ROOT
ATOM      1  N   UNL d   1      -0.247  -1.286   0.051  0.00  0.00    -0.313 N 
ATOM      2  HN  UNL d   1      -0.690  -2.195  -0.084  1.00  0.00     0.170 HD
ATOM      3  C   UNL d   1       1.074  -1.131   0.111  0.00  0.00     0.147 A 
ATOM      4  C   UNL d   1      -0.943  -0.162   0.181  0.00  0.00     0.157 A 
ATOM      5  N   UNL d   1       1.704   0.033   0.256  0.00  0.00    -0.333 N 
ATOM      6  HN  UNL d   1       2.721   0.111   0.289  1.00  0.00     0.168 HD
ATOM      7  N   UNL d   1      -0.423   1.050   0.320  0.00  0.00    -0.329 N 
ATOM      8  HN  UNL d   1      -0.997   1.890   0.393  1.00  0.00     0.169 HD
ATOM      9  C   UNL d   1       0.901   1.082   0.355  0.00  0.00     0.184 A 
ENDROOT
BRANCH   3  10
ATOM     10  S   UNL d   1       2.146  -2.546  -0.021  0.00  0.00    -0.089 SA
BRANCH  10  11
ATOM     11  C   UNL d   1       0.948  -3.919  -0.054  0.00  0.00     0.124 C 
BRANCH  11  12
ATOM     12  C   UNL d   1       1.668  -5.254   0.016  0.00  0.00    -0.005 A 
ATOM     13  C   UNL d   1       1.967  -5.859   1.253  0.00  0.00     0.042 A 
ATOM     14 CL   UNL d   1       1.506  -5.148   2.763  0.00  0.00    -0.084 Cl
ATOM     15  C   UNL d   1       2.664  -7.073   1.321  0.00  0.00     0.024 A 
ATOM     16  C   UNL d   1       3.087  -7.708   0.159  0.00  0.00     0.003 A 
ATOM     17  C   UNL d   1       2.814  -7.126  -1.075  0.00  0.00     0.024 A 
ATOM     18  C   UNL d   1       2.116  -5.912  -1.148  0.00  0.00     0.042 A 
ATOM     19 CL   UNL d   1       1.845  -5.269  -2.732  0.00  0.00    -0.084 Cl
ENDBRANCH  11  12
ENDBRANCH  10  11
ENDBRANCH   3  10
BRANCH   4  20
ATOM     20  N   UNL d   1      -2.319  -0.240   0.138  0.00  0.00    -0.274 NA
ATOM     21  H   UNL d   1      -2.628  -1.046  -0.384  0.00  0.00     0.127 HD
ATOM     22  H   UNL d   1      -2.711   0.657  -0.117  0.00  0.00     0.127 HD
ENDBRANCH   4  20
TORSDOF 4
