REMARK  2 active torsions:
REMARK  status: ('A' for Active; 'I' for Inactive)
REMARK    1  A    between atoms: C_7  and  C_2 
REMARK    2  A    between atoms: S_11  and  C_5 
ROOT
ATOM      1  C   UNL d   1      -0.363  -1.201  -0.089  0.00  0.00     0.108 A 
ATOM      2  C   UNL d   1       0.930  -0.626   0.012  0.00  0.00     0.089 A 
ATOM      3  N   UNL d   1       0.856   0.711   0.082  0.00  0.00    -0.295 N 
ATOM      4  HN  UNL d   1       1.627   1.373   0.168  1.00  0.00     0.187 HD
ATOM      5  C   UNL d   1      -1.251  -0.139  -0.070  0.00  0.00     0.109 A 
ATOM      6  N   UNL d   1      -0.463   0.986   0.014  0.00  0.00    -0.288 N 
ATOM      7  C   UNL d   1      -0.685  -2.583  -0.183  0.00  0.00     0.104 C 
ATOM      8  N   UNL d   1      -0.979  -3.704  -0.261  0.00  0.00    -0.191 NA
ATOM      9  C   UNL d   1      -0.841   2.383   0.021  0.00  0.00     0.178 C 
ENDROOT
BRANCH   2  10
ATOM     10  C   UNL d   1       2.273  -1.317   0.048  0.00  0.00     0.034 A 
ATOM     11  S   UNL d   1       2.526  -3.002  -0.093  0.00  0.00    -0.100 SA
ATOM     12  C   UNL d   1       4.219  -2.841   0.048  0.00  0.00     0.050 A 
ATOM     13  C   UNL d   1       4.596  -1.527   0.206  0.00  0.00     0.008 A 
ATOM     14  C   UNL d   1       3.473  -0.647   0.202  0.00  0.00     0.022 A 
ENDBRANCH   2  10
BRANCH   5  15
ATOM     15  S   UNL d   1      -2.989   0.009  -0.128  0.00  0.00    -0.114 SA
ATOM     16  C   UNL d   1      -3.629  -1.673  -0.200  0.00  0.00     0.097 C 
ENDBRANCH   5  15
TORSDOF 2
