REMARK  7 active torsions:
REMARK  status: ('A' for Active; 'I' for Inactive)
REMARK    1  A    between atoms: N_3  and  C_1 
REMARK    2  A    between atoms: C_2  and  N_3 
REMARK    3  A    between atoms: O_11  and  C_6 
REMARK    4  A    between atoms: C_14  and  N_7 
REMARK    5  A    between atoms: O_12  and  C_9 
REMARK    6  A    between atoms: O_13  and  C_15 
REMARK    7  A    between atoms: C_15  and  C_14 
ROOT
ATOM      1  C   UNL d   1       0.966   0.336  -2.359  0.00  0.00     0.070 A 
ATOM      2  C   UNL d   1       1.982  -0.473  -2.901  0.00  0.00     0.069 A 
ATOM      3  C   UNL d   1       0.475   1.412  -3.108  0.00  0.00     0.095 A 
ATOM      4  C   UNL d   1       1.034   1.694  -4.360  0.00  0.00     0.042 A 
ATOM      5  C   UNL d   1       2.529  -0.200  -4.154  0.00  0.00     0.070 A 
ATOM      6  C   UNL d   1       2.064   0.902  -4.871  0.00  0.00     0.039 A 
ENDROOT
BRANCH   1   7
ATOM      7  N   UNL d   1       0.392  -0.037  -1.122  0.00  0.00    -0.331 N 
ATOM      8  H   UNL d   1      -0.563   0.266  -0.943  0.00  0.00     0.168 HD
BRANCH   7   9
ATOM      9  C   UNL d   1       1.077  -0.463  -0.009  0.00  0.00     0.172 C 
ATOM     10  S   UNL d   1       2.667  -0.131   0.398  0.00  0.00    -0.041 SA
ATOM     11  N   UNL d   1       0.367  -1.229   0.869  0.00  0.00    -0.365 N 
ATOM     12  H   UNL d   1       0.894  -1.527   1.678  0.00  0.00     0.161 HD
BRANCH  11  13
ATOM     13  C   UNL d   1      -0.921  -1.869   0.627  0.00  0.00     0.148 C 
BRANCH  13  14
ATOM     14  C   UNL d   1      -2.095  -0.977   1.022  0.00  0.00     0.183 C 
BRANCH  14  15
ATOM     15  O   UNL d   1      -2.203   0.129   0.127  0.00  0.00    -0.399 OA
ATOM     16  H   UNL d   1      -2.981   0.640   0.416  0.00  0.00     0.209 HD
ENDBRANCH  14  15
ENDBRANCH  13  14
ENDBRANCH  11  13
ENDBRANCH   7   9
ENDBRANCH   1   7
BRANCH   3  17
ATOM     17  O   UNL d   1      -0.568   2.212  -2.729  0.00  0.00    -0.354 OA
ATOM     18  C   UNL d   1      -0.353   2.891  -1.492  0.00  0.00     0.210 C 
ENDBRANCH   3  17
BRANCH   5  19
ATOM     19  O   UNL d   1       3.496  -0.943  -4.777  0.00  0.00    -0.356 OA
ATOM     20  C   UNL d   1       3.888  -2.147  -4.124  0.00  0.00     0.210 C 
ENDBRANCH   5  19
TORSDOF 7
