REMARK  6 active torsions:
REMARK  status: ('A' for Active; 'I' for Inactive)
REMARK    1  A    between atoms: C_6  and  C_3 
REMARK    2  A    between atoms: C_11  and  C_4 
REMARK    3  A    between atoms: N_8  and  C_11 
REMARK    4  A    between atoms: C_9  and  C_12 
REMARK    5  A    between atoms: O_21  and  C_9 
REMARK    6  A    between atoms: C_22  and  O_21 
ROOT
ATOM      1  C   UNL d   1       2.408   1.510   0.036  0.00  0.00     0.329 C 
ENDROOT
BRANCH   1   2
ATOM      2  N   UNL d   1       3.709   0.796   0.012  0.00  0.00     0.094 N 
ATOM      3  C   UNL d   1       3.851  -0.073   1.192  0.00  0.00     0.273 C 
ATOM      4  C   UNL d   1       5.142  -0.899   1.150  0.00  0.00     0.045 C 
ATOM      5  C   UNL d   1       5.255  -1.737  -0.127  0.00  0.00     0.089 C 
ATOM      6  C   UNL d   1       5.077  -0.811  -1.335  0.00  0.00     0.045 C 
ATOM      7  C   UNL d   1       3.795   0.024  -1.241  0.00  0.00     0.273 C 
BRANCH   5   8
ATOM      8  C   UNL d   1       4.250  -2.881  -0.148  0.00  0.00     0.263 C 
ATOM      9  O   UNL d   1       3.425  -3.068  -1.038  0.00  0.00    -0.265 OA
BRANCH   8  10
ATOM     10  O   UNL d   1       4.359  -3.651   0.969  0.00  0.00    -0.322 OA
BRANCH  10  11
ATOM     11  C   UNL d   1       3.214  -4.458   1.284  0.00  0.00     0.174 C 
ATOM     12  C   UNL d   1       3.483  -5.936   1.085  0.00  0.00     0.034 C 
ENDBRANCH  10  11
ENDBRANCH   8  10
ENDBRANCH   5   8
ENDBRANCH   1   2
BRANCH   1  13
ATOM     13  C   UNL d   1       2.319   2.512   1.155  0.00  0.00     0.045 A 
ATOM     14  N   UNL d   1       1.261   2.430   2.058  0.00  0.00    -0.351 N 
ATOM     15  C   UNL d   1       1.301   3.425   2.920  0.00  0.00     0.091 A 
ATOM     16  HN  UNL d   1       0.551   1.698   2.052  1.00  0.00     0.166 HD
ATOM     17  S   UNL d   1       2.640   4.491   2.719  0.00  0.00    -0.081 SA
ATOM     18  C   UNL d   1       3.167   3.580   1.373  0.00  0.00     0.078 A 
BRANCH  15  19
ATOM     19  C   UNL d   1       0.267   3.602   3.922  0.00  0.00     0.038 A 
ATOM     20  S   UNL d   1       0.239   4.902   5.049  0.00  0.00    -0.099 SA
ATOM     21  C   UNL d   1      -1.245   4.391   5.724  0.00  0.00     0.050 A 
ATOM     22  C   UNL d   1      -1.709   3.240   5.136  0.00  0.00     0.008 A 
ATOM     23  C   UNL d   1      -0.833   2.784   4.105  0.00  0.00     0.022 A 
ENDBRANCH  15  19
ENDBRANCH   1  13
TORSDOF 6
