REMARK  5 active torsions:
REMARK  status: ('A' for Active; 'I' for Inactive)
REMARK    1  A    between atoms: CA_2  and  CB_1 
REMARK    2  A    between atoms: CG_5  and  CB_1 
REMARK    3  A    between atoms: C_3  and  CA_2 
REMARK    4  A    between atoms: N_4  and  CA_2 
REMARK    5  A    between atoms: OXT_9  and  C_3 
REMARK       I    between atoms: C5_14  and  N_4 
REMARK       I    between atoms: ND2_8  and  CG_5 
ROOT
ATOM      1  CA  ASN d   1       0.548   0.048   1.555  0.00  0.00     0.191 C 
ENDROOT
BRANCH   1   2
ATOM      2  CB  ASN d   1       1.054  -0.103   0.123  0.00  0.00     0.138 C 
BRANCH   2   3
ATOM      3  CG  ASN d   1       2.560  -0.022   0.078  0.00  0.00     0.217 C 
ATOM      4  OD1 ASN d   1       3.261   0.023   1.088  0.00  0.00    -0.274 OA
ATOM      5  ND2 ASN d   1       3.096   0.011  -1.170  0.00  0.00    -0.370 N 
ATOM      6 1HD2 ASN d   1       2.542   0.052  -2.013  0.00  0.00     0.159 HD
ATOM      7 2HD2 ASN d   1       4.102   0.089  -1.256  0.00  0.00     0.159 HD
ENDBRANCH   2   3
ENDBRANCH   1   2
BRANCH   1   8
ATOM      8  C   ASN d   1       0.791   1.470   2.071  0.00  0.00     0.164 C 
ATOM      9  O   ASN d   1      -0.050   2.359   2.003  0.00  0.00    -0.648 OA
BRANCH   8  10
ATOM     10  OXT ASN d   1       2.012   1.678   2.612  0.00  0.00    -0.775 OA
ATOM     11  HXT ASN d   1       2.644   0.932   2.460  0.00  0.00     0.167 HD
ENDBRANCH   8  10
ENDBRANCH   1   8
BRANCH   1  12
ATOM     12  N   ASN d   1      -0.899  -0.179   1.616  0.00  0.00    -0.346 N 
ATOM     13  C5  <1> d   1      -1.437  -1.435   1.717  0.00  0.00     0.214 C 
ATOM     14  O3  <1> d   1      -0.755  -2.453   1.760  0.00  0.00    -0.274 OA
ATOM     15  C6  <1> d   1      -2.940  -1.466   1.773  0.00  0.00     0.117 C 
ATOM     16  H   ASN d   1      -1.495   0.643   1.662  0.00  0.00     0.163 HD
ENDBRANCH   1  12
TORSDOF 5
