REMARK  4 active torsions:
REMARK  status: ('A' for Active; 'I' for Inactive)
REMARK    1  A    between atoms: C_9  and  C_1 
REMARK    2  A    between atoms: C_23  and  N_3 
REMARK    3  A    between atoms: C_12  and  N_5 
REMARK    4  A    between atoms: N_7  and  C_18 
ROOT
ATOM      1  N   UNL d   1       0.153  -5.425  -3.396  0.00  0.00    -0.300 N 
ATOM      2  HN  UNL d   1       0.741  -5.566  -2.575  1.00  0.00     0.187 HD
ATOM      3  N   UNL d   1      -0.407  -4.340  -3.661  0.00  0.00    -0.300 N 
ATOM      4  HN  UNL d   1      -1.058  -4.202  -4.433  1.00  0.00     0.187 HD
ENDROOT
BRANCH   1   5
ATOM      5  C   UNL d   1      -0.106  -6.435  -4.342  0.00  0.00     0.048 A 
ATOM      6  C   UNL d   1      -0.211  -7.751  -3.890  0.00  0.00     0.040 A 
ATOM      7  C   UNL d   1      -0.339  -8.829  -4.788  0.00  0.00    -0.029 A 
ATOM      8  C   UNL d   1      -0.429 -10.226  -4.222  0.00  0.00     0.042 C 
ATOM      9  C   UNL d   1      -0.376  -8.602  -6.178  0.00  0.00     0.036 A 
ATOM     10  C   UNL d   1      -0.171 -11.297  -5.273  0.00  0.00     0.024 C 
ATOM     11  C   UNL d   1      -0.922 -10.954  -6.547  0.00  0.00     0.123 C 
ATOM     12  N   UNL d   1      -0.467  -9.666  -7.067  0.00  0.00    -0.381 N 
ATOM     13  C   UNL d   1      -0.297  -7.271  -6.616  0.00  0.00     0.032 A 
ATOM     14  C   UNL d   1      -0.158  -6.206  -5.717  0.00  0.00     0.033 A 
BRANCH  12  15
ATOM     15  C   UNL d   1       0.054  -9.599  -8.433  0.00  0.00     0.118 C 
ATOM     16  C   UNL d   1       1.569  -9.426  -8.452  0.00  0.00     0.026 C 
ENDBRANCH  12  15
ENDBRANCH   1   5
BRANCH   3  17
ATOM     17  C   UNL d   1      -0.021  -3.331  -2.752  0.00  0.00     0.048 A 
ATOM     18  C   UNL d   1       0.076  -2.013  -3.216  0.00  0.00     0.031 A 
ATOM     19  C   UNL d   1       0.481  -0.977  -2.368  0.00  0.00     0.018 A 
ATOM     20  C   UNL d   1       0.791  -1.235  -1.023  0.00  0.00     0.048 A 
ATOM     21  C   UNL d   1       0.670  -2.548  -0.547  0.00  0.00     0.018 A 
ATOM     22  C   UNL d   1       0.261  -3.577  -1.399  0.00  0.00     0.031 A 
BRANCH  20  23
ATOM     23  C   UNL d   1       1.255  -0.119  -0.120  0.00  0.00     0.417 C 
ATOM     24  F   UNL d   1       1.519  -0.522   1.154  0.00  0.00    -0.166 F 
ATOM     25  F   UNL d   1       0.336   0.880  -0.012  0.00  0.00    -0.166 F 
ATOM     26  F   UNL d   1       2.398   0.472  -0.568  0.00  0.00    -0.166 F 
ENDBRANCH  20  23
ENDBRANCH   3  17
TORSDOF 4
