REMARK  6 active torsions:
REMARK  status: ('A' for Active; 'I' for Inactive)
REMARK    1  A    between atoms: N_2  and  S_1 
REMARK    2  A    between atoms: C_8  and  S_1 
REMARK    3  A    between atoms: N_5  and  N_2 
REMARK    4  A    between atoms: C_3  and  C_10 
REMARK    5  A    between atoms: C_4  and  N_5 
REMARK    6  A    between atoms: C_16  and  C_9 
ROOT
ATOM      1  N   UNL d   1       1.018   2.482   0.854  0.00  0.00    -0.122 N 
ATOM      2  H   UNL d   1       2.013   2.382   1.042  0.00  0.00     0.206 HD
ENDROOT
BRANCH   1   3
ATOM      3  C   UNL d   1       0.567   3.792   0.920  0.00  0.00     0.697 A 
ATOM      4  N   UNL d   1       1.490   4.719   1.203  0.00  0.00    -0.190 N 
ATOM      5  C   UNL d   1       1.104   6.011   1.248  0.00  0.00     0.062 A 
ATOM      6  HN  UNL d   1       2.459   4.455   1.380  1.00  0.00     0.184 HD
ATOM      7  C   UNL d   1      -0.212   6.376   1.042  0.00  0.00     0.048 A 
ATOM      8  C   UNL d   1      -1.092   5.354   0.773  0.00  0.00     0.108 A 
ATOM      9  N   UNL d   1      -0.729   4.063   0.694  0.00  0.00    -0.200 N 
ATOM     10  HN  UNL d   1      -1.401   3.328   0.473  1.00  0.00     0.183 HD
BRANCH   5  11
ATOM     11  C   UNL d   1       2.186   6.976   1.506  0.00  0.00     0.007 A 
ATOM     12  C   UNL d   1       1.979   8.189   2.163  0.00  0.00     0.101 A 
ATOM     13  N   UNL d   1       2.939   9.112   2.420  0.00  0.00    -0.374 N 
ATOM     14  C   UNL d   1       4.189   8.816   2.011  0.00  0.00     0.087 A 
ATOM     15  HN  UNL d   1       2.725   9.987   2.899  1.00  0.00     0.164 HD
ATOM     16  C   UNL d   1       4.521   7.645   1.356  0.00  0.00     0.018 A 
ATOM     17  C   UNL d   1       3.508   6.721   1.105  0.00  0.00     0.016 A 
ENDBRANCH   5  11
ENDBRANCH   1   3
BRANCH   1  18
ATOM     18  N   UNL d   1       0.321   1.377   0.230  0.00  0.00    -0.208 N 
ATOM     19  H   UNL d   1      -0.608   1.506  -0.183  0.00  0.00     0.201 HD
BRANCH  18  20
ATOM     20  S   UNL d   1       1.052  -0.133   0.120  0.00  0.00     0.276 S 
ATOM     21  O   UNL d   1       2.465   0.081  -0.130  0.00  0.00    -0.199 OA
ATOM     22  O   UNL d   1       0.231  -0.974  -0.717  0.00  0.00    -0.199 OA
BRANCH  20  23
ATOM     23  C   UNL d   1       0.873  -0.703   1.794  0.00  0.00     0.082 A 
ATOM     24  C   UNL d   1      -0.418  -0.814   2.321  0.00  0.00     0.041 A 
ATOM     25  C   UNL d   1      -0.604  -1.247   3.640  0.00  0.00     0.049 A 
ATOM     26  C   UNL d   1       0.526  -1.567   4.412  0.00  0.00     0.016 A 
ATOM     27  C   UNL d   1       1.814  -1.449   3.880  0.00  0.00     0.002 A 
ATOM     28  C   UNL d   1       1.993  -1.015   2.567  0.00  0.00     0.025 A 
BRANCH  25  29
ATOM     29  C   UNL d   1      -1.991  -1.374   4.218  0.00  0.00     0.417 C 
ATOM     30  F   UNL d   1      -2.974  -1.006   3.348  0.00  0.00    -0.166 F 
ATOM     31  F   UNL d   1      -2.284  -2.649   4.593  0.00  0.00    -0.166 F 
ATOM     32  F   UNL d   1      -2.168  -0.604   5.325  0.00  0.00    -0.166 F 
ENDBRANCH  25  29
ENDBRANCH  20  23
ENDBRANCH  18  20
ENDBRANCH   1  18
TORSDOF 6
