REMARK  1 active torsions:
REMARK  status: ('A' for Active; 'I' for Inactive)
REMARK    1  A    between atoms: C_2  and  N_1 
ROOT
ATOM      1  N   UNL d   1       0.756   1.142  -0.356  0.00  0.00    -0.236 N 
ATOM      2  C   UNL d   1       1.450  -0.062  -0.231  0.00  0.00     0.233 C 
ATOM      3  C   UNL d   1      -0.602   1.334  -0.098  0.00  0.00     0.233 C 
ATOM      4  C   UNL d   1      -1.450   0.079  -0.177  0.00  0.00     0.113 C 
ATOM      5  C   UNL d   1       0.617  -1.319  -0.275  0.00  0.00     0.113 C 
ATOM      6  C   UNL d   1      -0.775  -1.194   0.331  0.00  0.00    -0.031 C 
ATOM      7  O   UNL d   1      -1.153   2.426   0.063  0.00  0.00    -0.273 OA
ATOM      8  O   UNL d   1       2.675  -0.156  -0.142  0.00  0.00    -0.273 OA
ATOM      9  C   UNL d   1      -1.598  -2.414  -0.130  0.00  0.00     0.016 C 
ATOM     10  C   UNL d   1      -0.714  -1.196   1.867  0.00  0.00     0.016 C 
ENDROOT
BRANCH   1  11
ATOM     11  C   UNL d   1       1.445   2.172  -1.011  0.00  0.00     0.135 C 
ATOM     12  N   UNL d   1       1.441   3.517  -0.724  0.00  0.00    -0.280 N 
ATOM     13  N   UNL d   1       2.034   4.263  -1.687  0.00  0.00    -0.302 N 
ATOM     14  C   UNL d   1       1.121   4.173   0.523  0.00  0.00     0.179 C 
ATOM     15  C   UNL d   1       2.494   3.364  -2.566  0.00  0.00     0.025 C 
ATOM     16  HN  UNL d   1       2.114   5.279  -1.732  1.00  0.00     0.186 HD
ATOM     17  C   UNL d   1       2.218   2.050  -2.149  0.00  0.00     0.076 C 
ATOM     18  C   UNL d   1       3.168   3.790  -3.812  0.00  0.00     0.070 C 
ENDBRANCH   1  11
TORSDOF 1
