REMARK  4 active torsions:
REMARK  status: ('A' for Active; 'I' for Inactive)
REMARK    1  A    between atoms: C_8  and  N_1 
REMARK    2  A    between atoms: C_9  and  C_2 
REMARK    3  A    between atoms: S_11  and  C_5 
REMARK    4  A    between atoms: O_19  and  C_15 
ROOT
ATOM      1  N   UNL d   1      -0.240  -1.305   0.063  0.00  0.00    -0.273 N 
ATOM      2  C   UNL d   1       1.005  -0.677  -0.060  0.00  0.00     0.139 A 
ATOM      3  N   UNL d   1       0.814   0.633  -0.093  0.00  0.00    -0.282 N 
ATOM      4  HN  UNL d   1       1.549   1.337  -0.142  1.00  0.00     0.188 HD
ATOM      5  C   UNL d   1      -1.150  -0.260   0.036  0.00  0.00     0.165 A 
ATOM      6  N   UNL d   1      -0.525   0.889  -0.053  0.00  0.00    -0.278 N 
ATOM      7  HN  UNL d   1      -0.963   1.810  -0.086  1.00  0.00     0.189 HD
ENDROOT
BRANCH   2   8
ATOM      8  C   UNL d   1       2.329  -1.297  -0.182  0.00  0.00     0.010 A 
ATOM      9  C   UNL d   1       2.569  -2.441  -0.954  0.00  0.00     0.018 A 
ATOM     10  C   UNL d   1       3.839  -3.031  -0.987  0.00  0.00     0.037 A 
ATOM     11  C   UNL d   1       4.893  -2.467  -0.270  0.00  0.00     0.068 A 
ATOM     12  C   UNL d   1       4.685  -1.286   0.438  0.00  0.00     0.037 A 
ATOM     13  C   UNL d   1       3.414  -0.708   0.487  0.00  0.00     0.018 A 
BRANCH  11  14
ATOM     14  O   UNL d   1       6.169  -2.957  -0.236  0.00  0.00    -0.356 OA
ATOM     15  C   UNL d   1       6.276  -4.374  -0.324  0.00  0.00     0.210 C 
ENDBRANCH  11  14
ENDBRANCH   2   8
BRANCH   1  16
ATOM     16  C   UNL d   1      -0.514  -2.700   0.108  0.00  0.00     0.065 A 
ATOM     17  C   UNL d   1       0.140  -3.564   1.001  0.00  0.00     0.061 A 
ATOM     18 CL   UNL d   1       1.109  -3.016   2.323  0.00  0.00    -0.082 Cl
ATOM     19  C   UNL d   1      -0.076  -4.944   0.913  0.00  0.00     0.026 A 
ATOM     20  C   UNL d   1      -0.972  -5.463  -0.022  0.00  0.00     0.002 A 
ATOM     21  C   UNL d   1      -1.664  -4.604  -0.872  0.00  0.00     0.002 A 
ATOM     22  C   UNL d   1      -1.430  -3.230  -0.818  0.00  0.00     0.032 A 
ENDBRANCH   1  16
BRANCH   5  23
ATOM     23  S   UNL d   1      -2.869  -0.382   0.245  0.00  0.00    -0.105 SA
ATOM     24  H   UNL d   1      -2.956  -1.635   0.712  0.00  0.00     0.110 HD
ENDBRANCH   5  23
TORSDOF 4
