REMARK  3 active torsions:
REMARK  status: ('A' for Active; 'I' for Inactive)
REMARK    1  A    between atoms: N_2  and  C_1 
REMARK    2  A    between atoms: N_4  and  C_1 
REMARK    3  A    between atoms: C_5  and  N_2 
ROOT
ATOM      1  C   UNL d   1       0.849   1.790  -1.918  0.00  0.00     0.034 A 
ATOM      2  C   UNL d   1       1.812   3.543  -3.870  0.00  0.00     0.116 A 
ATOM      3  F   UNL d   1       2.270   4.381  -4.808  0.00  0.00    -0.206 F 
ATOM      4  C   UNL d   1       0.397   3.116  -1.968  0.00  0.00     0.032 A 
ATOM      5  C   UNL d   1       1.819   1.367  -2.834  0.00  0.00     0.032 A 
ATOM      6  C   UNL d   1       2.299   2.243  -3.812  0.00  0.00     0.044 A 
ATOM      7  C   UNL d   1       0.865   3.986  -2.955  0.00  0.00     0.044 A 
ENDROOT
BRANCH   1   8
ATOM      8  N   UNL d   1       0.350   0.964  -0.886  0.00  0.00    -0.333 N 
ATOM      9  H   UNL d   1      -0.183   1.444  -0.174  0.00  0.00     0.168 HD
BRANCH   8  10
ATOM     10  C   UNL d   1       0.183  -0.397  -0.864  0.00  0.00     0.171 C 
ATOM     11  S   UNL d   1       0.092  -1.445  -2.163  0.00  0.00    -0.041 SA
BRANCH  10  12
ATOM     12  N   UNL d   1       0.008  -0.949   0.376  0.00  0.00    -0.371 N 
ATOM     13  C   UNL d   1       0.337  -0.388   1.670  0.00  0.00     0.148 C 
ATOM     14  H   UNL d   1      -0.095  -1.959   0.340  0.00  0.00     0.161 HD
ENDBRANCH  10  12
ENDBRANCH   8  10
ENDBRANCH   1   8
TORSDOF 3
