REMARK  4 active torsions:
REMARK  status: ('A' for Active; 'I' for Inactive)
REMARK       I    between atoms: N_2  and  C_1 
REMARK    1  A    between atoms: C_6  and  C_1 
REMARK    2  A    between atoms: N_3  and  N_2 
REMARK    3  A    between atoms: C_4  and  N_3 
REMARK    4  A    between atoms: C_18  and  C_16 
ROOT
ATOM      1  C   UNL d   1       1.121   0.159   0.118  0.00  0.00     0.266 C 
ATOM      2  N   UNL d   1       0.375  -0.200   1.226  0.00  0.00    -0.283 N 
ATOM      3  O   UNL d   1       2.330  -0.051   0.038  0.00  0.00    -0.266 OA
ATOM      4  H   UNL d   1      -0.626  -0.081   1.323  0.00  0.00     0.184 HD
ENDROOT
BRANCH   2   5
ATOM      5  N   UNL d   1       1.011  -0.937   2.239  0.00  0.00    -0.203 NA
ATOM      6  H   UNL d   1       2.032  -0.881   2.114  0.00  0.00     0.153 HD
BRANCH   5   7
ATOM      7  C   UNL d   1       0.680  -0.515   3.557  0.00  0.00     0.033 A 
ATOM      8  C   UNL d   1       0.819  -1.421   4.626  0.00  0.00    -0.039 A 
ATOM      9  C   UNL d   1       0.503  -1.009   5.934  0.00  0.00     0.015 A 
ATOM     10  C   UNL d   1       1.244  -2.852   4.426  0.00  0.00     0.050 C 
ATOM     11  C   UNL d   1       0.096   0.301   6.207  0.00  0.00    -0.061 A 
ATOM     12  C   UNL d   1       0.025   1.214   5.155  0.00  0.00     0.008 A 
ATOM     13  C   UNL d   1      -0.242   0.705   7.611  0.00  0.00     0.048 C 
ATOM     14  C   UNL d   1       0.323   0.813   3.848  0.00  0.00     0.026 A 
ENDBRANCH   5   7
ENDBRANCH   2   5
BRANCH   1  15
ATOM     15  C   UNL d   1       0.398   0.872  -0.977  0.00  0.00     0.033 A 
ATOM     16  C   UNL d   1       1.155   1.623  -1.885  0.00  0.00     0.017 A 
ATOM     17  C   UNL d   1       0.530   2.344  -2.906  0.00  0.00     0.008 A 
ATOM     18  C   UNL d   1      -0.863   2.313  -3.046  0.00  0.00    -0.059 A 
ATOM     19  C   UNL d   1      -1.618   1.547  -2.149  0.00  0.00     0.008 A 
ATOM     20  C   UNL d   1      -0.994   0.824  -1.126  0.00  0.00     0.017 A 
BRANCH  18  21
ATOM     21  C   UNL d   1      -1.543   3.108  -4.132  0.00  0.00     0.034 C 
ATOM     22  C   UNL d   1      -1.902   4.513  -3.672  0.00  0.00     0.010 C 
ENDBRANCH  18  21
ENDBRANCH   1  15
TORSDOF 4
