REMARK  11 active torsions:
REMARK  status: ('A' for Active; 'I' for Inactive)
REMARK    1  A    between atoms: C_14  and  C_5 
REMARK    2  A    between atoms: N_7  and  C_9 
REMARK    3  A    between atoms: N_8  and  C_13 
REMARK    4  A    between atoms: O_23  and  C_14 
REMARK    5  A    between atoms: C_24  and  O_23 
REMARK    6  A    between atoms: C_25  and  C_24 
REMARK    7  A    between atoms: C_29  and  C_25 
REMARK    8  A    between atoms: C_26  and  C_27 
REMARK    9  A    between atoms: C_27  and  C_28 
REMARK   10  A    between atoms: C_28  and  C_30 
REMARK   11  A    between atoms: C_30  and  C_29 
ROOT
ATOM      1  C   UNL d   1      -0.701   0.815   0.089  0.00  0.00     0.006 A 
ATOM      2  C   UNL d   1      -1.177  -0.523   0.050  0.00  0.00     0.029 A 
ATOM      3  C   UNL d   1       1.197  -0.591   0.118  0.00  0.00     0.028 A 
ATOM      4  C   UNL d   1       0.768   0.750   0.139  0.00  0.00    -0.010 A 
ATOM      5  C   UNL d   1      -1.642   1.859   0.038  0.00  0.00     0.053 A 
ATOM      6  C   UNL d   1      -0.011  -1.431   0.087  0.00  0.00     0.194 A 
ATOM      7  C   UNL d   1      -3.439   0.163  -0.097  0.00  0.00     0.104 A 
ATOM      8  C   UNL d   1      -2.515  -0.882  -0.036  0.00  0.00     0.052 A 
ATOM      9  C   UNL d   1      -3.015   1.514  -0.054  0.00  0.00     0.054 A 
ATOM     10  C   UNL d   1       2.536  -0.980   0.100  0.00  0.00     0.052 A 
ATOM     11  C   UNL d   1       3.495   0.041   0.094  0.00  0.00     0.103 A 
ATOM     12  C   UNL d   1       1.755   1.722   0.172  0.00  0.00     0.016 A 
ATOM     13  O   UNL d   1      -0.046  -2.656   0.086  0.00  0.00    -0.287 OA
ATOM     14  C   UNL d   1       3.107   1.383   0.144  0.00  0.00     0.037 A 
ENDROOT
BRANCH   5  15
ATOM     15  C   UNL d   1      -1.264   3.311   0.109  0.00  0.00     0.294 C 
ATOM     16  O   UNL d   1      -0.139   3.739   0.241  0.00  0.00    -0.259 OA
BRANCH  15  17
ATOM     17  O   UNL d   1      -2.348   4.128   0.151  0.00  0.00    -0.317 OA
BRANCH  17  18
ATOM     18  C   UNL d   1      -2.325   4.967   1.315  0.00  0.00     0.179 C 
BRANCH  18  19
ATOM     19  C   UNL d   1      -2.185   6.434   0.964  0.00  0.00     0.027 C 
BRANCH  19  20
ATOM     20  C   UNL d   1      -2.210   7.301   2.223  0.00  0.00     0.002 C 
BRANCH  20  21
ATOM     21  C   UNL d   1      -2.063   8.770   1.848  0.00  0.00     0.000 C 
BRANCH  21  22
ATOM     22  C   UNL d   1      -2.086   9.653   3.088  0.00  0.00     0.000 C 
BRANCH  22  23
ATOM     23  C   UNL d   1      -1.940  11.118   2.697  0.00  0.00    -0.000 C 
BRANCH  23  24
ATOM     24  C   UNL d   1      -1.962  12.012   3.930  0.00  0.00    -0.005 C 
ATOM     25  C   UNL d   1      -1.816  13.470   3.537  0.00  0.00     0.005 C 
ENDBRANCH  23  24
ENDBRANCH  22  23
ENDBRANCH  21  22
ENDBRANCH  20  21
ENDBRANCH  19  20
ENDBRANCH  18  19
ENDBRANCH  17  18
ENDBRANCH  15  17
ENDBRANCH   5  15
BRANCH   7  26
ATOM     26  N   UNL d   1      -4.875  -0.141  -0.216  0.00  0.00    -0.116 N 
ATOM     27  O   UNL d   1      -5.209  -1.332  -0.259  0.00  0.00    -0.532 OA
ATOM     28  O   UNL d   1      -5.660   0.815  -0.265  0.00  0.00    -0.532 OA
ENDBRANCH   7  26
BRANCH  11  29
ATOM     29  N   UNL d   1       4.928  -0.256   0.016  0.00  0.00    -0.116 N 
ATOM     30  O   UNL d   1       5.266  -1.442  -0.057  0.00  0.00    -0.532 OA
ATOM     31  O   UNL d   1       5.716   0.705   0.019  0.00  0.00    -0.532 OA
ENDBRANCH  11  29
TORSDOF 11
