REMARK  6 active torsions:
REMARK  status: ('A' for Active; 'I' for Inactive)
REMARK    1  A    between atoms: C_4  and  N_1 
REMARK    2  A    between atoms: C_12  and  C_5 
REMARK    3  A    between atoms: C_6  and  O_13 
REMARK    4  A    between atoms: C_9  and  C_14 
REMARK    5  A    between atoms: O_13  and  C_10 
REMARK    6  A    between atoms: O_26  and  C_12 
ROOT
ATOM      1  C   UNL d   1       3.321  -0.058  -0.287  0.00  0.00     0.080 A 
ATOM      2  C   UNL d   1       4.021   0.572   0.764  0.00  0.00     0.103 A 
ATOM      3  C   UNL d   1       4.093  -0.809  -1.206  0.00  0.00     0.049 A 
ATOM      4  C   UNL d   1       5.483  -0.981  -1.083  0.00  0.00     0.050 A 
ATOM      5  C   UNL d   1       5.408   0.362   0.919  0.00  0.00     0.040 A 
ATOM      6  C   UNL d   1       6.133  -0.393  -0.000  0.00  0.00     0.019 A 
ENDROOT
BRANCH   1   7
ATOM      7  N   UNL d   1       1.898  -0.028  -0.461  0.00  0.00    -0.241 N 
ATOM      8  C   UNL d   1       1.261  -0.315  -1.657  0.00  0.00     0.266 A 
ATOM      9  C   UNL d   1      -0.164  -0.414  -1.383  0.00  0.00     0.048 A 
ATOM     10  O   UNL d   1       1.692  -0.459  -2.787  0.00  0.00    -0.267 OA
ATOM     11  C   UNL d   1      -1.208  -0.789  -2.209  0.00  0.00     0.018 A 
ATOM     12  C   UNL d   1      -0.353  -0.118  -0.053  0.00  0.00     0.048 A 
ATOM     13  C   UNL d   1      -2.484  -0.853  -1.641  0.00  0.00     0.001 A 
ATOM     14  C   UNL d   1      -2.683  -0.534  -0.283  0.00  0.00     0.001 A 
ATOM     15  C   UNL d   1      -1.606  -0.162   0.530  0.00  0.00     0.018 A 
ATOM     16  C   UNL d   1       0.962   0.106   0.546  0.00  0.00     0.266 A 
ATOM     17  O   UNL d   1       1.060   0.243   1.750  0.00  0.00    -0.267 OA
ENDBRANCH   1   7
BRANCH   2  18
ATOM     18  O   UNL d   1       3.369   1.399   1.659  0.00  0.00    -0.307 OA
BRANCH  18  19
ATOM     19  C   UNL d   1       3.961   2.519   2.159  0.00  0.00     0.099 A 
ATOM     20  C   UNL d   1       3.798   2.924   3.475  0.00  0.00     0.114 A 
ATOM     21  S   UNL d   1       4.720   4.350   3.789  0.00  0.00    -0.093 SA
ATOM     22  C   UNL d   1       5.268   4.450   2.179  0.00  0.00     0.053 A 
ATOM     23  C   UNL d   1       4.771   3.429   1.405  0.00  0.00     0.046 A 
BRANCH  20  24
ATOM     24  C   UNL d   1       3.036   2.368   4.580  0.00  0.00     0.302 C 
ATOM     25  O   UNL d   1       2.976   2.828   5.716  0.00  0.00    -0.259 OA
BRANCH  24  26
ATOM     26  O   UNL d   1       2.368   1.250   4.193  0.00  0.00    -0.322 OA
ATOM     27  C   UNL d   1       1.489   0.709   5.178  0.00  0.00     0.213 C 
ENDBRANCH  24  26
ENDBRANCH  20  24
ENDBRANCH  18  19
ENDBRANCH   2  18
BRANCH   4  28
ATOM     28  C   UNL d   1       6.260  -1.800  -2.086  0.00  0.00     0.417 C 
ATOM     29  F   UNL d   1       5.478  -2.432  -3.004  0.00  0.00    -0.166 F 
ATOM     30  F   UNL d   1       7.141  -1.046  -2.799  0.00  0.00    -0.166 F 
ATOM     31  F   UNL d   1       6.999  -2.779  -1.494  0.00  0.00    -0.166 F 
ENDBRANCH   4  28
TORSDOF 6
