REMARK  8 active torsions:
REMARK  status: ('A' for Active; 'I' for Inactive)
REMARK    1  A    between atoms: C_9  and  C_1 
REMARK    2  A    between atoms: C_10  and  C_2 
REMARK    3  A    between atoms: C_6  and  C_8 
REMARK    4  A    between atoms: O_24  and  C_9 
REMARK    5  A    between atoms: C_16  and  C_10 
REMARK    6  A    between atoms: C_13  and  S_15 
REMARK    7  A    between atoms: S_15  and  C_16 
REMARK    8  A    between atoms: C_25  and  O_24 
ROOT
ATOM      1  C   UNL d   1      -1.442   2.213   0.070  0.00  0.00     0.194 C 
ATOM      2  O   UNL d   1      -2.666   2.347   0.107  0.00  0.00    -0.289 OA
ENDROOT
BRANCH   1   3
ATOM      3  C   UNL d   1      -0.829   0.908  -0.020  0.00  0.00     0.147 A 
ATOM      4  C   UNL d   1      -1.369  -0.357   0.003  0.00  0.00     0.081 A 
ATOM      5  C   UNL d   1      -0.252  -1.231  -0.037  0.00  0.00     0.132 A 
ATOM      6  N   UNL d   1       0.888  -0.528  -0.145  0.00  0.00    -0.255 N 
ATOM      7  O   UNL d   1       0.522   0.801  -0.132  0.00  0.00    -0.234 OA
ATOM      8  HN  UNL d   1       1.834  -0.902  -0.221  1.00  0.00     0.195 HD
BRANCH   5   9
ATOM      9  C   UNL d   1      -0.271  -2.685   0.097  0.00  0.00     0.311 C 
ATOM     10  O   UNL d   1      -1.307  -3.325   0.238  0.00  0.00    -0.258 OA
BRANCH   9  11
ATOM     11  O   UNL d   1       0.983  -3.225   0.150  0.00  0.00    -0.317 OA
BRANCH  11  12
ATOM     12  C   UNL d   1       1.071  -4.542   0.703  0.00  0.00     0.175 C 
ATOM     13  C   UNL d   1       1.169  -4.421   2.213  0.00  0.00     0.034 C 
ENDBRANCH  11  12
ENDBRANCH   9  11
ENDBRANCH   5   9
ENDBRANCH   1   3
BRANCH   1  14
ATOM     14  C   UNL d   1      -0.511   3.420   0.046  0.00  0.00     0.167 C 
BRANCH  14  15
ATOM     15  S   UNL d   1      -0.961   4.652   1.309  0.00  0.00    -0.104 SA
BRANCH  15  16
ATOM     16  C   UNL d   1      -0.526   3.784   2.804  0.00  0.00     0.069 A 
ATOM     17  N   UNL d   1      -0.057   2.519   2.712  0.00  0.00    -0.360 N 
ATOM     18  C   UNL d   1       0.265   1.885   3.868  0.00  0.00     0.105 A 
ATOM     19  HN  UNL d   1       0.051   2.059   1.808  1.00  0.00     0.166 HD
ATOM     20  C   UNL d   1       0.143   2.453   5.127  0.00  0.00     0.063 A 
ATOM     21  C   UNL d   1      -0.337   3.763   5.195  0.00  0.00     0.020 A 
ATOM     22  C   UNL d   1      -0.676   4.436   4.022  0.00  0.00     0.038 A 
BRANCH  20  23
ATOM     23  C   UNL d   1       0.510   1.690   6.364  0.00  0.00     0.418 C 
ATOM     24  F   UNL d   1       0.959   0.429   6.115  0.00  0.00    -0.166 F 
ATOM     25  F   UNL d   1       1.492   2.302   7.080  0.00  0.00    -0.166 F 
ATOM     26  F   UNL d   1      -0.541   1.548   7.218  0.00  0.00    -0.166 F 
ENDBRANCH  20  23
ENDBRANCH  15  16
ENDBRANCH  14  15
ENDBRANCH   1  14
TORSDOF 8
