REMARK  4 active torsions:
REMARK  status: ('A' for Active; 'I' for Inactive)
REMARK    1  A    between atoms: C_10  and  C_5 
REMARK    2  A    between atoms: S_11  and  C_8 
REMARK    3  A    between atoms: O_14  and  C_9 
REMARK    4  A    between atoms: C_19  and  S_11 
ROOT
ATOM      1  N   UNL d   1      -0.629   1.238   0.008  0.00  0.00    -0.322 N 
ATOM      2  HN  UNL d   1      -1.108   2.138  -0.008  1.00  0.00     0.169 HD
ATOM      3  N   UNL d   1      -0.702  -1.120   0.089  0.00  0.00    -0.307 N 
ATOM      4  HN  UNL d   1      -1.225  -1.994   0.134  1.00  0.00     0.171 HD
ATOM      5  C   UNL d   1      -1.287   0.075   0.058  0.00  0.00     0.120 A 
ATOM      6  N   UNL d   1       1.385  -0.005  -0.000  0.00  0.00    -0.302 N 
ATOM      7  HN  UNL d   1       2.404  -0.049  -0.026  1.00  0.00     0.171 HD
ATOM      8  C   UNL d   1       0.700   1.133  -0.020  0.00  0.00     0.148 A 
ATOM      9  C   UNL d   1       0.615  -1.072   0.057  0.00  0.00     0.224 A 
ENDROOT
BRANCH   5  10
ATOM     10  C   UNL d   1      -2.767   0.105   0.077  0.00  0.00     0.008 A 
ATOM     11  C   UNL d   1      -3.522  -1.087   0.148  0.00  0.00     0.017 A 
ATOM     12  C   UNL d   1      -4.921  -1.073   0.170  0.00  0.00     0.025 A 
ATOM     13  C   UNL d   1      -5.599   0.139   0.119  0.00  0.00     0.034 A 
ATOM     14  C   UNL d   1      -4.889   1.333   0.045  0.00  0.00     0.025 A 
ATOM     15 CL   UNL d   1      -7.318   0.162   0.150  0.00  0.00    -0.084 Cl
ATOM     16  C   UNL d   1      -3.488   1.314   0.024  0.00  0.00     0.017 A 
ENDBRANCH   5  10
BRANCH   9  17
ATOM     17  O   UNL d   1       1.280  -2.257   0.081  0.00  0.00    -0.332 OA
ATOM     18  H   UNL d   1       2.196  -1.935   0.038  0.00  0.00     0.221 HD
ENDBRANCH   9  17
BRANCH   8  19
ATOM     19  S   UNL d   1       1.681   2.609  -0.158  0.00  0.00    -0.094 SA
BRANCH  19  20
ATOM     20  C   UNL d   1       0.626   3.794   0.728  0.00  0.00     0.078 C 
ATOM     21  C   UNL d   1       1.351   5.126   0.839  0.00  0.00     0.016 C 
ENDBRANCH  19  20
ENDBRANCH   8  19
TORSDOF 4
