REMARK  5 active torsions:
REMARK  status: ('A' for Active; 'I' for Inactive)
REMARK    1  A    between atoms: C_5  and  C_1 
REMARK    2  A    between atoms: C_2  and  C_11 
REMARK    3  A    between atoms: O_19  and  C_4 
REMARK    4  A    between atoms: N_7  and  N_16 
REMARK    5  A    between atoms: N_16  and  C_18 
ROOT
ATOM      1  N   UNL d   1       0.165  -3.578   3.552  0.00  0.00    -0.311 N 
ATOM      2  HN  UNL d   1       0.309  -3.606   2.543  1.00  0.00     0.186 HD
ATOM      3  C   UNL d   1       0.077  -4.656   4.264  0.00  0.00     0.121 C 
ENDROOT
BRANCH   1   4
ATOM      4  N   UNL d   1       0.052  -2.410   4.230  0.00  0.00    -0.301 N 
ATOM      5  H   UNL d   1      -0.502  -2.364   5.083  0.00  0.00     0.187 HD
BRANCH   4   6
ATOM      6  C   UNL d   1       0.100  -1.212   3.487  0.00  0.00     0.048 A 
ATOM      7  C   UNL d   1       0.432  -1.200   2.124  0.00  0.00     0.047 A 
ATOM      8  C   UNL d   1       0.575  -0.002   1.409  0.00  0.00     0.050 A 
ATOM      9  C   UNL d   1       0.400   1.213   2.087  0.00  0.00     0.016 A 
ATOM     10  C   UNL d   1       0.090   1.221   3.445  0.00  0.00     0.003 A 
ATOM     11  C   UNL d   1      -0.051   0.016   4.141  0.00  0.00     0.031 A 
BRANCH   8  12
ATOM     12  C   UNL d   1       0.929  -0.016  -0.055  0.00  0.00     0.417 C 
ATOM     13  F   UNL d   1       1.068  -1.265  -0.581  0.00  0.00    -0.166 F 
ATOM     14  F   UNL d   1       2.103   0.627  -0.312  0.00  0.00    -0.166 F 
ATOM     15  F   UNL d   1      -0.009   0.606  -0.823  0.00  0.00    -0.166 F 
ENDBRANCH   8  12
ENDBRANCH   4   6
ENDBRANCH   1   4
BRANCH   3  16
ATOM     16  C   UNL d   1       0.214  -5.983   3.629  0.00  0.00     0.017 A 
ATOM     17  C   UNL d   1       0.109  -7.148   4.390  0.00  0.00     0.099 A 
ATOM     18  C   UNL d   1       0.243  -8.395   3.767  0.00  0.00     0.069 A 
ATOM     19 CL   UNL d   1       0.113  -9.847   4.691  0.00  0.00    -0.081 Cl
ATOM     20  C   UNL d   1       0.484  -8.484   2.396  0.00  0.00     0.050 A 
ATOM     21  C   UNL d   1       0.592  -7.316   1.646  0.00  0.00     0.036 A 
ATOM     22  C   UNL d   1       0.460  -6.068   2.251  0.00  0.00     0.039 A 
ATOM     23 CL   UNL d   1       0.894  -7.415  -0.045  0.00  0.00    -0.084 Cl
BRANCH  17  24
ATOM     24  O   UNL d   1      -0.124  -7.062   5.738  0.00  0.00    -0.358 OA
ATOM     25  H   UNL d   1      -0.148  -7.972   6.094  0.00  0.00     0.217 HD
ENDBRANCH  17  24
ENDBRANCH   3  16
TORSDOF 5
