REMARK  6 active torsions:
REMARK  status: ('A' for Active; 'I' for Inactive)
REMARK    1  A    between atoms: N_3  and  S_1 
REMARK    2  A    between atoms: C_9  and  S_1 
REMARK    3  A    between atoms: C_2  and  S_14 
REMARK    4  A    between atoms: N_7  and  N_3 
REMARK       I    between atoms: C_8  and  N_7 
REMARK    5  A    between atoms: C_16  and  C_8 
REMARK    6  A    between atoms: S_14  and  C_16 
ROOT
ATOM      1  N   UNL d   1       1.003   1.863  -1.971  0.00  0.00    -0.260 N 
ATOM      2  C   UNL d   1       0.458   2.329  -3.150  0.00  0.00     0.246 C 
ATOM      3  O   UNL d   1      -0.393   1.698  -3.777  0.00  0.00    -0.271 OA
ATOM      4  H   UNL d   1       1.665   2.404  -1.417  0.00  0.00     0.190 HD
ENDROOT
BRANCH   1   5
ATOM      5  N   UNL d   1       0.534   0.606  -1.419  0.00  0.00    -0.220 N 
ATOM      6  H   UNL d   1      -0.203   0.090  -1.909  0.00  0.00     0.200 HD
BRANCH   5   7
ATOM      7  S   UNL d   1       1.182   0.086   0.042  0.00  0.00     0.276 S 
ATOM      8  O   UNL d   1       0.793   1.049   1.052  0.00  0.00    -0.199 OA
ATOM      9  O   UNL d   1       2.577  -0.212  -0.184  0.00  0.00    -0.199 OA
BRANCH   7  10
ATOM     10  C   UNL d   1       0.338  -1.440   0.374  0.00  0.00     0.081 A 
ATOM     11  C   UNL d   1       0.865  -2.639  -0.120  0.00  0.00     0.027 A 
ATOM     12  C   UNL d   1       0.308  -3.856   0.283  0.00  0.00     0.025 A 
ATOM     13  C   UNL d   1      -0.762  -3.869   1.179  0.00  0.00     0.034 A 
ATOM     14  C   UNL d   1      -1.294  -2.674   1.663  0.00  0.00     0.025 A 
ATOM     15 CL   UNL d   1      -1.409  -5.370   1.716  0.00  0.00    -0.084 Cl
ATOM     16  C   UNL d   1      -0.743  -1.454   1.263  0.00  0.00     0.027 A 
ENDBRANCH   7  10
ENDBRANCH   5   7
ENDBRANCH   1   5
BRANCH   2  17
ATOM     17  C   UNL d   1       1.035   3.658  -3.611  0.00  0.00     0.186 C 
BRANCH  17  18
ATOM     18  S   UNL d   1      -0.274   4.883  -3.852  0.00  0.00    -0.096 SA
BRANCH  18  19
ATOM     19  C   UNL d   1      -0.845   5.083  -2.210  0.00  0.00     0.112 A 
ATOM     20  N   UNL d   1      -0.080   4.832  -1.169  0.00  0.00    -0.348 N 
ATOM     21  C   UNL d   1      -0.773   5.130  -0.001  0.00  0.00     0.013 A 
ATOM     22  HN  UNL d   1       0.874   4.474  -1.213  1.00  0.00     0.167 HD
ATOM     23  C   UNL d   1      -0.096   4.968   1.312  0.00  0.00     0.068 C 
ATOM     24  C   UNL d   1      -2.066   5.579  -0.193  0.00  0.00     0.077 A 
ATOM     25  S   UNL d   1      -2.423   5.650  -1.865  0.00  0.00    -0.075 SA
ENDBRANCH  18  19
ENDBRANCH  17  18
ENDBRANCH   2  17
TORSDOF 6
