REMARK  5 active torsions:
REMARK  status: ('A' for Active; 'I' for Inactive)
REMARK    1  A    between atoms: C_5  and  C_1 
REMARK    2  A    between atoms: C_3  and  C_2 
REMARK    3  A    between atoms: C_4  and  C_9 
REMARK    4  A    between atoms: C_14  and  C_5 
REMARK    5  A    between atoms: C_15  and  C_6 
ROOT
ATOM      1  C   UNL d   1       0.778  -0.560   0.775  0.00  0.00     0.096 C 
ATOM      2  C   UNL d   1       0.375   0.703   1.020  0.00  0.00     0.045 C 
ATOM      3  C   UNL d   1       1.835  -1.174   1.506  0.00  0.00     0.103 C 
ATOM      4  N   UNL d   1       2.722  -1.668   2.074  0.00  0.00    -0.191 NA
ENDROOT
BRANCH   1   5
ATOM      5  C   UNL d   1       0.054  -1.334  -0.286  0.00  0.00     0.202 C 
ATOM      6  O   UNL d   1      -1.097  -1.056  -0.612  0.00  0.00    -0.286 OA
BRANCH   5   7
ATOM      7  C   UNL d   1       0.741  -2.486  -0.939  0.00  0.00     0.015 A 
ATOM      8  C   UNL d   1      -0.007  -3.620  -1.281  0.00  0.00     0.015 A 
ATOM      9  C   UNL d   1       0.630  -4.740  -1.823  0.00  0.00     0.001 A 
ATOM     10  C   UNL d   1       2.010  -4.729  -2.030  0.00  0.00     0.000 A 
ATOM     11  C   UNL d   1       2.749  -3.585  -1.740  0.00  0.00     0.001 A 
ATOM     12  C   UNL d   1       2.114  -2.457  -1.220  0.00  0.00     0.015 A 
ENDBRANCH   5   7
ENDBRANCH   1   5
BRANCH   2  13
ATOM     13  C   UNL d   1       1.024   1.510   1.999  0.00  0.00     0.007 A 
ATOM     14  S   UNL d   1       0.505   1.460   3.637  0.00  0.00    -0.101 SA
ATOM     15  C   UNL d   1       1.772   2.489   4.143  0.00  0.00     0.071 A 
ATOM     16  C   UNL d   1       2.546   2.917   3.090  0.00  0.00     0.025 A 
ATOM     17  C   UNL d   1       2.100   2.372   1.849  0.00  0.00     0.040 A 
BRANCH  16  18
ATOM     18  C   UNL d   1       3.667   3.791   3.272  0.00  0.00    -0.061 C 
ATOM     19  C   UNL d   1       4.604   4.518   3.472  0.00  0.00    -0.061 C 
BRANCH  19  20
ATOM     20  C   UNL d   1       5.712   5.388   3.736  0.00  0.00     0.018 A 
ATOM     21  C   UNL d   1       5.520   6.772   3.788  0.00  0.00     0.020 A 
ATOM     22  C   UNL d   1       6.601   7.623   4.034  0.00  0.00     0.001 A 
ATOM     23  C   UNL d   1       7.876   7.094   4.230  0.00  0.00     0.000 A 
ATOM     24  C   UNL d   1       8.070   5.714   4.189  0.00  0.00     0.001 A 
ATOM     25  C   UNL d   1       6.990   4.861   3.944  0.00  0.00     0.020 A 
ENDBRANCH  19  20
ENDBRANCH  16  18
ENDBRANCH   2  13
TORSDOF 5
