REMARK  6 active torsions:
REMARK  status: ('A' for Active; 'I' for Inactive)
REMARK    1  A    between atoms: C_2  and  S_1 
REMARK    2  A    between atoms: N_4  and  S_1 
REMARK    3  A    between atoms: C_15  and  N_4 
REMARK    4  A    between atoms: C_22  and  N_4 
REMARK    5  A    between atoms: C_20  and  C_15 
REMARK    6  A    between atoms: C_21  and  C_22 
ROOT
ATOM      1  N   UNL d   1       3.176  -4.925  -2.105  0.00  0.00    -0.197 NA
ATOM      2  C   UNL d   1       2.902  -4.021  -1.435  0.00  0.00     0.060 C 
ATOM      3  C   UNL d   1       2.557  -2.865  -0.593  0.00  0.00     0.139 C 
ENDROOT
BRANCH   3   4
ATOM      4  C   UNL d   1       1.113  -2.431  -0.853  0.00  0.00     0.122 C 
BRANCH   4   5
ATOM      5  N   UNL d   1       0.655  -1.308   0.046  0.00  0.00    -0.203 NA
BRANCH   5   6
ATOM      6  S   UNL d   1       1.352   0.210  -0.315  0.00  0.00     0.246 S 
ATOM      7  O   UNL d   1       2.791   0.100  -0.211  0.00  0.00    -0.206 OA
ATOM      8  O   UNL d   1       0.758   0.673  -1.552  0.00  0.00    -0.206 OA
BRANCH   6   9
ATOM      9  C   UNL d   1       0.864   1.325   0.947  0.00  0.00     0.104 A 
ATOM     10  C   UNL d   1       1.045   1.066   2.324  0.00  0.00     0.090 A 
ATOM     11  N   UNL d   1       1.472  -0.067   2.906  0.00  0.00    -0.309 N 
ATOM     12  C   UNL d   1       0.741   2.151   3.336  0.00  0.00     0.068 A 
ATOM     13  S   UNL d   1       1.514   0.211   4.541  0.00  0.00     0.068 SA
ATOM     14  HN  UNL d   1       1.723  -0.935   2.433  1.00  0.00     0.176 HD
ATOM     15  N   UNL d   1       0.963   1.774   4.604  0.00  0.00    -0.310 N 
ATOM     16  HN  UNL d   1       0.821   2.338   5.442  1.00  0.00     0.176 HD
ATOM     17  C   UNL d   1       0.276   3.425   2.929  0.00  0.00     0.032 A 
ATOM     18  C   UNL d   1       0.101   3.613   1.548  0.00  0.00     0.004 A 
ATOM     19  C   UNL d   1       0.380   2.607   0.597  0.00  0.00     0.027 A 
ENDBRANCH   6   9
ENDBRANCH   5   6
BRANCH   5  20
ATOM     20  C   UNL d   1      -0.830  -1.359   0.298  0.00  0.00     0.139 C 
BRANCH  20  21
ATOM     21  C   UNL d   1      -1.732  -1.011  -0.898  0.00  0.00     0.135 C 
ATOM     22  O   UNL d   1      -1.560  -1.955  -1.972  0.00  0.00    -0.385 OA
ATOM     23  C   UNL d   1      -2.843  -2.263  -2.533  0.00  0.00     0.168 C 
ATOM     24  C   UNL d   1      -3.847  -1.333  -1.887  0.00  0.00     0.029 C 
ATOM     25  C   UNL d   1      -3.214  -1.070  -0.543  0.00  0.00     0.035 C 
ENDBRANCH  20  21
ENDBRANCH   5  20
ENDBRANCH   4   5
ENDBRANCH   3   4
TORSDOF 6
