REMARK  5 active torsions:
REMARK  status: ('A' for Active; 'I' for Inactive)
REMARK    1  A    between atoms: S_2  and  C_1 
REMARK    2  A    between atoms: N_8  and  S_2 
REMARK    3  A    between atoms: C_9  and  C_14 
REMARK    4  A    between atoms: O_18  and  C_9 
REMARK    5  A    between atoms: C_21  and  O_18 
ROOT
ATOM      1  N   UNL d   1       4.022  -0.658   1.480  0.00  0.00    -0.205 NA
ATOM      2  C   UNL d   1       3.603   0.107   2.682  0.00  0.00     0.108 C 
ATOM      3  C   UNL d   1       3.716  -2.109   1.562  0.00  0.00     0.108 C 
ATOM      4  C   UNL d   1       3.928  -1.975   4.096  0.00  0.00     0.088 C 
ATOM      5  C   UNL d   1       4.253  -0.485   3.932  0.00  0.00     0.030 C 
ATOM      6  C   UNL d   1       4.345  -2.716   2.818  0.00  0.00     0.030 C 
ENDROOT
BRANCH   1   7
ATOM      7  S   UNL d   1       3.534   0.072  -0.004  0.00  0.00     0.260 S 
ATOM      8  O   UNL d   1       4.041  -0.744  -1.094  0.00  0.00    -0.204 OA
ATOM      9  O   UNL d   1       3.796   1.490   0.060  0.00  0.00    -0.204 OA
BRANCH   7  10
ATOM     10  C   UNL d   1       1.788  -0.051  -0.150  0.00  0.00     0.161 A 
ATOM     11  N   UNL d   1       0.912   0.430   0.814  0.00  0.00    -0.335 N 
ATOM     12  C   UNL d   1      -0.298   0.172   0.359  0.00  0.00     0.079 A 
ATOM     13  HN  UNL d   1       1.155   0.888   1.692  1.00  0.00     0.168 HD
ATOM     14  C   UNL d   1      -1.573   0.526   1.033  0.00  0.00     0.089 C 
ATOM     15  N   UNL d   1      -0.233  -0.485  -0.849  0.00  0.00    -0.348 N 
ATOM     16  C   UNL d   1       1.084  -0.650  -1.175  0.00  0.00     0.135 A 
ATOM     17  C   UNL d   1      -1.358  -0.918  -1.643  0.00  0.00     0.156 C 
ENDBRANCH   7  10
ENDBRANCH   1   7
BRANCH   4  18
ATOM     18  C   UNL d   1       2.451  -2.207   4.396  0.00  0.00     0.263 C 
ATOM     19  O   UNL d   1       1.714  -2.921   3.730  0.00  0.00    -0.265 OA
BRANCH  18  20
ATOM     20  O   UNL d   1       2.057  -1.481   5.477  0.00  0.00    -0.322 OA
BRANCH  20  21
ATOM     21  C   UNL d   1       0.650  -1.212   5.544  0.00  0.00     0.174 C 
ATOM     22  C   UNL d   1      -0.008  -1.917   6.713  0.00  0.00     0.034 C 
ENDBRANCH  20  21
ENDBRANCH  18  20
ENDBRANCH   4  18
TORSDOF 5
