REMARK  5 active torsions:
REMARK  status: ('A' for Active; 'I' for Inactive)
REMARK    1  A    between atoms: N_2  and  C_1 
REMARK    2  A    between atoms: C_3  and  N_2 
REMARK    3  A    between atoms: C_12  and  N_11 
REMARK    4  A    between atoms: C_14  and  C_12 
REMARK    5  A    between atoms: C_13  and  C_14 
ROOT
ATOM      1  C   UNL d   1       1.308  -0.049   0.274  0.00  0.00     0.167 C 
ATOM      2  S   UNL d   1       0.554  -0.898  -0.954  0.00  0.00    -0.041 SA
ATOM      3  N   UNL d   1       2.644  -0.107   0.338  0.00  0.00    -0.367 N 
ATOM      4  H   UNL d   1       3.014  -0.678  -0.414  0.00  0.00     0.161 HD
ENDROOT
BRANCH   1   5
ATOM      5  N   UNL d   1       0.532   0.624   1.126  0.00  0.00    -0.362 N 
ATOM      6  H   UNL d   1      -0.450   0.445   0.942  0.00  0.00     0.162 HD
BRANCH   5   7
ATOM      7  C   UNL d   1       0.765   1.715   2.064  0.00  0.00     0.092 C 
ATOM      8  C   UNL d   1      -0.227   2.911   1.868  0.00  0.00     0.031 C 
ATOM      9  C   UNL d   1      -1.652   2.394   1.895  0.00  0.00    -0.024 C 
ATOM     10  C   UNL d   1      -0.200   3.549   3.261  0.00  0.00     0.019 C 
ATOM     11  C   UNL d   1      -1.895   1.978   3.146  0.00  0.00    -0.026 C 
ATOM     12  C   UNL d   1      -0.655   2.265   3.962  0.00  0.00     0.010 C 
ATOM     13  C   UNL d   1       0.463   1.291   3.534  0.00  0.00     0.034 C 
ENDBRANCH   5   7
ENDBRANCH   1   5
BRANCH   3  14
ATOM     14  C   UNL d   1       3.562   0.052   1.460  0.00  0.00     0.126 C 
BRANCH  14  15
ATOM     15  C   UNL d   1       3.402  -1.047   2.513  0.00  0.00     0.058 C 
BRANCH  15  16
ATOM     16  C   UNL d   1       4.425  -0.934   3.619  0.00  0.00    -0.057 A 
ATOM     17  C   UNL d   1       4.261   0.006   4.644  0.00  0.00     0.007 A 
ATOM     18  C   UNL d   1       5.195   0.107   5.675  0.00  0.00     0.001 A 
ATOM     19  C   UNL d   1       6.308  -0.729   5.692  0.00  0.00     0.000 A 
ATOM     20  C   UNL d   1       6.489  -1.661   4.673  0.00  0.00     0.001 A 
ATOM     21  C   UNL d   1       5.555  -1.763   3.639  0.00  0.00     0.007 A 
ENDBRANCH  15  16
ENDBRANCH  14  15
ENDBRANCH   3  14
TORSDOF 5
