REMARK  2 active torsions:
REMARK  status: ('A' for Active; 'I' for Inactive)
REMARK    1  A    between atoms: C_3  and  N_1 
REMARK    2  A    between atoms: C_6  and  C_2 
ROOT
ATOM      1  N   UNL d   1      -0.662  -1.193   0.208  0.00  0.00    -0.299 N 
ATOM      2  C   UNL d   1       0.731  -1.389  -0.165  0.00  0.00     0.188 C 
ATOM      3  S   UNL d   1       1.516   0.241  -0.137  0.00  0.00    -0.129 SA
ATOM      4  C   UNL d   1      -1.141   0.117   0.100  0.00  0.00     0.235 C 
ATOM      5  C   UNL d   1      -0.056   1.104  -0.267  0.00  0.00     0.179 C 
ATOM      6  O   UNL d   1      -2.311   0.475   0.214  0.00  0.00    -0.272 OA
ENDROOT
BRANCH   1   7
ATOM      7  C   UNL d   1      -1.538  -2.292   0.459  0.00  0.00     0.040 A 
ATOM      8  C   UNL d   1      -1.364  -3.526  -0.176  0.00  0.00     0.054 A 
ATOM      9  C   UNL d   1      -2.208  -4.606   0.108  0.00  0.00     0.042 A 
ATOM     10 CL   UNL d   1      -1.937  -6.082  -0.752  0.00  0.00    -0.084 Cl
ATOM     11  C   UNL d   1      -3.239  -4.485   1.048  0.00  0.00    -0.040 A 
ATOM     12  C   UNL d   1      -3.414  -3.250   1.682  0.00  0.00     0.011 A 
ATOM     13  C   UNL d   1      -4.165  -5.623   1.369  0.00  0.00     0.050 C 
ATOM     14  C   UNL d   1      -2.579  -2.167   1.384  0.00  0.00     0.030 A 
ENDBRANCH   1   7
BRANCH   2  15
ATOM     15  C   UNL d   1       1.484  -2.384   0.709  0.00  0.00    -0.023 A 
ATOM     16  C   UNL d   1       1.530  -2.255   2.109  0.00  0.00     0.035 A 
ATOM     17  C   UNL d   1       2.143  -3.238   2.902  0.00  0.00     0.056 A 
ATOM     18 CL   UNL d   1       2.140  -3.006   4.615  0.00  0.00    -0.083 Cl
ATOM     19  C   UNL d   1       2.714  -4.363   2.300  0.00  0.00     0.055 A 
ATOM     20  C   UNL d   1       2.697  -4.487   0.909  0.00  0.00     0.026 A 
ATOM     21 CL   UNL d   1       3.435  -5.641   3.212  0.00  0.00    -0.083 Cl
ATOM     22  C   UNL d   1       2.100  -3.500   0.120  0.00  0.00     0.012 A 
ENDBRANCH   2  15
TORSDOF 2
