REMARK  2 active torsions:
REMARK  status: ('A' for Active; 'I' for Inactive)
REMARK    1  A    between atoms: N_3  and  C_1 
REMARK    2  A    between atoms: O_11  and  C_4 
ROOT
ATOM      1  C   UNL d   1      -0.687   1.273  -0.001  0.00  0.00     0.203 A 
ATOM      2  C   UNL d   1      -1.425  -0.019  -0.001  0.00  0.00     0.281 A 
ATOM      3  C   UNL d   1       0.666   1.273  -0.000  0.00  0.00     0.106 A 
ATOM      4  N   UNL d   1      -0.631  -1.156   0.001  0.00  0.00    -0.325 N 
ATOM      5  C   UNL d   1       1.392   0.023  -0.001  0.00  0.00     0.064 A 
ATOM      6  C   UNL d   1       0.744  -1.152   0.001  0.00  0.00     0.011 A 
ATOM      7  O   UNL d   1      -2.643  -0.146  -0.003  0.00  0.00    -0.265 OA
ATOM      8  C   UNL d   1       1.449  -2.472   0.003  0.00  0.00     0.068 C 
ATOM      9  H   UNL d   1      -1.139  -2.035   0.001  0.00  0.00     0.169 HD
ENDROOT
BRANCH   1  10
ATOM     10  N   UNL d   1      -1.401   2.533   0.003  0.00  0.00    -0.107 N 
ATOM     11  O   UNL d   1      -0.721   3.577   0.006  0.00  0.00    -0.531 OA
ATOM     12  O   UNL d   1      -2.635   2.529   0.002  0.00  0.00    -0.531 OA
ENDBRANCH   1  10
BRANCH   3  13
ATOM     13  O   UNL d   1       1.514   2.359   0.001  0.00  0.00    -0.358 OA
ATOM     14  H   UNL d   1       0.989   3.189   0.004  0.00  0.00     0.217 HD
ENDBRANCH   3  13
TORSDOF 2
