REMARK  5 active torsions:
REMARK  status: ('A' for Active; 'I' for Inactive)
REMARK    1  A    between atoms: C_7  and  N_1 
REMARK    2  A    between atoms: C_15  and  N_2 
REMARK    3  A    between atoms: S_14  and  C_12 
REMARK    4  A    between atoms: C_22  and  C_15 
REMARK    5  A    between atoms: O_29  and  C_23 
ROOT
ATOM      1  N   UNL d   1       0.927  -1.401   0.175  0.00  0.00    -0.246 N 
ATOM      2  N   UNL d   1       2.107   0.693   0.110  0.00  0.00    -0.260 N 
ATOM      3  C   UNL d   1       2.146  -0.708   0.288  0.00  0.00     0.338 C 
ATOM      4  C   UNL d   1      -0.254  -0.684   0.114  0.00  0.00     0.150 A 
ATOM      5  C   UNL d   1      -0.236   0.679   0.036  0.00  0.00     0.147 A 
ATOM      6  C   UNL d   1       0.948   1.458  -0.000  0.00  0.00     0.282 C 
ATOM      7  N   UNL d   1      -1.541  -1.150   0.084  0.00  0.00    -0.336 N 
ATOM      8  HN  UNL d   1      -1.849  -2.122   0.113  1.00  0.00     0.168 HD
ATOM      9  N   UNL d   1      -1.541   1.068  -0.024  0.00  0.00    -0.345 N 
ATOM     10  C   UNL d   1      -2.297  -0.072   0.010  0.00  0.00     0.182 A 
ATOM     11  O   UNL d   1       3.209  -1.276   0.560  0.00  0.00    -0.246 OA
ATOM     12  O   UNL d   1       0.918   2.683  -0.106  0.00  0.00    -0.265 OA
ATOM     13  H   UNL d   1      -1.879   2.022  -0.093  0.00  0.00     0.167 HD
ENDROOT
BRANCH   1  14
ATOM     14  C   UNL d   1       0.870  -2.829   0.165  0.00  0.00     0.053 A 
ATOM     15  C   UNL d   1      -0.000  -3.496   1.056  0.00  0.00     0.051 A 
ATOM     16  C   UNL d   1      -0.020  -4.894   1.155  0.00  0.00     0.033 A 
ATOM     17  C   UNL d   1       0.797  -5.640   0.305  0.00  0.00     0.021 A 
ATOM     18  C   UNL d   1       1.631  -5.004  -0.611  0.00  0.00     0.010 A 
ATOM     19  C   UNL d   1       1.689  -3.601  -0.692  0.00  0.00    -0.035 A 
ATOM     20  C   UNL d   1       2.575  -3.042  -1.775  0.00  0.00     0.050 C 
BRANCH  16  21
ATOM     21  S   UNL d   1      -1.124  -5.778   2.289  0.00  0.00     0.045 S 
ATOM     22  O   UNL d   1      -0.429  -7.075   2.592  0.00  0.00    -0.253 OA
ATOM     23  C   UNL d   1      -0.997  -4.744   3.763  0.00  0.00     0.133 C 
ENDBRANCH  16  21
ENDBRANCH   1  14
BRANCH   2  24
ATOM     24  C   UNL d   1       3.384   1.397   0.075  0.00  0.00     0.175 C 
BRANCH  24  25
ATOM     25  C   UNL d   1       3.962   1.444  -1.325  0.00  0.00    -0.040 A 
ATOM     26  C   UNL d   1       3.645   2.498  -2.194  0.00  0.00     0.011 A 
ATOM     27  C   UNL d   1       4.125   2.512  -3.508  0.00  0.00     0.037 A 
ATOM     28  C   UNL d   1       4.922   1.466  -3.974  0.00  0.00     0.068 A 
ATOM     29  C   UNL d   1       5.278   0.436  -3.103  0.00  0.00     0.037 A 
ATOM     30  C   UNL d   1       4.795   0.418  -1.792  0.00  0.00     0.011 A 
BRANCH  28  31
ATOM     31  O   UNL d   1       5.439   1.380  -5.238  0.00  0.00    -0.356 OA
ATOM     32  C   UNL d   1       4.607   1.909  -6.266  0.00  0.00     0.210 C 
ENDBRANCH  28  31
ENDBRANCH  24  25
ENDBRANCH   2  24
TORSDOF 5
