REMARK  1 active torsions:
REMARK  status: ('A' for Active; 'I' for Inactive)
REMARK    1  A    between atoms: C_7  and  C_2 
ROOT
ATOM      1  N   UNL d   1       1.804  -1.068  -0.059  0.00  0.00    -0.348 N 
ATOM      2  C   UNL d   1       0.556  -1.623   0.418  0.00  0.00     0.151 C 
ATOM      3  C   UNL d   1       2.106   0.262  -0.039  0.00  0.00     0.222 C 
ATOM      4  C   UNL d   1      -0.609  -0.705   0.104  0.00  0.00    -0.024 A 
ATOM      5  C   UNL d   1      -0.402   0.686   0.062  0.00  0.00    -0.041 A 
ATOM      6  C   UNL d   1       0.988   1.245   0.249  0.00  0.00     0.142 C 
ATOM      7  O   UNL d   1       3.263   0.628  -0.239  0.00  0.00    -0.273 OA
ATOM      8  C   UNL d   1      -1.902  -1.219  -0.072  0.00  0.00     0.010 A 
ATOM      9  C   UNL d   1      -1.498   1.544  -0.087  0.00  0.00     0.008 A 
ATOM     10  C   UNL d   1      -2.982  -0.356  -0.254  0.00  0.00     0.001 A 
ATOM     11  C   UNL d   1      -2.781   1.023  -0.244  0.00  0.00     0.001 A 
ATOM     12  H   UNL d   1       2.598  -1.681  -0.180  0.00  0.00     0.163 HD
ENDROOT
BRANCH   2  13
ATOM     13  C   UNL d   1       0.667  -2.007   1.891  0.00  0.00    -0.031 A 
ATOM     14  C   UNL d   1       0.366  -1.106   2.933  0.00  0.00     0.011 A 
ATOM     15  C   UNL d   1       0.485  -1.483   4.272  0.00  0.00     0.024 A 
ATOM     16  C   UNL d   1       0.919  -2.764   4.595  0.00  0.00     0.034 A 
ATOM     17  C   UNL d   1       1.236  -3.671   3.585  0.00  0.00     0.024 A 
ATOM     18 CL   UNL d   1       1.057  -3.231   6.241  0.00  0.00    -0.084 Cl
ATOM     19  C   UNL d   1       1.117  -3.293   2.242  0.00  0.00     0.011 A 
ENDBRANCH   2  13
TORSDOF 1
