REMARK  1 active torsions:
REMARK  status: ('A' for Active; 'I' for Inactive)
REMARK    1  A    between atoms: C_8  and  C_1 
ROOT
ATOM      1  C   UNL d   1      -1.521  -1.069   0.011  0.00  0.00     0.122 A 
ATOM      2  N   UNL d   1      -0.187  -0.657  -0.037  0.00  0.00    -0.306 N 
ATOM      3  N   UNL d   1      -2.325  -0.013  -0.044  0.00  0.00    -0.349 N 
ATOM      4  HN  UNL d   1      -3.344  -0.027  -0.085  1.00  0.00     0.167 HD
ATOM      5  C   UNL d   1      -0.201   0.736  -0.004  0.00  0.00     0.056 A 
ATOM      6  C   UNL d   1      -1.524   1.095  -0.036  0.00  0.00     0.119 A 
ATOM      7  C   UNL d   1       1.012  -1.377  -0.116  0.00  0.00     0.099 A 
ATOM      8  C   UNL d   1       1.040   1.427   0.031  0.00  0.00     0.031 A 
ATOM      9  C   UNL d   1       2.187  -0.725  -0.091  0.00  0.00     0.018 A 
ATOM     10  C   UNL d   1       2.188   0.725   0.002  0.00  0.00     0.004 A 
ENDROOT
BRANCH   1  11
ATOM     11  C   UNL d   1      -2.014  -2.454   0.093  0.00  0.00     0.009 A 
ATOM     12  C   UNL d   1      -1.351  -3.461   0.808  0.00  0.00     0.015 A 
ATOM     13  C   UNL d   1      -1.863  -4.761   0.863  0.00  0.00     0.001 A 
ATOM     14  C   UNL d   1      -3.070  -5.064   0.237  0.00  0.00     0.000 A 
ATOM     15  C   UNL d   1      -3.766  -4.067  -0.441  0.00  0.00     0.001 A 
ATOM     16  C   UNL d   1      -3.240  -2.773  -0.512  0.00  0.00     0.015 A 
ENDBRANCH   1  11
TORSDOF 1
