REMARK  3 active torsions:
REMARK  status: ('A' for Active; 'I' for Inactive)
REMARK    1  A    between atoms: N_9  and  C_1 
REMARK       I    between atoms: C_2  and  N_8 
REMARK       I    between atoms: N_12  and  C_2 
REMARK    2  A    between atoms: C_6  and  C_3 
REMARK    3  A    between atoms: C_21  and  N_12 
ROOT
ATOM      1  C   UNL d   1      -0.849  -6.988   0.929  0.00  0.00     0.323 C 
ATOM      2  N   UNL d   1      -0.913  -5.659   0.528  0.00  0.00    -0.331 N 
ATOM      3  N   UNL d   1      -0.989  -2.822   0.087  0.00  0.00    -0.377 N 
ATOM      4  N   UNL d   1      -1.692  -7.857   0.282  0.00  0.00    -0.309 N 
ATOM      5  O   UNL d   1      -0.080  -7.322   1.829  0.00  0.00    -0.247 OA
ATOM      6  C   UNL d   1      -1.601  -5.102  -0.656  0.00  0.00     0.147 C 
ATOM      7  C   UNL d   1       0.085  -4.755   1.125  0.00  0.00     0.147 C 
ATOM      8  C   UNL d   1      -2.089  -3.645  -0.447  0.00  0.00     0.143 C 
ATOM      9  C   UNL d   1      -0.489  -3.357   1.377  0.00  0.00     0.143 C 
ATOM     10  H   UNL d   1      -2.244  -7.498  -0.474  0.00  0.00     0.170 HD
ENDROOT
BRANCH   3  11
ATOM     11  C   UNL d   1      -1.051  -1.422   0.036  0.00  0.00     0.045 A 
ATOM     12  C   UNL d   1      -2.269  -0.739   0.020  0.00  0.00     0.064 A 
ATOM     13  C   UNL d   1      -2.284   0.655   0.010  0.00  0.00     0.119 A 
ATOM     14  N   UNL d   1      -1.140   1.390   0.035  0.00  0.00    -0.352 N 
ATOM     15  C   UNL d   1       0.040   0.755   0.030  0.00  0.00     0.045 A 
ATOM     16  HN  UNL d   1      -1.180   2.409   0.056  1.00  0.00     0.166 HD
ATOM     17  C   UNL d   1       0.148  -0.651   0.003  0.00  0.00     0.017 A 
ATOM     18  C   UNL d   1       1.199   1.521   0.045  0.00  0.00     0.030 A 
ATOM     19  C   UNL d   1       1.445  -1.218  -0.081  0.00  0.00     0.016 A 
ATOM     20  C   UNL d   1       2.595  -0.432  -0.064  0.00  0.00     0.001 A 
ATOM     21  C   UNL d   1       2.471   0.945   0.010  0.00  0.00     0.002 A 
BRANCH  13  22
ATOM     22  C   UNL d   1      -3.626   1.370  -0.039  0.00  0.00     0.432 C 
ATOM     23  F   UNL d   1      -3.547   2.730  -0.029  0.00  0.00    -0.165 F 
ATOM     24  F   UNL d   1      -4.343   1.049  -1.157  0.00  0.00    -0.165 F 
ATOM     25  F   UNL d   1      -4.434   1.037   1.012  0.00  0.00    -0.165 F 
ENDBRANCH  13  22
ENDBRANCH   3  11
BRANCH   4  26
ATOM     26  C   UNL d   1      -1.846  -9.242   0.530  0.00  0.00     0.036 A 
ATOM     27  C   UNL d   1      -1.161  -9.943   1.527  0.00  0.00     0.029 A 
ATOM     28  C   UNL d   1      -1.355 -11.318   1.698  0.00  0.00     0.002 A 
ATOM     29  C   UNL d   1      -2.241 -12.005   0.873  0.00  0.00     0.000 A 
ATOM     30  C   UNL d   1      -2.940 -11.318  -0.114  0.00  0.00     0.002 A 
ATOM     31  C   UNL d   1      -2.745  -9.943  -0.284  0.00  0.00     0.029 A 
ENDBRANCH   4  26
TORSDOF 3
