REMARK  7 active torsions:
REMARK  status: ('A' for Active; 'I' for Inactive)
REMARK    1  A    between atoms: C_7  and  C_1 
REMARK    2  A    between atoms: C_10  and  N_2 
REMARK    3  A    between atoms: C_11  and  C_6 
REMARK       I    between atoms: N_8  and  C_7 
REMARK    4  A    between atoms: N_9  and  N_8 
REMARK    5  A    between atoms: C_12  and  N_9 
REMARK    6  A    between atoms: C_15  and  C_10 
REMARK    7  A    between atoms: O_16  and  C_14 
ROOT
ATOM      1  C   UNL d   1      -0.516  -1.420   0.435  0.00  0.00     0.122 A 
ATOM      2  N   UNL d   1       0.709  -0.866   0.139  0.00  0.00    -0.282 N 
ATOM      3  N   UNL d   1       0.679   0.485   0.075  0.00  0.00    -0.301 N 
ATOM      4  HN  UNL d   1       1.474   1.116  -0.032  1.00  0.00     0.187 HD
ATOM      5  C   UNL d   1      -1.388  -0.334   0.415  0.00  0.00     0.064 A 
ATOM      6  C   UNL d   1      -0.609   0.819   0.179  0.00  0.00     0.036 A 
ENDROOT
BRANCH   1   7
ATOM      7  C   UNL d   1      -0.882  -2.775   0.817  0.00  0.00     0.284 C 
ATOM      8  N   UNL d   1      -0.118  -3.818   0.308  0.00  0.00    -0.281 N 
ATOM      9  H   UNL d   1       0.547  -3.716  -0.444  0.00  0.00     0.184 HD
ATOM     10  O   UNL d   1      -1.845  -2.982   1.555  0.00  0.00    -0.265 OA
BRANCH   8  11
ATOM     11  N   UNL d   1      -0.186  -5.074   0.937  0.00  0.00    -0.200 NA
ATOM     12  H   UNL d   1       0.660  -5.351   1.438  0.00  0.00     0.153 HD
BRANCH  11  13
ATOM     13  C   UNL d   1      -0.680  -6.151   0.157  0.00  0.00     0.061 A 
ATOM     14  C   UNL d   1      -0.296  -7.466   0.487  0.00  0.00     0.090 A 
ATOM     15  C   UNL d   1      -0.786  -8.570  -0.212  0.00  0.00     0.039 A 
ATOM     16  C   UNL d   1      -1.731  -8.381  -1.219  0.00  0.00     0.003 A 
ATOM     17  C   UNL d   1      -2.173  -7.093  -1.518  0.00  0.00     0.002 A 
ATOM     18  C   UNL d   1      -1.657  -5.986  -0.828  0.00  0.00     0.028 A 
BRANCH  14  19
ATOM     19  O   UNL d   1       0.638  -7.664   1.475  0.00  0.00    -0.354 OA
ATOM     20  C   UNL d   1       0.008  -8.068   2.695  0.00  0.00     0.210 C 
ENDBRANCH  14  19
ENDBRANCH  11  13
ENDBRANCH   8  11
ENDBRANCH   1   7
BRANCH   2  21
ATOM     21  C   UNL d   1       2.017  -1.486  -0.059  0.00  0.00     0.188 C 
BRANCH  21  22
ATOM     22  C   UNL d   1       2.318  -1.655  -1.534  0.00  0.00    -0.038 A 
ATOM     23  C   UNL d   1       2.380  -0.531  -2.379  0.00  0.00     0.009 A 
ATOM     24  C   UNL d   1       2.599  -0.670  -3.749  0.00  0.00     0.001 A 
ATOM     25  C   UNL d   1       2.778  -1.935  -4.295  0.00  0.00     0.000 A 
ATOM     26  C   UNL d   1       2.760  -3.058  -3.467  0.00  0.00     0.001 A 
ATOM     27  C   UNL d   1       2.542  -2.918  -2.094  0.00  0.00     0.009 A 
ENDBRANCH  21  22
ENDBRANCH   2  21
BRANCH   6  28
ATOM     28  C   UNL d   1      -1.009   2.282   0.080  0.00  0.00    -0.007 C 
ATOM     29  C   UNL d   1      -2.537   2.472   0.129  0.00  0.00     0.021 C 
ATOM     30  C   UNL d   1      -0.389   3.080   1.247  0.00  0.00     0.021 C 
ATOM     31  C   UNL d   1      -0.500   2.883  -1.250  0.00  0.00     0.021 C 
ENDBRANCH   6  28
TORSDOF 7
