REMARK  3 active torsions:
REMARK  status: ('A' for Active; 'I' for Inactive)
REMARK    1  A    between atoms: C_2  and  C_1 
REMARK    2  A    between atoms: C_8  and  N_3 
REMARK    3  A    between atoms: O_13  and  C_5 
ROOT
ATOM      1  C   UNL d   1      -1.985  -2.512   0.040  0.00  0.00     0.102 C 
ATOM      2  N   UNL d   1      -3.276  -2.579  -0.062  0.00  0.00    -0.365 N 
ATOM      3  HN  UNL d   1      -3.829  -1.731  -0.180  1.00  0.00     0.165 HD
ENDROOT
BRANCH   1   4
ATOM      4  C   UNL d   1      -1.278  -1.216   0.007  0.00  0.00     0.014 A 
ATOM      5  C   UNL d   1      -1.962   0.006   0.016  0.00  0.00     0.077 A 
ATOM      6  C   UNL d   1      -1.257   1.208   0.011  0.00  0.00     0.039 A 
ATOM      7  C   UNL d   1       0.139   1.193  -0.009  0.00  0.00     0.026 A 
ATOM      8  C   UNL d   1       0.819  -0.025  -0.026  0.00  0.00     0.035 A 
ATOM      9  C   UNL d   1       0.120  -1.232  -0.015  0.00  0.00     0.039 A 
ATOM     10 CL   UNL d   1       2.539  -0.041  -0.057  0.00  0.00    -0.084 Cl
BRANCH   5  11
ATOM     11  O   UNL d   1      -3.326   0.093   0.037  0.00  0.00    -0.360 OA
ATOM     12  H   UNL d   1      -3.677  -0.826  -0.008  0.00  0.00     0.217 HD
ENDBRANCH   5  11
ENDBRANCH   1   4
BRANCH   2  13
ATOM     13  C   UNL d   1      -3.902  -3.838  -0.008  0.00  0.00     0.032 A 
ATOM     14  C   UNL d   1      -5.146  -3.919   0.630  0.00  0.00     0.032 A 
ATOM     15  C   UNL d   1      -5.837  -5.132   0.707  0.00  0.00     0.044 A 
ATOM     16  C   UNL d   1      -5.281  -6.270   0.140  0.00  0.00     0.116 A 
ATOM     17  C   UNL d   1      -4.056  -6.214  -0.515  0.00  0.00     0.044 A 
ATOM     18  F   UNL d   1      -5.936  -7.436   0.213  0.00  0.00    -0.206 F 
ATOM     19  C   UNL d   1      -3.376  -4.996  -0.600  0.00  0.00     0.032 A 
ENDBRANCH   2  13
TORSDOF 3
