REMARK  1 active torsions:
REMARK  status: ('A' for Active; 'I' for Inactive)
REMARK    1  A    between atoms: C_4  and  N_1 
ROOT
ATOM      1  N   UNL d   1      -0.061   0.679  -0.066  0.00  0.00    -0.284 N 
ATOM      2  C   UNL d   1      -1.079  -0.226  -0.010  0.00  0.00     0.227 A 
ATOM      3  C   UNL d   1       1.157   0.054  -0.131  0.00  0.00     0.227 A 
ATOM      4  C   UNL d   1      -0.521  -1.614   0.047  0.00  0.00     0.112 A 
ATOM      5  C   UNL d   1       0.967  -1.431  -0.106  0.00  0.00     0.112 A 
ATOM      6  O   UNL d   1      -2.284  -0.021   0.003  0.00  0.00    -0.273 OA
ATOM      7  O   UNL d   1       2.255   0.585  -0.215  0.00  0.00    -0.273 OA
ENDROOT
BRANCH   1   8
ATOM      8  C   UNL d   1      -0.166   2.150  -0.115  0.00  0.00     0.096 C 
ATOM      9  C   UNL d   1      -0.813   2.782   1.125  0.00  0.00     0.026 C 
ATOM     10  C   UNL d   1      -2.337   2.794   1.119  0.00  0.00     0.002 C 
ATOM     11  C   UNL d   1      -2.934   3.280  -0.199  0.00  0.00     0.000 C 
ATOM     12  C   UNL d   1      -2.302   2.674  -1.448  0.00  0.00     0.002 C 
ATOM     13  C   UNL d   1      -0.778   2.688  -1.414  0.00  0.00     0.026 C 
ENDBRANCH   1   8
TORSDOF 1
