REMARK  7 active torsions:
REMARK  status: ('A' for Active; 'I' for Inactive)
REMARK    1  A    between atoms: S_7  and  C_1 
REMARK    2  A    between atoms: C_8  and  C_3 
REMARK       I    between atoms: C_6  and  N_10 
REMARK       I    between atoms: N_14  and  C_6 
REMARK    3  A    between atoms: C_12  and  S_7 
REMARK    4  A    between atoms: O_19  and  C_8 
REMARK    5  A    between atoms: N_10  and  C_13 
REMARK    6  A    between atoms: C_20  and  N_14 
REMARK    7  A    between atoms: C_24  and  O_19 
ROOT
ATOM      1  C   UNL d   1       0.047   3.722  -0.360  0.00  0.00     0.097 C 
ATOM      2  C   UNL d   1       0.426   4.782   0.448  0.00  0.00     0.094 C 
ATOM      3  C   UNL d   1      -0.293   4.986   1.628  0.00  0.00     0.065 C 
ATOM      4  N   UNL d   1      -1.129   3.074  -0.160  0.00  0.00    -0.353 N 
ATOM      5  HN  UNL d   1      -1.410   2.319  -0.785  1.00  0.00     0.166 HD
ATOM      6  C   UNL d   1       1.430   5.709   0.041  0.00  0.00     0.103 C 
ATOM      7  N   UNL d   1       2.235   6.487  -0.286  0.00  0.00    -0.191 NA
ATOM      8  C   UNL d   1      -1.518   4.348   1.821  0.00  0.00     0.043 C 
ATOM      9  C   UNL d   1      -1.927   3.433   0.871  0.00  0.00     0.007 C 
ATOM     10  C   UNL d   1      -3.322   2.887   0.873  0.00  0.00     0.068 C 
ENDROOT
BRANCH   1  11
ATOM     11  S   UNL d   1       0.883   3.183  -1.824  0.00  0.00    -0.069 SA
BRANCH  11  12
ATOM     12  C   UNL d   1       2.555   2.618  -1.442  0.00  0.00     0.034 A 
ATOM     13  C   UNL d   1       3.182   1.789  -2.404  0.00  0.00     0.053 A 
ATOM     14  C   UNL d   1       4.575   1.613  -2.382  0.00  0.00     0.031 A 
ATOM     15  C   UNL d   1       5.341   2.179  -1.360  0.00  0.00     0.002 A 
ATOM     16  C   UNL d   1       4.718   2.896  -0.345  0.00  0.00     0.002 A 
ATOM     17  C   UNL d   1       3.336   3.111  -0.390  0.00  0.00     0.021 A 
BRANCH  13  18
ATOM     18  N   UNL d   1       2.352   1.046  -3.305  0.00  0.00    -0.307 N 
ATOM     19  C   UNL d   1       2.805   0.319  -4.380  0.00  0.00     0.325 C 
ATOM     20  N   UNL d   1       3.377   1.129  -5.330  0.00  0.00    -0.309 N 
ATOM     21  O   UNL d   1       2.654  -0.895  -4.430  0.00  0.00    -0.247 OA
ATOM     22  H   UNL d   1       3.219   2.118  -5.192  0.00  0.00     0.170 HD
ATOM     23  H   UNL d   1       1.579   0.609  -2.820  0.00  0.00     0.170 HD
BRANCH  20  24
ATOM     24  C   UNL d   1       4.135   0.741  -6.437  0.00  0.00     0.036 A 
ATOM     25  C   UNL d   1       3.947  -0.463  -7.114  0.00  0.00     0.029 A 
ATOM     26  C   UNL d   1       4.753  -0.773  -8.212  0.00  0.00     0.002 A 
ATOM     27  C   UNL d   1       5.777   0.093  -8.600  0.00  0.00     0.000 A 
ATOM     28  C   UNL d   1       5.975   1.289  -7.914  0.00  0.00     0.002 A 
ATOM     29  C   UNL d   1       5.135   1.625  -6.854  0.00  0.00     0.029 A 
ENDBRANCH  20  24
ENDBRANCH  13  18
ENDBRANCH  11  12
ENDBRANCH   1  11
BRANCH   3  30
ATOM     30  C   UNL d   1       0.213   5.824   2.732  0.00  0.00     0.295 C 
ATOM     31  O   UNL d   1      -0.500   6.393   3.540  0.00  0.00    -0.259 OA
BRANCH  30  32
ATOM     32  O   UNL d   1       1.563   5.682   2.786  0.00  0.00    -0.318 OA
BRANCH  32  33
ATOM     33  C   UNL d   1       2.233   6.258   3.913  0.00  0.00     0.174 C 
ATOM     34  C   UNL d   1       2.353   7.765   3.789  0.00  0.00     0.034 C 
ENDBRANCH  32  33
ENDBRANCH  30  32
ENDBRANCH   3  30
TORSDOF 7
