REMARK  2 active torsions:
REMARK  status: ('A' for Active; 'I' for Inactive)
REMARK       I    between atoms: N_2  and  C_1 
REMARK    1  A    between atoms: C_6  and  C_1 
REMARK    2  A    between atoms: C_3  and  N_2 
ROOT
ATOM      1  C   UNL d   1       1.135  -2.488  -0.182  0.00  0.00     0.118 C 
ATOM      2  C   UNL d   1       1.283  -2.863   1.286  0.00  0.00    -0.029 A 
ATOM      3  C   UNL d   1       1.372  -4.215   1.677  0.00  0.00    -0.050 A 
ATOM      4  C   UNL d   1       0.730  -3.632  -1.138  0.00  0.00     0.030 C 
ATOM      5  C   UNL d   1       0.228  -4.892  -0.438  0.00  0.00     0.007 C 
ATOM      6  C   UNL d   1       1.463  -1.871   2.266  0.00  0.00     0.010 A 
ATOM      7  C   UNL d   1       1.179  -5.320   0.673  0.00  0.00     0.039 C 
ATOM      8  C   UNL d   1       1.689  -4.544   3.005  0.00  0.00     0.007 A 
ATOM      9  C   UNL d   1       1.750  -2.209   3.590  0.00  0.00     0.001 A 
ATOM     10  C   UNL d   1       1.878  -3.544   3.956  0.00  0.00     0.001 A 
ENDROOT
BRANCH   1  11
ATOM     11  N   UNL d   1       0.405  -1.242  -0.412  0.00  0.00    -0.348 N 
ATOM     12  C   UNL d   1      -0.965  -1.116  -0.394  0.00  0.00     0.252 C 
ATOM     13  O   UNL d   1      -1.739  -2.050  -0.221  0.00  0.00    -0.268 OA
ATOM     14  H   UNL d   1       0.959  -0.444  -0.685  0.00  0.00     0.163 HD
BRANCH  12  15
ATOM     15  C   UNL d   1      -1.500   0.253  -0.663  0.00  0.00     0.032 A 
ATOM     16  C   UNL d   1      -2.709   0.375  -1.358  0.00  0.00     0.017 A 
ATOM     17  C   UNL d   1      -3.252   1.635  -1.618  0.00  0.00     0.001 A 
ATOM     18  C   UNL d   1      -2.593   2.783  -1.177  0.00  0.00     0.000 A 
ATOM     19  C   UNL d   1      -1.391   2.671  -0.477  0.00  0.00     0.001 A 
ATOM     20  C   UNL d   1      -0.841   1.411  -0.219  0.00  0.00     0.017 A 
ENDBRANCH  12  15
ENDBRANCH   1  11
TORSDOF 2
