REMARK  1 active torsions:
REMARK  status: ('A' for Active; 'I' for Inactive)
REMARK    1  A    between atoms: C_11  and  C_5 
ROOT
ATOM      1  N   UNL d   1      -0.294   0.702   0.025  0.00  0.00    -0.316 N 
ATOM      2  N   UNL d   1      -1.592  -1.118   0.032  0.00  0.00    -0.340 N 
ATOM      3  HN  UNL d   1      -1.910  -2.088   0.028  1.00  0.00     0.167 HD
ATOM      4  C   UNL d   1      -0.348  -0.686   0.037  0.00  0.00     0.111 A 
ATOM      5  C   UNL d   1      -2.374   0.016   0.035  0.00  0.00     0.060 A 
ATOM      6  C   UNL d   1      -1.590   1.150   0.024  0.00  0.00     0.128 A 
ATOM      7  C   UNL d   1       0.891   1.431   0.011  0.00  0.00     0.104 A 
ATOM      8  C   UNL d   1       0.894  -1.379   0.040  0.00  0.00     0.050 A 
ATOM      9  C   UNL d   1       2.070   0.779   0.013  0.00  0.00    -0.046 A 
ATOM     10  C   UNL d   1       2.050  -0.685   0.028  0.00  0.00     0.012 A 
ATOM     11  C   UNL d   1       3.399   1.466   0.002  0.00  0.00     0.049 C 
ENDROOT
BRANCH   5  12
ATOM     12  C   UNL d   1      -3.827  -0.012   0.004  0.00  0.00    -0.008 A 
ATOM     13  C   UNL d   1      -4.485  -1.132  -0.529  0.00  0.00     0.017 A 
ATOM     14  C   UNL d   1      -5.880  -1.166  -0.604  0.00  0.00     0.043 A 
ATOM     15  C   UNL d   1      -6.617  -0.087  -0.134  0.00  0.00     0.116 A 
ATOM     16  C   UNL d   1      -5.989   1.023   0.416  0.00  0.00     0.043 A 
ATOM     17  F   UNL d   1      -7.954  -0.116  -0.211  0.00  0.00    -0.206 F 
ATOM     18  C   UNL d   1      -4.593   1.061   0.487  0.00  0.00     0.017 A 
ENDBRANCH   5  12
TORSDOF 1
