REMARK  5 active torsions:
REMARK  status: ('A' for Active; 'I' for Inactive)
REMARK       I    between atoms: N_2  and  C_1 
REMARK       I    between atoms: N_4  and  C_1 
REMARK    1  A    between atoms: C_5  and  N_3 
REMARK    2  A    between atoms: C_13  and  N_4 
REMARK    3  A    between atoms: O_14  and  C_15 
REMARK    4  A    between atoms: C_16  and  O_14 
REMARK    5  A    between atoms: C_21  and  C_16 
ROOT
ATOM      1  C   UNL d   1       0.851  -0.217  -0.166  0.00  0.00     0.323 C 
ATOM      2  N   UNL d   1       2.209  -0.042   0.061  0.00  0.00    -0.331 N 
ATOM      3  N   UNL d   1       5.016   0.302   0.233  0.00  0.00    -0.364 N 
ATOM      4  N   UNL d   1       0.120  -0.658   0.905  0.00  0.00    -0.309 N 
ATOM      5  O   UNL d   1       0.373   0.012  -1.280  0.00  0.00    -0.247 OA
ATOM      6  C   UNL d   1       2.978   0.541  -1.053  0.00  0.00     0.147 C 
ATOM      7  C   UNL d   1       2.892   0.022   1.377  0.00  0.00     0.147 C 
ATOM      8  C   UNL d   1       4.425   0.037  -1.084  0.00  0.00     0.144 C 
ATOM      9  C   UNL d   1       4.365  -0.445   1.309  0.00  0.00     0.144 C 
ATOM     10  H   UNL d   1       0.608  -0.818   1.765  0.00  0.00     0.170 HD
ENDROOT
BRANCH   4  11
ATOM     11  C   UNL d   1      -1.270  -0.881   0.959  0.00  0.00     0.036 A 
ATOM     12  C   UNL d   1      -2.132  -0.752  -0.132  0.00  0.00     0.032 A 
ATOM     13  C   UNL d   1      -3.510  -0.907   0.033  0.00  0.00     0.039 A 
ATOM     14  C   UNL d   1      -4.039  -1.182   1.291  0.00  0.00     0.069 A 
ATOM     15  C   UNL d   1      -3.181  -1.392   2.369  0.00  0.00     0.039 A 
ATOM     16  C   UNL d   1      -1.803  -1.235   2.203  0.00  0.00     0.032 A 
BRANCH  14  17
ATOM     17  O   UNL d   1      -5.404  -1.222   1.365  0.00  0.00    -0.347 OA
BRANCH  17  18
ATOM     18  C   UNL d   1      -5.933  -0.825   2.632  0.00  0.00     0.214 C 
BRANCH  18  19
ATOM     19  C   UNL d   1      -7.317  -0.259   2.447  0.00  0.00    -0.034 A 
ATOM     20  C   UNL d   1      -8.415  -0.829   3.105  0.00  0.00     0.009 A 
ATOM     21  C   UNL d   1      -9.682  -0.260   2.985  0.00  0.00     0.001 A 
ATOM     22  C   UNL d   1      -9.865   0.882   2.207  0.00  0.00     0.000 A 
ATOM     23  C   UNL d   1      -8.782   1.454   1.542  0.00  0.00     0.001 A 
ATOM     24  C   UNL d   1      -7.513   0.886   1.659  0.00  0.00     0.009 A 
ENDBRANCH  18  19
ENDBRANCH  17  18
ENDBRANCH  14  17
ENDBRANCH   4  11
BRANCH   3  25
ATOM     25  C   UNL d   1       6.385   0.491   0.288  0.00  0.00     0.102 A 
ATOM     26  N   UNL d   1       7.146  -0.285   1.087  0.00  0.00    -0.352 N 
ATOM     27  C   UNL d   1       8.468  -0.002   1.160  0.00  0.00     0.089 A 
ATOM     28  HN  UNL d   1       6.740  -1.056   1.617  1.00  0.00     0.166 HD
ATOM     29  C   UNL d   1       9.079   1.046   0.494  0.00  0.00     0.017 A 
ATOM     30  C   UNL d   1       8.292   1.850  -0.310  0.00  0.00     0.005 A 
ATOM     31  C   UNL d   1       6.936   1.562  -0.417  0.00  0.00     0.048 A 
ENDBRANCH   3  25
TORSDOF 5
