REMARK  5 active torsions:
REMARK  status: ('A' for Active; 'I' for Inactive)
REMARK       I    between atoms: N_2  and  C_1 
REMARK    1  A    between atoms: C_3  and  C_1 
REMARK    2  A    between atoms: C_6  and  N_2 
REMARK    3  A    between atoms: C_7  and  C_4 
REMARK    4  A    between atoms: N_5  and  C_8 
REMARK    5  A    between atoms: O_12  and  C_7 
ROOT
ATOM      1  C   UNL d   1       0.415  -0.921   0.380  0.00  0.00     0.236 C 
ATOM      2  N   UNL d   1      -0.022  -0.100   1.411  0.00  0.00    -0.223 NA
ATOM      3  O   UNL d   1       1.480  -1.527   0.403  0.00  0.00    -0.274 OA
ATOM      4  H   UNL d   1      -1.010  -0.231   1.622  0.00  0.00     0.137 HD
ENDROOT
BRANCH   2   5
ATOM      5  C   UNL d   1       0.767   0.021   2.586  0.00  0.00     0.042 A 
ATOM      6  C   UNL d   1       1.981   0.757   2.655  0.00  0.00     0.052 A 
ATOM      7  C   UNL d   1       2.652   0.699   3.897  0.00  0.00     0.031 A 
ATOM      8  C   UNL d   1       2.184  -0.053   4.982  0.00  0.00     0.002 A 
ATOM      9  C   UNL d   1       0.999  -0.760   4.878  0.00  0.00     0.002 A 
ATOM     10  C   UNL d   1       0.277  -0.700   3.693  0.00  0.00     0.026 A 
BRANCH   6  11
ATOM     11  N   UNL d   1       2.525   1.484   1.603  0.00  0.00    -0.375 N 
ATOM     12  C   UNL d   1       1.710   2.295   0.686  0.00  0.00     0.149 C 
ATOM     13  C   UNL d   1       2.297   2.164  -0.730  0.00  0.00     0.187 C 
ATOM     14  O   UNL d   1       3.665   2.611  -0.769  0.00  0.00    -0.388 OA
ATOM     15  C   UNL d   1       4.464   1.819   0.127  0.00  0.00     0.187 C 
ATOM     16  C   UNL d   1       3.946   1.878   1.575  0.00  0.00     0.149 C 
ENDBRANCH   6  11
ENDBRANCH   2   5
BRANCH   1  17
ATOM     17  C   UNL d   1      -0.461  -1.079  -0.840  0.00  0.00     0.043 A 
ATOM     18  C   UNL d   1      -1.800  -0.683  -1.020  0.00  0.00     0.052 A 
ATOM     19  C   UNL d   1      -2.443  -0.903  -2.262  0.00  0.00     0.019 A 
ATOM     20  C   UNL d   1      -1.760  -1.478  -3.331  0.00  0.00     0.001 A 
ATOM     21  C   UNL d   1      -0.440  -1.869  -3.168  0.00  0.00     0.001 A 
ATOM     22  C   UNL d   1       0.194  -1.678  -1.939  0.00  0.00     0.017 A 
BRANCH  18  23
ATOM     23  C   UNL d   1      -2.643  -0.131   0.063  0.00  0.00     0.177 C 
ATOM     24  O   UNL d   1      -2.588  -0.541   1.209  0.00  0.00    -0.646 OA
BRANCH  23  25
ATOM     25  O   UNL d   1      -3.451   0.878  -0.318  0.00  0.00    -0.773 OA
ATOM     26  H   UNL d   1      -3.339   1.204  -1.231  0.00  0.00     0.167 HD
ENDBRANCH  23  25
ENDBRANCH  18  23
ENDBRANCH   1  17
TORSDOF 5
