REMARK  9 active torsions:
REMARK  status: ('A' for Active; 'I' for Inactive)
REMARK    1  A    between atoms: S_10  and  C_2 
REMARK    2  A    between atoms: C_12  and  C_3 
REMARK    3  A    between atoms: C_8  and  O_14 
REMARK       I    between atoms: C_9  and  N_11 
REMARK    4  A    between atoms: O_13  and  C_9 
REMARK    5  A    between atoms: C_22  and  S_10 
REMARK    6  A    between atoms: N_11  and  C_12 
REMARK    7  A    between atoms: C_16  and  O_13 
REMARK    8  A    between atoms: O_14  and  C_21 
REMARK    9  A    between atoms: C_23  and  C_22 
ROOT
ATOM      1  N   UNL d   1       0.871   0.273  -0.085  0.00  0.00    -0.318 N 
ATOM      2  C   UNL d   1       0.023   1.346  -0.130  0.00  0.00     0.162 A 
ATOM      3  C   UNL d   1       0.059  -0.843  -0.105  0.00  0.00     0.117 A 
ATOM      4  N   UNL d   1      -1.220   0.927  -0.138  0.00  0.00    -0.278 N 
ATOM      5  HN  UNL d   1      -2.053   1.515  -0.150  1.00  0.00     0.189 HD
ATOM      6  N   UNL d   1      -1.200  -0.446  -0.128  0.00  0.00    -0.285 N 
ATOM      7  HN  UNL d   1      -2.019  -1.054  -0.136  1.00  0.00     0.188 HD
ATOM      8  C   UNL d   1       2.308   0.272   0.008  0.00  0.00     0.160 C 
ENDROOT
BRANCH   2   9
ATOM      9  S   UNL d   1       0.529   3.000  -0.196  0.00  0.00    -0.088 SA
BRANCH   9  10
ATOM     10  C   UNL d   1      -0.933   3.821   0.513  0.00  0.00     0.121 C 
BRANCH  10  11
ATOM     11  C   UNL d   1      -0.832   5.327   0.428  0.00  0.00    -0.048 A 
ATOM     12  C   UNL d   1      -1.438   6.023  -0.625  0.00  0.00     0.011 A 
ATOM     13  C   UNL d   1      -1.354   7.417  -0.692  0.00  0.00     0.037 A 
ATOM     14  C   UNL d   1      -0.669   8.143   0.287  0.00  0.00     0.078 A 
ATOM     15  C   UNL d   1      -0.023   7.454   1.310  0.00  0.00     0.037 A 
ATOM     16  C   UNL d   1      -0.118   6.057   1.389  0.00  0.00     0.011 A 
BRANCH  14  17
ATOM     17  O   UNL d   1      -0.667   9.489   0.091  0.00  0.00    -0.255 OA
BRANCH  17  18
ATOM     18  C   UNL d   1      -0.552  10.369   1.200  0.00  0.00     0.530 C 
ATOM     19  F   UNL d   1      -0.676   9.771   2.402  0.00  0.00    -0.144 F 
ATOM     20  F   UNL d   1       0.639  11.004   1.149  0.00  0.00    -0.144 F 
ATOM     21  F   UNL d   1      -1.527  11.303   1.104  0.00  0.00    -0.144 F 
ENDBRANCH  17  18
ENDBRANCH  14  17
ENDBRANCH  10  11
ENDBRANCH   9  10
ENDBRANCH   2   9
BRANCH   3  22
ATOM     22  C   UNL d   1       0.515  -2.259  -0.038  0.00  0.00     0.203 C 
BRANCH  22  23
ATOM     23  N   UNL d   1       1.161  -2.649  -1.269  0.00  0.00    -0.330 N 
ATOM     24  C   UNL d   1       2.497  -2.893  -1.357  0.00  0.00     0.361 C 
ATOM     25  O   UNL d   1       3.284  -2.742  -0.430  0.00  0.00    -0.238 OA
ATOM     26  H   UNL d   1       0.603  -2.842  -2.090  0.00  0.00     0.165 HD
BRANCH  24  27
ATOM     27  O   UNL d   1       2.806  -3.291  -2.606  0.00  0.00    -0.294 OA
BRANCH  27  28
ATOM     28  C   UNL d   1       4.190  -3.593  -2.957  0.00  0.00     0.061 C 
ATOM     29  C   UNL d   1       4.769  -4.702  -2.065  0.00  0.00     0.046 C 
ATOM     30  C   UNL d   1       4.147  -4.088  -4.414  0.00  0.00     0.046 C 
ATOM     31  C   UNL d   1       5.047  -2.322  -2.901  0.00  0.00     0.046 C 
ENDBRANCH  27  28
ENDBRANCH  24  27
ENDBRANCH  22  23
ENDBRANCH   3  22
TORSDOF 9
