REMARK  6 active torsions:
REMARK  status: ('A' for Active; 'I' for Inactive)
REMARK    1  A    between atoms: C_12  and  C_1 
REMARK    2  A    between atoms: N_16  and  C_3 
REMARK    3  A    between atoms: N_10  and  C_7 
REMARK    4  A    between atoms: O_19  and  C_12 
REMARK    5  A    between atoms: C_18  and  N_14 
REMARK    6  A    between atoms: C_22  and  O_19 
ROOT
ATOM      1  C   UNL d   1      -2.418  -0.591  -0.021  0.00  0.00     0.109 A 
ATOM      2  C   UNL d   1      -0.319   0.548  -0.004  0.00  0.00     0.034 A 
ATOM      3  C   UNL d   1      -1.779   0.644  -0.002  0.00  0.00     0.063 A 
ATOM      4  C   UNL d   1       0.031  -0.801  -0.036  0.00  0.00     0.088 A 
ATOM      5  S   UNL d   1      -1.282  -1.867  -0.066  0.00  0.00    -0.063 SA
ATOM      6  C   UNL d   1       0.785   1.473   0.031  0.00  0.00    -0.017 A 
ATOM      7  C   UNL d   1       2.113   0.941   0.060  0.00  0.00     0.077 A 
ATOM      8  N   UNL d   1       1.262  -1.334  -0.036  0.00  0.00    -0.351 N 
ATOM      9  HN  UNL d   1       1.419  -2.340  -0.084  1.00  0.00     0.166 HD
ATOM     10  C   UNL d   1       2.276  -0.453   0.031  0.00  0.00     0.035 A 
ATOM     11  C   UNL d   1       0.662   2.977   0.040  0.00  0.00     0.052 C 
ATOM     12  C   UNL d   1       3.638  -1.090   0.072  0.00  0.00     0.070 C 
ENDROOT
BRANCH   7  13
ATOM     13  N   UNL d   1       3.223   1.815   0.222  0.00  0.00    -0.298 N 
ATOM     14  N   UNL d   1       4.030   1.701  -0.725  0.00  0.00    -0.300 N 
ATOM     15  HN  UNL d   1       3.836   1.130  -1.547  1.00  0.00     0.187 HD
ATOM     16  HN  UNL d   1       3.344   2.453   1.008  1.00  0.00     0.187 HD
BRANCH  14  17
ATOM     17  C   UNL d   1       5.235   2.427  -0.566  0.00  0.00     0.048 A 
ATOM     18  C   UNL d   1       5.523   3.302   0.493  0.00  0.00     0.031 A 
ATOM     19  C   UNL d   1       6.733   4.009   0.534  0.00  0.00     0.002 A 
ATOM     20  C   UNL d   1       7.677   3.843  -0.478  0.00  0.00     0.000 A 
ATOM     21  C   UNL d   1       7.422   2.957  -1.519  0.00  0.00     0.002 A 
ATOM     22  C   UNL d   1       6.214   2.255  -1.556  0.00  0.00     0.031 A 
ENDBRANCH  14  17
ENDBRANCH   7  13
BRANCH   3  23
ATOM     23  N   UNL d   1      -2.485   1.799   0.043  0.00  0.00    -0.397 N 
ATOM     24  H   UNL d   1      -2.096   2.724  -0.068  0.00  0.00     0.156 HD
ATOM     25  H   UNL d   1      -3.503   1.789  -0.028  0.00  0.00     0.156 HD
ENDBRANCH   3  23
BRANCH   1  26
ATOM     26  C   UNL d   1      -3.823  -0.974  -0.014  0.00  0.00     0.302 C 
ATOM     27  O   UNL d   1      -4.256  -2.123   0.040  0.00  0.00    -0.259 OA
BRANCH  26  28
ATOM     28  O   UNL d   1      -4.638   0.125  -0.079  0.00  0.00    -0.317 OA
BRANCH  28  29
ATOM     29  C   UNL d   1      -6.050  -0.153  -0.078  0.00  0.00     0.174 C 
ATOM     30  C   UNL d   1      -6.530  -0.459  -1.485  0.00  0.00     0.034 C 
ENDBRANCH  28  29
ENDBRANCH  26  28
ENDBRANCH   1  26
TORSDOF 6
