REMARK  9 active torsions:
REMARK  status: ('A' for Active; 'I' for Inactive)
REMARK    1  A    between atoms: C_10  and  N_1 
REMARK    2  A    between atoms: C_7  and  C_2 
REMARK    3  A    between atoms: C_11  and  N_5 
REMARK       I    between atoms: N_8  and  C_7 
REMARK       I    between atoms: C_9  and  N_8 
REMARK    4  A    between atoms: O_21  and  C_9 
REMARK    5  A    between atoms: C_13  and  C_10 
REMARK    6  A    between atoms: C_20  and  C_11 
REMARK    7  A    between atoms: O_22  and  C_13 
REMARK    8  A    between atoms: C_24  and  O_21 
REMARK    9  A    between atoms: C_25  and  O_22 
ROOT
ATOM      1  N   UNL d   1      -0.811   1.150   0.192  0.00  0.00    -0.256 N 
ATOM      2  C   UNL d   1       1.354   0.049   0.038  0.00  0.00     0.116 C 
ATOM      3  C   UNL d   1      -1.472  -0.065   0.248  0.00  0.00     0.332 C 
ATOM      4  C   UNL d   1       0.556   1.257   0.337  0.00  0.00     0.269 C 
ATOM      5  N   UNL d   1      -0.677  -1.188   0.041  0.00  0.00    -0.303 N 
ATOM      6  C   UNL d   1       0.688  -1.106  -0.123  0.00  0.00     0.118 C 
ATOM      7  O   UNL d   1      -2.675  -0.145   0.498  0.00  0.00    -0.246 OA
ATOM      8  O   UNL d   1       1.117   2.294   0.695  0.00  0.00    -0.267 OA
ENDROOT
BRANCH   2   9
ATOM      9  C   UNL d   1       2.848   0.046  -0.059  0.00  0.00     0.266 C 
ATOM     10  N   UNL d   1       3.450   1.177   0.447  0.00  0.00    -0.269 N 
ATOM     11  C   UNL d   1       4.790   1.392   0.554  0.00  0.00     0.367 C 
ATOM     12  H   UNL d   1       2.877   1.911   0.852  0.00  0.00     0.174 HD
ATOM     13  O   UNL d   1       5.693   0.719   0.081  0.00  0.00    -0.238 OA
ATOM     14  O   UNL d   1       3.434  -0.914  -0.539  0.00  0.00    -0.267 OA
BRANCH  11  15
ATOM     15  O   UNL d   1       4.989   2.534   1.270  0.00  0.00    -0.304 OA
BRANCH  15  16
ATOM     16  C   UNL d   1       6.357   2.944   1.429  0.00  0.00     0.176 C 
ATOM     17  C   UNL d   1       7.012   2.212   2.586  0.00  0.00     0.034 C 
ENDBRANCH  15  16
ENDBRANCH  11  15
ENDBRANCH   2   9
BRANCH   1  18
ATOM     18  C   UNL d   1      -1.595   2.381   0.252  0.00  0.00     0.248 C 
BRANCH  18  19
ATOM     19  C   UNL d   1      -1.493   3.244  -1.003  0.00  0.00     0.277 C 
ATOM     20  O   UNL d   1      -2.083   4.313  -1.118  0.00  0.00    -0.263 OA
BRANCH  19  21
ATOM     21  O   UNL d   1      -0.730   2.675  -1.978  0.00  0.00    -0.321 OA
BRANCH  21  22
ATOM     22  C   UNL d   1      -0.760   3.324  -3.261  0.00  0.00     0.174 C 
ATOM     23  C   UNL d   1      -1.851   2.679  -4.095  0.00  0.00     0.034 C 
ENDBRANCH  21  22
ENDBRANCH  19  21
ENDBRANCH  18  19
ENDBRANCH   1  18
BRANCH   5  24
ATOM     24  C   UNL d   1      -1.337  -2.502  -0.033  0.00  0.00     0.190 C 
BRANCH  24  25
ATOM     25  C   UNL d   1      -1.994  -2.745  -1.377  0.00  0.00     0.027 A 
ATOM     26  N   UNL d   1      -1.254  -3.372  -2.326  0.00  0.00    -0.368 N 
ATOM     27  C   UNL d   1      -1.815  -3.524  -3.548  0.00  0.00     0.088 A 
ATOM     28  HN  UNL d   1      -0.314  -3.714  -2.127  1.00  0.00     0.165 HD
ATOM     29  C   UNL d   1      -3.078  -3.065  -3.881  0.00  0.00     0.017 A 
ATOM     30  C   UNL d   1      -3.826  -2.434  -2.900  0.00  0.00     0.003 A 
ATOM     31  C   UNL d   1      -3.284  -2.279  -1.627  0.00  0.00     0.027 A 
ENDBRANCH  24  25
ENDBRANCH   5  24
TORSDOF 9
