REMARK  5 active torsions:
REMARK  status: ('A' for Active; 'I' for Inactive)
REMARK    1  A    between atoms: C_2  and  C_1 
REMARK    2  A    between atoms: C_3  and  C_1 
REMARK    3  A    between atoms: C_4  and  C_2 
REMARK    4  A    between atoms: O_17  and  N_5 
REMARK    5  A    between atoms: O_18  and  N_7 
ROOT
ATOM      1  C   UNL d   1       1.050   0.186  -0.094  0.00  0.00     0.119 C 
ATOM      2  N   UNL d   1       0.451   0.472  -1.223  0.00  0.00    -0.264 N 
ATOM      3  HN  UNL d   1      -0.443   0.960  -1.273  1.00  0.00     0.194 HD
ENDROOT
BRANCH   1   4
ATOM      4  C   UNL d   1       0.323   0.563   1.195  0.00  0.00     0.119 C 
ATOM      5  N   UNL d   1       1.028   1.134   2.136  0.00  0.00    -0.264 N 
ATOM      6  HN  UNL d   1       2.015   1.368   2.031  1.00  0.00     0.194 HD
BRANCH   4   7
ATOM      7  C   UNL d   1      -1.105   0.311   1.217  0.00  0.00     0.105 A 
ATOM      8  O   UNL d   1      -1.616  -0.721   0.468  0.00  0.00    -0.320 OA
ATOM      9  C   UNL d   1      -2.964  -0.707   0.614  0.00  0.00     0.142 A 
ATOM     10  C   UNL d   1      -3.349   0.309   1.455  0.00  0.00     0.027 A 
ATOM     11  C   UNL d   1      -2.155   0.957   1.850  0.00  0.00     0.041 A 
ENDBRANCH   4   7
BRANCH   5  12
ATOM     12  O   UNL d   1       0.297   1.394   3.301  0.00  0.00    -0.289 OA
ATOM     13  H   UNL d   1       0.993   1.662   3.930  0.00  0.00     0.244 HD
ENDBRANCH   5  12
ENDBRANCH   1   4
BRANCH   1  14
ATOM     14  C   UNL d   1       2.371  -0.391   0.064  0.00  0.00     0.105 A 
ATOM     15  O   UNL d   1       2.663  -1.082   1.214  0.00  0.00    -0.320 OA
ATOM     16  C   UNL d   1       3.964  -1.463   1.146  0.00  0.00     0.142 A 
ATOM     17  C   UNL d   1       4.527  -1.047  -0.035  0.00  0.00     0.027 A 
ATOM     18  C   UNL d   1       3.503  -0.368  -0.736  0.00  0.00     0.041 A 
ENDBRANCH   1  14
BRANCH   2  19
ATOM     19  O   UNL d   1       1.156   0.043  -2.352  0.00  0.00    -0.289 OA
ATOM     20  H   UNL d   1       0.514   0.197  -3.071  0.00  0.00     0.244 HD
ENDBRANCH   2  19
TORSDOF 5
