REMARK  2 active torsions:
REMARK  status: ('A' for Active; 'I' for Inactive)
REMARK       I    between atoms: C_3  and  N_1 
REMARK    1  A    between atoms: C_6  and  C_3 
REMARK    2  A    between atoms: C_10  and  N_8 
ROOT
ATOM      1  N   UNL d   1      -2.537   0.185  -0.123  0.00  0.00    -0.279 N 
ATOM      2  C   UNL d   1      -2.148  -0.713  -1.140  0.00  0.00     0.155 C 
ATOM      3  C   UNL d   1      -3.477  -0.074   0.911  0.00  0.00     0.267 C 
ATOM      4  S   UNL d   1      -0.812  -0.076  -2.079  0.00  0.00    -0.056 SA
ATOM      5  C   UNL d   1      -1.962   1.592  -0.277  0.00  0.00     0.075 C 
ATOM      6  C   UNL d   1      -0.763   1.416  -1.231  0.00  0.00     0.005 C 
ATOM      7  N   UNL d   1      -2.698  -1.870  -1.332  0.00  0.00    -0.336 N 
ATOM      8  HN  UNL d   1      -3.542  -2.090  -0.803  1.00  0.00     0.168 HD
ATOM      9  O   UNL d   1      -3.731   0.736   1.793  0.00  0.00    -0.267 OA
ATOM     10  C   UNL d   1       0.221   2.289  -1.513  0.00  0.00     0.029 C 
ATOM     11  C   UNL d   1      -2.954   2.493  -1.062  0.00  0.00     0.037 C 
ATOM     12  C   UNL d   1      -1.478   2.270   1.046  0.00  0.00     0.037 C 
ATOM     13  C   UNL d   1      -4.031   3.141  -0.211  0.00  0.00     0.003 C 
ATOM     14  C   UNL d   1      -2.449   3.202   1.788  0.00  0.00     0.003 C 
ATOM     15  C   UNL d   1      -3.421   3.972   0.905  0.00  0.00     0.000 C 
ENDROOT
BRANCH   3  16
ATOM     16  C   UNL d   1      -4.252  -1.319   1.040  0.00  0.00     0.109 C 
ATOM     17  C   UNL d   1      -3.679  -2.587   1.105  0.00  0.00     0.135 C 
ATOM     18  F   UNL d   1      -2.345  -2.738   1.095  0.00  0.00    -0.205 F 
ATOM     19  C   UNL d   1      -4.471  -3.732   1.208  0.00  0.00     0.043 C 
ATOM     20  C   UNL d   1      -5.850  -3.618   1.396  0.00  0.00     0.006 C 
ATOM     21  C   UNL d   1      -6.421  -2.352   1.484  0.00  0.00     0.043 C 
ATOM     22  C   UNL d   1      -5.628  -1.221   1.290  0.00  0.00     0.135 C 
ATOM     23  F   UNL d   1      -6.230  -0.024   1.373  0.00  0.00    -0.205 F 
ENDBRANCH   3  16
BRANCH   7  24
ATOM     24  C   UNL d   1      -2.204  -2.847  -2.226  0.00  0.00     0.041 A 
ATOM     25  C   UNL d   1      -3.080  -3.543  -3.082  0.00  0.00    -0.013 A 
ATOM     26  C   UNL d   1      -2.550  -4.530  -3.942  0.00  0.00     0.042 A 
ATOM     27  C   UNL d   1      -4.566  -3.303  -3.033  0.00  0.00     0.052 C 
ATOM     28 CL   UNL d   1      -3.562  -5.447  -5.005  0.00  0.00    -0.084 Cl
ATOM     29  C   UNL d   1      -1.186  -4.827  -3.950  0.00  0.00     0.024 A 
ATOM     30  C   UNL d   1      -0.336  -4.194  -3.055  0.00  0.00     0.004 A 
ATOM     31  C   UNL d   1      -0.855  -3.246  -2.176  0.00  0.00     0.030 A 
ENDBRANCH   7  24
TORSDOF 2
