REMARK  5 active torsions:
REMARK  status: ('A' for Active; 'I' for Inactive)
REMARK    1  A    between atoms: C_6  and  C_1 
REMARK    2  A    between atoms: C_7  and  C_8 
REMARK    3  A    between atoms: O_9  and  C_7 
REMARK    4  A    between atoms: C_11  and  O_9 
REMARK    5  A    between atoms: O_19  and  C_12 
ROOT
ATOM      1  C   UNL d   1       3.566   0.352   0.455  0.00  0.00     0.025 C 
ATOM      2  C   UNL d   1       4.330   1.368   0.030  0.00  0.00     0.084 C 
ENDROOT
BRANCH   2   3
ATOM      3  C   UNL d   1       5.806   1.434   0.035  0.00  0.00     0.288 C 
ATOM      4  O   UNL d   1       6.375   2.302  -0.614  0.00  0.00    -0.260 OA
BRANCH   3   5
ATOM      5  O   UNL d   1       6.389   0.438   0.798  0.00  0.00    -0.276 OA
BRANCH   5   6
ATOM      6  C   UNL d   1       7.798   0.331   0.799  0.00  0.00     0.079 A 
ATOM      7  C   UNL d   1       8.651   1.434   0.843  0.00  0.00     0.040 A 
ATOM      8  C   UNL d   1      10.038   1.252   0.786  0.00  0.00     0.039 A 
ATOM      9  C   UNL d   1      10.576  -0.034   0.719  0.00  0.00     0.068 A 
ATOM     10  C   UNL d   1       9.714  -1.136   0.746  0.00  0.00     0.039 A 
ATOM     11  C   UNL d   1       8.327  -0.959   0.786  0.00  0.00     0.040 A 
BRANCH   9  12
ATOM     12  O   UNL d   1      11.906  -0.343   0.633  0.00  0.00    -0.356 OA
ATOM     13  C   UNL d   1      12.802   0.740   0.404  0.00  0.00     0.210 C 
ENDBRANCH   9  12
ENDBRANCH   5   6
ENDBRANCH   3   5
ENDBRANCH   2   3
BRANCH   1  14
ATOM     14  C   UNL d   1       2.143   0.385   0.299  0.00  0.00     0.012 A 
ATOM     15  S   UNL d   1       1.190  -0.240   1.588  0.00  0.00    -0.089 SA
ATOM     16  C   UNL d   1      -0.295   0.117   0.811  0.00  0.00     0.016 A 
ATOM     17  C   UNL d   1      -1.594  -0.110   1.312  0.00  0.00     0.019 A 
ATOM     18  C   UNL d   1      -0.084   0.680  -0.445  0.00  0.00    -0.012 A 
ATOM     19  C   UNL d   1      -2.698   0.242   0.529  0.00  0.00     0.001 A 
ATOM     20  C   UNL d   1      -2.520   0.802  -0.724  0.00  0.00     0.001 A 
ATOM     21  C   UNL d   1      -1.229   1.021  -1.216  0.00  0.00     0.013 A 
ATOM     22  C   UNL d   1       1.331   0.812  -0.752  0.00  0.00    -0.033 A 
ATOM     23  C   UNL d   1       1.788   1.345  -2.079  0.00  0.00     0.050 C 
ENDBRANCH   1  14
TORSDOF 5
