REMARK  3 active torsions:
REMARK  status: ('A' for Active; 'I' for Inactive)
REMARK       I    between atoms: N_2  and  C_1 
REMARK    1  A    between atoms: C_5  and  C_1 
REMARK    2  A    between atoms: N_3  and  N_2 
REMARK    3  A    between atoms: C_6  and  N_3 
ROOT
ATOM      1  N   UNL d   1       0.705   2.098   1.474  0.00  0.00    -0.203 NA
ATOM      2  H   UNL d   1       0.959   2.849   0.831  0.00  0.00     0.153 HD
ENDROOT
BRANCH   1   3
ATOM      3  N   UNL d   1       0.122   0.996   0.839  0.00  0.00    -0.287 N 
ATOM      4  C   UNL d   1       0.941   0.135   0.126  0.00  0.00     0.236 C 
ATOM      5  O   UNL d   1       2.151   0.346  -0.020  0.00  0.00    -0.272 OA
ATOM      6  H   UNL d   1      -0.883   0.886   0.919  0.00  0.00     0.184 HD
BRANCH   4   7
ATOM      7  C   UNL d   1       0.240  -1.103  -0.482  0.00  0.00     0.079 C 
ATOM      8  C   UNL d   1       0.271  -1.207  -2.032  0.00  0.00     0.014 C 
ATOM      9  C   UNL d   1      -1.098  -1.901  -1.959  0.00  0.00     0.002 C 
ATOM     10  C   UNL d   1      -1.305  -1.208  -0.599  0.00  0.00     0.014 C 
ENDBRANCH   4   7
ENDBRANCH   1   3
BRANCH   1  11
ATOM     11  C   UNL d   1       0.077   2.502   2.667  0.00  0.00     0.027 A 
ATOM     12  C   UNL d   1      -0.483   1.576   3.560  0.00  0.00     0.027 A 
ATOM     13  C   UNL d   1      -1.057   1.992   4.765  0.00  0.00     0.026 A 
ATOM     14  C   UNL d   1      -1.055   3.342   5.099  0.00  0.00     0.034 A 
ATOM     15  C   UNL d   1      -0.469   4.274   4.247  0.00  0.00     0.026 A 
ATOM     16 CL   UNL d   1      -1.765   3.857   6.579  0.00  0.00    -0.084 Cl
ATOM     17  C   UNL d   1       0.106   3.852   3.044  0.00  0.00     0.027 A 
ENDBRANCH   1  11
TORSDOF 3
