REMARK  6 active torsions:
REMARK  status: ('A' for Active; 'I' for Inactive)
REMARK    1  A    between atoms: N_3  and  C_1 
REMARK    2  A    between atoms: N_4  and  C_1 
REMARK    3  A    between atoms: C_2  and  N_3 
REMARK    4  A    between atoms: C_8  and  N_4 
REMARK    5  A    between atoms: C_17  and  C_6 
REMARK    6  A    between atoms: C_18  and  C_7 
ROOT
ATOM      1  N   UNL d   1       0.588  -0.845   0.755  0.00  0.00    -0.332 N 
ATOM      2  H   UNL d   1      -0.410  -0.956   0.619  0.00  0.00     0.168 HD
ENDROOT
BRANCH   1   3
ATOM      3  C   UNL d   1       1.159  -1.761   1.684  0.00  0.00     0.046 A 
ATOM      4  C   UNL d   1       2.151  -1.426   2.643  0.00  0.00    -0.031 A 
ATOM      5  C   UNL d   1       2.558  -2.417   3.563  0.00  0.00     0.009 A 
ATOM      6  C   UNL d   1       1.967  -3.679   3.593  0.00  0.00     0.001 A 
ATOM      7  C   UNL d   1       0.980  -3.996   2.678  0.00  0.00     0.009 A 
ATOM      8  C   UNL d   1       0.575  -3.063   1.706  0.00  0.00    -0.031 A 
BRANCH   4   9
ATOM      9  C   UNL d   1       2.793  -0.063   2.754  0.00  0.00     0.036 C 
ATOM     10  C   UNL d   1       3.330   0.404   4.105  0.00  0.00     0.010 C 
ENDBRANCH   4   9
BRANCH   8  11
ATOM     11  C   UNL d   1      -0.454  -3.534   0.693  0.00  0.00     0.036 C 
ATOM     12  C   UNL d   1      -1.886  -3.366   1.179  0.00  0.00     0.010 C 
ENDBRANCH   8  11
ENDBRANCH   1   3
BRANCH   1  13
ATOM     13  C   UNL d   1       1.063   0.307   0.195  0.00  0.00     0.176 C 
ATOM     14  S   UNL d   1      -0.065   1.478  -0.217  0.00  0.00    -0.041 SA
BRANCH  13  15
ATOM     15  N   UNL d   1       2.395   0.311  -0.136  0.00  0.00    -0.333 N 
ATOM     16  H   UNL d   1       2.756  -0.602  -0.389  0.00  0.00     0.168 HD
BRANCH  15  17
ATOM     17  C   UNL d   1       3.264   1.409  -0.313  0.00  0.00     0.034 A 
ATOM     18  C   UNL d   1       3.110   2.606   0.392  0.00  0.00     0.030 A 
ATOM     19  C   UNL d   1       4.062   3.624   0.278  0.00  0.00     0.009 A 
ATOM     20  C   UNL d   1       5.166   3.472  -0.565  0.00  0.00    -0.062 A 
ATOM     21  C   UNL d   1       5.323   2.271  -1.265  0.00  0.00     0.009 A 
ATOM     22  C   UNL d   1       6.167   4.582  -0.689  0.00  0.00     0.048 C 
ATOM     23  C   UNL d   1       4.388   1.239  -1.124  0.00  0.00     0.030 A 
ENDBRANCH  15  17
ENDBRANCH  13  15
ENDBRANCH   1  13
TORSDOF 6
