REMARK  3 active torsions:
REMARK  status: ('A' for Active; 'I' for Inactive)
REMARK    1  A    between atoms: C_7  and  C_3 
REMARK    2  A    between atoms: C_8  and  C_4 
REMARK    3  A    between atoms: C_9  and  C_6 
ROOT
ATOM      1  N   UNL d   1      -1.170  -0.002   0.098  0.00  0.00    -0.339 N 
ATOM      2  HN  UNL d   1      -2.187   0.041   0.165  1.00  0.00     0.167 HD
ATOM      3  C   UNL d   1      -0.390  -1.140   0.092  0.00  0.00     0.072 A 
ATOM      4  C   UNL d   1       0.957  -0.818  -0.023  0.00  0.00     0.072 A 
ATOM      5  N   UNL d   1       0.949   0.561  -0.057  0.00  0.00    -0.339 N 
ATOM      6  C   UNL d   1      -0.344   1.021   0.000  0.00  0.00     0.116 A 
ATOM      7  H   UNL d   1       1.767   1.147  -0.122  0.00  0.00     0.167 HD
ENDROOT
BRANCH   3   8
ATOM      8  C   UNL d   1      -0.990  -2.467   0.163  0.00  0.00    -0.007 A 
ATOM      9  C   UNL d   1      -2.191  -2.714  -0.518  0.00  0.00     0.015 A 
ATOM     10  C   UNL d   1      -2.755  -3.995  -0.529  0.00  0.00     0.024 A 
ATOM     11  C   UNL d   1      -2.119  -5.034   0.144  0.00  0.00     0.034 A 
ATOM     12  C   UNL d   1      -0.944  -4.799   0.854  0.00  0.00     0.024 A 
ATOM     13 CL   UNL d   1      -2.783  -6.620   0.097  0.00  0.00    -0.084 Cl
ATOM     14  C   UNL d   1      -0.394  -3.513   0.881  0.00  0.00     0.015 A 
ENDBRANCH   3   8
BRANCH   4  15
ATOM     15  C   UNL d   1       2.198  -1.593  -0.129  0.00  0.00    -0.007 A 
ATOM     16  C   UNL d   1       2.236  -2.803  -0.838  0.00  0.00     0.015 A 
ATOM     17  C   UNL d   1       3.401  -3.576  -0.881  0.00  0.00     0.024 A 
ATOM     18  C   UNL d   1       4.555  -3.121  -0.253  0.00  0.00     0.034 A 
ATOM     19  C   UNL d   1       4.553  -1.902   0.419  0.00  0.00     0.024 A 
ATOM     20 CL   UNL d   1       5.989  -4.069  -0.303  0.00  0.00    -0.084 Cl
ATOM     21  C   UNL d   1       3.377  -1.146   0.487  0.00  0.00     0.015 A 
ENDBRANCH   4  15
BRANCH   6  22
ATOM     22  C   UNL d   1      -0.712   2.441  -0.013  0.00  0.00     0.008 A 
ATOM     23  C   UNL d   1       0.117   3.421  -0.581  0.00  0.00     0.017 A 
ATOM     24  C   UNL d   1      -0.263   4.769  -0.574  0.00  0.00     0.025 A 
ATOM     25  C   UNL d   1      -1.475   5.144   0.005  0.00  0.00     0.034 A 
ATOM     26  C   UNL d   1      -2.314   4.187   0.564  0.00  0.00     0.025 A 
ATOM     27 CL   UNL d   1      -1.937   6.801   0.012  0.00  0.00    -0.084 Cl
ATOM     28  C   UNL d   1      -1.933   2.838   0.550  0.00  0.00     0.017 A 
ENDBRANCH   6  22
TORSDOF 3
