REMARK  2 active torsions:
REMARK  status: ('A' for Active; 'I' for Inactive)
REMARK    1  A    between atoms: C_2  and  C_1 
REMARK       I    between atoms: N_3  and  C_1 
REMARK    2  A    between atoms: C_6  and  N_3 
ROOT
ATOM      1  C   UNL d   1      -1.156   0.482   1.044  0.00  0.00     0.092 C 
ATOM      2  C   UNL d   1      -3.079  -0.163   2.265  0.00  0.00    -0.050 A 
ATOM      3  C   UNL d   1      -3.136  -0.813   1.028  0.00  0.00    -0.050 A 
ATOM      4  C   UNL d   1      -1.738   0.474   2.478  0.00  0.00     0.064 C 
ATOM      5  C   UNL d   1      -1.843  -0.679   0.290  0.00  0.00     0.064 C 
ATOM      6  C   UNL d   1      -4.266  -1.513   0.638  0.00  0.00     0.007 A 
ATOM      7  C   UNL d   1      -4.157  -0.200   3.135  0.00  0.00     0.007 A 
ATOM      8  C   UNL d   1      -5.305  -0.893   2.745  0.00  0.00     0.001 A 
ATOM      9  C   UNL d   1      -5.359  -1.546   1.504  0.00  0.00     0.001 A 
ENDROOT
BRANCH   1  10
ATOM     10  N   UNL d   1       0.296   0.360   1.017  0.00  0.00    -0.356 N 
ATOM     11  C   UNL d   1       1.131   1.451   1.006  0.00  0.00     0.222 C 
ATOM     12  O   UNL d   1       0.756   2.615   0.993  0.00  0.00    -0.273 OA
ATOM     13  H   UNL d   1       0.701  -0.551   1.185  0.00  0.00     0.162 HD
BRANCH  11  14
ATOM     14  C   UNL d   1       2.581   1.097   1.035  0.00  0.00     0.078 A 
ATOM     15  C   UNL d   1       3.477   1.707   2.087  0.00  0.00     0.015 A 
ATOM     16  C   UNL d   1       3.643   2.101   0.648  0.00  0.00     0.015 A 
ENDBRANCH  11  14
ENDBRANCH   1  10
TORSDOF 2
