REMARK  4 active torsions:
REMARK  status: ('A' for Active; 'I' for Inactive)
REMARK    1  A    between atoms: N_9  and  C_1 
REMARK    2  A    between atoms: N_11  and  N_7 
REMARK    3  A    between atoms: C_10  and  N_9 
REMARK    4  A    between atoms: C_15  and  N_11 
ROOT
ATOM      1  C   UNL d   1      -1.216   0.263  -0.135  0.00  0.00     0.154 A 
ATOM      2  C   UNL d   1      -0.204   1.306   0.265  0.00  0.00     0.159 A 
ATOM      3  C   UNL d   1       1.095   0.832  -0.325  0.00  0.00     0.293 A 
ATOM      4  N   UNL d   1      -0.634  -0.598  -0.930  0.00  0.00    -0.279 N 
ATOM      5  HN  UNL d   1      -1.091  -1.386  -1.389  1.00  0.00     0.189 HD
ATOM      6  N   UNL d   1       0.705  -0.262  -1.046  0.00  0.00    -0.258 N 
ATOM      7  N   UNL d   1      -0.314   2.447   0.867  0.00  0.00    -0.309 N 
ATOM      8  HN  UNL d   1       0.514   2.991   1.110  1.00  0.00     0.181 HD
ATOM      9  O   UNL d   1       2.180   1.358  -0.191  0.00  0.00    -0.264 OA
ATOM     10  C   UNL d   1       1.599  -1.067  -1.838  0.00  0.00     0.181 C 
ENDROOT
BRANCH   1  11
ATOM     11  N   UNL d   1      -2.526   0.213   0.297  0.00  0.00    -0.338 N 
ATOM     12  H   UNL d   1      -2.648   0.248   1.308  0.00  0.00     0.167 HD
BRANCH  11  13
ATOM     13  C   UNL d   1      -3.519  -0.538  -0.380  0.00  0.00     0.055 A 
ATOM     14  C   UNL d   1      -4.467  -1.325   0.294  0.00  0.00     0.060 A 
ATOM     15 CL   UNL d   1      -4.479  -1.412   2.020  0.00  0.00    -0.082 Cl
ATOM     16  C   UNL d   1      -5.416  -2.067  -0.411  0.00  0.00     0.026 A 
ATOM     17  C   UNL d   1      -5.442  -2.035  -1.810  0.00  0.00     0.002 A 
ATOM     18  C   UNL d   1      -4.523  -1.252  -2.494  0.00  0.00     0.002 A 
ATOM     19  C   UNL d   1      -3.573  -0.513  -1.788  0.00  0.00     0.031 A 
ENDBRANCH  11  13
ENDBRANCH   1  11
BRANCH   7  20
ATOM     20  N   UNL d   1      -1.562   2.903   1.168  0.00  0.00    -0.205 NA
ATOM     21  H   UNL d   1      -1.989   3.423   0.394  0.00  0.00     0.153 HD
BRANCH  20  22
ATOM     22  C   UNL d   1      -1.641   3.710   2.341  0.00  0.00     0.029 A 
ATOM     23  C   UNL d   1      -2.650   4.676   2.454  0.00  0.00     0.048 A 
ATOM     24  C   UNL d   1      -2.853   5.347   3.662  0.00  0.00     0.035 A 
ATOM     25 CL   UNL d   1      -4.104   6.524   3.785  0.00  0.00    -0.084 Cl
ATOM     26  C   UNL d   1      -2.072   5.056   4.778  0.00  0.00     0.024 A 
ATOM     27  C   UNL d   1      -1.054   4.111   4.674  0.00  0.00     0.003 A 
ATOM     28  C   UNL d   1      -0.840   3.446   3.463  0.00  0.00     0.025 A 
ENDBRANCH  20  22
ENDBRANCH   7  20
TORSDOF 4
