REMARK  5 active torsions:
REMARK  status: ('A' for Active; 'I' for Inactive)
REMARK    1  A    between atoms: C_11  and  N_1 
REMARK    2  A    between atoms: C_4  and  O_10 
REMARK    3  A    between atoms: C_12  and  C_4 
REMARK    4  A    between atoms: O_10  and  N_6 
REMARK    5  A    between atoms: C_17  and  C_11 
ROOT
ATOM      1  N   UNL d   1      -0.055   0.023   1.363  0.00  0.00     0.102 N 
ATOM      2  C   UNL d   1      -0.077  -1.197   0.541  0.00  0.00     0.229 C 
ATOM      3  C   UNL d   1       0.018   1.200   0.481  0.00  0.00     0.229 C 
ATOM      4  C   UNL d   1      -1.785   0.054  -0.941  0.00  0.00     0.015 C 
ATOM      5  N   UNL d   1      -2.821  -0.003  -1.729  0.00  0.00    -0.265 N 
ATOM      6  HN  UNL d   1      -3.213  -0.877  -2.079  1.00  0.00     0.194 HD
ATOM      7  C   UNL d   1      -1.190   1.353  -0.451  0.00  0.00     0.090 C 
ATOM      8  C   UNL d   1      -1.261  -1.274  -0.428  0.00  0.00     0.090 C 
ATOM      9  C   UNL d   1       1.357   1.202  -0.282  0.00  0.00     0.036 C 
ATOM     10  C   UNL d   1       1.281  -1.341  -0.172  0.00  0.00     0.036 C 
ATOM     11  C   UNL d   1       1.709  -0.114  -0.968  0.00  0.00     0.004 C 
ENDROOT
BRANCH   5  12
ATOM     12  O   UNL d   1      -3.344   1.269  -2.050  0.00  0.00    -0.195 OA
BRANCH  12  13
ATOM     13  C   UNL d   1      -4.499   1.119  -2.757  0.00  0.00     0.315 C 
ATOM     14  O   UNL d   1      -5.009   0.056  -3.118  0.00  0.00    -0.257 OA
BRANCH  13  15
ATOM     15  C   UNL d   1      -5.162   2.421  -3.050  0.00  0.00     0.041 A 
ATOM     16  C   UNL d   1      -6.358   2.394  -3.792  0.00  0.00     0.021 A 
ATOM     17  C   UNL d   1      -7.030   3.580  -4.104  0.00  0.00     0.043 A 
ATOM     18  C   UNL d   1      -6.508   4.790  -3.671  0.00  0.00     0.116 A 
ATOM     19  C   UNL d   1      -5.329   4.838  -2.933  0.00  0.00     0.043 A 
ATOM     20  F   UNL d   1      -7.150   5.928  -3.967  0.00  0.00    -0.206 F 
ATOM     21  C   UNL d   1      -4.652   3.652  -2.619  0.00  0.00     0.021 A 
ENDBRANCH  13  15
ENDBRANCH  12  13
ENDBRANCH   5  12
BRANCH   1  22
ATOM     22  C   UNL d   1      -1.173   0.124   2.322  0.00  0.00     0.312 C 
BRANCH  22  23
ATOM     23  C   UNL d   1      -1.229  -0.979   3.358  0.00  0.00    -0.030 A 
ATOM     24  C   UNL d   1      -0.157  -1.207   4.233  0.00  0.00     0.009 A 
ATOM     25  C   UNL d   1      -0.239  -2.202   5.209  0.00  0.00     0.001 A 
ATOM     26  C   UNL d   1      -1.393  -2.977   5.325  0.00  0.00     0.000 A 
ATOM     27  C   UNL d   1      -2.465  -2.758   4.463  0.00  0.00     0.001 A 
ATOM     28  C   UNL d   1      -2.385  -1.765   3.486  0.00  0.00     0.009 A 
ENDBRANCH  22  23
ENDBRANCH   1  22
TORSDOF 5
