REMARK  2 active torsions:
REMARK  status: ('A' for Active; 'I' for Inactive)
REMARK       I    between atoms: N_2  and  C_1 
REMARK    1  A    between atoms: C_4  and  C_1 
REMARK    2  A    between atoms: N_3  and  C_6 
ROOT
ATOM      1  C   UNL d   1       0.979  -0.002   0.165  0.00  0.00     0.260 C 
ATOM      2  N   UNL d   1       0.137  -1.135   0.161  0.00  0.00    -0.347 N 
ATOM      3  C   UNL d   1      -1.836  -3.271   0.209  0.00  0.00     0.091 C 
ATOM      4  C   UNL d   1      -2.009  -2.034  -0.680  0.00  0.00     0.045 C 
ATOM      5  C   UNL d   1      -0.888  -3.004   1.383  0.00  0.00     0.045 C 
ATOM      6  C   UNL d   1      -0.692  -1.347  -1.026  0.00  0.00     0.128 C 
ATOM      7  C   UNL d   1       0.408  -2.338   0.948  0.00  0.00     0.128 C 
ATOM      8  O   UNL d   1       0.981   0.773  -0.795  0.00  0.00    -0.267 OA
ENDROOT
BRANCH   1   9
ATOM      9  C   UNL d   1       1.817   0.221   1.335  0.00  0.00     0.072 C 
ATOM     10  S   UNL d   1       3.403   0.838   1.117  0.00  0.00    -0.097 SA
ATOM     11  C   UNL d   1       3.756   0.700   2.785  0.00  0.00     0.050 C 
ATOM     12  C   UNL d   1       2.675   0.252   3.507  0.00  0.00     0.009 C 
ATOM     13  C   UNL d   1       1.535   0.046   2.679  0.00  0.00     0.025 C 
ENDBRANCH   1   9
BRANCH   3  14
ATOM     14  N   UNL d   1      -1.516  -4.487  -0.540  0.00  0.00    -0.362 N 
ATOM     15  C   UNL d   1      -0.372  -4.765  -1.239  0.00  0.00     0.091 A 
ATOM     16  C   UNL d   1      -0.486  -6.029  -1.777  0.00  0.00     0.019 A 
ATOM     17  C   UNL d   1      -1.751  -6.529  -1.406  0.00  0.00     0.019 A 
ATOM     18  C   UNL d   1      -2.366  -5.561  -0.646  0.00  0.00     0.091 A 
ENDBRANCH   3  14
TORSDOF 2
