REMARK  1 active torsions:
REMARK  status: ('A' for Active; 'I' for Inactive)
REMARK    1  A    between atoms: C_5  and  N_2 
ROOT
ATOM      1  C   UNL d   1       0.473   1.115  -0.689  0.00  0.00     0.170 C 
ATOM      2  N   UNL d   1       1.230   0.068  -0.179  0.00  0.00    -0.354 N 
ATOM      3  N   UNL d   1      -0.878   1.037  -0.482  0.00  0.00    -0.367 N 
ATOM      4  S   UNL d   1       1.002   2.430  -1.560  0.00  0.00    -0.041 SA
ATOM      5  C   UNL d   1       0.556  -1.232  -0.103  0.00  0.00     0.127 C 
ATOM      6  C   UNL d   1      -0.738  -1.127   0.676  0.00  0.00     0.039 C 
ATOM      7  C   UNL d   1      -1.615  -0.122  -0.035  0.00  0.00     0.123 C 
ATOM      8  H   UNL d   1      -1.401   1.807  -0.884  0.00  0.00     0.161 HD
ENDROOT
BRANCH   2   9
ATOM      9  C   UNL d   1       2.440   0.231   0.683  0.00  0.00     0.086 C 
ATOM     10  C   UNL d   1       2.118   0.849   2.055  0.00  0.00     0.025 C 
ATOM     11  C   UNL d   1       2.227   2.364   2.088  0.00  0.00     0.002 C 
ATOM     12  C   UNL d   1       3.611   2.820   1.648  0.00  0.00     0.000 C 
ATOM     13  C   UNL d   1       3.994   2.306   0.267  0.00  0.00     0.002 C 
ATOM     14  C   UNL d   1       3.706   0.822   0.032  0.00  0.00     0.025 C 
ENDBRANCH   2   9
TORSDOF 1
