REMARK  7 active torsions:
REMARK  status: ('A' for Active; 'I' for Inactive)
REMARK    1  A    between atoms: C_9  and  C_1 
REMARK    2  A    between atoms: N_7  and  C_2 
REMARK    3  A    between atoms: C_6  and  C_3 
REMARK       I    between atoms: C_10  and  N_7 
REMARK    4  A    between atoms: O_16  and  C_9 
REMARK       I    between atoms: N_15  and  C_10 
REMARK    5  A    between atoms: C_22  and  N_15 
REMARK    6  A    between atoms: C_24  and  C_22 
REMARK    7  A    between atoms: C_25  and  C_24 
ROOT
ATOM      1  C   UNL d   1      -1.514  -0.336   0.094  0.00  0.00     0.122 A 
ATOM      2  C   UNL d   1      -1.008   0.945   0.210  0.00  0.00     0.193 A 
ATOM      3  C   UNL d   1      -0.353  -1.184   0.087  0.00  0.00     0.089 A 
ATOM      4  N   UNL d   1       0.754  -0.437   0.199  0.00  0.00    -0.257 N 
ATOM      5  HN  UNL d   1       1.715  -0.777   0.248  1.00  0.00     0.195 HD
ATOM      6  O   UNL d   1       0.348   0.868   0.235  0.00  0.00    -0.218 OA
ENDROOT
BRANCH   2   7
ATOM      7  N   UNL d   1      -1.591   2.197   0.274  0.00  0.00    -0.286 N 
ATOM      8  C   UNL d   1      -0.838   3.328   0.505  0.00  0.00     0.322 C 
ATOM      9  O   UNL d   1       0.367   3.362   0.730  0.00  0.00    -0.247 OA
ATOM     10  N   UNL d   1      -1.594   4.480   0.474  0.00  0.00    -0.343 N 
ATOM     11  H   UNL d   1      -2.474   4.460  -0.018  0.00  0.00     0.164 HD
ATOM     12  H   UNL d   1      -2.602   2.254   0.323  0.00  0.00     0.172 HD
BRANCH  10  13
ATOM     13  C   UNL d   1      -0.955   5.774   0.663  0.00  0.00     0.124 C 
BRANCH  13  14
ATOM     14  C   UNL d   1      -0.256   6.299  -0.594  0.00  0.00     0.019 C 
BRANCH  14  15
ATOM     15  C   UNL d   1      -1.240   6.642  -1.714  0.00  0.00    -0.003 C 
ATOM     16  C   UNL d   1      -0.529   7.240  -2.920  0.00  0.00     0.005 C 
ENDBRANCH  14  15
ENDBRANCH  13  14
ENDBRANCH  10  13
ENDBRANCH   2   7
BRANCH   1  17
ATOM     17  C   UNL d   1      -2.897  -0.736   0.032  0.00  0.00     0.299 C 
ATOM     18  O   UNL d   1      -3.281  -1.720  -0.587  0.00  0.00    -0.259 OA
BRANCH  17  19
ATOM     19  O   UNL d   1      -3.698   0.035   0.829  0.00  0.00    -0.322 OA
ATOM     20  C   UNL d   1      -4.968  -0.549   1.146  0.00  0.00     0.213 C 
ENDBRANCH  17  19
ENDBRANCH   1  17
BRANCH   3  21
ATOM     21  C   UNL d   1      -0.220  -2.648   0.056  0.00  0.00     0.037 A 
ATOM     22  C   UNL d   1       0.712  -3.271  -0.808  0.00  0.00     0.048 A 
ATOM     23 CL   UNL d   1       1.655  -2.408  -1.983  0.00  0.00    -0.083 Cl
ATOM     24  C   UNL d   1       0.923  -4.657  -0.771  0.00  0.00     0.025 A 
ATOM     25  C   UNL d   1       0.179  -5.461   0.084  0.00  0.00     0.003 A 
ATOM     26  C   UNL d   1      -0.757  -4.875   0.927  0.00  0.00     0.025 A 
ATOM     27  C   UNL d   1      -0.932  -3.482   0.943  0.00  0.00     0.048 A 
ATOM     28 CL   UNL d   1      -1.983  -2.885   2.187  0.00  0.00    -0.083 Cl
ENDBRANCH   3  21
TORSDOF 7
