REMARK  8 active torsions:
REMARK  status: ('A' for Active; 'I' for Inactive)
REMARK    1  A    between atoms: C_2  and  C_1 
REMARK       I    between atoms: N_3  and  C_1 
REMARK    2  A    between atoms: C_4  and  N_3 
REMARK    3  A    between atoms: C_5  and  C_14 
REMARK    4  A    between atoms: C_21  and  C_7 
REMARK    5  A    between atoms: C_22  and  C_21 
REMARK    6  A    between atoms: C_25  and  C_22 
REMARK    7  A    between atoms: C_23  and  C_24 
REMARK    8  A    between atoms: C_24  and  C_25 
ROOT
ATOM      1  C   UNL d   1       0.105  -0.928  -0.792  0.00  0.00     0.049 A 
ATOM      2  N   UNL d   1      -1.722  -1.188  -2.367  0.00  0.00    -0.373 N 
ATOM      3  HN  UNL d   1      -2.490  -0.788  -2.905  1.00  0.00     0.164 HD
ATOM      4  C   UNL d   1       0.405  -2.289  -0.889  0.00  0.00     0.040 A 
ATOM      5  C   UNL d   1      -0.382  -3.095  -1.711  0.00  0.00     0.034 A 
ATOM      6  C   UNL d   1      -0.939  -0.425  -1.564  0.00  0.00     0.104 A 
ATOM      7  C   UNL d   1      -1.429  -2.507  -2.415  0.00  0.00     0.108 A 
ENDROOT
BRANCH   1   8
ATOM      8  C   UNL d   1       0.842   0.020   0.072  0.00  0.00     0.257 C 
ATOM      9  N   UNL d   1       1.326  -0.494   1.264  0.00  0.00    -0.320 N 
ATOM     10  H   UNL d   1       1.319  -1.495   1.390  0.00  0.00     0.169 HD
ATOM     11  O   UNL d   1       0.988   1.163  -0.342  0.00  0.00    -0.267 OA
BRANCH   9  12
ATOM     12  C   UNL d   1       1.982   0.256   2.267  0.00  0.00     0.074 A 
ATOM     13  C   UNL d   1       1.813   1.635   2.467  0.00  0.00     0.146 A 
ATOM     14  C   UNL d   1       2.557   2.323   3.420  0.00  0.00     0.086 A 
ATOM     15  F   UNL d   1       0.858   2.323   1.826  0.00  0.00    -0.204 F 
ATOM     16  C   UNL d   1       3.460   1.625   4.204  0.00  0.00     0.119 A 
ATOM     17  C   UNL d   1       3.599   0.247   4.079  0.00  0.00     0.044 A 
ATOM     18  F   UNL d   1       4.197   2.282   5.108  0.00  0.00    -0.206 F 
ATOM     19  C   UNL d   1       2.850  -0.442   3.120  0.00  0.00     0.036 A 
ENDBRANCH   9  12
ENDBRANCH   1   8
BRANCH   5  20
ATOM     20  C   UNL d   1      -0.122  -4.490  -1.849  0.00  0.00    -0.066 C 
ATOM     21  C   UNL d   1       0.073  -5.662  -2.021  0.00  0.00    -0.101 C 
BRANCH  21  22
ATOM     22  C   UNL d   1       0.296  -7.087  -2.299  0.00  0.00     0.094 C 
BRANCH  22  23
ATOM     23  C   UNL d   1       1.516  -7.272  -3.199  0.00  0.00     0.012 C 
BRANCH  23  24
ATOM     24  C   UNL d   1       1.740  -8.745  -3.536  0.00  0.00     0.001 C 
BRANCH  24  25
ATOM     25  C   UNL d   1       2.965  -8.923  -4.431  0.00  0.00    -0.000 C 
BRANCH  25  26
ATOM     26  C   UNL d   1       3.192 -10.395  -4.771  0.00  0.00    -0.005 C 
ATOM     27  C   UNL d   1       4.412 -10.576  -5.658  0.00  0.00     0.005 C 
ENDBRANCH  25  26
ENDBRANCH  24  25
ENDBRANCH  23  24
ENDBRANCH  22  23
ENDBRANCH  21  22
ENDBRANCH   5  20
TORSDOF 8
