REMARK  10 active torsions:
REMARK  status: ('A' for Active; 'I' for Inactive)
REMARK    1  A    between atoms: C_5  and  C_1 
REMARK    2  A    between atoms: C_2  and  C_25 
REMARK    3  A    between atoms: C_3  and  C_26 
REMARK    4  A    between atoms: C_4  and  N_9 
REMARK    5  A    between atoms: N_23  and  C_4 
REMARK       I    between atoms: N_24  and  C_5 
REMARK    6  A    between atoms: N_9  and  C_6 
REMARK    7  A    between atoms: O_31  and  C_10 
REMARK    8  A    between atoms: O_30  and  C_11 
REMARK    9  A    between atoms: N_14  and  N_23 
REMARK   10  A    between atoms: N_16  and  N_24 
ROOT
ATOM      1  C   UNL d   1       1.353  -0.219   0.224  0.00  0.00     0.060 A 
ATOM      2  C   UNL d   1       0.622  -1.405   0.049  0.00  0.00     0.050 A 
ATOM      3  C   UNL d   1       0.716   1.034   0.167  0.00  0.00     0.019 A 
ATOM      4  C   UNL d   1      -0.759  -1.298  -0.176  0.00  0.00     0.030 A 
ATOM      5  C   UNL d   1      -0.658   1.115  -0.040  0.00  0.00     0.001 A 
ATOM      6  C   UNL d   1      -1.395  -0.052  -0.206  0.00  0.00     0.002 A 
ENDROOT
BRANCH   2   7
ATOM      7  N   UNL d   1       1.274  -2.668  -0.017  0.00  0.00    -0.331 N 
ATOM      8  H   UNL d   1       2.276  -2.655  -0.184  0.00  0.00     0.168 HD
BRANCH   7   9
ATOM      9  C   UNL d   1       0.727  -3.908   0.293  0.00  0.00     0.191 C 
ATOM     10  S   UNL d   1      -0.402  -4.172   1.516  0.00  0.00    -0.039 SA
BRANCH   9  11
ATOM     11  N   UNL d   1       1.264  -4.924  -0.499  0.00  0.00    -0.276 N 
ATOM     12  H   UNL d   1       1.921  -4.684  -1.234  0.00  0.00     0.189 HD
BRANCH  11  13
ATOM     13  N   UNL d   1       0.543  -6.073  -0.658  0.00  0.00    -0.309 N 
ATOM     14  C   UNL d   1       1.018  -6.983  -1.443  0.00  0.00     0.121 C 
ATOM     15  HN  UNL d   1      -0.344  -6.208  -0.173  1.00  0.00     0.186 HD
BRANCH  14  16
ATOM     16  C   UNL d   1       0.203  -8.178  -1.756  0.00  0.00     0.017 A 
ATOM     17  C   UNL d   1       0.735  -9.245  -2.483  0.00  0.00     0.099 A 
ATOM     18  C   UNL d   1      -0.079 -10.340  -2.800  0.00  0.00     0.069 A 
ATOM     19 CL   UNL d   1       0.562 -11.668  -3.698  0.00  0.00    -0.081 Cl
ATOM     20  C   UNL d   1      -1.415 -10.374  -2.405  0.00  0.00     0.050 A 
ATOM     21  C   UNL d   1      -1.940  -9.307  -1.682  0.00  0.00     0.036 A 
ATOM     22  C   UNL d   1      -1.140  -8.214  -1.351  0.00  0.00     0.039 A 
ATOM     23 CL   UNL d   1      -3.593  -9.329  -1.208  0.00  0.00    -0.084 Cl
BRANCH  17  24
ATOM     24  O   UNL d   1       2.045  -9.208  -2.883  0.00  0.00    -0.358 OA
ATOM     25  H   UNL d   1       2.234 -10.044  -3.355  0.00  0.00     0.217 HD
ENDBRANCH  17  24
ENDBRANCH  14  16
ENDBRANCH  11  13
ENDBRANCH   9  11
ENDBRANCH   7   9
ENDBRANCH   2   7
BRANCH   1  26
ATOM     26  C   UNL d   1       2.797  -0.203   0.535  0.00  0.00     0.272 C 
ATOM     27  N   UNL d   1       3.181  -1.055   1.560  0.00  0.00    -0.266 N 
ATOM     28  H   UNL d   1       2.485  -1.561   2.102  0.00  0.00     0.190 HD
ATOM     29  O   UNL d   1       3.529   0.572  -0.072  0.00  0.00    -0.266 OA
BRANCH  27  30
ATOM     30  N   UNL d   1       4.452  -0.951   2.030  0.00  0.00    -0.308 N 
ATOM     31  C   UNL d   1       4.722  -1.544   3.147  0.00  0.00     0.121 C 
ATOM     32  HN  UNL d   1       5.164  -0.426   1.522  1.00  0.00     0.186 HD
BRANCH  31  33
ATOM     33  C   UNL d   1       6.058  -1.374   3.759  0.00  0.00     0.017 A 
ATOM     34  C   UNL d   1       6.349  -1.912   5.014  0.00  0.00     0.099 A 
ATOM     35  C   UNL d   1       7.604  -1.676   5.591  0.00  0.00     0.069 A 
ATOM     36 CL   UNL d   1       7.978  -2.316   7.150  0.00  0.00    -0.081 Cl
ATOM     37  C   UNL d   1       8.562  -0.913   4.925  0.00  0.00     0.050 A 
ATOM     38  C   UNL d   1       8.267  -0.387   3.672  0.00  0.00     0.036 A 
ATOM     39  C   UNL d   1       7.023  -0.612   3.084  0.00  0.00     0.039 A 
ATOM     40 CL   UNL d   1       9.440   0.560   2.845  0.00  0.00    -0.084 Cl
BRANCH  34  41
ATOM     41  O   UNL d   1       5.404  -2.652   5.673  0.00  0.00    -0.358 OA
ATOM     42  H   UNL d   1       5.787  -2.929   6.530  0.00  0.00     0.217 HD
ENDBRANCH  34  41
ENDBRANCH  31  33
ENDBRANCH  27  30
ENDBRANCH   1  26
TORSDOF 10
