REMARK  1 active torsions:
REMARK  status: ('A' for Active; 'I' for Inactive)
REMARK       I    between atoms: N_2  and  C_1 
REMARK    1  A    between atoms: C_4  and  C_1 
ROOT
ATOM      1  C   UNL d   1       0.875   0.077   0.021  0.00  0.00     0.260 C 
ATOM      2  N   UNL d   1       0.157  -1.021   0.513  0.00  0.00    -0.347 N 
ATOM      3  C   UNL d   1      -1.840  -2.303   2.131  0.00  0.00     0.167 C 
ATOM      4  C   UNL d   1      -2.179  -1.662   0.781  0.00  0.00     0.088 C 
ATOM      5  C   UNL d   1      -0.572  -1.702   2.747  0.00  0.00     0.088 C 
ATOM      6  C   UNL d   1       0.581  -1.666   1.750  0.00  0.00     0.131 C 
ATOM      7  C   UNL d   1      -0.965  -1.701  -0.139  0.00  0.00     0.131 C 
ATOM      8  O   UNL d   1      -2.932  -2.087   3.043  0.00  0.00    -0.353 OA
ATOM      9  O   UNL d   1      -1.665  -3.718   1.930  0.00  0.00    -0.353 OA
ATOM     10  O   UNL d   1       1.926   0.419   0.569  0.00  0.00    -0.267 OA
ATOM     11  C   UNL d   1      -3.574  -3.353   3.165  0.00  0.00     0.197 C 
ATOM     12  C   UNL d   1      -2.458  -4.336   2.941  0.00  0.00     0.197 C 
ENDROOT
BRANCH   1  13
ATOM     13  C   UNL d   1       0.348   0.802  -1.134  0.00  0.00     0.072 A 
ATOM     14  S   UNL d   1       1.454   1.456  -2.277  0.00  0.00    -0.097 SA
ATOM     15  C   UNL d   1       0.193   2.013  -3.289  0.00  0.00     0.050 A 
ATOM     16  C   UNL d   1      -1.048   1.760  -2.753  0.00  0.00     0.009 A 
ATOM     17  C   UNL d   1      -0.954   1.127  -1.479  0.00  0.00     0.025 A 
ENDBRANCH   1  13
TORSDOF 1
