REMARK  5 active torsions:
REMARK  status: ('A' for Active; 'I' for Inactive)
REMARK    1  A    between atoms: S_7  and  C_1 
REMARK    2  A    between atoms: C_9  and  N_2 
REMARK    3  A    between atoms: C_8  and  S_7 
REMARK    4  A    between atoms: C_10  and  C_8 
REMARK    5  A    between atoms: C_11  and  C_8 
ROOT
ATOM      1  C   UNL d   1      -0.076  -1.371  -0.399  0.00  0.00     0.178 A 
ATOM      2  N   UNL d   1       1.110  -0.655  -0.297  0.00  0.00    -0.219 N 
ATOM      3  N   UNL d   1      -1.092  -0.534  -0.359  0.00  0.00    -0.264 N 
ATOM      4  HN  UNL d   1      -2.081  -0.762  -0.452  1.00  0.00     0.186 HD
ATOM      5  N   UNL d   1      -0.545   0.706  -0.166  0.00  0.00    -0.006 NA
ATOM      6  N   UNL d   1       0.776   0.640  -0.070  0.00  0.00     0.001 NA
ENDROOT
BRANCH   1   7
ATOM      7  S   UNL d   1      -0.201  -3.090  -0.286  0.00  0.00    -0.071 SA
BRANCH   7   8
ATOM      8  C   UNL d   1      -1.849  -3.453  -0.962  0.00  0.00     0.193 C 
BRANCH   8   9
ATOM      9  C   UNL d   1      -1.938  -3.068  -2.425  0.00  0.00     0.144 C 
ATOM     10  O   UNL d   1      -1.295  -3.655  -3.300  0.00  0.00    -0.297 OA
ATOM     11  C   UNL d   1      -2.896  -1.968  -2.803  0.00  0.00     0.092 C 
ENDBRANCH   8   9
BRANCH   8  12
ATOM     12  C   UNL d   1      -2.141  -4.929  -0.749  0.00  0.00     0.144 C 
ATOM     13  O   UNL d   1      -3.178  -5.285  -0.176  0.00  0.00    -0.297 OA
ATOM     14  C   UNL d   1      -1.143  -5.970  -1.213  0.00  0.00     0.092 C 
ENDBRANCH   8  12
ENDBRANCH   7   8
ENDBRANCH   1   7
BRANCH   2  15
ATOM     15  C   UNL d   1       2.462  -1.075  -0.359  0.00  0.00     0.056 A 
ATOM     16  C   UNL d   1       2.834  -2.227  -1.066  0.00  0.00     0.031 A 
ATOM     17  C   UNL d   1       4.155  -2.679  -1.026  0.00  0.00     0.002 A 
ATOM     18  C   UNL d   1       5.110  -1.973  -0.300  0.00  0.00     0.000 A 
ATOM     19  C   UNL d   1       4.760  -0.796   0.356  0.00  0.00     0.002 A 
ATOM     20  C   UNL d   1       3.442  -0.332   0.314  0.00  0.00     0.031 A 
ENDBRANCH   2  15
TORSDOF 5
