REMARK  2 active torsions:
REMARK  status: ('A' for Active; 'I' for Inactive)
REMARK    1  A    between atoms: C_5  and  C_1 
REMARK    2  A    between atoms: N_9  and  C_8 
ROOT
ATOM      1  C   UNL d   1      -2.284   0.014  -0.039  0.00  0.00     0.118 A 
ATOM      2  N   UNL d   1      -1.541   1.107  -0.079  0.00  0.00    -0.340 N 
ATOM      3  HN  UNL d   1      -1.868   2.072  -0.106  1.00  0.00     0.167 HD
ATOM      4  N   UNL d   1      -1.482  -1.105  -0.105  0.00  0.00    -0.340 N 
ATOM      5  C   UNL d   1      -0.236   0.675  -0.077  0.00  0.00     0.060 A 
ATOM      6  C   UNL d   1      -0.171  -0.712  -0.074  0.00  0.00     0.060 A 
ATOM      7  C   UNL d   1       0.954   1.417  -0.063  0.00  0.00     0.032 A 
ATOM      8  C   UNL d   1       1.028  -1.426  -0.044  0.00  0.00     0.032 A 
ATOM      9  C   UNL d   1       2.205  -0.669  -0.016  0.00  0.00     0.002 A 
ATOM     10  C   UNL d   1       2.173   0.727  -0.030  0.00  0.00     0.002 A 
ATOM     11  H   UNL d   1      -1.836  -2.050  -0.117  0.00  0.00     0.167 HD
ENDROOT
BRANCH   1  12
ATOM     12  C   UNL d   1      -3.747  -0.051   0.029  0.00  0.00     0.029 A 
ATOM     13  C   UNL d   1      -4.439  -1.105   0.667  0.00  0.00     0.019 A 
ATOM     14  C   UNL d   1      -5.839  -1.153   0.578  0.00  0.00     0.024 A 
ATOM     15  C   UNL d   1      -6.555  -0.120  -0.029  0.00  0.00     0.002 A 
ATOM     16  C   UNL d   1      -5.878   0.956  -0.593  0.00  0.00     0.001 A 
ATOM     17  C   UNL d   1      -4.483   0.985  -0.572  0.00  0.00     0.017 A 
BRANCH  13  18
ATOM     18  N   UNL d   1      -3.765  -2.195   1.276  0.00  0.00    -0.302 NA
ATOM     19  H   UNL d   1      -2.989  -1.859   1.847  0.00  0.00     0.124 HD
ATOM     20  H   UNL d   1      -4.390  -2.754   1.852  0.00  0.00     0.124 HD
ENDBRANCH  13  18
ENDBRANCH   1  12
TORSDOF 2
