REMARK  5 active torsions:
REMARK  status: ('A' for Active; 'I' for Inactive)
REMARK    1  A    between atoms: C_3  and  C_1 
REMARK    2  A    between atoms: C_6  and  C_2 
REMARK    3  A    between atoms: O_10  and  C_3 
REMARK    4  A    between atoms: O_9  and  N_4 
REMARK    5  A    between atoms: C_7  and  C_8 
ROOT
ATOM      1  C   UNL d   1       1.243  -0.001   0.028  0.00  0.00     0.017 A 
ATOM      2  C   UNL d   1       4.032   0.033  -0.065  0.00  0.00    -0.019 A 
ATOM      3  C   UNL d   1       1.929   1.217   0.014  0.00  0.00     0.021 A 
ATOM      4  C   UNL d   1       1.954  -1.204   0.011  0.00  0.00     0.021 A 
ATOM      5  C   UNL d   1       3.325   1.237  -0.034  0.00  0.00     0.014 A 
ATOM      6  C   UNL d   1       3.349  -1.188  -0.037  0.00  0.00     0.014 A 
ENDROOT
BRANCH   1   7
ATOM      7  C   UNL d   1      -0.186  -0.011   0.046  0.00  0.00    -0.064 C 
ATOM      8  C   UNL d   1      -1.388  -0.006   0.051  0.00  0.00    -0.064 C 
BRANCH   8   9
ATOM      9  C   UNL d   1      -2.860   0.000   0.062  0.00  0.00     0.114 C 
ATOM     10  C   UNL d   1      -3.386   1.256   0.755  0.00  0.00     0.060 C 
ATOM     11  C   UNL d   1      -3.391  -1.254   0.750  0.00  0.00     0.060 C 
BRANCH   9  12
ATOM     12  O   UNL d   1      -3.338  -0.004  -1.282  0.00  0.00    -0.378 OA
ATOM     13  H   UNL d   1      -2.937   0.760  -1.729  0.00  0.00     0.211 HD
ENDBRANCH   9  12
ENDBRANCH   8   9
ENDBRANCH   1   7
BRANCH   2  14
ATOM     14  C   UNL d   1       5.506   0.063  -0.137  0.00  0.00     0.125 C 
ATOM     15  N   UNL d   1       6.205  -1.026  -0.180  0.00  0.00    -0.280 N 
ATOM     16  HN  UNL d   1       5.825  -1.972  -0.166  1.00  0.00     0.193 HD
BRANCH  15  17
ATOM     17  O   UNL d   1       7.564  -0.700  -0.249  0.00  0.00    -0.290 OA
ATOM     18  H   UNL d   1       7.984  -1.580  -0.274  0.00  0.00     0.244 HD
ENDBRANCH  15  17
ENDBRANCH   2  14
TORSDOF 5
