REMARK  3 active torsions:
REMARK  status: ('A' for Active; 'I' for Inactive)
REMARK    1  A    between atoms: C_4  and  C_3 
REMARK    2  A    between atoms: C_13  and  C_5 
REMARK    3  A    between atoms: C_19  and  C_10 
ROOT
ATOM      1  N   UNL d   1       1.403  -0.637  -0.113  0.00  0.00    -0.347 N 
ATOM      2  HN  UNL d   1       2.278  -1.142  -0.253  1.00  0.00     0.167 HD
ATOM      3  C   UNL d   1       1.293   0.736   0.012  0.00  0.00     0.076 A 
ATOM      4  C   UNL d   1       0.211  -1.199  -0.026  0.00  0.00     0.085 A 
ATOM      5  S   UNL d   1      -1.090  -0.090   0.217  0.00  0.00    -0.081 SA
ATOM      6  C   UNL d   1       0.016   1.214   0.202  0.00  0.00     0.084 A 
ENDROOT
BRANCH   3   7
ATOM      7  C   UNL d   1       2.477   1.627  -0.063  0.00  0.00     0.128 A 
ATOM      8  C   UNL d   1       3.771   1.242  -0.319  0.00  0.00     0.074 A 
ATOM      9  C   UNL d   1       4.519   2.448  -0.343  0.00  0.00     0.068 A 
ATOM     10  N   UNL d   1       3.718   3.493  -0.079  0.00  0.00    -0.260 N 
ATOM     11  O   UNL d   1       2.450   2.978   0.093  0.00  0.00    -0.235 OA
ATOM     12  HN  UNL d   1       3.993   4.474  -0.018  1.00  0.00     0.195 HD
BRANCH   9  13
ATOM     13  C   UNL d   1       5.941   2.624  -0.636  0.00  0.00    -0.007 A 
ATOM     14  C   UNL d   1       6.405   3.839  -1.165  0.00  0.00     0.014 A 
ATOM     15  C   UNL d   1       7.754   4.008  -1.484  0.00  0.00     0.001 A 
ATOM     16  C   UNL d   1       8.656   2.968  -1.272  0.00  0.00     0.000 A 
ATOM     17  C   UNL d   1       8.211   1.760  -0.738  0.00  0.00     0.001 A 
ATOM     18  C   UNL d   1       6.860   1.587  -0.423  0.00  0.00     0.014 A 
ENDBRANCH   9  13
ENDBRANCH   3   7
BRANCH   4  19
ATOM     19  C   UNL d   1      -0.022  -2.652  -0.067  0.00  0.00     0.001 A 
ATOM     20  C   UNL d   1       0.992  -3.517   0.378  0.00  0.00     0.054 A 
ATOM     21  C   UNL d   1       0.807  -4.900   0.365  0.00  0.00     0.103 A 
ATOM     22  O   UNL d   1       1.851  -5.667   0.818  0.00  0.00    -0.346 OA
ATOM     23  C   UNL d   1      -0.400  -5.441  -0.081  0.00  0.00     0.102 A 
ATOM     24  C   UNL d   1       1.690  -7.041   0.447  0.00  0.00     0.202 C 
ATOM     25  C   UNL d   1       0.269  -7.510   0.714  0.00  0.00     0.202 C 
ATOM     26  O   UNL d   1      -0.665  -6.786  -0.095  0.00  0.00    -0.346 OA
ATOM     27  C   UNL d   1      -1.404  -4.602  -0.553  0.00  0.00     0.040 A 
ATOM     28  C   UNL d   1      -1.217  -3.216  -0.546  0.00  0.00     0.017 A 
ENDBRANCH   4  19
TORSDOF 3
