REMARK  3 active torsions:
REMARK  status: ('A' for Active; 'I' for Inactive)
REMARK    1  A    between atoms: S_7  and  C_2 
REMARK    2  A    between atoms: C_6  and  C_13 
REMARK    3  A    between atoms: C_13  and  S_7 
ROOT
ATOM      1  C   UNL d   1      -0.432   0.126  -0.000  0.00  0.00     0.147 A 
ATOM      2  C   UNL d   1       0.155  -1.147  -0.004  0.00  0.00     0.108 A 
ATOM      3  C   UNL d   1      -1.855   0.320   0.018  0.00  0.00     0.120 C 
ATOM      4  N   UNL d   1      -3.010   0.469   0.033  0.00  0.00    -0.190 NA
ATOM      5  N   UNL d   1       0.301   1.276  -0.015  0.00  0.00    -0.354 N 
ATOM      6  HN  UNL d   1      -0.134   2.199  -0.012  1.00  0.00     0.166 HD
ATOM      7  N   UNL d   1       1.506  -1.288  -0.023  0.00  0.00    -0.357 N 
ATOM      8  HN  UNL d   1       1.952  -2.205  -0.025  1.00  0.00     0.166 HD
ATOM      9  C   UNL d   1       1.640   1.113  -0.033  0.00  0.00     0.106 A 
ATOM     10  C   UNL d   1       2.228  -0.140  -0.037  0.00  0.00     0.106 A 
ENDROOT
BRANCH   2  11
ATOM     11  S   UNL d   1      -0.842  -2.624   0.012  0.00  0.00    -0.105 SA
BRANCH  11  12
ATOM     12  C   UNL d   1       0.387  -3.979   0.002  0.00  0.00     0.121 C 
BRANCH  12  13
ATOM     13  C   UNL d   1      -0.211  -5.387   0.015  0.00  0.00    -0.027 A 
ATOM     14  C   UNL d   1       0.632  -6.517   0.007  0.00  0.00     0.042 A 
ATOM     15  C   UNL d   1       0.111  -7.819   0.019  0.00  0.00     0.048 A 
ATOM     16 CL   UNL d   1       2.355  -6.363  -0.020  0.00  0.00    -0.084 Cl
ATOM     17  C   UNL d   1      -1.266  -8.014   0.041  0.00  0.00     0.035 A 
ATOM     18  C   UNL d   1      -2.123  -6.923   0.050  0.00  0.00     0.024 A 
ATOM     19 CL   UNL d   1      -1.913  -9.607   0.056  0.00  0.00    -0.084 Cl
ATOM     20  C   UNL d   1      -1.601  -5.627   0.037  0.00  0.00     0.011 A 
ENDBRANCH  12  13
ENDBRANCH  11  12
ENDBRANCH   2  11
TORSDOF 3
