REMARK  6 active torsions:
REMARK  status: ('A' for Active; 'I' for Inactive)
REMARK    1  A    between atoms: N_5  and  C_1 
REMARK    2  A    between atoms: C_9  and  N_4 
REMARK       I    between atoms: C_10  and  N_5 
REMARK    3  A    between atoms: S_20  and  C_8 
REMARK    4  A    between atoms: C_11  and  C_10 
REMARK    5  A    between atoms: C_12  and  C_15 
REMARK    6  A    between atoms: C_13  and  C_14 
ROOT
ATOM      1  C   UNL d   1      -0.211  -1.124   0.151  0.00  0.00     0.709 C 
ATOM      2  N   UNL d   1       0.952  -0.543   0.235  0.00  0.00    -0.167 N 
ATOM      3  HN  UNL d   1       1.842  -0.966   0.496  1.00  0.00     0.186 HD
ATOM      4  N   UNL d   1      -1.177  -0.139  -0.095  0.00  0.00    -0.084 N 
ATOM      5  N   UNL d   1      -0.550   1.024  -0.406  0.00  0.00    -0.258 N 
ATOM      6  HN  UNL d   1      -0.949   1.887  -0.777  1.00  0.00     0.190 HD
ATOM      7  C   UNL d   1       0.715   0.751  -0.103  0.00  0.00     0.174 C 
ENDROOT
BRANCH   4   8
ATOM      8  C   UNL d   1      -2.595  -0.172  -0.009  0.00  0.00     0.076 A 
ATOM      9  C   UNL d   1      -3.255  -1.036   0.877  0.00  0.00     0.048 A 
ATOM     10  C   UNL d   1      -4.651  -0.948   1.040  0.00  0.00     0.051 A 
ATOM     11  C   UNL d   1      -5.380  -0.030   0.262  0.00  0.00     0.032 A 
ATOM     12  C   UNL d   1      -4.734   0.832  -0.638  0.00  0.00     0.051 A 
ATOM     13  C   UNL d   1      -3.338   0.766  -0.749  0.00  0.00     0.048 A 
BRANCH  10  14
ATOM     14  C   UNL d   1      -5.380  -1.773   2.081  0.00  0.00     0.417 C 
ATOM     15  F   UNL d   1      -4.549  -2.569   2.809  0.00  0.00    -0.166 F 
ATOM     16  F   UNL d   1      -6.044  -0.998   2.980  0.00  0.00    -0.166 F 
ATOM     17  F   UNL d   1      -6.310  -2.598   1.532  0.00  0.00    -0.166 F 
ENDBRANCH  10  14
BRANCH  12  18
ATOM     18  C   UNL d   1      -5.543   1.825  -1.444  0.00  0.00     0.417 C 
ATOM     19  F   UNL d   1      -4.789   2.614  -2.256  0.00  0.00    -0.166 F 
ATOM     20  F   UNL d   1      -6.449   1.211  -2.253  0.00  0.00    -0.166 F 
ATOM     21  F   UNL d   1      -6.258   2.670  -0.653  0.00  0.00    -0.166 F 
ENDBRANCH  12  18
ENDBRANCH   4   8
BRANCH   1  22
ATOM     22  N   UNL d   1      -0.445  -2.474   0.193  0.00  0.00    -0.150 N 
ATOM     23  C   UNL d   1       0.477  -3.481   0.278  0.00  0.00     0.343 C 
ATOM     24  O   UNL d   1      -0.029  -4.617   0.176  0.00  0.00    -0.263 OA
ATOM     25  H   UNL d   1      -1.378  -2.819   0.007  0.00  0.00     0.187 HD
BRANCH  23  26
ATOM     26  C   UNL d   1       2.010  -3.347   0.505  0.00  0.00     0.473 C 
ATOM     27  F   UNL d   1       2.579  -2.119   0.473  0.00  0.00    -0.162 F 
ATOM     28  F   UNL d   1       2.365  -3.877   1.714  0.00  0.00    -0.162 F 
ATOM     29  F   UNL d   1       2.699  -4.076  -0.427  0.00  0.00    -0.162 F 
ENDBRANCH  23  26
ENDBRANCH   1  22
BRANCH   7  30
ATOM     30  S   UNL d   1       1.964   1.958  -0.161  0.00  0.00    -0.097 SA
ATOM     31  C   UNL d   1       3.385   0.961   0.351  0.00  0.00     0.099 C 
ENDBRANCH   7  30
TORSDOF 6
