REMARK  7 active torsions:
REMARK  status: ('A' for Active; 'I' for Inactive)
REMARK    1  A    between atoms: C_7  and  C_1 
REMARK    2  A    between atoms: S_15  and  C_6 
REMARK    3  A    between atoms: C_13  and  C_7 
REMARK    4  A    between atoms: C_10  and  C_18 
REMARK       I    between atoms: N_14  and  C_10 
REMARK    5  A    between atoms: C_16  and  C_13 
REMARK    6  A    between atoms: C_20  and  N_14 
REMARK    7  A    between atoms: C_18  and  S_15 
ROOT
ATOM      1  C   UNL d   1       7.703   2.599   0.182  0.00  0.00     0.144 A 
ATOM      2  N   UNL d   1       6.385   2.463   0.377  0.00  0.00    -0.337 N 
ATOM      3  HN  UNL d   1       5.838   3.175   0.861  1.00  0.00     0.168 HD
ATOM      4  N   UNL d   1       8.492   1.726  -0.454  0.00  0.00    -0.347 N 
ATOM      5  HN  UNL d   1       9.492   1.888  -0.575  1.00  0.00     0.167 HD
ATOM      6  C   UNL d   1       5.819   1.336  -0.100  0.00  0.00     0.035 A 
ATOM      7  C   UNL d   1       7.886   0.622  -0.924  0.00  0.00     0.092 A 
ATOM      8  C   UNL d   1       6.540   0.377  -0.777  0.00  0.00     0.046 A 
ENDROOT
BRANCH   1   9
ATOM      9  S   UNL d   1       8.365   4.189   0.598  0.00  0.00    -0.085 SA
BRANCH   9  10
ATOM     10  C   UNL d   1       9.115   4.584  -1.002  0.00  0.00     0.185 C 
BRANCH  10  11
ATOM     11  C   UNL d   1       8.179   4.609  -2.209  0.00  0.00     0.231 C 
ATOM     12  N   UNL d   1       6.821   4.603  -1.950  0.00  0.00    -0.327 N 
ATOM     13  H   UNL d   1       6.542   4.618  -0.974  0.00  0.00     0.169 HD
ATOM     14  O   UNL d   1       8.680   4.691  -3.331  0.00  0.00    -0.272 OA
BRANCH  12  15
ATOM     15  C   UNL d   1       5.768   4.622  -2.891  0.00  0.00     0.034 A 
ATOM     16  C   UNL d   1       5.954   4.510  -4.270  0.00  0.00     0.029 A 
ATOM     17  C   UNL d   1       4.869   4.612  -5.146  0.00  0.00     0.002 A 
ATOM     18  C   UNL d   1       3.586   4.818  -4.650  0.00  0.00     0.000 A 
ATOM     19  C   UNL d   1       3.381   4.888  -3.275  0.00  0.00     0.002 A 
ATOM     20  C   UNL d   1       4.466   4.779  -2.399  0.00  0.00     0.029 A 
ENDBRANCH  12  15
ENDBRANCH  10  11
ENDBRANCH   9  10
ENDBRANCH   1   9
BRANCH   6  21
ATOM     21  C   UNL d   1       4.371   1.173   0.108  0.00  0.00     0.031 C 
BRANCH  21  22
ATOM     22  C   UNL d   1       3.588   2.129   0.637  0.00  0.00     0.021 C 
BRANCH  22  23
ATOM     23  C   UNL d   1       2.184   1.967   0.853  0.00  0.00     0.012 A 
ATOM     24  S   UNL d   1       1.531   2.793   2.219  0.00  0.00    -0.089 SA
ATOM     25  C   UNL d   1      -0.058   2.226   1.940  0.00  0.00     0.016 A 
ATOM     26  C   UNL d   1      -1.202   2.506   2.715  0.00  0.00     0.019 A 
ATOM     27  C   UNL d   1      -0.116   1.421   0.806  0.00  0.00    -0.012 A 
ATOM     28  C   UNL d   1      -2.428   1.958   2.338  0.00  0.00     0.001 A 
ATOM     29  C   UNL d   1      -2.519   1.149   1.216  0.00  0.00     0.001 A 
ATOM     30  C   UNL d   1      -1.380   0.879   0.451  0.00  0.00     0.013 A 
ATOM     31  C   UNL d   1       1.182   1.293   0.159  0.00  0.00    -0.033 A 
ATOM     32  C   UNL d   1       1.336   0.526  -1.121  0.00  0.00     0.050 C 
ENDBRANCH  22  23
ENDBRANCH  21  22
ENDBRANCH   6  21
TORSDOF 7
