REMARK  5 active torsions:
REMARK  status: ('A' for Active; 'I' for Inactive)
REMARK       I    between atoms: N_3  and  C_1 
REMARK       I    between atoms: N_6  and  C_1 
REMARK    1  A    between atoms: C_2  and  N_4 
REMARK    2  A    between atoms: C_14  and  N_6 
REMARK    3  A    between atoms: O_15  and  C_17 
REMARK    4  A    between atoms: C_20  and  O_15 
REMARK    5  A    between atoms: C_25  and  C_20 
ROOT
ATOM      1  C   UNL d   1      -1.822   1.282  -4.737  0.00  0.00     0.124 A 
ATOM      2  C   UNL d   1      -3.141   0.865  -4.975  0.00  0.00     0.088 A 
ATOM      3  C   UNL d   1      -3.955   0.274  -3.955  0.00  0.00     0.103 C 
ATOM      4  N   UNL d   1      -4.648  -0.200  -3.154  0.00  0.00    -0.191 NA
ATOM      5  N   UNL d   1      -1.060   1.765  -5.750  0.00  0.00    -0.351 N 
ATOM      6  HN  UNL d   1      -0.100   2.066  -5.580  1.00  0.00     0.166 HD
ATOM      7  C   UNL d   1      -3.671   0.961  -6.269  0.00  0.00     0.028 A 
ATOM      8  C   UNL d   1      -1.595   1.842  -6.990  0.00  0.00     0.090 A 
ATOM      9  C   UNL d   1      -2.884   1.457  -7.297  0.00  0.00     0.019 A 
ENDROOT
BRANCH   1  10
ATOM     10  N   UNL d   1      -1.234   1.151  -3.479  0.00  0.00    -0.364 N 
ATOM     11  C   UNL d   1       0.235   0.989  -3.442  0.00  0.00     0.144 C 
ATOM     12  C   UNL d   1       0.636  -0.134  -2.460  0.00  0.00     0.147 C 
ATOM     13  N   UNL d   1       0.021  -0.048  -1.122  0.00  0.00    -0.332 N 
ATOM     14  C   UNL d   1       0.859  -0.075  -0.010  0.00  0.00     0.322 C 
ATOM     15  C   UNL d   1      -1.440  -0.157  -1.087  0.00  0.00     0.129 C 
ATOM     16  N   UNL d   1       0.209  -0.007   1.204  0.00  0.00    -0.309 N 
ATOM     17  O   UNL d   1       2.076  -0.172  -0.142  0.00  0.00    -0.247 OA
ATOM     18  H   UNL d   1      -0.753   0.286   1.192  0.00  0.00     0.170 HD
ATOM     19  C   UNL d   1      -2.120   1.206  -1.168  0.00  0.00     0.040 C 
ATOM     20  C   UNL d   1      -1.763   2.019  -2.417  0.00  0.00     0.126 C 
BRANCH  16  21
ATOM     21  C   UNL d   1       0.742  -0.301   2.476  0.00  0.00     0.036 A 
ATOM     22  C   UNL d   1       2.071  -0.660   2.687  0.00  0.00     0.032 A 
ATOM     23  C   UNL d   1       2.513  -1.049   3.952  0.00  0.00     0.039 A 
ATOM     24  C   UNL d   1       1.623  -1.105   5.022  0.00  0.00     0.069 A 
ATOM     25  C   UNL d   1       0.309  -0.681   4.839  0.00  0.00     0.039 A 
ATOM     26  C   UNL d   1      -0.133  -0.282   3.571  0.00  0.00     0.032 A 
BRANCH  24  27
ATOM     27  O   UNL d   1       1.958  -1.541   6.276  0.00  0.00    -0.347 OA
BRANCH  27  28
ATOM     28  C   UNL d   1       2.923  -2.600   6.278  0.00  0.00     0.214 C 
BRANCH  28  29
ATOM     29  C   UNL d   1       3.132  -3.101   7.684  0.00  0.00    -0.034 A 
ATOM     30  C   UNL d   1       2.919  -4.449   8.007  0.00  0.00     0.009 A 
ATOM     31  C   UNL d   1       3.179  -4.914   9.296  0.00  0.00     0.001 A 
ATOM     32  C   UNL d   1       3.655  -4.040  10.272  0.00  0.00     0.000 A 
ATOM     33  C   UNL d   1       3.867  -2.698   9.962  0.00  0.00     0.001 A 
ATOM     34  C   UNL d   1       3.606  -2.230   8.675  0.00  0.00     0.009 A 
ENDBRANCH  28  29
ENDBRANCH  27  28
ENDBRANCH  24  27
ENDBRANCH  16  21
ENDBRANCH   1  10
TORSDOF 5
