REMARK  5 active torsions:
REMARK  status: ('A' for Active; 'I' for Inactive)
REMARK    1  A    between atoms: N_8  and  C_1 
REMARK    2  A    between atoms: C_6  and  C_3 
REMARK    3  A    between atoms: C_12  and  C_11 
REMARK    4  A    between atoms: O_24  and  C_12 
REMARK    5  A    between atoms: C_26  and  O_24 
ROOT
ATOM      1  C   UNL d   1      -1.075  -1.502  -0.079  0.00  0.00     0.045 A 
ATOM      2  C   UNL d   1       0.125  -0.745  -0.134  0.00  0.00     0.018 A 
ATOM      3  C   UNL d   1      -2.278   0.588  -0.055  0.00  0.00     0.119 A 
ATOM      4  N   UNL d   1      -1.121   1.311  -0.052  0.00  0.00    -0.352 N 
ATOM      5  HN  UNL d   1      -1.146   2.330  -0.024  1.00  0.00     0.166 HD
ATOM      6  C   UNL d   1      -2.284  -0.808  -0.069  0.00  0.00     0.064 A 
ATOM      7  C   UNL d   1       0.048   0.659  -0.089  0.00  0.00     0.045 A 
ATOM      8  C   UNL d   1       1.396  -1.351  -0.229  0.00  0.00     0.033 A 
ATOM      9  C   UNL d   1       2.574  -0.612  -0.164  0.00  0.00     0.040 A 
ATOM     10  C   UNL d   1       1.231   1.392  -0.068  0.00  0.00     0.031 A 
ATOM     11  C   UNL d   1       2.489   0.776  -0.085  0.00  0.00     0.020 A 
ENDROOT
BRANCH   1  12
ATOM     12  N   UNL d   1      -1.011  -2.895  -0.014  0.00  0.00    -0.377 N 
ATOM     13  C   UNL d   1      -2.048  -3.753  -0.609  0.00  0.00     0.153 C 
ATOM     14  C   UNL d   1      -1.452  -5.171  -0.840  0.00  0.00     0.291 C 
ATOM     15  N   UNL d   1      -0.860  -5.777   0.380  0.00  0.00     0.087 N 
ATOM     16  C   UNL d   1       0.118  -4.840   0.981  0.00  0.00     0.291 C 
ATOM     17  C   UNL d   1      -0.199  -7.043   0.057  0.00  0.00     0.310 C 
ATOM     18  C   UNL d   1      -0.506  -3.455   1.262  0.00  0.00     0.153 C 
ENDBRANCH   1  12
BRANCH   3  19
ATOM     19  C   UNL d   1      -3.609   1.325  -0.031  0.00  0.00     0.432 C 
ATOM     20  F   UNL d   1      -3.502   2.683   0.031  0.00  0.00    -0.165 F 
ATOM     21  F   UNL d   1      -4.369   1.065  -1.136  0.00  0.00    -0.165 F 
ATOM     22  F   UNL d   1      -4.385   0.968   1.035  0.00  0.00    -0.165 F 
ENDBRANCH   3  19
BRANCH   9  23
ATOM     23  C   UNL d   1       3.846  -1.372  -0.058  0.00  0.00     0.293 C 
ATOM     24  O   UNL d   1       3.899  -2.590  -0.062  0.00  0.00    -0.259 OA
BRANCH  23  25
ATOM     25  O   UNL d   1       4.872  -0.526   0.195  0.00  0.00    -0.318 OA
BRANCH  25  26
ATOM     26  C   UNL d   1       6.019  -1.138   0.802  0.00  0.00     0.174 C 
ATOM     27  C   UNL d   1       5.834  -1.079   2.308  0.00  0.00     0.034 C 
ENDBRANCH  25  26
ENDBRANCH  23  25
ENDBRANCH   9  23
TORSDOF 5
