REMARK  4 active torsions:
REMARK  status: ('A' for Active; 'I' for Inactive)
REMARK    1  A    between atoms: C_9  and  N_1 
REMARK    2  A    between atoms: C_12  and  N_2 
REMARK    3  A    between atoms: C_17  and  C_12 
REMARK    4  A    between atoms: N_18  and  C_16 
ROOT
ATOM      1  N   UNL d   1       0.897  -1.417   0.080  0.00  0.00    -0.247 N 
ATOM      2  N   UNL d   1       2.102   0.671   0.013  0.00  0.00    -0.260 N 
ATOM      3  C   UNL d   1       2.127  -0.737   0.185  0.00  0.00     0.338 C 
ATOM      4  C   UNL d   1      -0.275  -0.693  -0.002  0.00  0.00     0.150 A 
ATOM      5  C   UNL d   1      -0.244   0.665  -0.067  0.00  0.00     0.147 A 
ATOM      6  C   UNL d   1       0.950   1.433  -0.088  0.00  0.00     0.282 C 
ATOM      7  N   UNL d   1      -1.565  -1.145  -0.059  0.00  0.00    -0.336 N 
ATOM      8  HN  UNL d   1      -1.881  -2.115  -0.063  1.00  0.00     0.168 HD
ATOM      9  N   UNL d   1      -1.546   1.072  -0.113  0.00  0.00    -0.345 N 
ATOM     10  C   UNL d   1      -2.312  -0.061  -0.110  0.00  0.00     0.182 A 
ATOM     11  O   UNL d   1       3.179  -1.313   0.478  0.00  0.00    -0.246 OA
ATOM     12  O   UNL d   1       0.924   2.660  -0.161  0.00  0.00    -0.265 OA
ATOM     13  H   UNL d   1      -1.874   2.031  -0.141  0.00  0.00     0.167 HD
ENDROOT
BRANCH   1  14
ATOM     14  C   UNL d   1       0.830  -2.839   0.132  0.00  0.00     0.047 A 
ATOM     15  C   UNL d   1      -0.071  -3.506   0.976  0.00  0.00     0.053 A 
ATOM     16  C   UNL d   1      -0.032  -4.899   1.121  0.00  0.00     0.008 A 
ATOM     17  C   UNL d   1       0.823  -5.639   0.303  0.00  0.00     0.023 A 
ATOM     18  C   UNL d   1       1.698  -4.997  -0.573  0.00  0.00     0.004 A 
ATOM     19  C   UNL d   1       1.714  -3.604  -0.643  0.00  0.00     0.030 A 
BRANCH  16  20
ATOM     20  N   UNL d   1      -0.982  -5.553   1.919  0.00  0.00    -0.303 NA
ATOM     21  H   UNL d   1      -1.327  -4.982   2.685  0.00  0.00     0.124 HD
ATOM     22  H   UNL d   1      -0.691  -6.476   2.225  0.00  0.00     0.124 HD
ENDBRANCH  16  20
ENDBRANCH   1  14
BRANCH   2  23
ATOM     23  C   UNL d   1       3.379   1.375   0.045  0.00  0.00     0.175 C 
BRANCH  23  24
ATOM     24  C   UNL d   1       4.064   1.396  -1.308  0.00  0.00    -0.040 A 
ATOM     25  C   UNL d   1       3.823   2.434  -2.220  0.00  0.00     0.009 A 
ATOM     26  C   UNL d   1       4.389   2.402  -3.497  0.00  0.00     0.001 A 
ATOM     27  C   UNL d   1       5.206   1.337  -3.874  0.00  0.00     0.000 A 
ATOM     28  C   UNL d   1       5.484   0.320  -2.964  0.00  0.00     0.001 A 
ATOM     29  C   UNL d   1       4.920   0.351  -1.688  0.00  0.00     0.009 A 
ENDBRANCH  23  24
ENDBRANCH   2  23
TORSDOF 4
