REMARK  3 active torsions:
REMARK  status: ('A' for Active; 'I' for Inactive)
REMARK       I    between atoms: N_2  and  C_1 
REMARK       I    between atoms: N_3  and  C_1 
REMARK    1  A    between atoms: C_5  and  N_3 
REMARK    2  A    between atoms: C_13  and  N_4 
REMARK    3  A    between atoms: C_19  and  C_13 
ROOT
ATOM      1  C   UNL d   1       0.873   0.030  -0.218  0.00  0.00     0.323 C 
ATOM      2  N   UNL d   1       0.330   0.856   0.758  0.00  0.00    -0.331 N 
ATOM      3  N   UNL d   1       0.400  -1.263  -0.239  0.00  0.00    -0.309 N 
ATOM      4  N   UNL d   1      -0.348   2.671   2.995  0.00  0.00     0.095 N 
ATOM      5  O   UNL d   1       1.738   0.450  -0.982  0.00  0.00    -0.247 OA
ATOM      6  C   UNL d   1       0.792   2.248   0.775  0.00  0.00     0.158 C 
ATOM      7  C   UNL d   1      -0.818   0.560   1.626  0.00  0.00     0.158 C 
ATOM      8  C   UNL d   1      -0.715   1.237   3.014  0.00  0.00     0.292 C 
ATOM      9  C   UNL d   1       0.894   2.806   2.202  0.00  0.00     0.292 C 
ATOM     10  H   UNL d   1      -0.524  -1.421   0.115  0.00  0.00     0.170 HD
ENDROOT
BRANCH   3  11
ATOM     11  C   UNL d   1       1.009  -2.357  -0.895  0.00  0.00     0.037 A 
ATOM     12  C   UNL d   1       2.322  -2.323  -1.375  0.00  0.00     0.036 A 
ATOM     13  C   UNL d   1       2.910  -3.453  -1.958  0.00  0.00    -0.059 A 
ATOM     14  C   UNL d   1       4.333  -3.406  -2.430  0.00  0.00     0.048 C 
ATOM     15  C   UNL d   1       2.166  -4.632  -2.061  0.00  0.00     0.013 A 
ATOM     16  C   UNL d   1       0.849  -4.688  -1.587  0.00  0.00    -0.059 A 
ATOM     17  C   UNL d   1       0.280  -3.547  -1.001  0.00  0.00     0.036 A 
ATOM     18  C   UNL d   1       0.083  -5.975  -1.679  0.00  0.00     0.048 C 
ENDBRANCH   3  11
BRANCH   4  19
ATOM     19  C   UNL d   1      -1.459   3.488   2.477  0.00  0.00     0.311 C 
BRANCH  19  20
ATOM     20  C   UNL d   1      -1.167   4.970   2.428  0.00  0.00    -0.028 A 
ATOM     21  C   UNL d   1      -1.169   5.657   1.209  0.00  0.00     0.026 A 
ATOM     22  C   UNL d   1      -0.897   7.017   1.211  0.00  0.00     0.088 A 
ATOM     23  N   UNL d   1      -0.630   7.727   2.328  0.00  0.00    -0.375 N 
ATOM     24  C   UNL d   1      -0.629   7.044   3.493  0.00  0.00     0.088 A 
ATOM     25  HN  UNL d   1      -0.438   8.728   2.293  1.00  0.00     0.164 HD
ATOM     26  C   UNL d   1      -0.889   5.687   3.594  0.00  0.00     0.026 A 
ENDBRANCH  19  20
ENDBRANCH   4  19
TORSDOF 3
