REMARK  3 active torsions:
REMARK  status: ('A' for Active; 'I' for Inactive)
REMARK    1  A    between atoms: C_2  and  C_1 
REMARK       I    between atoms: N_3  and  C_1 
REMARK    2  A    between atoms: N_4  and  N_3 
REMARK    3  A    between atoms: C_6  and  N_4 
ROOT
ATOM      1  C   UNL d   1       0.619   0.537   0.664  0.00  0.00     0.273 C 
ATOM      2  N   UNL d   1       0.236  -0.741   1.058  0.00  0.00    -0.282 N 
ATOM      3  O   UNL d   1      -0.180   1.278   0.088  0.00  0.00    -0.266 OA
ATOM      4  H   UNL d   1       0.913  -1.437   1.358  0.00  0.00     0.184 HD
ENDROOT
BRANCH   2   5
ATOM      5  N   UNL d   1      -1.011  -1.205   0.597  0.00  0.00    -0.200 NA
ATOM      6  H   UNL d   1      -1.569  -0.416   0.248  0.00  0.00     0.153 HD
BRANCH   5   7
ATOM      7  C   UNL d   1      -1.732  -1.981   1.541  0.00  0.00     0.066 A 
ATOM      8  C   UNL d   1      -1.130  -2.893   2.423  0.00  0.00     0.139 A 
ATOM      9  F   UNL d   1       0.209  -2.994   2.486  0.00  0.00    -0.204 F 
ATOM     10  C   UNL d   1      -1.890  -3.732   3.240  0.00  0.00     0.044 A 
ATOM     11  C   UNL d   1      -3.280  -3.689   3.178  0.00  0.00     0.003 A 
ATOM     12  C   UNL d   1      -3.904  -2.807   2.298  0.00  0.00     0.002 A 
ATOM     13  C   UNL d   1      -3.136  -1.972   1.479  0.00  0.00     0.028 A 
ENDBRANCH   5   7
ENDBRANCH   2   5
BRANCH   1  14
ATOM     14  C   UNL d   1       1.990   0.930   0.958  0.00  0.00     0.073 A 
ATOM     15  S   UNL d   1       3.041  -0.020   1.921  0.00  0.00    -0.097 SA
ATOM     16  C   UNL d   1       4.302   1.131   1.806  0.00  0.00     0.050 A 
ATOM     17  C   UNL d   1       3.946   2.212   1.032  0.00  0.00     0.009 A 
ATOM     18  C   UNL d   1       2.614   2.094   0.541  0.00  0.00     0.025 A 
ENDBRANCH   1  14
TORSDOF 3
