REMARK  6 active torsions:
REMARK  status: ('A' for Active; 'I' for Inactive)
REMARK       I    between atoms: N_2  and  C_1 
REMARK       I    between atoms: N_4  and  C_1 
REMARK    1  A    between atoms: C_9  and  N_2 
REMARK    2  A    between atoms: C_14  and  N_4 
REMARK    3  A    between atoms: C_21  and  N_4 
REMARK    4  A    between atoms: C_15  and  C_14 
REMARK    5  A    between atoms: C_17  and  C_15 
REMARK    6  A    between atoms: C_18  and  C_21 
ROOT
ATOM      1  N   UNL d   1      -4.370   1.668   0.801  0.00  0.00    -0.197 NA
ATOM      2  C   UNL d   1      -3.220   1.586   0.888  0.00  0.00     0.060 C 
ATOM      3  C   UNL d   1      -1.752   1.473   0.983  0.00  0.00     0.144 C 
ENDROOT
BRANCH   3   4
ATOM      4  C   UNL d   1      -1.157   1.100  -0.377  0.00  0.00     0.141 C 
BRANCH   4   5
ATOM      5  N   UNL d   1       0.313   0.995  -0.349  0.00  0.00    -0.333 N 
ATOM      6  C   UNL d   1       1.039  -0.135   0.025  0.00  0.00     0.322 C 
ATOM      7  N   UNL d   1       0.334  -1.322  -0.000  0.00  0.00    -0.309 N 
ATOM      8  O   UNL d   1       2.235  -0.060   0.302  0.00  0.00    -0.247 OA
ATOM      9  H   UNL d   1      -0.362  -1.368  -0.727  0.00  0.00     0.170 HD
BRANCH   7  10
ATOM     10  C   UNL d   1       0.938  -2.562   0.326  0.00  0.00     0.037 A 
ATOM     11  C   UNL d   1       1.796  -2.707   1.426  0.00  0.00     0.039 A 
ATOM     12  C   UNL d   1       2.374  -3.946   1.652  0.00  0.00    -0.021 A 
ATOM     13  C   UNL d   1       3.241  -4.403   2.762  0.00  0.00     0.068 C 
ATOM     14  C   UNL d   1       2.118  -5.016   0.809  0.00  0.00     0.075 A 
ATOM     15  C   UNL d   1       3.725  -5.724   2.160  0.00  0.00     0.180 C 
ATOM     16  O   UNL d   1       2.773  -6.167   1.163  0.00  0.00    -0.350 OA
ATOM     17  C   UNL d   1       1.263  -4.908  -0.265  0.00  0.00     0.039 A 
ATOM     18  C   UNL d   1       0.652  -3.671  -0.495  0.00  0.00     0.032 A 
ENDBRANCH   7  10
BRANCH   5  19
ATOM     19  C   UNL d   1       1.062   2.259  -0.465  0.00  0.00     0.133 C 
BRANCH  19  20
ATOM     20  C   UNL d   1       2.063   2.307  -1.629  0.00  0.00     0.077 C 
BRANCH  20  21
ATOM     21  C   UNL d   1       1.419   2.171  -2.986  0.00  0.00     0.010 A 
ATOM     22  N   UNL d   1       0.474   3.086  -3.318  0.00  0.00    -0.369 N 
ATOM     23  C   UNL d   1      -0.067   2.997  -4.554  0.00  0.00     0.088 A 
ATOM     24  HN  UNL d   1       0.185   3.812  -2.663  1.00  0.00     0.165 HD
ATOM     25  C   UNL d   1       0.282   2.032  -5.483  0.00  0.00     0.017 A 
ATOM     26  C   UNL d   1       1.253   1.105  -5.130  0.00  0.00     0.003 A 
ATOM     27  C   UNL d   1       1.835   1.174  -3.867  0.00  0.00     0.025 A 
ENDBRANCH  20  21
ENDBRANCH  19  20
ENDBRANCH   5  19
ENDBRANCH   4   5
ENDBRANCH   3   4
TORSDOF 6
