REMARK  3 active torsions:
REMARK  status: ('A' for Active; 'I' for Inactive)
REMARK    1  A    between atoms: N_4  and  C_1 
REMARK       I    between atoms: C_6  and  N_4 
REMARK    2  A    between atoms: C_10  and  C_5 
REMARK    3  A    between atoms: C_8  and  C_6 
ROOT
ATOM      1  C   UNL d   1       0.324  -1.175  -0.131  0.00  0.00     0.151 A 
ATOM      2  N   UNL d   1       1.447  -0.525  -0.257  0.00  0.00    -0.335 N 
ATOM      3  HN  UNL d   1       2.351  -0.956  -0.450  1.00  0.00     0.168 HD
ATOM      4  C   UNL d   1       1.240   0.834  -0.091  0.00  0.00     0.051 A 
ATOM      5  S   UNL d   1      -1.065  -0.229   0.157  0.00  0.00    -0.063 SA
ATOM      6  C   UNL d   1      -0.086   1.186   0.095  0.00  0.00     0.083 A 
ENDROOT
BRANCH   1   7
ATOM      7  N   UNL d   1       0.102  -2.519  -0.173  0.00  0.00    -0.302 N 
ATOM      8  C   UNL d   1       1.084  -3.417  -0.526  0.00  0.00     0.264 C 
ATOM      9  O   UNL d   1       2.209  -3.113  -0.912  0.00  0.00    -0.267 OA
ATOM     10  H   UNL d   1      -0.825  -2.849   0.049  0.00  0.00     0.171 HD
BRANCH   8  11
ATOM     11  C   UNL d   1       0.673  -4.821  -0.456  0.00  0.00     0.072 A 
ATOM     12  S   UNL d   1      -0.821  -5.318   0.227  0.00  0.00    -0.097 SA
ATOM     13  C   UNL d   1      -0.500  -6.966  -0.093  0.00  0.00     0.050 A 
ATOM     14  C   UNL d   1       0.721  -7.146  -0.702  0.00  0.00     0.009 A 
ATOM     15  C   UNL d   1       1.401  -5.912  -0.900  0.00  0.00     0.025 A 
ENDBRANCH   8  11
ENDBRANCH   1   7
BRANCH   4  16
ATOM     16  C   UNL d   1       2.379   1.749  -0.083  0.00  0.00    -0.006 A 
ATOM     17  C   UNL d   1       3.663   1.232  -0.329  0.00  0.00     0.059 A 
ATOM     18  C   UNL d   1       4.782   2.056  -0.258  0.00  0.00     0.155 A 
ATOM     19  F   UNL d   1       5.998   1.538  -0.477  0.00  0.00    -0.203 F 
ATOM     20  C   UNL d   1       4.643   3.401   0.051  0.00  0.00     0.154 A 
ATOM     21  C   UNL d   1       3.382   3.940   0.284  0.00  0.00     0.046 A 
ATOM     22  F   UNL d   1       5.721   4.191   0.138  0.00  0.00    -0.203 F 
ATOM     23  C   UNL d   1       2.252   3.117   0.215  0.00  0.00     0.017 A 
ENDBRANCH   4  16
TORSDOF 3
