REMARK  2 active torsions:
REMARK  status: ('A' for Active; 'I' for Inactive)
REMARK    1  A    between atoms: C_10  and  C_1 
REMARK       I    between atoms: C_6  and  N_12 
REMARK       I    between atoms: N_14  and  C_6 
REMARK    2  A    between atoms: N_12  and  N_8 
ROOT
ATOM      1  C   UNL d   1      -2.347  -0.214   0.001  0.00  0.00     0.054 A 
ATOM      2  C   UNL d   1      -1.383   0.902  -0.003  0.00  0.00     0.198 A 
ATOM      3  C   UNL d   1       0.045   0.526  -0.009  0.00  0.00     0.049 A 
ATOM      4  C   UNL d   1      -1.868  -1.466  -0.007  0.00  0.00     0.159 A 
ATOM      5  O   UNL d   1      -0.545  -1.831  -0.015  0.00  0.00    -0.321 OA
ATOM      6  C   UNL d   1       0.388  -0.826  -0.012  0.00  0.00     0.089 A 
ATOM      7  O   UNL d   1      -1.748   2.071   0.000  0.00  0.00    -0.286 OA
ATOM      8  C   UNL d   1       1.045   1.503  -0.009  0.00  0.00     0.018 A 
ATOM      9  C   UNL d   1       1.727  -1.212  -0.013  0.00  0.00     0.038 A 
ATOM     10  C   UNL d   1       2.387   1.115  -0.010  0.00  0.00     0.001 A 
ATOM     11  C   UNL d   1       2.727  -0.239  -0.011  0.00  0.00     0.003 A 
ENDROOT
BRANCH   1  12
ATOM     12  C   UNL d   1      -3.813  -0.010   0.014  0.00  0.00     0.124 C 
ATOM     13  N   UNL d   1      -4.637  -1.007   0.015  0.00  0.00    -0.307 N 
ATOM     14  HN  UNL d   1      -4.310  -1.973   0.007  1.00  0.00     0.186 HD
BRANCH  13  15
ATOM     15  N   UNL d   1      -5.966  -0.700   0.029  0.00  0.00    -0.252 N 
ATOM     16  C   UNL d   1      -6.916  -1.695   0.032  0.00  0.00     0.332 C 
ATOM     17  O   UNL d   1      -8.120  -1.479   0.058  0.00  0.00    -0.246 OA
ATOM     18  N   UNL d   1      -6.394  -2.947  -0.001  0.00  0.00    -0.351 N 
ATOM     19  H   UNL d   1      -5.388  -3.018   0.038  0.00  0.00     0.160 HD
ATOM     20  H   UNL d   1      -6.992  -3.757   0.038  0.00  0.00     0.160 HD
ATOM     21  H   UNL d   1      -6.293   0.260   0.048  0.00  0.00     0.191 HD
ENDBRANCH  13  15
ENDBRANCH   1  12
TORSDOF 2
