REMARK  5 active torsions:
REMARK  status: ('A' for Active; 'I' for Inactive)
REMARK    1  A    between atoms: N_3  and  C_1 
REMARK    2  A    between atoms: N_4  and  C_2 
REMARK    3  A    between atoms: C_7  and  C_13 
REMARK    4  A    between atoms: O_17  and  C_7 
REMARK    5  A    between atoms: C_18  and  O_17 
ROOT
ATOM      1  N   UNL d   1      -0.171   2.672  -0.176  0.00  0.00    -0.373 N 
ATOM      2  C   UNL d   1       0.289   3.385  -1.383  0.00  0.00     0.124 C 
ATOM      3  C   UNL d   1      -0.268   3.531   1.020  0.00  0.00     0.124 C 
ATOM      4  C   UNL d   1      -0.738   5.521  -0.486  0.00  0.00     0.088 C 
ATOM      5  C   UNL d   1      -1.190   4.720   0.744  0.00  0.00     0.034 C 
ATOM      6  C   UNL d   1      -0.639   4.564  -1.683  0.00  0.00     0.034 C 
ENDROOT
BRANCH   1   7
ATOM      7  C   UNL d   1       0.293   1.387   0.043  0.00  0.00     0.105 A 
ATOM      8  C   UNL d   1      -0.339   0.307   0.664  0.00  0.00     0.137 A 
ATOM      9  C   UNL d   1       0.511  -0.856   0.743  0.00  0.00     0.046 A 
ATOM     10  C   UNL d   1       1.740  -0.656   0.166  0.00  0.00     0.054 A 
ATOM     11  S   UNL d   1       1.890   0.912  -0.465  0.00  0.00    -0.082 SA
BRANCH   8  12
ATOM     12  N   UNL d   1      -1.700   0.292   1.169  0.00  0.00    -0.113 N 
ATOM     13  O   UNL d   1      -2.426   1.277   0.981  0.00  0.00    -0.532 OA
ATOM     14  O   UNL d   1      -2.049  -0.731   1.772  0.00  0.00    -0.532 OA
ENDBRANCH   8  12
ENDBRANCH   1   7
BRANCH   4  15
ATOM     15  C   UNL d   1       0.595   6.237  -0.281  0.00  0.00     0.263 C 
ATOM     16  O   UNL d   1       1.399   6.456  -1.177  0.00  0.00    -0.265 OA
BRANCH  15  17
ATOM     17  O   UNL d   1       0.780   6.579   1.023  0.00  0.00    -0.322 OA
BRANCH  17  18
ATOM     18  C   UNL d   1       2.124   6.895   1.412  0.00  0.00     0.174 C 
ATOM     19  C   UNL d   1       2.256   8.363   1.758  0.00  0.00     0.034 C 
ENDBRANCH  17  18
ENDBRANCH  15  17
ENDBRANCH   4  15
TORSDOF 5
