REMARK  10 active torsions:
REMARK  status: ('A' for Active; 'I' for Inactive)
REMARK    1  A    between atoms: C_8  and  C_1 
REMARK    2  A    between atoms: C_12  and  N_6 
REMARK    3  A    between atoms: C_9  and  C_10 
REMARK    4  A    between atoms: C_11  and  N_21 
REMARK    5  A    between atoms: N_16  and  C_11 
REMARK    6  A    between atoms: C_15  and  C_12 
REMARK    7  A    between atoms: O_17  and  C_13 
REMARK    8  A    between atoms: C_14  and  N_16 
REMARK       I    between atoms: N_22  and  C_15 
REMARK    9  A    between atoms: C_18  and  O_17 
REMARK   10  A    between atoms: N_21  and  N_22 
ROOT
ATOM      1  C   UNL d   1      -1.225   0.076  -0.805  0.00  0.00     0.147 A 
ATOM      2  N   UNL d   1      -0.287   0.843  -1.396  0.00  0.00    -0.268 N 
ATOM      3  HN  UNL d   1      -0.367   1.470  -2.196  1.00  0.00     0.190 HD
ATOM      4  N   UNL d   1      -0.731  -0.587   0.297  0.00  0.00    -0.266 N 
ATOM      5  HN  UNL d   1      -1.250  -1.223   0.903  1.00  0.00     0.186 HD
ATOM      6  N   UNL d   1       0.791   0.549  -0.629  0.00  0.00    -0.207 N 
ATOM      7  N   UNL d   1       0.540  -0.245   0.424  0.00  0.00    -0.002 NA
ENDROOT
BRANCH   6   8
ATOM      8  C   UNL d   1       2.002   1.332  -0.734  0.00  0.00     0.271 C 
BRANCH   8   9
ATOM      9  C   UNL d   1       3.228   0.475  -0.934  0.00  0.00     0.257 C 
ATOM     10  N   UNL d   1       4.199   0.930  -1.801  0.00  0.00    -0.266 N 
ATOM     11  H   UNL d   1       5.067   0.390  -1.779  0.00  0.00     0.190 HD
ATOM     12  O   UNL d   1       3.412  -0.595  -0.356  0.00  0.00    -0.270 OA
BRANCH  10  13
ATOM     13  N   UNL d   1       4.327   2.289  -2.162  0.00  0.00    -0.273 N 
ATOM     14  H   UNL d   1       3.667   2.601  -2.874  0.00  0.00     0.189 HD
BRANCH  13  15
ATOM     15  C   UNL d   1       5.609   2.818  -2.345  0.00  0.00     0.191 C 
ATOM     16  S   UNL d   1       7.028   1.990  -2.008  0.00  0.00    -0.039 SA
BRANCH  15  17
ATOM     17  N   UNL d   1       5.535   4.156  -2.735  0.00  0.00    -0.331 N 
ATOM     18  H   UNL d   1       5.014   4.726  -2.071  0.00  0.00     0.168 HD
BRANCH  17  19
ATOM     19  C   UNL d   1       6.462   4.830  -3.566  0.00  0.00     0.049 A 
ATOM     20  C   UNL d   1       6.794   6.182  -3.362  0.00  0.00     0.074 A 
ATOM     21  C   UNL d   1       7.692   6.806  -4.255  0.00  0.00     0.018 A 
ATOM     22  C   UNL d   1       8.219   6.122  -5.348  0.00  0.00     0.001 A 
ATOM     23  C   UNL d   1       7.859   4.799  -5.567  0.00  0.00     0.002 A 
ATOM     24  C   UNL d   1       6.992   4.159  -4.685  0.00  0.00     0.030 A 
BRANCH  20  25
ATOM     25  C   UNL d   1       6.288   7.005  -2.206  0.00  0.00     0.419 C 
ATOM     26  F   UNL d   1       5.349   6.372  -1.443  0.00  0.00    -0.166 F 
ATOM     27  F   UNL d   1       7.278   7.375  -1.349  0.00  0.00    -0.166 F 
ATOM     28  F   UNL d   1       5.698   8.164  -2.615  0.00  0.00    -0.166 F 
ENDBRANCH  20  25
ENDBRANCH  17  19
ENDBRANCH  15  17
ENDBRANCH  13  15
ENDBRANCH  10  13
ENDBRANCH   8   9
ENDBRANCH   6   8
BRANCH   1  29
ATOM     29  C   UNL d   1      -2.642   0.076  -1.141  0.00  0.00     0.044 A 
ATOM     30  C   UNL d   1      -3.176   0.225  -2.434  0.00  0.00     0.090 A 
ATOM     31  C   UNL d   1      -4.557   0.455  -2.584  0.00  0.00     0.038 A 
ATOM     32  C   UNL d   1      -5.420   0.444  -1.490  0.00  0.00     0.003 A 
ATOM     33  C   UNL d   1      -4.917   0.172  -0.226  0.00  0.00     0.001 A 
ATOM     34  C   UNL d   1      -3.543  -0.008  -0.055  0.00  0.00     0.018 A 
BRANCH  30  35
ATOM     35  O   UNL d   1      -2.531   0.222  -3.654  0.00  0.00    -0.308 OA
BRANCH  35  36
ATOM     36  C   UNL d   1      -1.384  -0.494  -3.885  0.00  0.00     0.098 C 
ATOM     37  C   UNL d   1      -1.092  -1.798  -3.467  0.00  0.00     0.069 C 
ATOM     38  C   UNL d   1       0.185  -2.328  -3.688  0.00  0.00     0.050 C 
ATOM     39 CL   UNL d   1      -2.258  -2.840  -2.732  0.00  0.00    -0.081 Cl
ATOM     40  C   UNL d   1       1.131  -1.592  -4.400  0.00  0.00     0.035 C 
ATOM     41  C   UNL d   1       0.802  -0.352  -4.938  0.00  0.00     0.026 C 
ATOM     42 CL   UNL d   1       2.716  -2.218  -4.628  0.00  0.00    -0.084 Cl
ATOM     43  C   UNL d   1      -0.454   0.194  -4.679  0.00  0.00     0.041 C 
ENDBRANCH  35  36
ENDBRANCH  30  35
ENDBRANCH   1  29
TORSDOF 10
