REMARK  7 active torsions:
REMARK  status: ('A' for Active; 'I' for Inactive)
REMARK       I    between atoms: C_2  and  N_1 
REMARK    1  A    between atoms: C_3  and  N_1 
REMARK    2  A    between atoms: C_5  and  C_2 
REMARK    3  A    between atoms: N_9  and  C_3 
REMARK    4  A    between atoms: C_4  and  C_8 
REMARK    5  A    between atoms: C_6  and  C_17 
REMARK    6  A    between atoms: C_22  and  C_7 
REMARK    7  A    between atoms: C_16  and  N_9 
ROOT
ATOM      1  N   UNL d   1      -0.380  -0.626   1.450  0.00  0.00    -0.299 N 
ATOM      2  C   UNL d   1       0.306   0.566   1.255  0.00  0.00     0.259 C 
ATOM      3  O   UNL d   1       0.380   1.055   0.130  0.00  0.00    -0.267 OA
ATOM      4  H   UNL d   1      -0.864  -0.873   0.594  0.00  0.00     0.171 HD
ENDROOT
BRANCH   2   5
ATOM      5  C   UNL d   1       0.932   1.242   2.408  0.00  0.00     0.049 A 
ATOM      6  C   UNL d   1       2.027   2.080   2.198  0.00  0.00     0.040 A 
ATOM      7  C   UNL d   1       2.672   2.629   3.301  0.00  0.00     0.034 A 
ATOM      8  C   UNL d   1       2.179   2.343   4.570  0.00  0.00     0.108 A 
ATOM      9  N   UNL d   1       1.072   1.600   4.800  0.00  0.00    -0.373 N 
ATOM     10  C   UNL d   1       0.468   1.074   3.708  0.00  0.00     0.104 A 
ATOM     11  HN  UNL d   1       0.713   1.445   5.742  1.00  0.00     0.164 HD
BRANCH   7  12
ATOM     12  C   UNL d   1       3.836   3.434   3.147  0.00  0.00    -0.060 C 
ATOM     13  C   UNL d   1       4.836   4.098   3.071  0.00  0.00    -0.061 C 
BRANCH  13  14
ATOM     14  C   UNL d   1       6.039   4.862   3.040  0.00  0.00     0.018 A 
ATOM     15  C   UNL d   1       7.105   4.499   3.868  0.00  0.00     0.020 A 
ATOM     16  C   UNL d   1       8.280   5.250   3.863  0.00  0.00     0.001 A 
ATOM     17  C   UNL d   1       8.391   6.363   3.031  0.00  0.00     0.000 A 
ATOM     18  C   UNL d   1       7.330   6.725   2.200  0.00  0.00     0.001 A 
ATOM     19  C   UNL d   1       6.153   5.974   2.203  0.00  0.00     0.020 A 
ENDBRANCH  13  14
ENDBRANCH   7  12
ENDBRANCH   2   5
BRANCH   1  20
ATOM     20  C   UNL d   1      -0.060  -1.768   2.168  0.00  0.00     0.179 C 
ATOM     21  S   UNL d   1       1.411  -2.130   2.874  0.00  0.00    -0.040 SA
BRANCH  20  22
ATOM     22  N   UNL d   1      -1.037  -2.729   2.219  0.00  0.00    -0.333 N 
ATOM     23  H   UNL d   1      -0.695  -3.630   2.544  0.00  0.00     0.168 HD
BRANCH  22  24
ATOM     24  C   UNL d   1      -2.401  -2.668   1.873  0.00  0.00     0.035 A 
ATOM     25  C   UNL d   1      -3.152  -1.488   1.866  0.00  0.00     0.045 A 
ATOM     26  C   UNL d   1      -4.513  -1.503   1.511  0.00  0.00     0.050 A 
ATOM     27  C   UNL d   1      -5.106  -2.720   1.149  0.00  0.00     0.016 A 
ATOM     28  C   UNL d   1      -4.367  -3.901   1.177  0.00  0.00     0.003 A 
ATOM     29  C   UNL d   1      -3.027  -3.877   1.560  0.00  0.00     0.029 A 
BRANCH  26  30
ATOM     30  C   UNL d   1      -5.344  -0.243   1.542  0.00  0.00     0.417 C 
ATOM     31  F   UNL d   1      -4.644   0.861   1.925  0.00  0.00    -0.166 F 
ATOM     32  F   UNL d   1      -5.882   0.056   0.328  0.00  0.00    -0.166 F 
ATOM     33  F   UNL d   1      -6.393  -0.337   2.405  0.00  0.00    -0.166 F 
ENDBRANCH  26  30
ENDBRANCH  22  24
ENDBRANCH  20  22
ENDBRANCH   1  20
TORSDOF 7
