REMARK  1 active torsions:
REMARK  status: ('A' for Active; 'I' for Inactive)
REMARK    1  A    between atoms: C_11  and  C_5 
ROOT
ATOM      1  N   UNL d   1      -0.301   0.686   0.027  0.00  0.00    -0.316 N 
ATOM      2  N   UNL d   1      -1.599  -1.134   0.054  0.00  0.00    -0.340 N 
ATOM      3  HN  UNL d   1      -1.917  -2.103   0.059  1.00  0.00     0.167 HD
ATOM      4  C   UNL d   1      -0.355  -0.701   0.047  0.00  0.00     0.111 A 
ATOM      5  C   UNL d   1      -2.381   0.001   0.054  0.00  0.00     0.060 A 
ATOM      6  C   UNL d   1      -1.595   1.135   0.028  0.00  0.00     0.128 A 
ATOM      7  C   UNL d   1       0.885   1.415   0.008  0.00  0.00     0.104 A 
ATOM      8  C   UNL d   1       0.887  -1.395   0.043  0.00  0.00     0.050 A 
ATOM      9  C   UNL d   1       2.064   0.763   0.008  0.00  0.00    -0.046 A 
ATOM     10  C   UNL d   1       2.043  -0.701   0.024  0.00  0.00     0.012 A 
ATOM     11  C   UNL d   1       3.393   1.449   0.001  0.00  0.00     0.049 C 
ENDROOT
BRANCH   5  12
ATOM     12  C   UNL d   1      -3.833  -0.019   0.018  0.00  0.00    -0.008 A 
ATOM     13  C   UNL d   1      -4.498  -1.127  -0.519  0.00  0.00     0.014 A 
ATOM     14  C   UNL d   1      -5.891  -1.133  -0.637  0.00  0.00     0.007 A 
ATOM     15  C   UNL d   1      -6.644  -0.035  -0.207  0.00  0.00    -0.062 A 
ATOM     16  C   UNL d   1      -5.986   1.055   0.371  0.00  0.00     0.007 A 
ATOM     17  C   UNL d   1      -8.131  -0.023  -0.398  0.00  0.00     0.048 C 
ATOM     18  C   UNL d   1      -4.593   1.062   0.483  0.00  0.00     0.014 A 
ENDBRANCH   5  12
TORSDOF 1
