REMARK  4 active torsions:
REMARK  status: ('A' for Active; 'I' for Inactive)
REMARK    1  A    between atoms: C_2  and  S_1 
REMARK    2  A    between atoms: C_4  and  S_1 
REMARK    3  A    between atoms: C_5  and  C_3 
REMARK    4  A    between atoms: C_8  and  C_5 
ROOT
ATOM      1  C   UNL d   1       0.527  -0.373   1.562  0.00  0.00     0.118 C 
ATOM      2  C   UNL d   1       0.684  -1.599   2.082  0.00  0.00     0.067 C 
ENDROOT
BRANCH   1   3
ATOM      3  S   UNL d   1       1.034  -0.122  -0.072  0.00  0.00     0.197 S 
ATOM      4  O   UNL d   1      -0.107  -0.326  -0.943  0.00  0.00    -0.218 OA
ATOM      5  O   UNL d   1       2.272  -0.844  -0.310  0.00  0.00    -0.218 OA
BRANCH   3   6
ATOM      6  C   UNL d   1       1.432   1.613  -0.114  0.00  0.00     0.063 A 
ATOM      7  C   UNL d   1       2.725   2.029   0.221  0.00  0.00     0.025 A 
ATOM      8  C   UNL d   1       3.056   3.383   0.138  0.00  0.00     0.020 A 
ATOM      9  C   UNL d   1       2.099   4.306  -0.287  0.00  0.00     0.011 A 
ATOM     10  C   UNL d   1       0.813   3.889  -0.635  0.00  0.00     0.020 A 
ATOM     11 BR   UNL d   1       2.554   6.137  -0.408  0.00  0.00    -0.051 Br
ATOM     12  C   UNL d   1       0.476   2.535  -0.554  0.00  0.00     0.025 A 
ENDBRANCH   3   6
ENDBRANCH   1   3
BRANCH   2  13
ATOM     13  C   UNL d   1       0.234  -1.863   3.473  0.00  0.00     0.182 C 
ATOM     14  O   UNL d   1       0.077  -0.953   4.276  0.00  0.00    -0.288 OA
BRANCH  13  15
ATOM     15  C   UNL d   1      -0.006  -3.279   3.863  0.00  0.00     0.014 A 
ATOM     16  C   UNL d   1       0.186  -3.645   5.203  0.00  0.00     0.018 A 
ATOM     17  C   UNL d   1      -0.103  -4.946   5.623  0.00  0.00     0.043 A 
ATOM     18  C   UNL d   1      -0.594  -5.870   4.706  0.00  0.00     0.116 A 
ATOM     19  C   UNL d   1      -0.784  -5.523   3.373  0.00  0.00     0.043 A 
ATOM     20  F   UNL d   1      -0.904  -7.106   5.115  0.00  0.00    -0.206 F 
ATOM     21  C   UNL d   1      -0.488  -4.225   2.946  0.00  0.00     0.018 A 
ENDBRANCH  13  15
ENDBRANCH   2  13
TORSDOF 4
