REMARK  2 active torsions:
REMARK  status: ('A' for Active; 'I' for Inactive)
REMARK    1  A    between atoms: N_2  and  S_1 
REMARK    2  A    between atoms: C_3  and  N_4 
ROOT
ATOM      1  N   UNL d   1       0.517   0.057   1.498  0.00  0.00    -0.208 NA
ATOM      2  N   UNL d   1       2.539  -0.667   3.465  0.00  0.00    -0.376 N 
ATOM      3  C   UNL d   1       1.221   1.091   2.331  0.00  0.00     0.127 C 
ATOM      4  C   UNL d   1       0.522  -1.281   2.182  0.00  0.00     0.127 C 
ATOM      5  C   UNL d   1       1.941  -1.712   2.606  0.00  0.00     0.138 C 
ATOM      6  C   UNL d   1       2.635   0.635   2.764  0.00  0.00     0.138 C 
ENDROOT
BRANCH   2   7
ATOM      7  C   UNL d   1       3.541  -0.950   4.403  0.00  0.00     0.077 A 
ATOM      8  C   UNL d   1       4.512  -1.972   4.287  0.00  0.00     0.077 A 
ATOM      9 CL   UNL d   1       4.711  -2.995   2.907  0.00  0.00    -0.080 Cl
ATOM     10  C   UNL d   1       5.437  -2.171   5.318  0.00  0.00     0.113 A 
ATOM     11  N   UNL d   1       5.504  -1.439   6.450  0.00  0.00    -0.372 N 
ATOM     12  C   UNL d   1       4.582  -0.462   6.562  0.00  0.00     0.113 A 
ATOM     13  HN  UNL d   1       6.204  -1.613   7.171  1.00  0.00     0.164 HD
ATOM     14  C   UNL d   1       3.603  -0.195   5.607  0.00  0.00     0.077 A 
ATOM     15 CL   UNL d   1       2.439   1.028   6.014  0.00  0.00    -0.080 Cl
ENDBRANCH   2   7
BRANCH   1  16
ATOM     16  S   UNL d   1       0.870   0.056  -0.160  0.00  0.00     0.207 S 
ATOM     17  O   UNL d   1       0.325  -1.154  -0.739  0.00  0.00    -0.212 OA
ATOM     18  O   UNL d   1       2.262   0.408  -0.330  0.00  0.00    -0.212 OA
ATOM     19  C   UNL d   1      -0.133   1.414  -0.724  0.00  0.00     0.180 C 
ENDBRANCH   1  16
TORSDOF 2
