REMARK  7 active torsions:
REMARK  status: ('A' for Active; 'I' for Inactive)
REMARK    1  A    between atoms: C_2  and  C_1 
REMARK    2  A    between atoms: C_8  and  C_2 
REMARK    3  A    between atoms: C_4  and  C_3 
REMARK    4  A    between atoms: O_5  and  C_4 
REMARK    5  A    between atoms: C_10  and  O_5 
REMARK    6  A    between atoms: C_6  and  C_10 
REMARK    7  A    between atoms: C_12  and  C_6 
ROOT
ATOM      1  C   UNL d   1       1.371  -0.277   0.178  0.00  0.00     0.031 A 
ATOM      2  C   UNL d   1       0.348  -1.234   0.259  0.00  0.00     0.053 A 
ATOM      3  C   UNL d   1       1.013   1.075   0.017  0.00  0.00     0.016 A 
ATOM      4  C   UNL d   1      -0.996  -0.840   0.128  0.00  0.00     0.018 A 
ATOM      5  C   UNL d   1      -0.325   1.462  -0.087  0.00  0.00     0.001 A 
ATOM      6  C   UNL d   1      -1.330   0.503  -0.040  0.00  0.00     0.001 A 
ENDROOT
BRANCH   2   7
ATOM      7  C   UNL d   1       0.554  -2.664   0.554  0.00  0.00     0.294 C 
ATOM      8  O   UNL d   1      -0.038  -3.567  -0.010  0.00  0.00    -0.259 OA
BRANCH   7   9
ATOM      9  O   UNL d   1       1.398  -2.773   1.603  0.00  0.00    -0.310 OA
BRANCH   9  10
ATOM     10  C   UNL d   1       1.442  -4.074   2.192  0.00  0.00     0.263 C 
BRANCH  10  11
ATOM     11  C   UNL d   1       0.254  -4.272   3.127  0.00  0.00     0.183 C 
ATOM     12  O   UNL d   1      -0.617  -3.418   3.294  0.00  0.00    -0.290 OA
BRANCH  11  13
ATOM     13  C   UNL d   1       0.141  -5.568   3.847  0.00  0.00     0.012 A 
ATOM     14  C   UNL d   1       1.265  -6.344   4.152  0.00  0.00     0.015 A 
ATOM     15  C   UNL d   1       1.112  -7.550   4.840  0.00  0.00     0.001 A 
ATOM     16  C   UNL d   1      -0.158  -7.984   5.219  0.00  0.00     0.000 A 
ATOM     17  C   UNL d   1      -1.279  -7.211   4.920  0.00  0.00     0.001 A 
ATOM     18  C   UNL d   1      -1.131  -6.002   4.241  0.00  0.00     0.015 A 
ENDBRANCH  11  13
ENDBRANCH  10  11
ENDBRANCH   9  10
ENDBRANCH   7   9
ENDBRANCH   2   7
BRANCH   1  19
ATOM     19  C   UNL d   1       2.831  -0.543   0.306  0.00  0.00     0.193 C 
ATOM     20  O   UNL d   1       3.524   0.304   0.870  0.00  0.00    -0.287 OA
BRANCH  19  21
ATOM     21  C   UNL d   1       3.515  -1.741  -0.245  0.00  0.00     0.015 A 
ATOM     22  C   UNL d   1       4.703  -2.158   0.376  0.00  0.00     0.015 A 
ATOM     23  C   UNL d   1       5.402  -3.266  -0.104  0.00  0.00     0.001 A 
ATOM     24  C   UNL d   1       4.918  -3.963  -1.209  0.00  0.00     0.000 A 
ATOM     25  C   UNL d   1       3.744  -3.547  -1.839  0.00  0.00     0.001 A 
ATOM     26  C   UNL d   1       3.049  -2.429  -1.369  0.00  0.00     0.015 A 
ENDBRANCH  19  21
ENDBRANCH   1  19
TORSDOF 7
