REMARK  2 active torsions:
REMARK  status: ('A' for Active; 'I' for Inactive)
REMARK    1  A    between atoms: C_7  and  C_3 
REMARK    2  A    between atoms: C_12  and  C_4 
ROOT
ATOM      1  N   UNL d   1      -3.248   0.790   2.488  0.00  0.00    -0.197 NA
ATOM      2  C   UNL d   1      -2.370   0.064   2.262  0.00  0.00     0.065 C 
ATOM      3  C   UNL d   1      -1.286  -0.884   1.986  0.00  0.00     0.188 C 
ENDROOT
BRANCH   3   4
ATOM      4  C   UNL d   1      -0.385  -0.334   0.928  0.00  0.00     0.064 A 
ATOM      5  N   UNL d   1       0.672   0.416   1.165  0.00  0.00    -0.352 N 
ATOM      6  C   UNL d   1       1.292   0.764  -0.028  0.00  0.00     0.049 A 
ATOM      7  HN  UNL d   1       0.989   0.701   2.091  1.00  0.00     0.166 HD
ATOM      8  C   UNL d   1       0.681   0.261  -1.160  0.00  0.00     0.081 A 
ATOM      9  S   UNL d   1      -0.680  -0.685  -0.731  0.00  0.00    -0.085 SA
BRANCH   6  10
ATOM     10  C   UNL d   1       2.476   1.617  -0.049  0.00  0.00    -0.006 A 
ATOM     11  C   UNL d   1       3.408   1.552  -1.095  0.00  0.00     0.053 A 
ATOM     12  C   UNL d   1       4.529   2.383  -1.098  0.00  0.00     0.103 A 
ATOM     13  O   UNL d   1       5.391   2.240  -2.155  0.00  0.00    -0.346 OA
ATOM     14  C   UNL d   1       4.724   3.306  -0.067  0.00  0.00     0.102 A 
ATOM     15  C   UNL d   1       6.648   2.872  -1.891  0.00  0.00     0.202 C 
ATOM     16  C   UNL d   1       6.442   4.255  -1.296  0.00  0.00     0.202 C 
ATOM     17  O   UNL d   1       5.785   4.171  -0.025  0.00  0.00    -0.346 OA
ATOM     18  C   UNL d   1       3.818   3.367   0.989  0.00  0.00     0.040 A 
ATOM     19  C   UNL d   1       2.700   2.525   0.999  0.00  0.00     0.017 A 
ENDBRANCH   6  10
ENDBRANCH   3   4
TORSDOF 2
