REMARK  6 active torsions:
REMARK  status: ('A' for Active; 'I' for Inactive)
REMARK    1  A    between atoms: C_2  and  S_1 
REMARK    2  A    between atoms: C_8  and  S_1 
REMARK       I    between atoms: C_4  and  N_3 
REMARK    3  A    between atoms: O_20  and  C_4 
REMARK    4  A    between atoms: N_11  and  C_5 
REMARK    5  A    between atoms: C_19  and  N_11 
REMARK    6  A    between atoms: C_25  and  O_20 
ROOT
ATOM      1  C   UNL d   1       0.994  -0.109   1.953  0.00  0.00     0.159 C 
ATOM      2  C   UNL d   1       0.038   0.662   2.496  0.00  0.00     0.118 C 
ATOM      3  C   UNL d   1       1.433   0.042   0.620  0.00  0.00     0.113 C 
ATOM      4  N   UNL d   1       1.793   0.209  -0.472  0.00  0.00    -0.191 NA
ENDROOT
BRANCH   1   5
ATOM      5  S   UNL d   1       1.746  -1.352   2.894  0.00  0.00     0.218 S 
ATOM      6  O   UNL d   1       1.647  -2.620   2.193  0.00  0.00    -0.216 OA
ATOM      7  O   UNL d   1       1.330  -1.267   4.284  0.00  0.00    -0.216 OA
BRANCH   5   8
ATOM      8  C   UNL d   1       3.473  -0.882   2.862  0.00  0.00     0.065 A 
ATOM      9  C   UNL d   1       3.996  -0.099   3.897  0.00  0.00     0.025 A 
ATOM     10  C   UNL d   1       5.348   0.255   3.873  0.00  0.00     0.025 A 
ATOM     11  C   UNL d   1       6.163  -0.177   2.826  0.00  0.00     0.034 A 
ATOM     12  C   UNL d   1       5.643  -0.972   1.804  0.00  0.00     0.025 A 
ATOM     13 CL   UNL d   1       7.824   0.269   2.799  0.00  0.00    -0.084 Cl
ATOM     14  C   UNL d   1       4.295  -1.337   1.824  0.00  0.00     0.025 A 
ENDBRANCH   5   8
ENDBRANCH   1   5
BRANCH   2  15
ATOM     15  N   UNL d   1      -0.656   1.696   1.899  0.00  0.00    -0.392 N 
ATOM     16  H   UNL d   1      -0.524   1.817   0.895  0.00  0.00     0.159 HD
BRANCH  15  17
ATOM     17  C   UNL d   1      -1.724   2.488   2.507  0.00  0.00     0.084 C 
ATOM     18  C   UNL d   1      -3.091   1.847   2.252  0.00  0.00     0.045 C 
ATOM     19  C   UNL d   1      -3.534   2.006   0.804  0.00  0.00     0.130 C 
ATOM     20  N   UNL d   1      -3.480   3.405   0.414  0.00  0.00    -0.328 N 
ATOM     21  C   UNL d   1      -2.183   4.055   0.549  0.00  0.00     0.130 C 
ATOM     22  C   UNL d   1      -4.549   3.962  -0.265  0.00  0.00     0.362 C 
ATOM     23  C   UNL d   1      -1.661   3.927   1.978  0.00  0.00     0.045 C 
ATOM     24  O   UNL d   1      -5.590   3.364  -0.508  0.00  0.00    -0.238 OA
BRANCH  22  25
ATOM     25  O   UNL d   1      -4.299   5.238  -0.661  0.00  0.00    -0.304 OA
BRANCH  25  26
ATOM     26  C   UNL d   1      -5.221   5.783  -1.612  0.00  0.00     0.176 C 
ATOM     27  C   UNL d   1      -4.742   5.409  -3.002  0.00  0.00     0.034 C 
ENDBRANCH  25  26
ENDBRANCH  22  25
ENDBRANCH  15  17
ENDBRANCH   2  15
TORSDOF 6
