REMARK  8 active torsions:
REMARK  status: ('A' for Active; 'I' for Inactive)
REMARK    1  A    between atoms: C_2  and  N_1 
REMARK    2  A    between atoms: C_18  and  C_2 
REMARK    3  A    between atoms: C_19  and  C_2 
REMARK    4  A    between atoms: C_3  and  C_20 
REMARK       I    between atoms: N_12  and  C_3 
REMARK    5  A    between atoms: C_6  and  C_11 
REMARK    6  A    between atoms: N_7  and  N_12 
REMARK    7  A    between atoms: S_13  and  C_10 
REMARK    8  A    between atoms: C_20  and  S_13 
ROOT
ATOM      1  N   UNL d   1       0.308   0.930  -0.215  0.00  0.00     0.104 N 
ATOM      2  C   UNL d   1      -0.986   0.283   0.127  0.00  0.00     0.290 C 
ATOM      3  C   UNL d   1       0.995  -0.299   0.272  0.00  0.00     0.290 C 
ATOM      4  C   UNL d   1      -0.290  -1.093  -0.073  0.00  0.00     0.104 C 
ENDROOT
BRANCH   4   5
ATOM      5  S   UNL d   1      -0.348  -1.705  -1.835  0.00  0.00    -0.151 SA
BRANCH   5   6
ATOM      6  C   UNL d   1       1.008  -2.902  -1.671  0.00  0.00     0.178 C 
BRANCH   6   7
ATOM      7  C   UNL d   1       1.364  -3.700  -2.911  0.00  0.00     0.245 C 
ATOM      8  N   UNL d   1       0.631  -3.469  -4.061  0.00  0.00    -0.270 N 
ATOM      9  H   UNL d   1      -0.106  -2.768  -4.070  0.00  0.00     0.190 HD
ATOM     10  O   UNL d   1       2.296  -4.510  -2.846  0.00  0.00    -0.271 OA
BRANCH   8  11
ATOM     11  N   UNL d   1       1.027  -4.101  -5.204  0.00  0.00    -0.308 N 
ATOM     12  C   UNL d   1       0.359  -3.901  -6.290  0.00  0.00     0.126 C 
ATOM     13  HN  UNL d   1       1.837  -4.720  -5.200  1.00  0.00     0.186 HD
BRANCH  12  14
ATOM     14  C   UNL d   1       0.817  -4.531  -7.510  0.00  0.00     0.021 A 
ATOM     15  S   UNL d   1      -0.044  -4.319  -8.970  0.00  0.00    -0.101 SA
ATOM     16  C   UNL d   1       1.082  -5.267  -9.849  0.00  0.00     0.050 A 
ATOM     17  C   UNL d   1       2.091  -5.748  -9.043  0.00  0.00     0.008 A 
ATOM     18  C   UNL d   1       1.933  -5.330  -7.692  0.00  0.00     0.021 A 
ENDBRANCH  12  14
ENDBRANCH   8  11
ENDBRANCH   6   7
ENDBRANCH   5   6
ENDBRANCH   4   5
BRANCH   1  19
ATOM     19  C   UNL d   1       0.657   2.089   0.639  0.00  0.00     0.289 C 
BRANCH  19  20
ATOM     20  C   UNL d   1       2.023   2.651   0.219  0.00  0.00    -0.021 A 
ATOM     21  C   UNL d   1       2.240   3.106  -1.095  0.00  0.00     0.010 A 
ATOM     22  C   UNL d   1       3.453   3.689  -1.464  0.00  0.00     0.001 A 
ATOM     23  C   UNL d   1       4.475   3.814  -0.528  0.00  0.00     0.000 A 
ATOM     24  C   UNL d   1       4.289   3.343   0.772  0.00  0.00     0.001 A 
ATOM     25  C   UNL d   1       3.073   2.764   1.145  0.00  0.00     0.010 A 
ENDBRANCH  19  20
BRANCH  19  26
ATOM     26  C   UNL d   1      -0.386   3.215   0.652  0.00  0.00    -0.021 A 
ATOM     27  C   UNL d   1      -0.506   4.024   1.797  0.00  0.00     0.010 A 
ATOM     28  C   UNL d   1      -1.415   5.083   1.834  0.00  0.00     0.001 A 
ATOM     29  C   UNL d   1      -2.212   5.354   0.726  0.00  0.00     0.000 A 
ATOM     30  C   UNL d   1      -2.096   4.574  -0.422  0.00  0.00     0.001 A 
ATOM     31  C   UNL d   1      -1.185   3.517  -0.462  0.00  0.00     0.010 A 
ENDBRANCH  19  26
ENDBRANCH   1  19
TORSDOF 8
