REMARK  3 active torsions:
REMARK  status: ('A' for Active; 'I' for Inactive)
REMARK    1  A    between atoms: C_12  and  C_3 
REMARK    2  A    between atoms: C_13  and  C_4 
REMARK    3  A    between atoms: C_14  and  C_10 
ROOT
ATOM      1  C   UNL d   1       0.029  -0.877  -0.039  0.00  0.00     0.141 A 
ATOM      2  N   UNL d   1      -0.263   0.487  -0.030  0.00  0.00    -0.242 N 
ATOM      3  C   UNL d   1      -2.171  -0.521   0.036  0.00  0.00     0.147 A 
ATOM      4  C   UNL d   1      -1.184  -1.552  -0.011  0.00  0.00     0.053 A 
ATOM      5  N   UNL d   1      -1.600   0.700  -0.007  0.00  0.00    -0.287 N 
ATOM      6  HN  UNL d   1      -2.078   1.600  -0.020  1.00  0.00     0.187 HD
ATOM      7  N   UNL d   1       1.314  -1.334  -0.051  0.00  0.00    -0.343 N 
ATOM      8  HN  UNL d   1       1.520  -2.333  -0.076  1.00  0.00     0.167 HD
ATOM      9  C   UNL d   1       0.760   1.453  -0.034  0.00  0.00     0.045 A 
ATOM     10  C   UNL d   1       2.051   1.048  -0.032  0.00  0.00     0.021 A 
ATOM     11  C   UNL d   1       2.267  -0.450  -0.030  0.00  0.00     0.020 A 
ATOM     12  C   UNL d   1       0.356   2.904  -0.036  0.00  0.00     0.071 C 
ATOM     13  C   UNL d   1       3.676  -1.005   0.005  0.00  0.00     0.069 C 
ENDROOT
BRANCH   4  14
ATOM     14  C   UNL d   1      -1.285  -3.013  -0.002  0.00  0.00    -0.020 A 
ATOM     15  C   UNL d   1      -2.285  -3.678  -0.724  0.00  0.00     0.014 A 
ATOM     16  C   UNL d   1      -2.380  -5.076  -0.695  0.00  0.00     0.020 A 
ATOM     17  C   UNL d   1      -1.453  -5.822   0.029  0.00  0.00     0.011 A 
ATOM     18  C   UNL d   1      -0.436  -5.184   0.729  0.00  0.00     0.020 A 
ATOM     19 BR   UNL d   1      -1.573  -7.707   0.059  0.00  0.00    -0.051 Br
ATOM     20  C   UNL d   1      -0.363  -3.788   0.722  0.00  0.00     0.014 A 
ENDBRANCH   4  14
BRANCH   3  21
ATOM     21  C   UNL d   1      -3.670  -0.641   0.137  0.00  0.00     0.434 C 
ATOM     22  F   UNL d   1      -4.101  -1.895   0.434  0.00  0.00    -0.165 F 
ATOM     23  F   UNL d   1      -4.188   0.166   1.104  0.00  0.00    -0.165 F 
ATOM     24  F   UNL d   1      -4.283  -0.296  -1.028  0.00  0.00    -0.165 F 
ENDBRANCH   3  21
BRANCH  10  25
ATOM     25  C   UNL d   1       3.175   1.993  -0.027  0.00  0.00    -0.022 A 
ATOM     26  C   UNL d   1       3.720   2.433   1.185  0.00  0.00     0.012 A 
ATOM     27  C   UNL d   1       4.796   3.323   1.186  0.00  0.00     0.001 A 
ATOM     28  C   UNL d   1       5.324   3.781  -0.019  0.00  0.00     0.000 A 
ATOM     29  C   UNL d   1       4.780   3.351  -1.229  0.00  0.00     0.001 A 
ATOM     30  C   UNL d   1       3.707   2.458  -1.234  0.00  0.00     0.012 A 
ENDBRANCH  10  25
TORSDOF 3
