REMARK  4 active torsions:
REMARK  status: ('A' for Active; 'I' for Inactive)
REMARK    1  A    between atoms: C_5  and  C_1 
REMARK    2  A    between atoms: C_6  and  C_1 
REMARK    3  A    between atoms: N_8  and  N_2 
REMARK    4  A    between atoms: C_15  and  N_8 
ROOT
ATOM      1  N   UNL d   1       1.086  -1.739   1.474  0.00  0.00    -0.205 NA
ATOM      2  H   UNL d   1       1.841  -1.262   1.989  0.00  0.00     0.153 HD
ENDROOT
BRANCH   1   3
ATOM      3  N   UNL d   1       0.409  -1.010   0.535  0.00  0.00    -0.310 N 
ATOM      4  C   UNL d   1       0.930   0.121   0.134  0.00  0.00     0.134 C 
ATOM      5  HN  UNL d   1      -0.480  -1.340   0.158  1.00  0.00     0.181 HD
BRANCH   4   6
ATOM      6  C   UNL d   1       0.064   0.936  -0.805  0.00  0.00     0.176 C 
ATOM      7  O   UNL d   1       0.583   1.552  -1.726  0.00  0.00    -0.291 OA
ATOM      8  C   UNL d   1      -1.413   0.973  -0.531  0.00  0.00     0.098 C 
ENDBRANCH   4   6
BRANCH   4   9
ATOM      9  C   UNL d   1       2.277   0.627   0.637  0.00  0.00     0.176 C 
ATOM     10  O   UNL d   1       2.559   0.458   1.824  0.00  0.00    -0.291 OA
ATOM     11  C   UNL d   1       3.261   1.206  -0.335  0.00  0.00     0.098 C 
ENDBRANCH   4   9
ENDBRANCH   1   3
BRANCH   1  12
ATOM     12  C   UNL d   1       0.304  -2.515   2.369  0.00  0.00     0.030 A 
ATOM     13  C   UNL d   1      -0.979  -2.983   2.039  0.00  0.00     0.065 A 
ATOM     14  C   UNL d   1      -1.655  -3.752   2.966  0.00  0.00     0.106 A 
ATOM     15  O   UNL d   1      -2.906  -4.268   2.815  0.00  0.00    -0.323 OA
ATOM     16  C   UNL d   1      -1.100  -4.082   4.180  0.00  0.00     0.105 A 
ATOM     17  C   UNL d   1      -3.063  -4.972   4.065  0.00  0.00     0.352 A 
ATOM     18  O   UNL d   1      -1.929  -4.839   4.946  0.00  0.00    -0.323 OA
ATOM     19  C   UNL d   1       0.166  -3.673   4.530  0.00  0.00     0.041 A 
ATOM     20  C   UNL d   1       0.875  -2.898   3.607  0.00  0.00     0.028 A 
ENDBRANCH   1  12
TORSDOF 4
