REMARK  4 active torsions:
REMARK  status: ('A' for Active; 'I' for Inactive)
REMARK    1  A    between atoms: S_8  and  C_1 
REMARK    2  A    between atoms: C_3  and  N_7 
REMARK    3  A    between atoms: C_6  and  C_15 
REMARK       I    between atoms: N_7  and  C_6 
REMARK    4  A    between atoms: C_15  and  S_8 
ROOT
ATOM      1  C   UNL d   1       0.788   5.495  -0.582  0.00  0.00     0.227 C 
ATOM      2  N   UNL d   1      -0.286   5.732   0.245  0.00  0.00    -0.355 N 
ATOM      3  O   UNL d   1       0.816   4.547  -1.366  0.00  0.00    -0.273 OA
ATOM      4  H   UNL d   1      -0.269   6.574   0.811  0.00  0.00     0.162 HD
ENDROOT
BRANCH   2   5
ATOM      5  C   UNL d   1      -1.498   4.922   0.203  0.00  0.00     0.092 C 
ATOM      6  C   UNL d   1      -2.555   5.379   1.236  0.00  0.00     0.064 C 
ATOM      7  C   UNL d   1      -3.284   4.105   1.528  0.00  0.00    -0.050 A 
ATOM      8  C   UNL d   1      -4.494   3.945   2.184  0.00  0.00     0.007 A 
ATOM      9  C   UNL d   1      -2.550   2.997   1.097  0.00  0.00    -0.050 A 
ATOM     10  C   UNL d   1      -4.970   2.648   2.394  0.00  0.00     0.001 A 
ATOM     11  C   UNL d   1      -4.232   1.537   1.959  0.00  0.00     0.001 A 
ATOM     12  C   UNL d   1      -3.009   1.707   1.309  0.00  0.00     0.007 A 
ATOM     13  C   UNL d   1      -1.258   3.415   0.467  0.00  0.00     0.064 C 
ENDBRANCH   2   5
BRANCH   1  14
ATOM     14  C   UNL d   1       1.915   6.519  -0.562  0.00  0.00     0.182 C 
BRANCH  14  15
ATOM     15  S   UNL d   1       2.076   7.393   1.024  0.00  0.00    -0.113 SA
BRANCH  15  16
ATOM     16  C   UNL d   1       3.430   8.464   0.669  0.00  0.00     0.041 A 
ATOM     17  S   UNL d   1       3.401   9.620  -0.593  0.00  0.00    -0.095 SA
ATOM     18  C   UNL d   1       4.974  10.172  -0.213  0.00  0.00     0.051 A 
ATOM     19  C   UNL d   1       5.508   9.504   0.866  0.00  0.00     0.009 A 
ATOM     20  C   UNL d   1       4.611   8.520   1.379  0.00  0.00     0.026 A 
ENDBRANCH  15  16
ENDBRANCH  14  15
ENDBRANCH   1  14
TORSDOF 4
