REMARK  3 active torsions:
REMARK  status: ('A' for Active; 'I' for Inactive)
REMARK    1  A    between atoms: N_4  and  C_1 
REMARK       I    between atoms: C_6  and  N_4 
REMARK    2  A    between atoms: C_13  and  C_5 
REMARK    3  A    between atoms: C_8  and  C_6 
ROOT
ATOM      1  C   UNL d   1       0.320  -1.185  -0.086  0.00  0.00     0.151 A 
ATOM      2  N   UNL d   1       1.436  -0.529  -0.259  0.00  0.00    -0.335 N 
ATOM      3  HN  UNL d   1       2.335  -0.955  -0.484  1.00  0.00     0.168 HD
ATOM      4  C   UNL d   1       1.222   0.827  -0.093  0.00  0.00     0.051 A 
ATOM      5  S   UNL d   1      -1.068  -0.242   0.218  0.00  0.00    -0.063 SA
ATOM      6  C   UNL d   1      -0.100   1.179   0.115  0.00  0.00     0.083 A 
ENDROOT
BRANCH   1   7
ATOM      7  N   UNL d   1       0.118  -2.535  -0.106  0.00  0.00    -0.301 N 
ATOM      8  C   UNL d   1       1.093  -3.403  -0.547  0.00  0.00     0.281 C 
ATOM      9  O   UNL d   1       2.185  -3.077  -1.004  0.00  0.00    -0.265 OA
ATOM     10  H   UNL d   1      -0.784  -2.897   0.169  0.00  0.00     0.171 HD
BRANCH   8  11
ATOM     11  C   UNL d   1       0.702  -4.799  -0.484  0.00  0.00     0.142 A 
ATOM     12  O   UNL d   1      -0.496  -5.164   0.074  0.00  0.00    -0.317 OA
ATOM     13  C   UNL d   1      -0.591  -6.516  -0.047  0.00  0.00     0.143 A 
ATOM     14  C   UNL d   1       0.518  -7.028  -0.678  0.00  0.00     0.027 A 
ATOM     15  C   UNL d   1       1.362  -5.926  -0.938  0.00  0.00     0.045 A 
ENDBRANCH   8  11
ENDBRANCH   1   7
BRANCH   4  16
ATOM     16  C   UNL d   1       2.339   1.761  -0.139  0.00  0.00    -0.009 A 
ATOM     17  C   UNL d   1       3.448   1.463  -0.945  0.00  0.00     0.014 A 
ATOM     18  C   UNL d   1       4.560   2.308  -0.970  0.00  0.00     0.001 A 
ATOM     19  C   UNL d   1       4.580   3.455  -0.179  0.00  0.00     0.000 A 
ATOM     20  C   UNL d   1       3.490   3.756   0.636  0.00  0.00     0.001 A 
ATOM     21  C   UNL d   1       2.372   2.916   0.655  0.00  0.00     0.014 A 
ENDBRANCH   4  16
TORSDOF 3
