REMARK  3 active torsions:
REMARK  status: ('A' for Active; 'I' for Inactive)
REMARK    1  A    between atoms: N_2  and  C_12 
REMARK    2  A    between atoms: N_10  and  C_8 
REMARK    3  A    between atoms: C_16  and  C_11 
ROOT
ATOM      1  N   UNL d   1       4.381   0.148   0.901  0.00  0.00    -0.365 N 
ATOM      2  HN  UNL d   1       5.134   0.436   1.526  1.00  0.00     0.165 HD
ATOM      3  C   UNL d   1       4.581  -0.807   0.051  0.00  0.00     0.099 C 
ENDROOT
BRANCH   1   4
ATOM      4  C   UNL d   1       3.132   0.792   0.968  0.00  0.00     0.034 A 
ATOM      5  C   UNL d   1       3.136   2.167   1.235  0.00  0.00     0.069 A 
ATOM      6  C   UNL d   1       1.927   2.818   1.374  0.00  0.00     0.107 A 
ATOM      7  C   UNL d   1       0.731   2.152   1.256  0.00  0.00     0.105 A 
ATOM      8  O   UNL d   1       1.760   4.139   1.649  0.00  0.00    -0.323 OA
ATOM      9  O   UNL d   1      -0.340   2.971   1.438  0.00  0.00    -0.323 OA
ATOM     10  C   UNL d   1       0.680   0.801   0.997  0.00  0.00     0.042 A 
ATOM     11  C   UNL d   1       0.322   4.227   1.701  0.00  0.00     0.352 A 
ATOM     12  C   UNL d   1       1.899   0.116   0.865  0.00  0.00     0.032 A 
ENDBRANCH   1   4
BRANCH   3  13
ATOM     13  C   UNL d   1       5.894  -1.481  -0.053  0.00  0.00    -0.021 A 
ATOM     14  C   UNL d   1       6.982  -1.053   0.705  0.00  0.00     0.015 A 
ATOM     15  C   UNL d   1       8.222  -1.702   0.585  0.00  0.00     0.030 A 
ATOM     16  C   UNL d   1       8.418  -2.792  -0.280  0.00  0.00     0.029 A 
ATOM     17  C   UNL d   1       7.291  -3.201  -1.019  0.00  0.00     0.030 A 
ATOM     18  C   UNL d   1       6.049  -2.556  -0.923  0.00  0.00     0.015 A 
BRANCH  16  19
ATOM     19  N   UNL d   1       9.620  -3.492  -0.354  0.00  0.00    -0.390 N 
ATOM     20  C   UNL d   1      10.086  -3.990  -1.652  0.00  0.00     0.149 C 
ATOM     21  C   UNL d   1      10.698  -3.239   0.601  0.00  0.00     0.149 C 
ENDBRANCH  16  19
ENDBRANCH   3  13
TORSDOF 3
