REMARK  6 active torsions:
REMARK  status: ('A' for Active; 'I' for Inactive)
REMARK    1  A    between atoms: N_5  and  C_1 
REMARK    2  A    between atoms: O_12  and  C_2 
REMARK    3  A    between atoms: C_7  and  N_5 
REMARK    4  A    between atoms: C_8  and  C_6 
REMARK    5  A    between atoms: O_13  and  C_8 
REMARK    6  A    between atoms: C_16  and  O_12 
ROOT
ATOM      1  N   UNL d   1       1.563  -2.379  -0.082  0.00  0.00    -0.350 N 
ATOM      2  H   UNL d   1       1.512  -3.219  -0.685  0.00  0.00     0.166 HD
ENDROOT
BRANCH   1   3
ATOM      3  C   UNL d   1       0.583  -1.502  -0.176  0.00  0.00     0.125 A 
ATOM      4  C   UNL d   1      -0.265  -0.806   0.654  0.00  0.00     0.154 A 
ATOM      5  C   UNL d   1      -0.917  -0.141  -0.498  0.00  0.00     0.259 A 
ATOM      6  C   UNL d   1      -0.059  -0.953  -1.389  0.00  0.00     0.254 A 
ATOM      7  O   UNL d   1      -1.747   0.709  -0.706  0.00  0.00    -0.281 OA
ATOM      8  O   UNL d   1       0.056  -1.008  -2.586  0.00  0.00    -0.281 OA
BRANCH   4   9
ATOM      9  O   UNL d   1      -0.387  -0.768   1.930  0.00  0.00    -0.345 OA
BRANCH   9  10
ATOM     10  C   UNL d   1      -1.677  -0.316   2.349  0.00  0.00     0.171 C 
ATOM     11  C   UNL d   1      -1.706  -0.291   3.866  0.00  0.00     0.034 C 
ENDBRANCH   9  10
ENDBRANCH   4   9
ENDBRANCH   1   3
BRANCH   1  12
ATOM     12  C   UNL d   1       2.955  -2.040  -0.012  0.00  0.00     0.049 A 
ATOM     13  C   UNL d   1       3.946  -3.049   0.034  0.00  0.00     0.064 A 
ATOM     14  C   UNL d   1       5.309  -2.713   0.107  0.00  0.00     0.020 A 
ATOM     15  C   UNL d   1       5.697  -1.378   0.186  0.00  0.00     0.001 A 
ATOM     16  C   UNL d   1       4.732  -0.376   0.190  0.00  0.00     0.002 A 
ATOM     17  C   UNL d   1       3.376  -0.704   0.105  0.00  0.00     0.030 A 
BRANCH  13  18
ATOM     18  C   UNL d   1       3.551  -4.475  -0.067  0.00  0.00     0.178 C 
ATOM     19  O   UNL d   1       2.609  -4.846  -0.750  0.00  0.00    -0.646 OA
BRANCH  18  20
ATOM     20  O   UNL d   1       4.301  -5.312   0.681  0.00  0.00    -0.773 OA
ATOM     21  H   UNL d   1       4.894  -4.874   1.319  0.00  0.00     0.167 HD
ENDBRANCH  18  20
ENDBRANCH  13  18
ENDBRANCH   1  12
TORSDOF 6
