REMARK  4 active torsions:
REMARK  status: ('A' for Active; 'I' for Inactive)
REMARK    1  A    between atoms: C_2  and  C_1 
REMARK       I    between atoms: N_3  and  C_1 
REMARK    2  A    between atoms: C_7  and  N_3 
REMARK    3  A    between atoms: C_6  and  C_5 
REMARK    4  A    between atoms: O_12  and  C_6 
ROOT
ATOM      1  C   UNL d   1       1.052   0.577   0.225  0.00  0.00     0.253 C 
ATOM      2  N   UNL d   1       0.222   1.106  -0.729  0.00  0.00    -0.344 N 
ATOM      3  O   UNL d   1       0.654   0.318   1.359  0.00  0.00    -0.268 OA
ATOM      4  H   UNL d   1       0.509   1.041  -1.708  0.00  0.00     0.163 HD
ENDROOT
BRANCH   1   5
ATOM      5  C   UNL d   1       2.491   0.317  -0.111  0.00  0.00     0.048 A 
ATOM      6  C   UNL d   1       3.247   0.922  -1.129  0.00  0.00     0.053 A 
ATOM      7  C   UNL d   1       4.626   0.649  -1.246  0.00  0.00     0.019 A 
ATOM      8  C   UNL d   1       5.263  -0.210  -0.352  0.00  0.00     0.001 A 
ATOM      9  C   UNL d   1       4.523  -0.828   0.648  0.00  0.00     0.001 A 
ATOM     10  C   UNL d   1       3.156  -0.568   0.764  0.00  0.00     0.018 A 
BRANCH   6  11
ATOM     11  C   UNL d   1       2.674   1.825  -2.148  0.00  0.00     0.177 C 
ATOM     12  O   UNL d   1       1.716   1.531  -2.834  0.00  0.00    -0.646 OA
BRANCH  11  13
ATOM     13  O   UNL d   1       3.348   2.987  -2.266  0.00  0.00    -0.773 OA
ATOM     14  H   UNL d   1       4.058   3.128  -1.613  0.00  0.00     0.167 HD
ENDBRANCH  11  13
ENDBRANCH   6  11
ENDBRANCH   1   5
BRANCH   2  15
ATOM     15  C   UNL d   1      -1.227   1.198  -0.534  0.00  0.00     0.177 C 
ATOM     16  C   UNL d   1      -1.871   0.012  -1.280  0.00  0.00     0.240 C 
ATOM     17  N   UNL d   1      -3.202  -0.222  -1.081  0.00  0.00    -0.359 N 
ATOM     18  O   UNL d   1      -1.258  -0.706  -2.072  0.00  0.00    -0.271 OA
ATOM     19  C   UNL d   1      -4.107   0.609  -0.325  0.00  0.00     0.122 C 
ATOM     20  H   UNL d   1      -3.573  -0.983  -1.638  0.00  0.00     0.162 HD
ATOM     21  C   UNL d   1      -4.265   1.979  -0.970  0.00  0.00     0.020 C 
ATOM     22  C   UNL d   1      -3.135   2.944  -0.612  0.00  0.00     0.004 C 
ATOM     23  C   UNL d   1      -1.735   2.537  -1.080  0.00  0.00     0.035 C 
ENDBRANCH   2  15
TORSDOF 4
