REMARK  6 active torsions:
REMARK  status: ('A' for Active; 'I' for Inactive)
REMARK    1  A    between atoms: C_15  and  C_1 
REMARK       I    between atoms: C_5  and  N_12 
REMARK    2  A    between atoms: C_7  and  C_5 
REMARK    3  A    between atoms: O_22  and  C_9 
REMARK    4  A    between atoms: O_24  and  C_10 
REMARK    5  A    between atoms: O_25  and  C_11 
REMARK    6  A    between atoms: N_12  and  C_21 
ROOT
ATOM      1  C   UNL d   1      -3.987  -0.223   0.392  0.00  0.00    -0.002 A 
ATOM      2  C   UNL d   1      -4.680  -1.058   1.278  0.00  0.00     0.016 A 
ATOM      3  C   UNL d   1      -4.649   0.184  -0.775  0.00  0.00     0.016 A 
ATOM      4  C   UNL d   1      -6.676  -0.977  -0.122  0.00  0.00     0.035 A 
ATOM      5  C   UNL d   1      -5.972  -0.188  -1.029  0.00  0.00     0.030 A 
ATOM      6  C   UNL d   1      -6.011  -1.425   1.026  0.00  0.00     0.030 A 
ENDROOT
BRANCH   4   7
ATOM      7  N   UNL d   1      -8.039  -1.317  -0.275  0.00  0.00    -0.323 N 
ATOM      8  C   UNL d   1      -8.886  -0.922  -1.302  0.00  0.00     0.256 C 
ATOM      9  O   UNL d   1      -8.568  -0.319  -2.320  0.00  0.00    -0.267 OA
ATOM     10  H   UNL d   1      -8.448  -1.800   0.513  0.00  0.00     0.169 HD
BRANCH   8  11
ATOM     11  C   UNL d   1     -10.332  -1.209  -1.088  0.00  0.00     0.037 A 
ATOM     12  C   UNL d   1     -11.264  -0.314  -1.627  0.00  0.00     0.057 A 
ATOM     13  C   UNL d   1     -12.632  -0.432  -1.345  0.00  0.00     0.105 A 
ATOM     14  C   UNL d   1     -13.081  -1.490  -0.522  0.00  0.00     0.135 A 
ATOM     15  C   UNL d   1     -12.145  -2.451  -0.074  0.00  0.00     0.105 A 
ATOM     16  C   UNL d   1     -10.780  -2.296  -0.346  0.00  0.00     0.057 A 
BRANCH  13  17
ATOM     17  O   UNL d   1     -13.561   0.453  -1.829  0.00  0.00    -0.353 OA
ATOM     18  C   UNL d   1     -13.128   1.517  -2.667  0.00  0.00     0.210 C 
ENDBRANCH  13  17
BRANCH  14  19
ATOM     19  O   UNL d   1     -14.368  -1.683  -0.087  0.00  0.00    -0.351 OA
ATOM     20  C   UNL d   1     -15.339  -0.659  -0.239  0.00  0.00     0.210 C 
ENDBRANCH  14  19
BRANCH  15  21
ATOM     21  O   UNL d   1     -12.392  -3.561   0.699  0.00  0.00    -0.353 OA
ATOM     22  C   UNL d   1     -13.673  -4.169   0.580  0.00  0.00     0.210 C 
ENDBRANCH  15  21
ENDBRANCH   8  11
ENDBRANCH   4   7
BRANCH   1  23
ATOM     23  C   UNL d   1      -2.603   0.196   0.688  0.00  0.00     0.085 A 
ATOM     24  N   UNL d   1      -1.745  -0.488   1.420  0.00  0.00    -0.349 N 
ATOM     25  C   UNL d   1      -0.518   0.161   1.456  0.00  0.00     0.050 A 
ATOM     26  HN  UNL d   1      -1.953  -1.367   1.893  1.00  0.00     0.166 HD
ATOM     27  C   UNL d   1       0.651  -0.298   2.093  0.00  0.00     0.031 A 
ATOM     28  C   UNL d   1      -0.467   1.378   0.779  0.00  0.00     0.034 A 
ATOM     29  C   UNL d   1       1.828   0.461   2.026  0.00  0.00     0.009 A 
ATOM     30  C   UNL d   1       1.861   1.677   1.339  0.00  0.00    -0.061 A 
ATOM     31  C   UNL d   1       0.703   2.152   0.709  0.00  0.00     0.028 A 
ATOM     32  C   UNL d   1       3.132   2.476   1.280  0.00  0.00     0.048 C 
ATOM     33  S   UNL d   1      -2.008   1.707   0.104  0.00  0.00    -0.070 SA
ENDBRANCH   1  23
TORSDOF 6
