REMARK  1 active torsions:
REMARK  status: ('A' for Active; 'I' for Inactive)
REMARK    1  A    between atoms: C_10  and  C_5 
ROOT
ATOM      1  N   UNL d   1      -9.223   0.111  -0.108  0.00  0.00    -0.191 NA
ATOM      2  C   UNL d   1      -3.811  -0.036   0.004  0.00  0.00    -0.007 A 
ATOM      3  C   UNL d   1      -8.064   0.093  -0.074  0.00  0.00     0.099 C 
ATOM      4  C   UNL d   1      -4.491   1.191  -0.013  0.00  0.00     0.015 A 
ATOM      5  C   UNL d   1      -4.567  -1.218   0.009  0.00  0.00     0.015 A 
ATOM      6  C   UNL d   1      -6.631   0.054  -0.038  0.00  0.00     0.044 A 
ATOM      7  C   UNL d   1      -5.966  -1.174  -0.012  0.00  0.00     0.023 A 
ATOM      8  C   UNL d   1      -5.890   1.238  -0.034  0.00  0.00     0.023 A 
ENDROOT
BRANCH   2   9
ATOM      9  C   UNL d   1      -2.355  -0.055   0.008  0.00  0.00     0.076 A 
ATOM     10  N   UNL d   1      -1.584   1.087  -0.001  0.00  0.00    -0.189 N 
ATOM     11  C   UNL d   1      -0.327   0.689   0.003  0.00  0.00     0.688 A 
ATOM     12  HN  UNL d   1      -1.919   2.050  -0.009  1.00  0.00     0.184 HD
ATOM     13  N   UNL d   1      -0.267  -0.702   0.011  0.00  0.00    -0.166 N 
ATOM     14  N   UNL d   1       0.818   1.435   0.001  0.00  0.00    -0.201 N 
ATOM     15  C   UNL d   1      -1.551  -1.175   0.016  0.00  0.00     0.145 A 
ATOM     16  C   UNL d   1       0.932  -1.399   0.014  0.00  0.00     0.116 A 
ATOM     17  C   UNL d   1       2.083  -0.715   0.012  0.00  0.00     0.036 A 
ATOM     18  C   UNL d   1       1.932   0.769   0.006  0.00  0.00     0.107 A 
ATOM     19  HN  UNL d   1       0.798   2.455  -0.005  1.00  0.00     0.183 HD
ENDBRANCH   2   9
TORSDOF 1
