REMARK  4 active torsions:
REMARK  status: ('A' for Active; 'I' for Inactive)
REMARK    1  A    between atoms: C_5  and  N_1 
REMARK    2  A    between atoms: C_2  and  C_3 
REMARK    3  A    between atoms: O_16  and  C_4 
REMARK    4  A    between atoms: C_10  and  C_5 
ROOT
ATOM      1  N   UNL d   1       1.353  -0.053   0.691  0.00  0.00     0.092 N 
ATOM      2  C   UNL d   1      -1.489   0.091  -0.275  0.00  0.00     0.025 C 
ATOM      3  C   UNL d   1      -0.760   1.317   0.300  0.00  0.00     0.040 C 
ATOM      4  C   UNL d   1      -0.874  -1.172   0.333  0.00  0.00     0.040 C 
ATOM      5  C   UNL d   1       0.772   1.239   0.294  0.00  0.00     0.273 C 
ATOM      6  C   UNL d   1       0.639  -1.222   0.147  0.00  0.00     0.273 C 
ENDROOT
BRANCH   1   7
ATOM      7  C   UNL d   1       2.769  -0.152   0.265  0.00  0.00     0.311 C 
BRANCH   7   8
ATOM      8  C   UNL d   1       3.698   0.910   0.810  0.00  0.00    -0.030 A 
ATOM      9  C   UNL d   1       4.005   0.961   2.174  0.00  0.00     0.009 A 
ATOM     10  C   UNL d   1       4.916   1.903   2.660  0.00  0.00     0.007 A 
ATOM     11  C   UNL d   1       5.535   2.811   1.793  0.00  0.00    -0.062 A 
ATOM     12  C   UNL d   1       5.213   2.777   0.432  0.00  0.00     0.007 A 
ATOM     13  C   UNL d   1       6.506   3.821   2.326  0.00  0.00     0.048 C 
ATOM     14  C   UNL d   1       4.305   1.833  -0.054  0.00  0.00     0.009 A 
ENDBRANCH   7   8
ENDBRANCH   1   7
BRANCH   2  15
ATOM     15  C   UNL d   1      -1.618   0.004  -1.801  0.00  0.00    -0.021 A 
ATOM     16  C   UNL d   1      -2.824  -0.425  -2.401  0.00  0.00     0.074 A 
ATOM     17  C   UNL d   1      -2.908  -0.578  -3.795  0.00  0.00     0.037 A 
ATOM     18  C   UNL d   1      -1.821  -0.278  -4.613  0.00  0.00     0.003 A 
ATOM     19  C   UNL d   1      -0.638   0.166  -4.042  0.00  0.00     0.001 A 
ATOM     20  C   UNL d   1      -0.539   0.297  -2.654  0.00  0.00     0.010 A 
BRANCH  16  21
ATOM     21  O   UNL d   1      -3.872  -0.715  -1.562  0.00  0.00    -0.355 OA
ATOM     22  C   UNL d   1      -5.173  -0.629  -2.134  0.00  0.00     0.210 C 
ENDBRANCH  16  21
ENDBRANCH   2  15
TORSDOF 4
