REMARK  14 active torsions:
REMARK  status: ('A' for Active; 'I' for Inactive)
REMARK    1  A    between atoms: C_1  and  O_9 
REMARK    2  A    between atoms: C_2  and  O_10 
REMARK    3  A    between atoms: C_3  and  O_8 
REMARK    4  A    between atoms: C_4  and  O_12 
REMARK    5  A    between atoms: C_6  and  C_17 
REMARK    6  A    between atoms: C_7  and  O_11 
REMARK    7  A    between atoms: C_18  and  C_7 
REMARK    8  A    between atoms: C_19  and  C_7 
REMARK    9  A    between atoms: C_20  and  C_7 
REMARK   10  A    between atoms: C_13  and  O_8 
REMARK   11  A    between atoms: C_15  and  O_9 
REMARK   12  A    between atoms: C_14  and  O_10 
REMARK   13  A    between atoms: O_11  and  C_17 
REMARK   14  A    between atoms: C_16  and  O_12 
ROOT
ATOM      1  C   UNL d   1       0.885  -1.336  -0.245  0.00  0.00     0.219 C 
ATOM      2  C   UNL d   1       1.678  -0.042   0.034  0.00  0.00     0.198 C 
ATOM      3  C   UNL d   1      -0.556  -1.215   0.306  0.00  0.00     0.302 C 
ATOM      4  C   UNL d   1       0.883   1.258  -0.231  0.00  0.00     0.195 C 
ATOM      5  O   UNL d   1      -1.193  -0.003  -0.124  0.00  0.00    -0.348 OA
ATOM      6  C   UNL d   1      -0.524   1.163   0.376  0.00  0.00     0.180 C 
ENDROOT
BRANCH   6   7
ATOM      7  C   UNL d   1      -1.370   2.429   0.127  0.00  0.00     0.205 C 
BRANCH   7   8
ATOM      8  O   UNL d   1      -1.745   2.613  -1.248  0.00  0.00    -0.363 OA
BRANCH   8   9
ATOM      9  C   UNL d   1      -2.737   3.669  -1.497  0.00  0.00     0.142 C 
BRANCH   9  10
ATOM     10  C   UNL d   1      -2.051   5.013  -1.083  0.00  0.00    -0.015 A 
ATOM     11  C   UNL d   1      -1.208   5.702  -1.980  0.00  0.00     0.011 A 
ATOM     12  C   UNL d   1      -0.596   6.909  -1.625  0.00  0.00     0.001 A 
ATOM     13  C   UNL d   1      -0.782   7.440  -0.353  0.00  0.00     0.000 A 
ATOM     14  C   UNL d   1      -1.561   6.755   0.572  0.00  0.00     0.001 A 
ATOM     15  C   UNL d   1      -2.174   5.551   0.215  0.00  0.00     0.011 A 
ENDBRANCH   9  10
BRANCH   9  16
ATOM     16  C   UNL d   1      -3.095   3.676  -3.025  0.00  0.00    -0.015 A 
ATOM     17  C   UNL d   1      -2.646   2.679  -3.907  0.00  0.00     0.011 A 
ATOM     18  C   UNL d   1      -3.045   2.678  -5.251  0.00  0.00     0.001 A 
ATOM     19  C   UNL d   1      -3.896   3.668  -5.739  0.00  0.00     0.000 A 
ATOM     20  C   UNL d   1      -4.343   4.673  -4.890  0.00  0.00     0.001 A 
ATOM     21  C   UNL d   1      -3.945   4.678  -3.551  0.00  0.00     0.011 A 
ENDBRANCH   9  16
BRANCH   9  22
ATOM     22  C   UNL d   1      -4.081   3.324  -0.774  0.00  0.00    -0.015 A 
ATOM     23  C   UNL d   1      -4.985   4.314  -0.338  0.00  0.00     0.011 A 
ATOM     24  C   UNL d   1      -6.181   3.976   0.300  0.00  0.00     0.001 A 
ATOM     25  C   UNL d   1      -6.521   2.640   0.482  0.00  0.00     0.000 A 
ATOM     26  C   UNL d   1      -5.677   1.641   0.006  0.00  0.00     0.001 A 
ATOM     27  C   UNL d   1      -4.479   1.979  -0.628  0.00  0.00     0.011 A 
ENDBRANCH   9  22
ENDBRANCH   8   9
ENDBRANCH   7   8
ENDBRANCH   6   7
BRANCH   4  28
ATOM     28  O   UNL d   1       1.641   2.427   0.197  0.00  0.00    -0.311 OA
BRANCH  28  29
ATOM     29  C   UNL d   1       1.919   2.604   1.514  0.00  0.00     0.255 C 
ATOM     30  O   UNL d   1       1.533   1.876   2.418  0.00  0.00    -0.266 OA
ATOM     31  C   UNL d   1       2.760   3.824   1.734  0.00  0.00     0.126 C 
ENDBRANCH  28  29
ENDBRANCH   4  28
BRANCH   3  32
ATOM     32  O   UNL d   1      -1.322  -2.320  -0.218  0.00  0.00    -0.287 OA
BRANCH  32  33
ATOM     33  C   UNL d   1      -1.848  -3.180   0.683  0.00  0.00     0.257 C 
ATOM     34  O   UNL d   1      -1.702  -3.130   1.896  0.00  0.00    -0.266 OA
ATOM     35  C   UNL d   1      -2.647  -4.247  -0.009  0.00  0.00     0.126 C 
ENDBRANCH  32  33
ENDBRANCH   3  32
BRANCH   2  36
ATOM     36  O   UNL d   1       2.974  -0.011  -0.625  0.00  0.00    -0.311 OA
BRANCH  36  37
ATOM     37  C   UNL d   1       3.006  -0.014  -1.987  0.00  0.00     0.255 C 
ATOM     38  O   UNL d   1       2.026   0.004  -2.717  0.00  0.00    -0.266 OA
ATOM     39  C   UNL d   1       4.420   0.027  -2.474  0.00  0.00     0.126 C 
ENDBRANCH  36  37
ENDBRANCH   2  36
BRANCH   1  40
ATOM     40  O   UNL d   1       1.534  -2.447   0.450  0.00  0.00    -0.308 OA
BRANCH  40  41
ATOM     41  C   UNL d   1       2.556  -3.080  -0.187  0.00  0.00     0.255 C 
ATOM     42  O   UNL d   1       2.960  -2.828  -1.313  0.00  0.00    -0.266 OA
ATOM     43  C   UNL d   1       3.173  -4.116   0.703  0.00  0.00     0.126 C 
ENDBRANCH  40  41
ENDBRANCH   1  40
TORSDOF 14
