REMARK  3 active torsions:
REMARK  status: ('A' for Active; 'I' for Inactive)
REMARK    1  A    between atoms: N_2  and  C_5 
REMARK    2  A    between atoms: C_6  and  C_3 
REMARK       I    between atoms: N_9  and  C_6 
REMARK    3  A    between atoms: C_16  and  N_9 
ROOT
ATOM      1  N   UNL d   1      -1.581   0.963  -0.200  0.00  0.00    -0.349 N 
ATOM      2  C   UNL d   1      -2.345  -0.186  -0.190  0.00  0.00     0.102 A 
ATOM      3  C   UNL d   1      -0.234   0.672  -0.161  0.00  0.00     0.076 A 
ATOM      4  C   UNL d   1       0.900   1.510  -0.153  0.00  0.00     0.130 A 
ATOM      5  C   UNL d   1      -1.453  -1.244  -0.199  0.00  0.00     0.049 A 
ATOM      6  C   UNL d   1      -0.132  -0.718  -0.128  0.00  0.00    -0.005 A 
ATOM      7  C   UNL d   1       2.163   0.896  -0.060  0.00  0.00     0.038 A 
ATOM      8  C   UNL d   1       1.146  -1.306  -0.046  0.00  0.00     0.014 A 
ATOM      9  C   UNL d   1       2.282  -0.491   0.004  0.00  0.00     0.003 A 
ATOM     10  H   UNL d   1      -1.973   1.901  -0.221  0.00  0.00     0.166 HD
ENDROOT
BRANCH   2  11
ATOM     11  C   UNL d   1      -3.795  -0.115  -0.204  0.00  0.00     0.272 C 
ATOM     12  N   UNL d   1      -4.447  -1.329  -0.089  0.00  0.00    -0.322 N 
ATOM     13  H   UNL d   1      -3.882  -2.131   0.152  0.00  0.00     0.169 HD
ATOM     14  O   UNL d   1      -4.348   0.977  -0.297  0.00  0.00    -0.266 OA
BRANCH  12  15
ATOM     15  C   UNL d   1      -5.828  -1.570  -0.279  0.00  0.00     0.037 A 
ATOM     16  C   UNL d   1      -6.711  -0.598  -0.763  0.00  0.00     0.069 A 
ATOM     17  C   UNL d   1      -8.017  -0.966  -1.016  0.00  0.00     0.107 A 
ATOM     18  O   UNL d   1      -8.978  -0.153  -1.530  0.00  0.00    -0.323 OA
ATOM     19  C   UNL d   1      -8.472  -2.240  -0.788  0.00  0.00     0.105 A 
ATOM     20  C   UNL d   1     -10.076  -1.077  -1.651  0.00  0.00     0.352 A 
ATOM     21  O   UNL d   1      -9.778  -2.392  -1.134  0.00  0.00    -0.323 OA
ATOM     22  C   UNL d   1      -7.647  -3.217  -0.279  0.00  0.00     0.042 A 
ATOM     23  C   UNL d   1      -6.309  -2.876  -0.028  0.00  0.00     0.032 A 
ENDBRANCH  12  15
ENDBRANCH   2  11
BRANCH   4  24
ATOM     24  N   UNL d   1       0.826   2.973  -0.244  0.00  0.00    -0.113 N 
ATOM     25  O   UNL d   1      -0.302   3.480  -0.340  0.00  0.00    -0.532 OA
ATOM     26  O   UNL d   1       1.887   3.614  -0.226  0.00  0.00    -0.532 OA
ENDBRANCH   4  24
TORSDOF 3
