REMARK  3 active torsions:
REMARK  status: ('A' for Active; 'I' for Inactive)
REMARK    1  A    between atoms: C_5  and  C_1 
REMARK    2  A    between atoms: C_9  and  C_4 
REMARK       I    between atoms: N_8  and  C_5 
REMARK    3  A    between atoms: C_10  and  N_8 
ROOT
ATOM      1  C   UNL d   1       1.267   0.782  -0.119  0.00  0.00     0.108 C 
ATOM      2  N   UNL d   1       1.457  -0.602  -0.069  0.00  0.00    -0.345 N 
ATOM      3  HN  UNL d   1       2.353  -1.064   0.087  1.00  0.00     0.167 HD
ATOM      4  C   UNL d   1       0.306  -1.225  -0.253  0.00  0.00     0.086 C 
ATOM      5  S   UNL d   1      -1.008  -0.195  -0.697  0.00  0.00    -0.081 SA
ATOM      6  C   UNL d   1      -0.008   1.170  -0.487  0.00  0.00     0.087 C 
ENDROOT
BRANCH   1   7
ATOM      7  C   UNL d   1       2.316   1.741   0.239  0.00  0.00     0.273 C 
ATOM      8  N   UNL d   1       3.590   1.214   0.197  0.00  0.00    -0.320 N 
ATOM      9  H   UNL d   1       3.700   0.345  -0.320  0.00  0.00     0.169 HD
ATOM     10  O   UNL d   1       2.044   2.909   0.510  0.00  0.00    -0.266 OA
BRANCH   8  11
ATOM     11  C   UNL d   1       4.761   1.876   0.631  0.00  0.00     0.057 A 
ATOM     12  C   UNL d   1       6.007   1.549   0.069  0.00  0.00     0.062 A 
ATOM     13  C   UNL d   1       7.174   2.187   0.498  0.00  0.00     0.050 A 
ATOM     14 CL   UNL d   1       6.129   0.397  -1.215  0.00  0.00    -0.082 Cl
ATOM     15  C   UNL d   1       7.107   3.128   1.522  0.00  0.00     0.035 A 
ATOM     16  C   UNL d   1       5.885   3.446   2.109  0.00  0.00     0.026 A 
ATOM     17 CL   UNL d   1       8.541   3.901   2.073  0.00  0.00    -0.084 Cl
ATOM     18  C   UNL d   1       4.716   2.830   1.658  0.00  0.00     0.033 A 
ENDBRANCH   8  11
ENDBRANCH   1   7
BRANCH   4  19
ATOM     19  C   UNL d   1       0.105  -2.675  -0.134  0.00  0.00     0.013 A 
ATOM     20  C   UNL d   1       1.157  -3.550  -0.390  0.00  0.00     0.101 A 
ATOM     21  N   UNL d   1       1.069  -4.904  -0.318  0.00  0.00    -0.374 N 
ATOM     22  C   UNL d   1      -0.126  -5.418   0.042  0.00  0.00     0.087 A 
ATOM     23  HN  UNL d   1       1.868  -5.503  -0.527  1.00  0.00     0.164 HD
ATOM     24  C   UNL d   1      -1.232  -4.644   0.342  0.00  0.00     0.018 A 
ATOM     25  C   UNL d   1      -1.110  -3.257   0.256  0.00  0.00     0.017 A 
ENDBRANCH   4  19
TORSDOF 3
