REMARK  5 active torsions:
REMARK  status: ('A' for Active; 'I' for Inactive)
REMARK    1  A    between atoms: S_12  and  C_3 
REMARK    2  A    between atoms: C_4  and  C_5 
REMARK    3  A    between atoms: C_6  and  N_8 
REMARK    4  A    between atoms: C_7  and  C_22 
REMARK       I    between atoms: N_8  and  C_7 
REMARK    5  A    between atoms: C_22  and  S_12 
ROOT
ATOM      1  S   UNL d   1      -0.256   2.787   1.288  0.00  0.00    -0.085 SA
ENDROOT
BRANCH   1   2
ATOM      2  C   UNL d   1      -0.576   1.079   0.890  0.00  0.00     0.145 A 
ATOM      3  N   UNL d   1      -1.636   0.765   0.129  0.00  0.00    -0.335 N 
ATOM      4  C   UNL d   1      -1.807  -0.546  -0.158  0.00  0.00     0.069 A 
ATOM      5  HN  UNL d   1      -2.280   1.477  -0.215  1.00  0.00     0.168 HD
ATOM      6  C   UNL d   1      -0.954  -1.528   0.301  0.00  0.00     0.049 A 
ATOM      7  C   UNL d   1       0.090  -1.099   1.077  0.00  0.00     0.092 A 
ATOM      8  N   UNL d   1       0.302   0.193   1.384  0.00  0.00    -0.347 N 
ATOM      9  HN  UNL d   1       1.090   0.484   1.963  1.00  0.00     0.167 HD
BRANCH   4  10
ATOM     10  C   UNL d   1      -2.969  -0.860  -0.982  0.00  0.00     0.101 A 
ATOM     11  O   UNL d   1      -3.109  -2.166  -1.371  0.00  0.00    -0.321 OA
ATOM     12  C   UNL d   1      -4.243  -2.251  -2.112  0.00  0.00     0.142 A 
ATOM     13  C   UNL d   1      -4.845  -1.019  -2.210  0.00  0.00     0.027 A 
ATOM     14  C   UNL d   1      -4.020  -0.120  -1.489  0.00  0.00     0.041 A 
ENDBRANCH   4  10
ENDBRANCH   1   2
BRANCH   1  15
ATOM     15  C   UNL d   1      -1.477   3.572   0.209  0.00  0.00     0.185 C 
BRANCH  15  16
ATOM     16  C   UNL d   1      -1.436   5.092   0.179  0.00  0.00     0.231 C 
ATOM     17  N   UNL d   1      -0.363   5.712   0.793  0.00  0.00    -0.326 N 
ATOM     18  H   UNL d   1       0.341   5.091   1.183  0.00  0.00     0.169 HD
ATOM     19  O   UNL d   1      -2.325   5.684  -0.441  0.00  0.00    -0.272 OA
BRANCH  17  20
ATOM     20  C   UNL d   1      -0.094   7.101   0.824  0.00  0.00     0.037 A 
ATOM     21  C   UNL d   1      -1.019   8.075   0.433  0.00  0.00     0.053 A 
ATOM     22  C   UNL d   1      -0.665   9.425   0.423  0.00  0.00     0.037 A 
ATOM     23 CL   UNL d   1      -1.817  10.604  -0.080  0.00  0.00    -0.084 Cl
ATOM     24  C   UNL d   1       0.607   9.831   0.805  0.00  0.00     0.048 A 
ATOM     25  C   UNL d   1       1.518   8.869   1.227  0.00  0.00     0.037 A 
ATOM     26  C   UNL d   1       1.173   7.513   1.251  0.00  0.00     0.053 A 
ATOM     27 CL   UNL d   1       3.100   9.355   1.704  0.00  0.00    -0.084 Cl
ENDBRANCH  17  20
ENDBRANCH  15  16
ENDBRANCH   1  15
TORSDOF 5
