REMARK  3 active torsions:
REMARK  status: ('A' for Active; 'I' for Inactive)
REMARK    1  A    between atoms: C_2  and  C_1 
REMARK       I    between atoms: N_7  and  C_2 
REMARK    2  A    between atoms: C_5  and  C_8 
REMARK    3  A    between atoms: C_11  and  N_7 
ROOT
ATOM      1  C   UNL d   1      -3.264   0.213   0.114  0.00  0.00     0.254 C 
ATOM      2  N   UNL d   1      -3.804   1.353  -0.437  0.00  0.00    -0.344 N 
ATOM      3  O   UNL d   1      -2.069   0.076   0.347  0.00  0.00    -0.268 OA
ATOM      4  H   UNL d   1      -4.809   1.505  -0.419  0.00  0.00     0.163 HD
ENDROOT
BRANCH   1   5
ATOM      5  C   UNL d   1      -4.218  -0.831   0.547  0.00  0.00     0.054 A 
ATOM      6  C   UNL d   1      -5.275  -1.306  -0.227  0.00  0.00     0.021 A 
ATOM      7  N   UNL d   1      -6.167  -2.216   0.258  0.00  0.00    -0.355 N 
ATOM      8  C   UNL d   1      -5.512  -0.871  -1.643  0.00  0.00     0.069 C 
ATOM      9  C   UNL d   1      -5.997  -2.708   1.520  0.00  0.00     0.117 A 
ATOM     10  HN  UNL d   1      -6.952  -2.526  -0.316  1.00  0.00     0.166 HD
ATOM     11  C   UNL d   1      -4.919  -2.321   2.314  0.00  0.00     0.035 A 
ATOM     12  C   UNL d   1      -4.026  -1.376   1.821  0.00  0.00     0.021 A 
BRANCH   9  13
ATOM     13  C   UNL d   1      -7.001  -3.705   2.089  0.00  0.00     0.432 C 
ATOM     14  F   UNL d   1      -8.085  -3.931   1.295  0.00  0.00    -0.165 F 
ATOM     15  F   UNL d   1      -6.445  -4.930   2.323  0.00  0.00    -0.165 F 
ATOM     16  F   UNL d   1      -7.504  -3.300   3.293  0.00  0.00    -0.165 F 
ENDBRANCH   9  13
ENDBRANCH   1   5
BRANCH   2  17
ATOM     17  C   UNL d   1      -2.991   2.558  -0.573  0.00  0.00     0.177 C 
ATOM     18  C   UNL d   1      -3.939   3.765  -0.639  0.00  0.00     0.240 C 
ATOM     19  N   UNL d   1      -3.375   5.009  -0.636  0.00  0.00    -0.359 N 
ATOM     20  O   UNL d   1      -5.162   3.641  -0.698  0.00  0.00    -0.271 OA
ATOM     21  C   UNL d   1      -1.978   5.304  -0.402  0.00  0.00     0.122 C 
ATOM     22  H   UNL d   1      -4.044   5.771  -0.664  0.00  0.00     0.162 HD
ATOM     23  C   UNL d   1      -1.080   4.877  -1.558  0.00  0.00     0.020 C 
ATOM     24  C   UNL d   1      -0.838   3.369  -1.658  0.00  0.00     0.004 C 
ATOM     25  C   UNL d   1      -2.099   2.516  -1.818  0.00  0.00     0.035 C 
ENDBRANCH   2  17
TORSDOF 3
