REMARK  7 active torsions:
REMARK  status: ('A' for Active; 'I' for Inactive)
REMARK    1  A    between atoms: N_14  and  C_1 
REMARK    2  A    between atoms: C_7  and  C_2 
REMARK    3  A    between atoms: C_12  and  N_3 
REMARK       I    between atoms: N_9  and  C_7 
REMARK    4  A    between atoms: C_8  and  N_10 
REMARK    5  A    between atoms: N_11  and  C_8 
REMARK    6  A    between atoms: N_10  and  N_9 
REMARK    7  A    between atoms: C_16  and  N_11 
ROOT
ATOM      1  C   UNL d   1      -0.657  -2.562  -0.008  0.00  0.00     0.274 C 
ATOM      2  N   UNL d   1       0.078  -3.654   0.387  0.00  0.00    -0.263 N 
ATOM      3  O   UNL d   1      -1.806  -2.779  -0.406  0.00  0.00    -0.266 OA
ATOM      4  H   UNL d   1      -0.380  -4.558   0.319  0.00  0.00     0.190 HD
ENDROOT
BRANCH   1   5
ATOM      5  C   UNL d   1      -0.136  -1.200  -0.008  0.00  0.00     0.090 A 
ATOM      6  C   UNL d   1       0.925  -0.560   0.626  0.00  0.00     0.118 A 
ATOM      7  N   UNL d   1       0.841   0.803   0.271  0.00  0.00    -0.245 N 
ATOM      8  N   UNL d   1      -0.257   1.053  -0.481  0.00  0.00    -0.303 N 
ATOM      9  C   UNL d   1      -0.804  -0.142  -0.674  0.00  0.00     0.128 A 
ATOM     10  HN  UNL d   1      -0.589   1.955  -0.823  1.00  0.00     0.186 HD
BRANCH   6  11
ATOM     11  N   UNL d   1       1.824  -1.043   1.549  0.00  0.00    -0.286 NA
ATOM     12  H   UNL d   1       2.753  -1.229   1.158  0.00  0.00     0.125 HD
ATOM     13  H   UNL d   1       2.017  -0.395   2.320  0.00  0.00     0.125 HD
ENDBRANCH   6  11
BRANCH   7  14
ATOM     14  C   UNL d   1       1.693   1.887   0.640  0.00  0.00     0.058 A 
ATOM     15  C   UNL d   1       3.048   1.694   0.937  0.00  0.00     0.031 A 
ATOM     16  C   UNL d   1       3.834   2.770   1.358  0.00  0.00     0.002 A 
ATOM     17  C   UNL d   1       3.275   4.041   1.483  0.00  0.00     0.000 A 
ATOM     18  C   UNL d   1       1.939   4.249   1.149  0.00  0.00     0.002 A 
ATOM     19  C   UNL d   1       1.153   3.182   0.710  0.00  0.00     0.031 A 
ENDBRANCH   7  14
ENDBRANCH   1   5
BRANCH   2  20
ATOM     20  N   UNL d   1       1.349  -3.636   0.933  0.00  0.00    -0.273 N 
ATOM     21  H   UNL d   1       1.571  -2.810   1.491  0.00  0.00     0.189 HD
BRANCH  20  22
ATOM     22  C   UNL d   1       2.356  -4.464   0.494  0.00  0.00     0.191 C 
ATOM     23  S   UNL d   1       2.243  -5.522  -0.797  0.00  0.00    -0.039 SA
BRANCH  22  24
ATOM     24  N   UNL d   1       3.552  -4.366   1.156  0.00  0.00    -0.332 N 
ATOM     25  H   UNL d   1       4.341  -4.764   0.654  0.00  0.00     0.168 HD
BRANCH  24  26
ATOM     26  C   UNL d   1       3.807  -3.897   2.460  0.00  0.00     0.034 A 
ATOM     27  C   UNL d   1       2.825  -3.862   3.458  0.00  0.00     0.029 A 
ATOM     28  C   UNL d   1       3.115  -3.359   4.724  0.00  0.00     0.002 A 
ATOM     29  C   UNL d   1       4.397  -2.902   5.011  0.00  0.00     0.000 A 
ATOM     30  C   UNL d   1       5.397  -2.978   4.040  0.00  0.00     0.002 A 
ATOM     31  C   UNL d   1       5.105  -3.494   2.773  0.00  0.00     0.029 A 
ENDBRANCH  24  26
ENDBRANCH  22  24
ENDBRANCH  20  22
ENDBRANCH   2  20
TORSDOF 7
