REMARK  6 active torsions:
REMARK  status: ('A' for Active; 'I' for Inactive)
REMARK    1  A    between atoms: C_11  and  N_1 
REMARK    2  A    between atoms: N_4  and  C_16 
REMARK    3  A    between atoms: C_17  and  N_6 
REMARK    4  A    between atoms: C_8  and  C_11 
REMARK    5  A    between atoms: C_9  and  C_8 
REMARK    6  A    between atoms: O_19  and  C_9 
ROOT
ATOM      1  N   UNL d   1       1.413   1.169  -0.152  0.00  0.00    -0.380 N 
ATOM      2  C   UNL d   1       0.125   0.679  -0.062  0.00  0.00     0.036 A 
ATOM      3  C   UNL d   1       0.100  -0.720  -0.011  0.00  0.00    -0.028 A 
ATOM      4  C   UNL d   1      -1.071   1.368  -0.042  0.00  0.00     0.032 A 
ATOM      5  C   UNL d   1       2.319   0.046   0.098  0.00  0.00     0.128 C 
ATOM      6  C   UNL d   1      -1.085  -1.449   0.043  0.00  0.00     0.040 A 
ATOM      7  C   UNL d   1       1.498  -1.246  -0.091  0.00  0.00     0.060 C 
ATOM      8  C   UNL d   1      -2.303  -0.760   0.061  0.00  0.00     0.048 A 
ATOM      9  C   UNL d   1      -2.276   0.650   0.035  0.00  0.00     0.033 A 
ENDROOT
BRANCH   8  10
ATOM     10  N   UNL d   1      -3.502  -1.504   0.151  0.00  0.00    -0.300 N 
ATOM     11  N   UNL d   1      -4.443  -0.950  -0.460  0.00  0.00    -0.300 N 
ATOM     12  HN  UNL d   1      -4.335  -0.088  -0.994  1.00  0.00     0.187 HD
ATOM     13  HN  UNL d   1      -3.590  -2.387   0.654  1.00  0.00     0.187 HD
BRANCH  11  14
ATOM     14  C   UNL d   1      -5.668  -1.638  -0.335  0.00  0.00     0.048 A 
ATOM     15  C   UNL d   1      -6.851  -0.888  -0.362  0.00  0.00     0.031 A 
ATOM     16  C   UNL d   1      -8.103  -1.509  -0.285  0.00  0.00     0.009 A 
ATOM     17  C   UNL d   1      -8.196  -2.901  -0.186  0.00  0.00    -0.062 A 
ATOM     18  C   UNL d   1      -7.020  -3.658  -0.159  0.00  0.00     0.009 A 
ATOM     19  C   UNL d   1      -9.540  -3.563  -0.127  0.00  0.00     0.048 C 
ATOM     20  C   UNL d   1      -5.771  -3.032  -0.237  0.00  0.00     0.031 A 
ENDBRANCH  11  14
ENDBRANCH   8  10
BRANCH   1  21
ATOM     21  C   UNL d   1       1.870   2.553  -0.132  0.00  0.00     0.133 C 
BRANCH  21  22
ATOM     22  C   UNL d   1       1.607   3.234   1.203  0.00  0.00     0.131 C 
BRANCH  22  23
ATOM     23  C   UNL d   1       2.147   4.644   1.249  0.00  0.00     0.259 C 
ATOM     24  O   UNL d   1       2.767   5.211   0.365  0.00  0.00    -0.265 OA
BRANCH  23  25
ATOM     25  O   UNL d   1       1.828   5.182   2.464  0.00  0.00    -0.326 OA
ATOM     26  C   UNL d   1       2.277   6.520   2.686  0.00  0.00     0.213 C 
ENDBRANCH  23  25
ENDBRANCH  22  23
ENDBRANCH  21  22
ENDBRANCH   1  21
TORSDOF 6
