REMARK  7 active torsions:
REMARK  status: ('A' for Active; 'I' for Inactive)
REMARK    1  A    between atoms: C_3  and  C_1 
REMARK    2  A    between atoms: S_14  and  C_6 
REMARK    3  A    between atoms: C_21  and  C_11 
REMARK    4  A    between atoms: C_24  and  S_14 
REMARK    5  A    between atoms: C_15  and  C_24 
REMARK       I    between atoms: N_18  and  C_15 
REMARK    6  A    between atoms: C_17  and  C_21 
REMARK    7  A    between atoms: C_26  and  N_18 
ROOT
ATOM      1  C   UNL d   1       0.110   1.115   0.213  0.00  0.00     0.151 A 
ATOM      2  N   UNL d   1       1.014   0.079   0.208  0.00  0.00    -0.314 N 
ATOM      3  N   UNL d   1      -1.085   0.635   0.508  0.00  0.00    -0.281 N 
ATOM      4  HN  UNL d   1      -1.944   1.178   0.588  1.00  0.00     0.188 HD
ATOM      5  C   UNL d   1       0.297  -1.035   0.554  0.00  0.00     0.163 A 
ATOM      6  N   UNL d   1      -0.970  -0.724   0.687  0.00  0.00    -0.278 N 
ATOM      7  HN  UNL d   1      -1.732  -1.372   0.888  1.00  0.00     0.189 HD
ATOM      8  C   UNL d   1       2.444   0.162   0.062  0.00  0.00     0.160 C 
ENDROOT
BRANCH   1   9
ATOM      9  C   UNL d   1       0.399   2.563  -0.004  0.00  0.00     0.085 A 
ATOM     10  N   UNL d   1       1.524   3.001  -0.679  0.00  0.00    -0.350 N 
ATOM     11  C   UNL d   1       1.552   4.319  -0.703  0.00  0.00     0.055 A 
ATOM     12  HN  UNL d   1       2.229   2.394  -1.097  1.00  0.00     0.166 HD
ATOM     13  S   UNL d   1       0.263   5.094   0.137  0.00  0.00    -0.086 SA
ATOM     14  C   UNL d   1      -0.422   3.560   0.480  0.00  0.00     0.085 A 
BRANCH  11  15
ATOM     15  C   UNL d   1       2.586   5.134  -1.427  0.00  0.00     0.103 C 
BRANCH  15  16
ATOM     16  C   UNL d   1       3.865   5.283  -0.648  0.00  0.00    -0.045 A 
ATOM     17  C   UNL d   1       4.934   4.407  -0.713  0.00  0.00     0.057 A 
ATOM     18  S   UNL d   1       6.247   4.885   0.271  0.00  0.00    -0.113 SA
ATOM     19  C   UNL d   1       5.412   6.277   0.802  0.00  0.00     0.050 A 
ATOM     20  C   UNL d   1       4.156   6.370   0.243  0.00  0.00     0.015 A 
ENDBRANCH  15  16
ENDBRANCH  11  15
ENDBRANCH   1   9
BRANCH   5  21
ATOM     21  S   UNL d   1       1.013  -2.584   0.875  0.00  0.00    -0.083 SA
BRANCH  21  22
ATOM     22  C   UNL d   1      -0.480  -3.569   1.169  0.00  0.00     0.185 C 
BRANCH  22  23
ATOM     23  C   UNL d   1      -0.249  -4.961   1.734  0.00  0.00     0.231 C 
ATOM     24  N   UNL d   1       0.994  -5.224   2.285  0.00  0.00    -0.327 N 
ATOM     25  H   UNL d   1       1.645  -4.450   2.305  0.00  0.00     0.169 HD
ATOM     26  O   UNL d   1      -1.200  -5.750   1.737  0.00  0.00    -0.272 OA
BRANCH  24  27
ATOM     27  C   UNL d   1       1.401  -6.426   2.912  0.00  0.00     0.034 A 
ATOM     28  C   UNL d   1       0.660  -7.608   2.871  0.00  0.00     0.029 A 
ATOM     29  C   UNL d   1       1.081  -8.746   3.567  0.00  0.00     0.002 A 
ATOM     30  C   UNL d   1       2.257  -8.715   4.309  0.00  0.00     0.000 A 
ATOM     31  C   UNL d   1       3.025  -7.554   4.332  0.00  0.00     0.002 A 
ATOM     32  C   UNL d   1       2.603  -6.419   3.628  0.00  0.00     0.029 A 
ENDBRANCH  24  27
ENDBRANCH  22  23
ENDBRANCH  21  22
ENDBRANCH   5  21
TORSDOF 7
