REMARK  6 active torsions:
REMARK  status: ('A' for Active; 'I' for Inactive)
REMARK    1  A    between atoms: C_2  and  N_1 
REMARK    2  A    between atoms: N_10  and  C_4 
REMARK    3  A    between atoms: O_14  and  C_6 
REMARK    4  A    between atoms: O_15  and  C_9 
REMARK    5  A    between atoms: C_23  and  O_14 
REMARK    6  A    between atoms: C_22  and  O_15 
ROOT
ATOM      1  C   UNL d   1       2.170  -1.370  -0.021  0.00  0.00     0.075 A 
ATOM      2  C   UNL d   1       2.464  -2.126  -1.175  0.00  0.00     0.072 A 
ATOM      3  C   UNL d   1       4.531  -3.000  -0.229  0.00  0.00     0.067 A 
ATOM      4  C   UNL d   1       4.236  -2.222   0.908  0.00  0.00     0.071 A 
ATOM      5  C   UNL d   1       3.086  -1.411   1.042  0.00  0.00     0.098 A 
ATOM      6  C   UNL d   1       3.590  -2.960  -1.273  0.00  0.00     0.097 A 
ENDROOT
BRANCH   1   7
ATOM      7  N   UNL d   1       0.961  -0.583  -0.041  0.00  0.00    -0.317 N 
ATOM      8  C   UNL d   1       0.781   0.725   0.422  0.00  0.00     0.013 A 
ATOM      9  C   UNL d   1      -0.501   1.142   0.109  0.00  0.00     0.027 A 
ATOM     10  C   UNL d   1       1.803   1.588   1.072  0.00  0.00     0.068 C 
ATOM     11  C   UNL d   1      -1.129   0.113  -0.591  0.00  0.00     0.027 A 
ATOM     12  C   UNL d   1      -0.251  -0.948  -0.661  0.00  0.00     0.013 A 
ATOM     13  C   UNL d   1      -0.582  -2.286  -1.254  0.00  0.00     0.068 C 
ENDBRANCH   1   7
BRANCH   5  14
ATOM     14  O   UNL d   1       2.831  -0.753   2.227  0.00  0.00    -0.349 OA
BRANCH  14  15
ATOM     15  C   UNL d   1       3.998  -0.356   2.969  0.00  0.00     0.171 C 
ATOM     16  C   UNL d   1       3.616   0.543   4.131  0.00  0.00     0.034 C 
ENDBRANCH  14  15
ENDBRANCH   5  14
BRANCH   6  17
ATOM     17  O   UNL d   1       3.811  -3.784  -2.354  0.00  0.00    -0.349 OA
BRANCH  17  18
ATOM     18  C   UNL d   1       2.764  -3.951  -3.306  0.00  0.00     0.171 C 
ATOM     19  C   UNL d   1       3.216  -4.987  -4.319  0.00  0.00     0.034 C 
ENDBRANCH  17  18
ENDBRANCH   6  17
BRANCH   3  20
ATOM     20  N   UNL d   1       5.712  -3.725  -0.255  0.00  0.00    -0.374 N 
ATOM     21  C   UNL d   1       6.474  -3.993  -1.483  0.00  0.00     0.149 C 
ATOM     22  C   UNL d   1       6.561  -5.508  -1.709  0.00  0.00     0.187 C 
ATOM     23  O   UNL d   1       7.172  -6.160  -0.579  0.00  0.00    -0.388 OA
ATOM     24  C   UNL d   1       6.392  -5.932   0.608  0.00  0.00     0.187 C 
ATOM     25  C   UNL d   1       6.235  -4.433   0.925  0.00  0.00     0.149 C 
ENDBRANCH   3  20
TORSDOF 6
