REMARK  5 active torsions:
REMARK  status: ('A' for Active; 'I' for Inactive)
REMARK    1  A    between atoms: N_7  and  C_1 
REMARK    2  A    between atoms: C_9  and  C_6 
REMARK       I    between atoms: C_8  and  N_7 
REMARK       I    between atoms: N_11  and  C_8 
REMARK    3  A    between atoms: C_16  and  N_11 
REMARK    4  A    between atoms: C_17  and  C_16 
REMARK    5  A    between atoms: C_18  and  C_17 
ROOT
ATOM      1  C   UNL d   1       0.069  -1.196   0.008  0.00  0.00     0.127 A 
ATOM      2  N   UNL d   1       0.066   1.081  -0.055  0.00  0.00    -0.301 N 
ATOM      3  HN  UNL d   1      -0.263   2.046  -0.078  1.00  0.00     0.187 HD
ATOM      4  C   UNL d   1       1.376  -0.766  -0.006  0.00  0.00     0.077 A 
ATOM      5  N   UNL d   1      -0.678  -0.042  -0.025  0.00  0.00    -0.281 N 
ATOM      6  C   UNL d   1       1.333   0.646  -0.048  0.00  0.00     0.037 A 
ATOM      7  C   UNL d   1      -2.115   0.081  -0.040  0.00  0.00     0.179 C 
ENDROOT
BRANCH   1   8
ATOM      8  N   UNL d   1      -0.391  -2.515   0.035  0.00  0.00    -0.293 N 
ATOM      9  C   UNL d   1       0.490  -3.632   0.064  0.00  0.00     0.321 C 
ATOM     10  O   UNL d   1       1.703  -3.522   0.107  0.00  0.00    -0.247 OA
ATOM     11  N   UNL d   1      -0.194  -4.809   0.026  0.00  0.00    -0.343 N 
ATOM     12  H   UNL d   1      -1.200  -4.850   0.039  0.00  0.00     0.164 HD
ATOM     13  H   UNL d   1      -1.385  -2.675   0.018  0.00  0.00     0.172 HD
BRANCH  11  14
ATOM     14  C   UNL d   1       0.547  -6.059   0.011  0.00  0.00     0.124 C 
BRANCH  14  15
ATOM     15  C   UNL d   1       0.992  -6.503   1.405  0.00  0.00     0.019 C 
BRANCH  15  16
ATOM     16  C   UNL d   1      -0.187  -6.946   2.271  0.00  0.00    -0.003 C 
ATOM     17  C   UNL d   1       0.275  -7.442   3.632  0.00  0.00     0.005 C 
ENDBRANCH  15  16
ENDBRANCH  14  15
ENDBRANCH  11  14
ENDBRANCH   1   8
BRANCH   6  18
ATOM     18  C   UNL d   1       2.503   1.616  -0.087  0.00  0.00    -0.007 C 
ATOM     19  C   UNL d   1       3.858   0.871  -0.105  0.00  0.00     0.021 C 
ATOM     20  C   UNL d   1       2.429   2.487  -1.356  0.00  0.00     0.021 C 
ATOM     21  C   UNL d   1       2.482   2.522   1.159  0.00  0.00     0.021 C 
ENDBRANCH   6  18
TORSDOF 5
