REMARK  4 active torsions:
REMARK  status: ('A' for Active; 'I' for Inactive)
REMARK    1  A    between atoms: C_2  and  C_1 
REMARK       I    between atoms: N_8  and  C_2 
REMARK    2  A    between atoms: C_9  and  N_8 
REMARK    3  A    between atoms: O_11  and  C_10 
REMARK    4  A    between atoms: C_13  and  O_11 
ROOT
ATOM      1  C   UNL d   1       1.991  -3.059  -0.137  0.00  0.00     0.069 A 
ATOM      2  C   UNL d   1       2.246  -2.152   0.912  0.00  0.00     0.102 A 
ATOM      3  C   UNL d   1       3.076  -3.675  -0.771  0.00  0.00     0.032 A 
ATOM      4  C   UNL d   1       3.566  -1.848   1.271  0.00  0.00     0.039 A 
ATOM      5  C   UNL d   1       4.389  -3.373  -0.399  0.00  0.00     0.002 A 
ATOM      6  C   UNL d   1       4.635  -2.456   0.619  0.00  0.00     0.003 A 
ENDROOT
BRANCH   1   7
ATOM      7  N   UNL d   1       0.663  -3.296  -0.562  0.00  0.00    -0.320 N 
ATOM      8  C   UNL d   1       0.181  -4.469  -1.127  0.00  0.00     0.266 C 
ATOM      9  O   UNL d   1       0.870  -5.463  -1.326  0.00  0.00    -0.267 OA
ATOM     10  H   UNL d   1      -0.034  -2.652  -0.207  0.00  0.00     0.169 HD
BRANCH   8  11
ATOM     11  C   UNL d   1      -1.241  -4.474  -1.384  0.00  0.00     0.110 A 
ATOM     12  C   UNL d   1      -2.132  -5.538  -1.430  0.00  0.00     0.043 A 
ATOM     13  N   UNL d   1      -3.437  -5.184  -1.760  0.00  0.00    -0.296 N 
ATOM     14  C   UNL d   1      -1.851  -6.971  -1.155  0.00  0.00     0.071 C 
ATOM     15  N   UNL d   1      -3.561  -3.884  -1.960  0.00  0.00    -0.061 NA
ATOM     16  HN  UNL d   1      -4.206  -5.849  -1.837  1.00  0.00     0.183 HD
ATOM     17  S   UNL d   1      -2.127  -3.057  -1.755  0.00  0.00     0.007 SA
ENDBRANCH   8  11
ENDBRANCH   1   7
BRANCH   2  18
ATOM     18  O   UNL d   1       1.288  -1.446   1.609  0.00  0.00    -0.309 OA
BRANCH  18  19
ATOM     19  C   UNL d   1       0.194  -2.083   2.147  0.00  0.00     0.076 A 
ATOM     20  C   UNL d   1       0.123  -3.439   2.476  0.00  0.00     0.037 A 
ATOM     21  C   UNL d   1      -1.087  -3.987   2.909  0.00  0.00     0.003 A 
ATOM     22  C   UNL d   1      -2.211  -3.173   3.063  0.00  0.00     0.000 A 
ATOM     23  C   UNL d   1      -2.123  -1.808   2.801  0.00  0.00     0.003 A 
ATOM     24  C   UNL d   1      -0.922  -1.265   2.346  0.00  0.00     0.037 A 
ENDBRANCH  18  19
ENDBRANCH   2  18
TORSDOF 4
