REMARK  2 active torsions:
REMARK  status: ('A' for Active; 'I' for Inactive)
REMARK       I    between atoms: N_2  and  C_1 
REMARK       I    between atoms: N_3  and  C_1 
REMARK    1  A    between atoms: C_5  and  N_2 
REMARK    2  A    between atoms: C_6  and  N_3 
ROOT
ATOM      1  C   UNL d   1       1.004   0.061   0.058  0.00  0.00     0.325 C 
ATOM      2  N   UNL d   1       0.414  -1.170  -0.195  0.00  0.00    -0.309 N 
ATOM      3  N   UNL d   1       0.117   1.099  -0.190  0.00  0.00    -0.309 N 
ATOM      4  O   UNL d   1       2.162   0.213   0.422  0.00  0.00    -0.247 OA
ATOM      5  H   UNL d   1      -0.493  -1.155  -0.634  0.00  0.00     0.170 HD
ATOM      6  H   UNL d   1      -0.857   0.853  -0.275  0.00  0.00     0.170 HD
ENDROOT
BRANCH   2   7
ATOM      7  C   UNL d   1       1.046  -2.435  -0.117  0.00  0.00     0.037 A 
ATOM      8  C   UNL d   1       2.311  -2.641   0.439  0.00  0.00     0.053 A 
ATOM      9  C   UNL d   1       2.892  -3.910   0.417  0.00  0.00     0.036 A 
ATOM     10 CL   UNL d   1       4.463  -4.143   1.084  0.00  0.00    -0.084 Cl
ATOM     11  C   UNL d   1       2.218  -4.990  -0.145  0.00  0.00     0.024 A 
ATOM     12  C   UNL d   1       0.944  -4.803  -0.674  0.00  0.00     0.004 A 
ATOM     13  C   UNL d   1       0.358  -3.533  -0.654  0.00  0.00     0.029 A 
ENDBRANCH   2   7
BRANCH   3  14
ATOM     14  C   UNL d   1       0.419   2.482  -0.210  0.00  0.00     0.037 A 
ATOM     15  C   UNL d   1       1.714   2.998  -0.098  0.00  0.00     0.053 A 
ATOM     16  C   UNL d   1       1.930   4.377  -0.145  0.00  0.00     0.036 A 
ATOM     17 CL   UNL d   1       3.529   4.998  -0.001  0.00  0.00    -0.084 Cl
ATOM     18  C   UNL d   1       0.864   5.256  -0.312  0.00  0.00     0.024 A 
ATOM     19  C   UNL d   1      -0.429   4.752  -0.433  0.00  0.00     0.004 A 
ATOM     20  C   UNL d   1      -0.649   3.372  -0.383  0.00  0.00     0.029 A 
ENDBRANCH   3  14
TORSDOF 2
