REMARK  8 active torsions:
REMARK  status: ('A' for Active; 'I' for Inactive)
REMARK    1  A    between atoms: S_2  and  C_1 
REMARK    2  A    between atoms: C_16  and  S_2 
REMARK    3  A    between atoms: C_9  and  C_8 
REMARK    4  A    between atoms: O_25  and  C_12 
REMARK    5  A    between atoms: C_20  and  C_16 
REMARK    6  A    between atoms: C_29  and  O_25 
REMARK    7  A    between atoms: C_30  and  C_29 
REMARK    8  A    between atoms: C_31  and  C_30 
ROOT
ATOM      1  N   UNL d   1      -3.325   0.629  -6.205  0.00  0.00    -0.352 N 
ATOM      2  HN  UNL d   1      -3.050   0.163  -7.070  1.00  0.00     0.166 HD
ATOM      3  C   UNL d   1      -3.549   1.966  -6.185  0.00  0.00     0.119 A 
ATOM      4  C   UNL d   1      -3.887   0.496  -3.846  0.00  0.00     0.025 A 
ATOM      5  C   UNL d   1      -3.471  -0.073  -5.072  0.00  0.00     0.045 A 
ATOM      6  C   UNL d   1      -4.161   1.889  -3.857  0.00  0.00     0.083 A 
ATOM      7  C   UNL d   1      -3.930   2.621  -5.024  0.00  0.00     0.072 A 
ATOM      8  C   UNL d   1      -4.003  -0.357  -2.713  0.00  0.00     0.024 A 
ATOM      9  C   UNL d   1      -3.700  -1.732  -2.786  0.00  0.00    -0.043 A 
ATOM     10  C   UNL d   1      -3.196  -1.429  -5.133  0.00  0.00     0.031 A 
ATOM     11  C   UNL d   1      -3.293  -2.256  -4.014  0.00  0.00     0.010 A 
ENDROOT
BRANCH   9  12
ATOM     12  C   UNL d   1      -3.782  -2.630  -1.576  0.00  0.00     0.186 C 
BRANCH  12  13
ATOM     13  S   UNL d   1      -5.395  -3.371  -1.409  0.00  0.00     0.201 S 
ATOM     14  O   UNL d   1      -6.423  -2.349  -1.537  0.00  0.00    -0.220 OA
ATOM     15  O   UNL d   1      -5.374  -4.248  -0.252  0.00  0.00    -0.220 OA
BRANCH  13  16
ATOM     16  C   UNL d   1      -5.514  -4.457  -2.812  0.00  0.00     0.172 A 
ATOM     17  N   UNL d   1      -4.618  -5.372  -3.130  0.00  0.00    -0.340 N 
ATOM     18  C   UNL d   1      -5.028  -6.030  -4.280  0.00  0.00     0.050 A 
ATOM     19  HN  UNL d   1      -3.761  -5.566  -2.612  1.00  0.00     0.167 HD
ATOM     20  C   UNL d   1      -4.343  -7.084  -4.919  0.00  0.00     0.031 A 
ATOM     21  C   UNL d   1      -6.226  -5.574  -4.837  0.00  0.00     0.034 A 
ATOM     22  C   UNL d   1      -4.860  -7.643  -6.093  0.00  0.00     0.002 A 
ATOM     23  C   UNL d   1      -6.051  -7.166  -6.634  0.00  0.00     0.002 A 
ATOM     24  C   UNL d   1      -6.754  -6.127  -6.016  0.00  0.00     0.021 A 
ATOM     25  S   UNL d   1      -6.855  -4.305  -3.855  0.00  0.00    -0.058 SA
ENDBRANCH  13  16
ENDBRANCH  12  13
ENDBRANCH   9  12
BRANCH   6  26
ATOM     26  O   UNL d   1      -4.670   2.483  -2.714  0.00  0.00    -0.350 OA
BRANCH  26  27
ATOM     27  C   UNL d   1      -5.336   3.738  -2.952  0.00  0.00     0.175 C 
BRANCH  27  28
ATOM     28  C   UNL d   1      -6.236   4.161  -1.797  0.00  0.00     0.026 C 
BRANCH  28  29
ATOM     29  C   UNL d   1      -5.459   4.558  -0.545  0.00  0.00    -0.002 C 
ATOM     30  C   UNL d   1      -6.403   5.044   0.545  0.00  0.00     0.005 C 
ENDBRANCH  28  29
ENDBRANCH  27  28
ENDBRANCH  26  27
ENDBRANCH   6  26
BRANCH   3  31
ATOM     31  C   UNL d   1      -3.444   2.788  -7.460  0.00  0.00     0.432 C 
ATOM     32  F   UNL d   1      -3.084   2.084  -8.568  0.00  0.00    -0.165 F 
ATOM     33  F   UNL d   1      -4.627   3.396  -7.774  0.00  0.00    -0.165 F 
ATOM     34  F   UNL d   1      -2.539   3.805  -7.349  0.00  0.00    -0.165 F 
ENDBRANCH   3  31
TORSDOF 8
