REMARK  6 active torsions:
REMARK  status: ('A' for Active; 'I' for Inactive)
REMARK       I    between atoms: N_2  and  C_1 
REMARK    1  A    between atoms: O_4  and  C_1 
REMARK       I    between atoms: C_3  and  N_18 
REMARK       I    between atoms: N_6  and  C_3 
REMARK    2  A    between atoms: C_17  and  O_4 
REMARK    3  A    between atoms: C_5  and  N_6 
REMARK    4  A    between atoms: C_24  and  N_7 
REMARK    5  A    between atoms: N_18  and  C_23 
REMARK    6  A    between atoms: C_23  and  C_24 
ROOT
ATOM      1  C   UNL d   1      -1.462   4.612  -3.239  0.00  0.00     0.154 C 
ENDROOT
BRANCH   1   2
ATOM      2  N   UNL d   1      -2.658   4.627  -4.069  0.00  0.00    -0.341 N 
ATOM      3  C   UNL d   1      -3.166   3.447  -4.566  0.00  0.00     0.320 C 
ATOM      4  N   UNL d   1      -4.147   3.656  -5.514  0.00  0.00    -0.309 N 
ATOM      5  O   UNL d   1      -2.771   2.357  -4.173  0.00  0.00    -0.247 OA
ATOM      6  H   UNL d   1      -4.157   4.561  -5.963  0.00  0.00     0.170 HD
ATOM      7  H   UNL d   1      -2.848   5.477  -4.577  0.00  0.00     0.164 HD
BRANCH   4   8
ATOM      8  C   UNL d   1      -5.034   2.678  -6.021  0.00  0.00     0.039 A 
ATOM      9  C   UNL d   1      -5.223   1.436  -5.405  0.00  0.00     0.053 A 
ATOM     10  C   UNL d   1      -6.181   0.544  -5.891  0.00  0.00     0.037 A 
ATOM     11 CL   UNL d   1      -6.429  -0.957  -5.086  0.00  0.00    -0.084 Cl
ATOM     12  C   UNL d   1      -6.952   0.865  -7.001  0.00  0.00     0.048 A 
ATOM     13  C   UNL d   1      -6.745   2.086  -7.635  0.00  0.00     0.037 A 
ATOM     14  C   UNL d   1      -5.800   2.996  -7.149  0.00  0.00     0.053 A 
ATOM     15 CL   UNL d   1      -7.678   2.486  -9.026  0.00  0.00    -0.084 Cl
ENDBRANCH   4   8
ENDBRANCH   1   2
BRANCH   1  16
ATOM     16  C   UNL d   1      -1.641   4.002  -1.824  0.00  0.00     0.292 C 
BRANCH  16  17
ATOM     17  N   UNL d   1      -0.424   4.100  -0.982  0.00  0.00     0.093 N 
ATOM     18  C   UNL d   1      -0.637   3.508   0.364  0.00  0.00     0.292 C 
ATOM     19  C   UNL d   1      -0.701   1.959   0.424  0.00  0.00     0.158 C 
ATOM     20  N   UNL d   1       0.378   1.328  -0.337  0.00  0.00    -0.325 N 
ATOM     21  C   UNL d   1       0.898   0.075  -0.066  0.00  0.00     0.363 C 
ATOM     22  C   UNL d   1       0.652   1.906  -1.650  0.00  0.00     0.158 C 
ATOM     23  O   UNL d   1       1.675  -0.494  -0.832  0.00  0.00    -0.238 OA
ATOM     24  C   UNL d   1       0.755   3.437  -1.582  0.00  0.00     0.292 C 
BRANCH  21  25
ATOM     25  O   UNL d   1       0.493  -0.445   1.129  0.00  0.00    -0.294 OA
BRANCH  25  26
ATOM     26  C   UNL d   1       1.028  -1.733   1.552  0.00  0.00     0.061 C 
ATOM     27  C   UNL d   1       2.550  -1.664   1.775  0.00  0.00     0.046 C 
ATOM     28  C   UNL d   1       0.360  -2.048   2.903  0.00  0.00     0.046 C 
ATOM     29  C   UNL d   1       0.640  -2.855   0.575  0.00  0.00     0.046 C 
ENDBRANCH  25  26
ENDBRANCH  21  25
ENDBRANCH  16  17
ENDBRANCH   1  16
TORSDOF 6
