REMARK  5 active torsions:
REMARK  status: ('A' for Active; 'I' for Inactive)
REMARK    1  A    between atoms: C_5  and  C_1 
REMARK    2  A    between atoms: C_7  and  C_2 
REMARK    3  A    between atoms: C_3  and  C_4 
REMARK    4  A    between atoms: O_10  and  C_3 
REMARK    5  A    between atoms: O_13  and  C_5 
ROOT
ATOM      1  C   UNL d   1       4.060   0.020  -0.068  0.00  0.00     0.039 A 
ATOM      2  C   UNL d   1       1.251   0.016   0.022  0.00  0.00     0.017 A 
ATOM      3  C   UNL d   1       3.351  -1.189  -0.040  0.00  0.00     0.019 A 
ATOM      4  C   UNL d   1       3.352   1.229  -0.038  0.00  0.00     0.019 A 
ATOM      5  C   UNL d   1       1.952   1.224   0.007  0.00  0.00     0.022 A 
ATOM      6  C   UNL d   1       1.953  -1.191   0.005  0.00  0.00     0.022 A 
ENDROOT
BRANCH   2   7
ATOM      7  C   UNL d   1      -0.179   0.014   0.042  0.00  0.00    -0.064 C 
ATOM      8  C   UNL d   1      -1.382   0.010   0.050  0.00  0.00    -0.064 C 
BRANCH   8   9
ATOM      9  C   UNL d   1      -2.855   0.006   0.063  0.00  0.00     0.114 C 
ATOM     10  C   UNL d   1      -3.389   1.259   0.756  0.00  0.00     0.060 C 
ATOM     11  C   UNL d   1      -3.384  -1.252   0.749  0.00  0.00     0.060 C 
BRANCH   9  12
ATOM     12  O   UNL d   1      -3.335  -0.002  -1.281  0.00  0.00    -0.378 OA
ATOM     13  H   UNL d   1      -2.930   0.758  -1.733  0.00  0.00     0.211 HD
ENDBRANCH   9  12
ENDBRANCH   8   9
ENDBRANCH   2   7
BRANCH   1  14
ATOM     14  C   UNL d   1       5.547  -0.043  -0.137  0.00  0.00     0.292 C 
ATOM     15  O   UNL d   1       6.171  -1.092  -0.165  0.00  0.00    -0.259 OA
BRANCH  14  16
ATOM     16  O   UNL d   1       6.090   1.200  -0.170  0.00  0.00    -0.323 OA
ATOM     17  C   UNL d   1       7.518   1.201  -0.250  0.00  0.00     0.213 C 
ENDBRANCH  14  16
ENDBRANCH   1  14
TORSDOF 5
