REMARK  8 active torsions:
REMARK  status: ('A' for Active; 'I' for Inactive)
REMARK    1  A    between atoms: C_14  and  C_6 
REMARK    2  A    between atoms: N_7  and  C_9 
REMARK    3  A    between atoms: N_8  and  C_13 
REMARK    4  A    between atoms: O_24  and  C_14 
REMARK    5  A    between atoms: O_25  and  N_16 
REMARK    6  A    between atoms: C_26  and  O_24 
REMARK    7  A    between atoms: C_27  and  C_26 
REMARK    8  A    between atoms: C_28  and  C_27 
ROOT
ATOM      1  C   UNL d   1       0.665  -0.509  -0.060  0.00  0.00     0.004 A 
ATOM      2  C   UNL d   1       1.132   0.825  -0.055  0.00  0.00     0.008 A 
ATOM      3  C   UNL d   1      -1.245   0.865  -0.015  0.00  0.00     0.007 A 
ATOM      4  C   UNL d   1      -0.794  -0.474  -0.051  0.00  0.00    -0.011 A 
ATOM      5  C   UNL d   1      -0.040   1.732  -0.024  0.00  0.00     0.076 A 
ATOM      6  C   UNL d   1       1.613  -1.536  -0.056  0.00  0.00     0.053 A 
ATOM      7  C   UNL d   1       3.405   0.152  -0.063  0.00  0.00     0.104 A 
ATOM      8  C   UNL d   1       2.472   1.188  -0.050  0.00  0.00     0.050 A 
ATOM      9  C   UNL d   1       2.985  -1.192  -0.069  0.00  0.00     0.054 A 
ATOM     10  C   UNL d   1      -2.594   1.201   0.008  0.00  0.00     0.050 A 
ATOM     11  C   UNL d   1      -3.521   0.152  -0.006  0.00  0.00     0.103 A 
ATOM     12  C   UNL d   1      -1.732  -1.498  -0.090  0.00  0.00     0.016 A 
ATOM     13  N   UNL d   1       0.100   3.019  -0.013  0.00  0.00    -0.268 N 
ATOM     14  HN  UNL d   1       1.005   3.488  -0.020  1.00  0.00     0.194 HD
ATOM     15  C   UNL d   1      -3.097  -1.187  -0.053  0.00  0.00     0.037 A 
ENDROOT
BRANCH   6  16
ATOM     16  C   UNL d   1       1.276  -2.969   0.158  0.00  0.00     0.294 C 
ATOM     17  O   UNL d   1       0.384  -3.355   0.892  0.00  0.00    -0.259 OA
BRANCH  16  18
ATOM     18  O   UNL d   1       2.228  -3.754  -0.407  0.00  0.00    -0.317 OA
BRANCH  18  19
ATOM     19  C   UNL d   1       2.572  -4.905   0.376  0.00  0.00     0.179 C 
BRANCH  19  20
ATOM     20  C   UNL d   1       2.062  -6.207  -0.227  0.00  0.00     0.026 C 
BRANCH  20  21
ATOM     21  C   UNL d   1       2.497  -7.374   0.663  0.00  0.00    -0.002 C 
ATOM     22  C   UNL d   1       2.050  -8.721   0.127  0.00  0.00     0.005 C 
ENDBRANCH  20  21
ENDBRANCH  19  20
ENDBRANCH  18  19
ENDBRANCH  16  18
ENDBRANCH   6  16
BRANCH   7  23
ATOM     23  N   UNL d   1       4.846   0.452  -0.030  0.00  0.00    -0.116 N 
ATOM     24  O   UNL d   1       5.185   1.640  -0.024  0.00  0.00    -0.532 OA
ATOM     25  O   UNL d   1       5.628  -0.509  -0.008  0.00  0.00    -0.532 OA
ENDBRANCH   7  23
BRANCH  13  26
ATOM     26  O   UNL d   1      -1.117   3.694   0.010  0.00  0.00    -0.289 OA
ATOM     27  H   UNL d   1      -0.844   4.631   0.007  0.00  0.00     0.244 HD
ENDBRANCH  13  26
BRANCH  11  28
ATOM     28  N   UNL d   1      -4.960   0.449   0.015  0.00  0.00    -0.116 N 
ATOM     29  O   UNL d   1      -5.305   1.636   0.022  0.00  0.00    -0.532 OA
ATOM     30  O   UNL d   1      -5.745  -0.513   0.019  0.00  0.00    -0.532 OA
ENDBRANCH  11  28
TORSDOF 8
