REMARK  3 active torsions:
REMARK  status: ('A' for Active; 'I' for Inactive)
REMARK       I    between atoms: C_2  and  N_1 
REMARK    1  A    between atoms: C_9  and  C_2 
REMARK    2  A    between atoms: C_3  and  C_6 
REMARK    3  A    between atoms: O_12  and  C_3 
ROOT
ATOM      1  N   UNL d   1       1.353  -0.070   0.231  0.00  0.00    -0.352 N 
ATOM      2  C   UNL d   1       2.439  -0.021   1.108  0.00  0.00     0.224 C 
ATOM      3  C   UNL d   1       0.694  -1.287  -0.233  0.00  0.00     0.126 C 
ATOM      4  C   UNL d   1       0.780   1.171  -0.276  0.00  0.00     0.126 C 
ATOM      5  C   UNL d   1      -1.490   0.035  -0.301  0.00  0.00     0.087 C 
ATOM      6  O   UNL d   1       2.925   1.068   1.441  0.00  0.00    -0.273 OA
ATOM      7  C   UNL d   1      -0.689   1.271   0.133  0.00  0.00     0.035 C 
ATOM      8  C   UNL d   1      -0.787  -1.262   0.145  0.00  0.00     0.035 C 
ENDROOT
BRANCH   2   9
ATOM      9  C   UNL d   1       2.983  -1.363   1.668  0.00  0.00     0.078 C 
ATOM     10  C   UNL d   1       4.225  -1.281   2.606  0.00  0.00     0.014 C 
ATOM     11  C   UNL d   1       4.731  -2.582   1.966  0.00  0.00     0.002 C 
ATOM     12  C   UNL d   1       3.865  -2.244   0.740  0.00  0.00     0.014 C 
ENDBRANCH   2   9
BRANCH   5  13
ATOM     13  C   UNL d   1      -1.746   0.038  -1.799  0.00  0.00     0.143 C 
ATOM     14  O   UNL d   1      -1.302  -0.784  -2.586  0.00  0.00    -0.650 OA
BRANCH  13  15
ATOM     15  O   UNL d   1      -2.552   1.046  -2.201  0.00  0.00    -0.776 OA
ATOM     16  H   UNL d   1      -2.879   1.619  -1.482  0.00  0.00     0.167 HD
ENDBRANCH  13  15
ENDBRANCH   5  13
TORSDOF 3
