REMARK  5 active torsions:
REMARK  status: ('A' for Active; 'I' for Inactive)
REMARK    1  A    between atoms: N_7  and  S_1 
REMARK    2  A    between atoms: C_8  and  S_1 
REMARK    3  A    between atoms: C_2  and  C_13 
REMARK    4  A    between atoms: C_3  and  C_12 
REMARK    5  A    between atoms: C_13  and  N_7 
ROOT
ATOM      1  S   UNL d   1       0.967  -0.047   0.078  0.00  0.00     0.241 S 
ATOM      2  O   UNL d   1       2.218  -0.246   0.771  0.00  0.00    -0.206 OA
ATOM      3  O   UNL d   1       0.800  -0.360  -1.324  0.00  0.00    -0.206 OA
ENDROOT
BRANCH   1   4
ATOM      4  N   UNL d   1       0.487   1.560   0.294  0.00  0.00    -0.211 NA
ATOM      5  H   UNL d   1      -0.491   1.703   0.050  0.00  0.00     0.140 HD
BRANCH   4   6
ATOM      6  C   UNL d   1       0.883   2.180   1.561  0.00  0.00     0.144 C 
BRANCH   6   7
ATOM      7  C   UNL d   1       0.373   3.595   1.576  0.00  0.00    -0.026 A 
ATOM      8  C   UNL d   1      -0.885   4.027   2.156  0.00  0.00    -0.009 A 
ATOM      9  C   UNL d   1      -1.037   5.418   2.086  0.00  0.00     0.015 A 
ATOM     10  C   UNL d   1      -1.927   3.283   2.770  0.00  0.00     0.037 A 
ATOM     11  C   UNL d   1      -2.163   6.074   2.622  0.00  0.00     0.021 A 
ATOM     12  S   UNL d   1       0.295   6.158   1.291  0.00  0.00    -0.101 SA
ATOM     13  C   UNL d   1      -3.169   5.312   3.224  0.00  0.00     0.025 A 
ATOM     14  C   UNL d   1      -3.050   3.933   3.290  0.00  0.00     0.035 A 
ATOM     15 CL   UNL d   1      -4.298   3.002   4.027  0.00  0.00    -0.084 Cl
ATOM     16  C   UNL d   1       1.077   4.665   1.055  0.00  0.00     0.059 A 
ENDBRANCH   6   7
ENDBRANCH   4   6
ENDBRANCH   1   4
BRANCH   1  17
ATOM     17  C   UNL d   1      -0.305  -0.935   0.949  0.00  0.00     0.074 A 
ATOM     18  C   UNL d   1      -1.599  -0.947   0.418  0.00  0.00     0.025 A 
ATOM     19  C   UNL d   1      -2.620  -1.601   1.108  0.00  0.00     0.018 A 
ATOM     20  C   UNL d   1      -2.354  -2.258   2.322  0.00  0.00     0.048 A 
ATOM     21  C   UNL d   1      -1.036  -2.286   2.809  0.00  0.00     0.018 A 
ATOM     22  C   UNL d   1      -0.010  -1.627   2.126  0.00  0.00     0.025 A 
BRANCH  20  23
ATOM     23  C   UNL d   1      -3.489  -2.903   3.086  0.00  0.00     0.417 C 
ATOM     24  F   UNL d   1      -3.099  -3.481   4.256  0.00  0.00    -0.166 F 
ATOM     25  F   UNL d   1      -4.455  -2.002   3.419  0.00  0.00    -0.166 F 
ATOM     26  F   UNL d   1      -4.116  -3.878   2.373  0.00  0.00    -0.166 F 
ENDBRANCH  20  23
ENDBRANCH   1  17
TORSDOF 5
