REMARK  3 active torsions:
REMARK  status: ('A' for Active; 'I' for Inactive)
REMARK    1  A    between atoms: C_8  and  N_2 
REMARK    2  A    between atoms: N_11  and  C_3 
REMARK    3  A    between atoms: C_10  and  C_6 
ROOT
ATOM      1  C   UNL d   1      -0.336  -1.334   0.051  0.00  0.00     0.118 A 
ATOM      2  N   UNL d   1       0.893   0.489  -0.003  0.00  0.00    -0.266 N 
ATOM      3  C   UNL d   1       0.970  -0.895   0.031  0.00  0.00     0.140 A 
ATOM      4  N   UNL d   1      -0.395   0.927  -0.001  0.00  0.00    -0.294 N 
ATOM      5  HN  UNL d   1      -0.716   1.895  -0.012  1.00  0.00     0.187 HD
ATOM      6  C   UNL d   1      -1.157  -0.179   0.018  0.00  0.00     0.083 A 
ATOM      7  C   UNL d   1      -0.732  -2.701   0.123  0.00  0.00     0.105 C 
ATOM      8  N   UNL d   1      -1.054  -3.813   0.158  0.00  0.00    -0.191 NA
ENDROOT
BRANCH   3   9
ATOM      9  N   UNL d   1       2.114  -1.616   0.050  0.00  0.00    -0.383 N 
ATOM     10  H   UNL d   1       3.053  -1.232   0.029  0.00  0.00     0.157 HD
ATOM     11  H   UNL d   1       2.103  -2.636   0.054  0.00  0.00     0.157 HD
ENDBRANCH   3   9
BRANCH   6  12
ATOM     12  C   UNL d   1      -2.628  -0.100   0.049  0.00  0.00    -0.006 A 
ATOM     13  C   UNL d   1      -3.427  -1.103  -0.527  0.00  0.00     0.015 A 
ATOM     14  C   UNL d   1      -4.820  -1.074  -0.406  0.00  0.00     0.024 A 
ATOM     15  C   UNL d   1      -5.434  -0.025   0.270  0.00  0.00     0.034 A 
ATOM     16  C   UNL d   1      -4.665   1.005   0.810  0.00  0.00     0.024 A 
ATOM     17 CL   UNL d   1      -7.146  -0.004   0.441  0.00  0.00    -0.084 Cl
ATOM     18  C   UNL d   1      -3.270   0.968   0.696  0.00  0.00     0.015 A 
ENDBRANCH   6  12
BRANCH   2  19
ATOM     19  C   UNL d   1       1.995   1.478  -0.028  0.00  0.00     0.044 C 
ATOM     20  C   UNL d   1       2.873   1.289  -1.282  0.00  0.00     0.039 C 
ATOM     21  C   UNL d   1       1.458   2.933  -0.073  0.00  0.00     0.039 C 
ATOM     22  C   UNL d   1       2.865   1.365   1.242  0.00  0.00     0.039 C 
ENDBRANCH   2  19
TORSDOF 3
