REMARK  19 active torsions:
REMARK  status: ('A' for Active; 'I' for Inactive)
REMARK    1  A    between atoms: C_7  and  N_1 
REMARK    2  A    between atoms: C_9  and  C_4 
REMARK    3  A    between atoms: C_10  and  C_7 
REMARK    4  A    between atoms: O_8  and  C_10 
REMARK    5  A    between atoms: C_11  and  C_9 
REMARK    6  A    between atoms: C_24  and  C_11 
REMARK    7  A    between atoms: C_12  and  C_13 
REMARK    8  A    between atoms: C_13  and  C_23 
REMARK    9  A    between atoms: C_14  and  C_25 
REMARK   10  A    between atoms: C_15  and  C_14 
REMARK   11  A    between atoms: C_16  and  C_15 
REMARK   12  A    between atoms: C_17  and  C_16 
REMARK   13  A    between atoms: C_18  and  C_17 
REMARK   14  A    between atoms: C_19  and  C_18 
REMARK   15  A    between atoms: C_20  and  C_19 
REMARK   16  A    between atoms: C_21  and  C_20 
REMARK   17  A    between atoms: C_22  and  C_21 
REMARK   18  A    between atoms: C_23  and  C_22 
REMARK   19  A    between atoms: C_25  and  C_24 
ROOT
ATOM      1  C   UNL d   1      -3.563   3.248   3.306  0.00  0.00     0.000 C 
ENDROOT
BRANCH   1   2
ATOM      2  C   UNL d   1      -3.771   3.739   4.729  0.00  0.00     0.000 C 
BRANCH   2   3
ATOM      3  C   UNL d   1      -5.181   4.281   4.897  0.00  0.00     0.000 C 
BRANCH   3   4
ATOM      4  C   UNL d   1      -5.384   4.771   6.321  0.00  0.00     0.000 C 
BRANCH   4   5
ATOM      5  C   UNL d   1      -6.791   5.314   6.490  0.00  0.00     0.000 C 
BRANCH   5   6
ATOM      6  C   UNL d   1      -6.992   5.803   7.913  0.00  0.00     0.000 C 
BRANCH   6   7
ATOM      7  C   UNL d   1      -8.400   6.345   8.083  0.00  0.00     0.000 C 
BRANCH   7   8
ATOM      8  C   UNL d   1      -8.603   6.834   9.507  0.00  0.00     0.000 C 
BRANCH   8   9
ATOM      9  C   UNL d   1     -10.011   7.376   9.677  0.00  0.00     0.000 C 
BRANCH   9  10
ATOM     10  C   UNL d   1     -10.216   7.866  11.100  0.00  0.00     0.000 C 
BRANCH  10  11
ATOM     11  C   UNL d   1     -11.627   8.409  11.273  0.00  0.00     0.000 C 
BRANCH  11  12
ATOM     12  C   UNL d   1     -11.834   8.902  12.701  0.00  0.00    -0.000 C 
BRANCH  12  13
ATOM     13  C   UNL d   1     -13.243   9.448  12.882  0.00  0.00    -0.005 C 
ATOM     14  C   UNL d   1     -13.444   9.939  14.305  0.00  0.00     0.005 C 
ENDBRANCH  12  13
ENDBRANCH  11  12
ENDBRANCH  10  11
ENDBRANCH   9  10
ENDBRANCH   8   9
ENDBRANCH   7   8
ENDBRANCH   6   7
ENDBRANCH   5   6
ENDBRANCH   4   5
ENDBRANCH   3   4
ENDBRANCH   2   3
ENDBRANCH   1   2
BRANCH   1  15
ATOM     15  C   UNL d   1      -2.152   2.703   3.136  0.00  0.00     0.000 C 
BRANCH  15  16
ATOM     16  C   UNL d   1      -1.945   2.214   1.709  0.00  0.00     0.004 C 
BRANCH  16  17
ATOM     17  C   UNL d   1      -0.526   1.679   1.518  0.00  0.00     0.057 C 
BRANCH  17  18
ATOM     18  C   UNL d   1      -0.301   1.158   0.087  0.00  0.00     0.321 C 
ATOM     19  N   UNL d   1      -0.500   2.269  -0.871  0.00  0.00    -0.372 N 
ATOM     20  C   UNL d   1       0.700   2.579  -1.221  0.00  0.00     0.087 C 
ATOM     21  HN  UNL d   1      -1.378   2.688  -1.180  1.00  0.00     0.160 HD
ATOM     22  C   UNL d   1       1.799   1.774  -0.613  0.00  0.00     0.319 C 
ATOM     23  N   UNL d   1       1.081   0.637  -0.029  0.00  0.00     0.117 N 
BRANCH  23  24
ATOM     24  C   UNL d   1       1.095  -0.530  -0.941  0.00  0.00     0.301 C 
BRANCH  24  25
ATOM     25  C   UNL d   1       2.483  -1.175  -1.082  0.00  0.00     0.194 C 
BRANCH  25  26
ATOM     26  O   UNL d   1       2.411  -2.303  -1.949  0.00  0.00    -0.399 OA
ATOM     27  H   UNL d   1       3.305  -2.679  -2.000  0.00  0.00     0.209 HD
ENDBRANCH  25  26
ENDBRANCH  24  25
ENDBRANCH  23  24
ENDBRANCH  17  18
ENDBRANCH  16  17
ENDBRANCH  15  16
ENDBRANCH   1  15
TORSDOF 19
