REMARK  2 active torsions:
REMARK  status: ('A' for Active; 'I' for Inactive)
REMARK    1  A    between atoms: C_4  and  C_1 
REMARK       I    between atoms: N_7  and  C_4 
REMARK    2  A    between atoms: C_6  and  N_8 
ROOT
ATOM      1  C   UNL d   1      -7.307   1.548   0.722  0.00  0.00     0.124 A 
ATOM      2  C   UNL d   1      -8.177   1.809  -0.355  0.00  0.00     0.088 A 
ATOM      3  C   UNL d   1      -7.909   1.329  -1.682  0.00  0.00     0.103 C 
ATOM      4  N   UNL d   1      -7.701   0.962  -2.764  0.00  0.00    -0.191 NA
ATOM      5  N   UNL d   1      -7.648   1.925   1.975  0.00  0.00    -0.351 N 
ATOM      6  HN  UNL d   1      -7.034   1.723   2.763  1.00  0.00     0.166 HD
ATOM      7  C   UNL d   1      -9.372   2.493  -0.138  0.00  0.00     0.028 A 
ATOM      8  C   UNL d   1      -8.823   2.576   2.163  0.00  0.00     0.090 A 
ATOM      9  C   UNL d   1      -9.707   2.883   1.152  0.00  0.00     0.019 A 
ENDROOT
BRANCH   1  10
ATOM     10  N   UNL d   1      -6.150   0.804   0.556  0.00  0.00    -0.363 N 
ATOM     11  C   UNL d   1      -5.584   0.120   1.731  0.00  0.00     0.144 C 
ATOM     12  C   UNL d   1      -4.750  -1.086   1.236  0.00  0.00     0.146 C 
ATOM     13  N   UNL d   1      -3.785  -0.721   0.181  0.00  0.00    -0.344 N 
ATOM     14  C   UNL d   1      -2.630  -1.501   0.056  0.00  0.00     0.272 C 
ATOM     15  C   UNL d   1      -4.359   0.096  -0.908  0.00  0.00     0.146 C 
ATOM     16  O   UNL d   1      -2.444  -2.477   0.785  0.00  0.00    -0.266 OA
ATOM     17  C   UNL d   1      -5.095   1.319  -0.339  0.00  0.00     0.144 C 
BRANCH  14  18
ATOM     18  C   UNL d   1      -1.621  -1.151  -0.955  0.00  0.00     0.125 A 
ATOM     19  N   UNL d   1      -1.400   0.101  -1.393  0.00  0.00    -0.256 N 
ATOM     20  O   UNL d   1      -0.387   0.014  -2.325  0.00  0.00    -0.242 OA
ATOM     21  HN  UNL d   1      -1.886   0.947  -1.095  1.00  0.00     0.195 HD
ATOM     22  C   UNL d   1       0.044  -1.270  -2.408  0.00  0.00     0.075 A 
ATOM     23  C   UNL d   1      -0.684  -2.045  -1.544  0.00  0.00     0.071 A 
ATOM     24  C   UNL d   1       1.143  -1.530  -3.352  0.00  0.00     0.079 C 
ENDBRANCH  14  18
ENDBRANCH   1  10
TORSDOF 2
