REMARK  6 active torsions:
REMARK  status: ('A' for Active; 'I' for Inactive)
REMARK    1  A    between atoms: C_6  and  N_1 
REMARK    2  A    between atoms: N_7  and  C_6 
REMARK    3  A    between atoms: C_10  and  N_7 
REMARK    4  A    between atoms: C_11  and  N_7 
REMARK    5  A    between atoms: C_14  and  C_10 
REMARK    6  A    between atoms: C_15  and  C_11 
ROOT
ATOM      1  N   UNL d   1       1.838  -0.014  -0.491  0.00  0.00    -0.252 N 
ATOM      2  C   UNL d   1       1.033  -0.391   0.547  0.00  0.00     0.263 C 
ATOM      3  C   UNL d   1       1.120   0.357  -1.584  0.00  0.00     0.263 C 
ATOM      4  C   UNL d   1      -0.322  -0.025   0.158  0.00  0.00     0.048 A 
ATOM      5  C   UNL d   1      -0.266   0.460  -1.136  0.00  0.00     0.048 A 
ATOM      6  O   UNL d   1       1.480   0.548  -2.736  0.00  0.00    -0.267 OA
ATOM      7  O   UNL d   1       1.330  -0.872   1.628  0.00  0.00    -0.267 OA
ATOM      8  C   UNL d   1      -1.482   0.006   0.904  0.00  0.00     0.018 A 
ATOM      9  C   UNL d   1      -1.359   1.033  -1.748  0.00  0.00     0.018 A 
ATOM     10  C   UNL d   1      -2.537   1.121  -1.000  0.00  0.00     0.001 A 
ATOM     11  C   UNL d   1      -2.600   0.602   0.313  0.00  0.00     0.001 A 
ENDROOT
BRANCH   1  12
ATOM     12  C   UNL d   1       3.282   0.009  -0.430  0.00  0.00     0.408 C 
BRANCH  12  13
ATOM     13  N   UNL d   1       3.775   1.379  -0.118  0.00  0.00     0.106 N 
BRANCH  13  14
ATOM     14  C   UNL d   1       3.308   1.801   1.234  0.00  0.00     0.278 C 
BRANCH  14  15
ATOM     15  C   UNL d   1       3.711   3.208   1.753  0.00  0.00     0.006 C 
ATOM     16  C   UNL d   1       3.277   4.346   0.827  0.00  0.00     0.011 C 
ATOM     17  C   UNL d   1       3.101   3.440   3.144  0.00  0.00     0.011 C 
ENDBRANCH  14  15
ENDBRANCH  13  14
BRANCH  13  18
ATOM     18  C   UNL d   1       5.252   1.410  -0.189  0.00  0.00     0.278 C 
BRANCH  18  19
ATOM     19  C   UNL d   1       5.912   1.117  -1.563  0.00  0.00     0.006 C 
ATOM     20  C   UNL d   1       5.434   2.060  -2.669  0.00  0.00     0.011 C 
ATOM     21  C   UNL d   1       7.436   1.228  -1.419  0.00  0.00     0.011 C 
ENDBRANCH  18  19
ENDBRANCH  13  18
ENDBRANCH  12  13
ENDBRANCH   1  12
TORSDOF 6
