REMARK  3 active torsions:
REMARK  status: ('A' for Active; 'I' for Inactive)
REMARK    1  A    between atoms: C_2  and  C_1 
REMARK       I    between atoms: N_3  and  C_1 
REMARK       I    between atoms: N_4  and  C_2 
REMARK    2  A    between atoms: C_7  and  N_3 
REMARK    3  A    between atoms: C_8  and  N_4 
ROOT
ATOM      1  C   UNL d   1       0.904  -0.187  -0.206  0.00  0.00     0.314 C 
ATOM      2  N   UNL d   1       2.253  -0.461  -0.184  0.00  0.00    -0.319 N 
ATOM      3  O   UNL d   1      -0.013  -0.733   0.391  0.00  0.00    -0.262 OA
ATOM      4  H   UNL d   1       2.820   0.179  -0.738  0.00  0.00     0.169 HD
ENDROOT
BRANCH   1   5
ATOM      5  C   UNL d   1       0.561   0.909  -1.238  0.00  0.00     0.314 C 
ATOM      6  N   UNL d   1      -0.780   0.909  -1.552  0.00  0.00    -0.319 N 
ATOM      7  H   UNL d   1      -1.344   0.292  -0.970  0.00  0.00     0.169 HD
ATOM      8  O   UNL d   1       1.474   1.569  -1.714  0.00  0.00    -0.262 OA
BRANCH   6   9
ATOM      9  C   UNL d   1      -1.397   1.494  -2.669  0.00  0.00     0.035 A 
ATOM     10  C   UNL d   1      -0.713   2.252  -3.622  0.00  0.00     0.031 A 
ATOM     11  C   UNL d   1      -1.372   2.706  -4.770  0.00  0.00     0.026 A 
ATOM     12  C   UNL d   1      -2.719   2.411  -4.961  0.00  0.00     0.034 A 
ATOM     13  C   UNL d   1      -3.420   1.684  -4.003  0.00  0.00     0.026 A 
ATOM     14 CL   UNL d   1      -3.517   2.931  -6.393  0.00  0.00    -0.084 Cl
ATOM     15  C   UNL d   1      -2.760   1.230  -2.857  0.00  0.00     0.031 A 
ENDBRANCH   6   9
ENDBRANCH   1   5
BRANCH   2  16
ATOM     16  C   UNL d   1       2.886  -1.595   0.350  0.00  0.00     0.035 A 
ATOM     17  C   UNL d   1       2.206  -2.624   1.007  0.00  0.00     0.031 A 
ATOM     18  C   UNL d   1       2.889  -3.776   1.415  0.00  0.00     0.026 A 
ATOM     19  C   UNL d   1       4.255  -3.896   1.175  0.00  0.00     0.034 A 
ATOM     20  C   UNL d   1       4.950  -2.865   0.549  0.00  0.00     0.026 A 
ATOM     21 CL   UNL d   1       5.085  -5.328   1.640  0.00  0.00    -0.084 Cl
ATOM     22  C   UNL d   1       4.266  -1.716   0.141  0.00  0.00     0.031 A 
ENDBRANCH   2  16
TORSDOF 3
