REMARK  4 active torsions:
REMARK  status: ('A' for Active; 'I' for Inactive)
REMARK    1  A    between atoms: C_5  and  C_1 
REMARK    2  A    between atoms: C_8  and  C_2 
REMARK    3  A    between atoms: O_12  and  C_8 
REMARK    4  A    between atoms: C_19  and  O_12 
ROOT
ATOM      1  C   UNL d   1      -1.333  -0.827   0.187  0.00  0.00     0.087 A 
ATOM      2  C   UNL d   1      -0.002  -1.313  -0.049  0.00  0.00     0.100 A 
ATOM      3  N   UNL d   1      -1.286   0.487   0.471  0.00  0.00    -0.259 N 
ATOM      4  HN  UNL d   1      -2.079   1.085   0.702  1.00  0.00     0.195 HD
ATOM      5  O   UNL d   1       0.028   0.870   0.394  0.00  0.00    -0.241 OA
ATOM      6  C   UNL d   1       0.802  -0.203   0.110  0.00  0.00     0.091 A 
ATOM      7  C   UNL d   1       2.252   0.064   0.012  0.00  0.00     0.080 C 
ENDROOT
BRANCH   1   8
ATOM      8  C   UNL d   1      -2.631  -1.526   0.201  0.00  0.00     0.037 A 
ATOM      9  C   UNL d   1      -2.821  -2.722   0.924  0.00  0.00     0.048 A 
ATOM     10 CL   UNL d   1      -1.611  -3.418   1.954  0.00  0.00    -0.083 Cl
ATOM     11  C   UNL d   1      -4.054  -3.395   0.909  0.00  0.00     0.025 A 
ATOM     12  C   UNL d   1      -5.148  -2.853   0.244  0.00  0.00     0.003 A 
ATOM     13  C   UNL d   1      -5.004  -1.644  -0.425  0.00  0.00     0.025 A 
ATOM     14  C   UNL d   1      -3.758  -0.996  -0.470  0.00  0.00     0.048 A 
ATOM     15 CL   UNL d   1      -3.715   0.455  -1.421  0.00  0.00    -0.083 Cl
ENDBRANCH   1   8
BRANCH   2  16
ATOM     16  C   UNL d   1       0.499  -2.628  -0.391  0.00  0.00     0.298 C 
ATOM     17  O   UNL d   1       1.651  -2.980  -0.183  0.00  0.00    -0.259 OA
BRANCH  16  18
ATOM     18  O   UNL d   1      -0.429  -3.391  -1.035  0.00  0.00    -0.318 OA
BRANCH  18  19
ATOM     19  C   UNL d   1       0.078  -4.616  -1.581  0.00  0.00     0.174 C 
ATOM     20  C   UNL d   1       0.686  -4.327  -2.940  0.00  0.00     0.034 C 
ENDBRANCH  18  19
ENDBRANCH  16  18
ENDBRANCH   2  16
TORSDOF 4
