REMARK  17 active torsions:
REMARK  status: ('A' for Active; 'I' for Inactive)
REMARK    1  A    between atoms: C_3  and  C_1 
REMARK    2  A    between atoms: C_8  and  C_3 
REMARK    3  A    between atoms: C_9  and  C_8 
REMARK    4  A    between atoms: C_22  and  C_9 
REMARK    5  A    between atoms: C_10  and  C_11 
REMARK    6  A    between atoms: C_11  and  C_21 
REMARK    7  A    between atoms: C_12  and  C_23 
REMARK    8  A    between atoms: C_13  and  C_12 
REMARK    9  A    between atoms: C_14  and  C_13 
REMARK   10  A    between atoms: C_15  and  C_14 
REMARK   11  A    between atoms: C_16  and  C_15 
REMARK   12  A    between atoms: C_17  and  C_16 
REMARK   13  A    between atoms: C_18  and  C_17 
REMARK   14  A    between atoms: C_19  and  C_18 
REMARK   15  A    between atoms: C_20  and  C_19 
REMARK   16  A    between atoms: C_21  and  C_20 
REMARK   17  A    between atoms: C_23  and  C_22 
ROOT
ATOM      1  C   UNL d   1       2.091   8.543  -0.014  0.00  0.00     0.000 C 
ENDROOT
BRANCH   1   2
ATOM      2  C   UNL d   1       0.956   7.533  -0.015  0.00  0.00     0.000 C 
BRANCH   2   3
ATOM      3  C   UNL d   1       1.480   6.099  -0.013  0.00  0.00     0.000 C 
BRANCH   3   4
ATOM      4  C   UNL d   1       0.344   5.073  -0.005  0.00  0.00     0.008 C 
BRANCH   4   5
ATOM      5  C   UNL d   1      -0.542   5.197  -1.243  0.00  0.00     0.084 C 
BRANCH   5   6
ATOM      6  C   UNL d   1      -1.679   4.192  -1.294  0.00  0.00     0.166 C 
ATOM      7  O   UNL d   1      -1.827   3.362  -0.395  0.00  0.00    -0.292 OA
BRANCH   6   8
ATOM      8  C   UNL d   1      -2.591   4.265  -2.435  0.00  0.00     0.050 A 
ATOM      9  S   UNL d   1      -2.396   5.403  -3.704  0.00  0.00    -0.098 SA
ATOM     10  C   UNL d   1      -3.772   4.833  -4.532  0.00  0.00     0.050 A 
ATOM     11  C   UNL d   1      -4.381   3.794  -3.863  0.00  0.00     0.009 A 
ATOM     12  C   UNL d   1      -3.701   3.470  -2.654  0.00  0.00     0.023 A 
ENDBRANCH   6   8
ENDBRANCH   5   6
ENDBRANCH   4   5
ENDBRANCH   3   4
ENDBRANCH   2   3
ENDBRANCH   1   2
BRANCH   1  13
ATOM     13  C   UNL d   1       1.518   9.954  -0.039  0.00  0.00     0.000 C 
BRANCH  13  14
ATOM     14  C   UNL d   1       2.638  10.979  -0.053  0.00  0.00     0.000 C 
BRANCH  14  15
ATOM     15  C   UNL d   1       2.064  12.385  -0.068  0.00  0.00     0.000 C 
BRANCH  15  16
ATOM     16  C   UNL d   1       3.191  13.404  -0.075  0.00  0.00     0.000 C 
BRANCH  16  17
ATOM     17  C   UNL d   1       2.625  14.814  -0.085  0.00  0.00     0.000 C 
BRANCH  17  18
ATOM     18  C   UNL d   1       3.755  15.831  -0.089  0.00  0.00     0.000 C 
BRANCH  18  19
ATOM     19  C   UNL d   1       3.192  17.244  -0.097  0.00  0.00     0.000 C 
BRANCH  19  20
ATOM     20  C   UNL d   1       4.321  18.263  -0.101  0.00  0.00     0.000 C 
BRANCH  20  21
ATOM     21  C   UNL d   1       3.761  19.680  -0.106  0.00  0.00     0.000 C 
BRANCH  21  22
ATOM     22  C   UNL d   1       4.892  20.700  -0.115  0.00  0.00    -0.000 C 
BRANCH  22  23
ATOM     23  C   UNL d   1       4.343  22.122  -0.120  0.00  0.00    -0.005 C 
ATOM     24  C   UNL d   1       5.472  23.136  -0.126  0.00  0.00     0.005 C 
ENDBRANCH  22  23
ENDBRANCH  21  22
ENDBRANCH  20  21
ENDBRANCH  19  20
ENDBRANCH  18  19
ENDBRANCH  17  18
ENDBRANCH  16  17
ENDBRANCH  15  16
ENDBRANCH  14  15
ENDBRANCH  13  14
ENDBRANCH   1  13
TORSDOF 17
