REMARK  8 active torsions:
REMARK  status: ('A' for Active; 'I' for Inactive)
REMARK    1  A    between atoms: C_15  and  N_1 
REMARK    2  A    between atoms: C_7  and  N_6 
REMARK    3  A    between atoms: C_13  and  C_7 
REMARK    4  A    between atoms: C_14  and  C_7 
REMARK    5  A    between atoms: N_8  and  C_20 
REMARK    6  A    between atoms: C_25  and  C_15 
REMARK    7  A    between atoms: C_20  and  C_26 
REMARK    8  A    between atoms: C_26  and  C_25 
ROOT
ATOM      1  N   UNL d   1       7.872   2.475  -3.355  0.00  0.00     0.105 N 
ATOM      2  N   UNL d   1       7.269   2.661  -0.380  0.00  0.00     0.091 N 
ATOM      3  C   UNL d   1       7.332   3.692  -2.697  0.00  0.00     0.304 C 
ATOM      4  C   UNL d   1       7.458   1.310  -2.524  0.00  0.00     0.304 C 
ATOM      5  C   UNL d   1       7.804   1.441  -1.018  0.00  0.00     0.302 C 
ATOM      6  C   UNL d   1       7.660   3.832  -1.193  0.00  0.00     0.302 C 
ENDROOT
BRANCH   2   7
ATOM      7  C   UNL d   1       5.810   2.608  -0.196  0.00  0.00     0.272 C 
BRANCH   7   8
ATOM      8  C   UNL d   1       5.373   1.582   0.860  0.00  0.00     0.032 C 
BRANCH   8   9
ATOM      9  C   UNL d   1       6.052   1.751   2.224  0.00  0.00     0.022 C 
BRANCH   9  10
ATOM     10  C   UNL d   1       5.749   3.110   2.853  0.00  0.00     0.135 C 
BRANCH  10  11
ATOM     11  N   UNL d   1       6.350   3.246   4.162  0.00  0.00    -0.280 N 
ATOM     12  C   UNL d   1       7.586   3.792   4.382  0.00  0.00     0.261 A 
ATOM     13  C   UNL d   1       7.795   3.763   5.826  0.00  0.00     0.048 A 
ATOM     14  O   UNL d   1       8.389   4.243   3.589  0.00  0.00    -0.267 OA
ATOM     15  C   UNL d   1       8.860   4.215   6.581  0.00  0.00     0.018 A 
ATOM     16  C   UNL d   1       6.677   3.193   6.403  0.00  0.00     0.048 A 
ATOM     17  C   UNL d   1       8.761   4.075   7.967  0.00  0.00     0.001 A 
ATOM     18  C   UNL d   1       7.617   3.495   8.558  0.00  0.00     0.001 A 
ATOM     19  C   UNL d   1       6.555   3.042   7.770  0.00  0.00     0.018 A 
ATOM     20  C   UNL d   1       5.749   2.849   5.325  0.00  0.00     0.261 A 
ATOM     21  O   UNL d   1       4.669   2.322   5.495  0.00  0.00    -0.267 OA
ENDBRANCH  10  11
ENDBRANCH   9  10
ENDBRANCH   8   9
ENDBRANCH   7   8
ENDBRANCH   2   7
BRANCH   1  22
ATOM     22  C   UNL d   1       9.359   2.507  -3.529  0.00  0.00     0.289 C 
BRANCH  22  23
ATOM     23  C   UNL d   1       9.874   1.235  -4.218  0.00  0.00    -0.021 A 
ATOM     24  C   UNL d   1       9.443   0.871  -5.504  0.00  0.00     0.010 A 
ATOM     25  C   UNL d   1       9.860  -0.329  -6.083  0.00  0.00     0.001 A 
ATOM     26  C   UNL d   1      10.710  -1.184  -5.385  0.00  0.00     0.000 A 
ATOM     27  C   UNL d   1      11.150  -0.838  -4.109  0.00  0.00     0.001 A 
ATOM     28  C   UNL d   1      10.740   0.365  -3.531  0.00  0.00     0.010 A 
ENDBRANCH  22  23
BRANCH  22  29
ATOM     29  C   UNL d   1       9.905   3.763  -4.222  0.00  0.00    -0.021 A 
ATOM     30  C   UNL d   1      11.138   4.292  -3.800  0.00  0.00     0.010 A 
ATOM     31  C   UNL d   1      11.630   5.480  -4.342  0.00  0.00     0.001 A 
ATOM     32  C   UNL d   1      10.899   6.156  -5.316  0.00  0.00     0.000 A 
ATOM     33  C   UNL d   1       9.695   5.626  -5.775  0.00  0.00     0.001 A 
ATOM     34  C   UNL d   1       9.212   4.426  -5.248  0.00  0.00     0.010 A 
ENDBRANCH  22  29
ENDBRANCH   1  22
TORSDOF 8
