REMARK  5 active torsions:
REMARK  status: ('A' for Active; 'I' for Inactive)
REMARK    1  A    between atoms: C_10  and  N_1 
REMARK    2  A    between atoms: C_4  and  O_13 
REMARK    3  A    between atoms: C_14  and  C_4 
REMARK    4  A    between atoms: O_13  and  N_6 
REMARK    5  A    between atoms: C_11  and  C_10 
ROOT
ATOM      1  N   UNL d   1      -0.046   0.028   1.371  0.00  0.00     0.103 N 
ATOM      2  C   UNL d   1      -0.069  -1.191   0.545  0.00  0.00     0.229 C 
ATOM      3  C   UNL d   1       0.009   1.205   0.489  0.00  0.00     0.229 C 
ATOM      4  C   UNL d   1      -1.800   0.052  -0.925  0.00  0.00     0.015 C 
ATOM      5  N   UNL d   1      -2.832  -0.003  -1.708  0.00  0.00    -0.265 N 
ATOM      6  HN  UNL d   1      -3.224  -0.878  -2.057  1.00  0.00     0.194 HD
ATOM      7  C   UNL d   1      -1.204   1.353  -0.433  0.00  0.00     0.090 C 
ATOM      8  C   UNL d   1      -1.262  -1.274  -0.413  0.00  0.00     0.090 C 
ATOM      9  C   UNL d   1       1.344   1.218  -0.283  0.00  0.00     0.036 C 
ATOM     10  C   UNL d   1       1.286  -1.330  -0.172  0.00  0.00     0.036 C 
ATOM     11  C   UNL d   1       1.721  -0.098  -0.954  0.00  0.00     0.004 C 
ENDROOT
BRANCH   5  12
ATOM     12  O   UNL d   1      -3.360   1.268  -2.032  0.00  0.00    -0.195 OA
BRANCH  12  13
ATOM     13  C   UNL d   1      -4.512   1.119  -2.746  0.00  0.00     0.315 C 
ATOM     14  O   UNL d   1      -5.013   0.060  -3.109  0.00  0.00    -0.257 OA
BRANCH  13  15
ATOM     15  C   UNL d   1      -5.151   2.421  -3.076  0.00  0.00     0.041 A 
ATOM     16  C   UNL d   1      -6.334   2.395  -3.845  0.00  0.00     0.021 A 
ATOM     17  C   UNL d   1      -6.995   3.577  -4.187  0.00  0.00     0.043 A 
ATOM     18  C   UNL d   1      -6.478   4.792  -3.758  0.00  0.00     0.116 A 
ATOM     19  C   UNL d   1      -5.319   4.845  -2.993  0.00  0.00     0.043 A 
ATOM     20  F   UNL d   1      -7.111   5.926  -4.086  0.00  0.00    -0.206 F 
ATOM     21  C   UNL d   1      -4.651   3.661  -2.646  0.00  0.00     0.021 A 
ENDBRANCH  13  15
ENDBRANCH  12  13
ENDBRANCH   5  12
BRANCH   1  22
ATOM     22  C   UNL d   1      -1.155   0.114   2.344  0.00  0.00     0.319 C 
BRANCH  22  23
ATOM     23  C   UNL d   1      -1.138  -0.993   3.364  0.00  0.00     0.011 A 
ATOM     24  S   UNL d   1      -2.462  -2.082   3.470  0.00  0.00    -0.105 SA
ATOM     25  C   UNL d   1      -1.725  -2.960   4.736  0.00  0.00     0.050 A 
ATOM     26  C   UNL d   1      -0.506  -2.428   5.093  0.00  0.00     0.008 A 
ATOM     27  C   UNL d   1      -0.170  -1.288   4.306  0.00  0.00     0.017 A 
ENDBRANCH  22  23
ENDBRANCH   1  22
TORSDOF 5
