REMARK  6 active torsions:
REMARK  status: ('A' for Active; 'I' for Inactive)
REMARK    1  A    between atoms: N_6  and  C_1 
REMARK    2  A    between atoms: C_7  and  C_4 
REMARK    3  A    between atoms: C_10  and  C_5 
REMARK    4  A    between atoms: O_15  and  C_10 
REMARK    5  A    between atoms: C_22  and  O_15 
REMARK    6  A    between atoms: C_24  and  C_22 
ROOT
ATOM      1  C   UNL d   1       0.198   1.307   0.014  0.00  0.00     0.680 A 
ATOM      2  N   UNL d   1       1.294   0.536  -0.025  0.00  0.00    -0.185 N 
ATOM      3  HN  UNL d   1       2.217   0.967  -0.080  1.00  0.00     0.184 HD
ATOM      4  C   UNL d   1       1.179  -0.831   0.007  0.00  0.00     0.150 A 
ATOM      5  C   UNL d   1      -0.059  -1.443   0.038  0.00  0.00     0.087 A 
ATOM      6  N   UNL d   1      -1.024   0.777   0.105  0.00  0.00    -0.201 N 
ATOM      7  HN  UNL d   1      -1.852   1.370   0.174  1.00  0.00     0.183 HD
ATOM      8  C   UNL d   1      -1.128  -0.571   0.102  0.00  0.00     0.126 A 
ENDROOT
BRANCH   5   9
ATOM      9  C   UNL d   1      -0.376  -2.885   0.040  0.00  0.00     0.297 C 
ATOM     10  O   UNL d   1      -1.504  -3.296   0.272  0.00  0.00    -0.259 OA
BRANCH   9  11
ATOM     11  O   UNL d   1       0.692  -3.648  -0.257  0.00  0.00    -0.313 OA
BRANCH  11  12
ATOM     12  C   UNL d   1       0.494  -5.071  -0.206  0.00  0.00     0.217 C 
BRANCH  12  13
ATOM     13  C   UNL d   1       1.023  -5.702  -1.470  0.00  0.00    -0.034 A 
ATOM     14  C   UNL d   1       2.388  -5.633  -1.784  0.00  0.00     0.011 A 
ATOM     15  C   UNL d   1       2.884  -6.252  -2.935  0.00  0.00     0.024 A 
ATOM     16  C   UNL d   1       2.016  -6.941  -3.780  0.00  0.00     0.034 A 
ATOM     17  C   UNL d   1       0.656  -7.009  -3.488  0.00  0.00     0.024 A 
ATOM     18 CL   UNL d   1       2.627  -7.714  -5.190  0.00  0.00    -0.084 Cl
ATOM     19  C   UNL d   1       0.160  -6.391  -2.337  0.00  0.00     0.011 A 
ENDBRANCH  12  13
ENDBRANCH  11  12
ENDBRANCH   9  11
ENDBRANCH   5   9
BRANCH   4  20
ATOM     20  C   UNL d   1       2.479  -1.604   0.035  0.00  0.00     0.434 C 
ATOM     21  F   UNL d   1       3.580  -0.804   0.172  0.00  0.00    -0.165 F 
ATOM     22  F   UNL d   1       2.559  -2.481   1.078  0.00  0.00    -0.165 F 
ATOM     23  F   UNL d   1       2.712  -2.324  -1.099  0.00  0.00    -0.165 F 
ENDBRANCH   4  20
BRANCH   1  24
ATOM     24  N   UNL d   1       0.328   2.673  -0.141  0.00  0.00    -0.213 N 
ATOM     25  C   UNL d   1      -0.648   3.514   0.569  0.00  0.00     0.172 C 
ATOM     26  C   UNL d   1      -0.578   4.960   0.018  0.00  0.00     0.136 C 
ATOM     27  C   UNL d   1      -1.448   5.909   0.832  0.00  0.00     0.041 C 
ATOM     28  O   UNL d   1       0.769   5.477   0.054  0.00  0.00    -0.378 OA
ATOM     29  C   UNL d   1       1.649   4.643  -0.722  0.00  0.00     0.136 C 
ATOM     30  C   UNL d   1       1.691   3.216  -0.141  0.00  0.00     0.172 C 
ATOM     31  C   UNL d   1       3.030   5.279  -0.721  0.00  0.00     0.041 C 
ENDBRANCH   1  24
TORSDOF 6
