REMARK  2 active torsions:
REMARK  status: ('A' for Active; 'I' for Inactive)
REMARK       I    between atoms: C_5  and  N_1 
REMARK    1  A    between atoms: C_2  and  C_9 
REMARK       I    between atoms: N_6  and  C_2 
REMARK    2  A    between atoms: C_10  and  N_6 
ROOT
ATOM      1  C   UNL d   1      -1.594  -0.039  -1.796  0.00  0.00     0.226 C 
ATOM      2  N   UNL d   1      -1.435  -1.253  -2.426  0.00  0.00    -0.327 N 
ATOM      3  O   UNL d   1      -1.784   1.035  -2.371  0.00  0.00    -0.273 OA
ATOM      4  H   UNL d   1      -1.367  -2.082  -1.848  0.00  0.00     0.169 HD
ENDROOT
BRANCH   2   5
ATOM      5  C   UNL d   1      -1.318  -1.464  -3.822  0.00  0.00     0.035 A 
ATOM      6  C   UNL d   1      -1.234  -0.430  -4.757  0.00  0.00     0.043 A 
ATOM      7  C   UNL d   1      -1.039  -0.697  -6.125  0.00  0.00    -0.007 A 
ATOM      8  C   UNL d   1      -0.924   0.340  -7.058  0.00  0.00     0.015 A 
ATOM      9  C   UNL d   1      -0.937  -2.020  -6.588  0.00  0.00     0.042 A 
ATOM     10  C   UNL d   1      -0.694   0.043  -8.395  0.00  0.00     0.025 A 
ATOM     11  C   UNL d   1      -0.586  -1.289  -8.767  0.00  0.00     0.005 A 
ATOM     12  N   UNL d   1      -0.719  -2.311  -7.884  0.00  0.00    -0.359 N 
ATOM     13  C   UNL d   1      -0.315  -1.644 -10.198  0.00  0.00     0.068 C 
ATOM     14  HN  UNL d   1      -0.655  -3.280  -8.196  1.00  0.00     0.166 HD
ATOM     15  C   UNL d   1      -1.052  -3.039  -5.653  0.00  0.00     0.033 A 
ATOM     16  C   UNL d   1      -1.235  -2.779  -4.284  0.00  0.00     0.032 A 
ENDBRANCH   2   5
BRANCH   1  17
ATOM     17  C   UNL d   1      -1.443  -0.076  -0.268  0.00  0.00     0.081 C 
ATOM     18  C   UNL d   1      -1.603   1.337   0.316  0.00  0.00     0.034 C 
ATOM     19  C   UNL d   1      -3.055   1.810   0.263  0.00  0.00     0.126 C 
ATOM     20  N   UNL d   1      -3.936   0.862   0.941  0.00  0.00    -0.352 N 
ATOM     21  C   UNL d   1      -5.040   1.216   1.706  0.00  0.00     0.215 C 
ATOM     22  C   UNL d   1      -3.840  -0.523   0.478  0.00  0.00     0.126 C 
ATOM     23  O   UNL d   1      -5.830   0.374   2.143  0.00  0.00    -0.274 OA
ATOM     24  C   UNL d   1      -5.253   2.667   2.064  0.00  0.00     0.117 C 
ATOM     25  C   UNL d   1      -2.400  -1.031   0.452  0.00  0.00     0.034 C 
ENDBRANCH   1  17
TORSDOF 2
