REMARK  7 active torsions:
REMARK  status: ('A' for Active; 'I' for Inactive)
REMARK    1  A    between atoms: C_9  and  N_1 
REMARK    2  A    between atoms: S_12  and  C_5 
REMARK    3  A    between atoms: C_25  and  S_12 
REMARK    4  A    between atoms: C_17  and  C_25 
REMARK    5  A    between atoms: O_19  and  C_20 
REMARK    6  A    between atoms: C_21  and  O_19 
REMARK    7  A    between atoms: C_24  and  C_21 
ROOT
ATOM      1  N   UNL d   1      -0.291  -1.318  -0.058  0.00  0.00    -0.273 N 
ATOM      2  C   UNL d   1       0.830  -0.660   0.456  0.00  0.00     0.163 A 
ATOM      3  N   UNL d   1       0.689   0.645   0.327  0.00  0.00    -0.281 N 
ATOM      4  HN  UNL d   1       1.340   1.354   0.665  1.00  0.00     0.188 HD
ATOM      5  C   UNL d   1      -1.060  -0.276  -0.573  0.00  0.00     0.168 A 
ATOM      6  N   UNL d   1      -0.482   0.882  -0.338  0.00  0.00    -0.278 N 
ATOM      7  HN  UNL d   1      -0.844   1.797  -0.606  1.00  0.00     0.189 HD
ATOM      8  C   UNL d   1       2.025  -1.266   0.969  0.00  0.00     0.120 A 
ATOM      9  O   UNL d   1       2.546  -2.435   0.470  0.00  0.00    -0.319 OA
ATOM     10  C   UNL d   1       2.838  -0.838   2.006  0.00  0.00     0.043 A 
ATOM     11  C   UNL d   1       3.631  -2.762   1.211  0.00  0.00     0.142 A 
ATOM     12  C   UNL d   1       3.853  -1.813   2.177  0.00  0.00     0.027 A 
ENDROOT
BRANCH   1  13
ATOM     13  C   UNL d   1      -0.557  -2.722  -0.027  0.00  0.00     0.043 A 
ATOM     14  C   UNL d   1      -0.111  -3.502   1.050  0.00  0.00     0.033 A 
ATOM     15  C   UNL d   1      -0.283  -4.891   1.059  0.00  0.00     0.039 A 
ATOM     16  C   UNL d   1      -0.941  -5.520   0.007  0.00  0.00     0.069 A 
ATOM     17  C   UNL d   1      -1.438  -4.744  -1.040  0.00  0.00     0.039 A 
ATOM     18  C   UNL d   1      -1.237  -3.357  -1.071  0.00  0.00     0.033 A 
BRANCH  16  19
ATOM     19  O   UNL d   1      -1.195  -6.859  -0.084  0.00  0.00    -0.347 OA
BRANCH  19  20
ATOM     20  C   UNL d   1      -0.268  -7.724   0.578  0.00  0.00     0.214 C 
BRANCH  20  21
ATOM     21  C   UNL d   1      -0.697  -9.168   0.426  0.00  0.00    -0.034 A 
ATOM     22  C   UNL d   1       0.268 -10.182   0.333  0.00  0.00     0.009 A 
ATOM     23  C   UNL d   1      -0.115 -11.524   0.276  0.00  0.00     0.001 A 
ATOM     24  C   UNL d   1      -1.465 -11.867   0.318  0.00  0.00     0.000 A 
ATOM     25  C   UNL d   1      -2.433 -10.870   0.417  0.00  0.00     0.001 A 
ATOM     26  C   UNL d   1      -2.051  -9.529   0.476  0.00  0.00     0.009 A 
ENDBRANCH  20  21
ENDBRANCH  19  20
ENDBRANCH  16  19
ENDBRANCH   1  13
BRANCH   5  27
ATOM     27  S   UNL d   1      -2.672  -0.418  -1.210  0.00  0.00    -0.088 SA
BRANCH  27  28
ATOM     28  C   UNL d   1      -2.747   1.029  -2.307  0.00  0.00     0.108 C 
BRANCH  28  29
ATOM     29  C   UNL d   1      -4.096   1.076  -2.969  0.00  0.00    -0.026 C 
ATOM     30  C   UNL d   1      -4.313   0.964  -4.285  0.00  0.00     0.007 C 
ENDBRANCH  28  29
ENDBRANCH  27  28
ENDBRANCH   5  27
TORSDOF 7
