REMARK  4 active torsions:
REMARK  status: ('A' for Active; 'I' for Inactive)
REMARK    1  A    between atoms: C_9  and  C_1 
REMARK    2  A    between atoms: O_11  and  C_1 
REMARK    3  A    between atoms: C_10  and  C_2 
REMARK    4  A    between atoms: O_12  and  C_2 
ROOT
ATOM      1  C   UNL d   1      -1.440  -1.201  -0.071  0.00  0.00     0.089 C 
ATOM      2  C   UNL d   1       1.390   1.203  -0.089  0.00  0.00     0.089 C 
ATOM      3  C   UNL d   1      -0.028   0.783  -0.565  0.00  0.00     0.032 C 
ATOM      4  C   UNL d   1      -0.032  -0.778  -0.575  0.00  0.00     0.032 C 
ATOM      5  C   UNL d   1      -1.779  -0.086   0.926  0.00  0.00     0.044 C 
ATOM      6  C   UNL d   1       1.742   0.082   0.896  0.00  0.00     0.044 C 
ATOM      7  C   UNL d   1       1.169  -1.187   0.292  0.00  0.00     0.011 C 
ATOM      8  C   UNL d   1      -1.205   1.188   0.334  0.00  0.00     0.011 C 
ENDROOT
BRANCH   1   9
ATOM      9  C   UNL d   1      -1.607  -2.595   0.519  0.00  0.00    -0.024 A 
ATOM     10  C   UNL d   1      -2.591  -2.847   1.494  0.00  0.00     0.010 A 
ATOM     11  C   UNL d   1      -2.693  -4.091   2.122  0.00  0.00     0.001 A 
ATOM     12  C   UNL d   1      -1.824  -5.117   1.773  0.00  0.00     0.000 A 
ATOM     13  C   UNL d   1      -0.888  -4.914   0.763  0.00  0.00     0.001 A 
ATOM     14  C   UNL d   1      -0.798  -3.672   0.124  0.00  0.00     0.010 A 
ENDBRANCH   1   9
BRANCH   1  15
ATOM     15  O   UNL d   1      -2.366  -1.131  -1.163  0.00  0.00    -0.385 OA
ATOM     16  H   UNL d   1      -2.220  -0.301  -1.644  0.00  0.00     0.211 HD
ENDBRANCH   1  15
BRANCH   2  17
ATOM     17  C   UNL d   1       1.572   2.595   0.494  0.00  0.00    -0.024 A 
ATOM     18  C   UNL d   1       2.570   2.843   1.456  0.00  0.00     0.010 A 
ATOM     19  C   UNL d   1       2.696   4.090   2.072  0.00  0.00     0.001 A 
ATOM     20  C   UNL d   1       1.837   5.125   1.720  0.00  0.00     0.000 A 
ATOM     21  C   UNL d   1       0.884   4.924   0.726  0.00  0.00     0.001 A 
ATOM     22  C   UNL d   1       0.769   3.679   0.101  0.00  0.00     0.010 A 
ENDBRANCH   2  17
BRANCH   2  23
ATOM     23  O   UNL d   1       2.259   1.076  -1.224  0.00  0.00    -0.385 OA
ATOM     24  H   UNL d   1       2.626   1.955  -1.421  0.00  0.00     0.211 HD
ENDBRANCH   2  23
TORSDOF 4
