REMARK  2 active torsions:
REMARK  status: ('A' for Active; 'I' for Inactive)
REMARK    1  A    between atoms: N_6  and  C_1 
REMARK    2  A    between atoms: C_11  and  N_6 
ROOT
ATOM      1  C   UNL d   1      -0.623   1.704  -0.002  0.00  0.00     0.047 A 
ATOM      2  N   UNL d   1      -1.029  -1.069  -0.019  0.00  0.00    -0.359 N 
ATOM      3  HN  UNL d   1      -1.181  -2.077  -0.036  1.00  0.00     0.166 HD
ATOM      4  C   UNL d   1       0.492   0.822   0.015  0.00  0.00     0.017 A 
ATOM      5  C   UNL d   1       0.215  -0.566   0.000  0.00  0.00     0.044 A 
ATOM      6  C   UNL d   1      -1.912   1.158  -0.007  0.00  0.00     0.055 A 
ATOM      7  C   UNL d   1      -2.075  -0.217  -0.015  0.00  0.00     0.007 A 
ATOM      8  C   UNL d   1       1.852   1.230   0.035  0.00  0.00     0.016 A 
ATOM      9  C   UNL d   1       1.268  -1.469   0.008  0.00  0.00     0.030 A 
ATOM     10  C   UNL d   1      -3.450  -0.812  -0.002  0.00  0.00     0.068 C 
ATOM     11  C   UNL d   1       2.893   0.300   0.043  0.00  0.00     0.001 A 
ATOM     12  C   UNL d   1       2.601  -1.054   0.029  0.00  0.00     0.002 A 
ENDROOT
BRANCH   1  13
ATOM     13  N   UNL d   1      -0.473   3.115   0.049  0.00  0.00    -0.355 N 
ATOM     14  H   UNL d   1       0.490   3.424   0.099  0.00  0.00     0.166 HD
BRANCH  13  15
ATOM     15  C   UNL d   1      -1.261   4.099  -0.591  0.00  0.00     0.035 A 
ATOM     16  C   UNL d   1      -1.365   5.365  -0.008  0.00  0.00     0.072 A 
ATOM     17  C   UNL d   1      -2.107   6.365  -0.633  0.00  0.00     0.124 A 
ATOM     18  F   UNL d   1      -2.201   7.565  -0.042  0.00  0.00    -0.205 F 
ATOM     19  C   UNL d   1      -2.743   6.144  -1.855  0.00  0.00    -0.023 A 
ATOM     20  C   UNL d   1      -2.627   4.884  -2.449  0.00  0.00     0.012 A 
ATOM     21  C   UNL d   1      -3.525   7.242  -2.507  0.00  0.00     0.051 C 
ATOM     22  C   UNL d   1      -1.890   3.873  -1.822  0.00  0.00     0.030 A 
ENDBRANCH  13  15
ENDBRANCH   1  13
TORSDOF 2
