REMARK  8 active torsions:
REMARK  status: ('A' for Active; 'I' for Inactive)
REMARK    1  A    between atoms: C_2  and  S_1 
REMARK    2  A    between atoms: N_6  and  S_1 
REMARK    3  A    between atoms: N_4  and  C_3 
REMARK    4  A    between atoms: C_5  and  N_6 
REMARK    5  A    between atoms: N_8  and  C_7 
REMARK    6  A    between atoms: C_10  and  C_11 
REMARK    7  A    between atoms: O_21  and  C_10 
REMARK    8  A    between atoms: C_27  and  O_21 
ROOT
ATOM      1  C   UNL d   1       0.664  -0.068  -2.754  0.00  0.00     0.070 A 
ATOM      2  C   UNL d   1       2.041   0.282  -2.828  0.00  0.00     0.058 A 
ATOM      3  C   UNL d   1      -0.199   0.116  -3.836  0.00  0.00     0.050 A 
ATOM      4  C   UNL d   1       0.266   0.683  -5.019  0.00  0.00     0.041 A 
ATOM      5  C   UNL d   1       2.471   0.869  -4.031  0.00  0.00     0.033 A 
ATOM      6  C   UNL d   1       1.604   1.072  -5.115  0.00  0.00     0.020 A 
ENDROOT
BRANCH   1   7
ATOM      7  N   UNL d   1       0.081  -0.663  -1.606  0.00  0.00    -0.278 N 
ATOM      8  H   UNL d   1      -0.030  -1.676  -1.556  0.00  0.00     0.179 HD
BRANCH   7   9
ATOM      9  S   UNL d   1      -0.310   0.228  -0.260  0.00  0.00     0.265 S 
ATOM     10  O   UNL d   1      -0.179  -0.638   0.887  0.00  0.00    -0.200 OA
ATOM     11  O   UNL d   1       0.344   1.522  -0.289  0.00  0.00    -0.200 OA
BRANCH   9  12
ATOM     12  C   UNL d   1      -2.059   0.537  -0.443  0.00  0.00     0.112 A 
ATOM     13  C   UNL d   1      -2.998  -0.428  -0.062  0.00  0.00     0.126 A 
ATOM     14  C   UNL d   1      -4.351  -0.097   0.122  0.00  0.00     0.038 A 
ATOM     15  C   UNL d   1      -4.767   1.218  -0.087  0.00  0.00     0.003 A 
ATOM     16  C   UNL d   1      -3.847   2.177  -0.517  0.00  0.00     0.002 A 
ATOM     17  C   UNL d   1      -2.499   1.843  -0.696  0.00  0.00     0.028 A 
BRANCH  13  18
ATOM     18  N   UNL d   1      -2.625  -1.821   0.100  0.00  0.00    -0.114 N 
ATOM     19  O   UNL d   1      -2.046  -2.360  -0.855  0.00  0.00    -0.532 OA
ATOM     20  O   UNL d   1      -2.975  -2.386   1.143  0.00  0.00    -0.532 OA
ENDBRANCH  13  18
ENDBRANCH   9  12
ENDBRANCH   7   9
ENDBRANCH   1   7
BRANCH   2  21
ATOM     21  N   UNL d   1       2.922   0.103  -1.763  0.00  0.00    -0.375 N 
ATOM     22  C   UNL d   1       4.156   0.910  -1.653  0.00  0.00     0.149 C 
ATOM     23  C   UNL d   1       4.558   1.001  -0.171  0.00  0.00     0.187 C 
ATOM     24  O   UNL d   1       4.743  -0.303   0.407  0.00  0.00    -0.388 OA
ATOM     25  C   UNL d   1       3.531  -1.076   0.295  0.00  0.00     0.187 C 
ATOM     26  C   UNL d   1       3.106  -1.239  -1.176  0.00  0.00     0.149 C 
ENDBRANCH   2  21
BRANCH   4  27
ATOM     27  C   UNL d   1      -0.685   0.757  -6.154  0.00  0.00     0.293 C 
ATOM     28  O   UNL d   1      -1.843   0.377  -6.079  0.00  0.00    -0.259 OA
BRANCH  27  29
ATOM     29  O   UNL d   1      -0.044   1.165  -7.274  0.00  0.00    -0.318 OA
BRANCH  29  30
ATOM     30  C   UNL d   1      -0.681   0.786  -8.501  0.00  0.00     0.174 C 
ATOM     31  C   UNL d   1      -0.131  -0.572  -8.899  0.00  0.00     0.034 C 
ENDBRANCH  29  30
ENDBRANCH  27  29
ENDBRANCH   4  27
TORSDOF 8
