REMARK  5 active torsions:
REMARK  status: ('A' for Active; 'I' for Inactive)
REMARK    1  A    between atoms: N_4  and  C_8 
REMARK    2  A    between atoms: S_15  and  C_7 
REMARK    3  A    between atoms: C_17  and  S_15 
REMARK    4  A    between atoms: O_16  and  C_18 
REMARK    5  A    between atoms: C_18  and  C_17 
ROOT
ATOM      1  S   UNL d   1      -1.515  -1.720   0.086  0.00  0.00     0.177 S 
ATOM      2  C   UNL d   1      -0.054  -0.767   0.046  0.00  0.00     0.069 A 
ATOM      3  C   UNL d   1      -2.640  -0.330   0.016  0.00  0.00     0.165 C 
ATOM      4  C   UNL d   1      -0.337   0.595  -0.025  0.00  0.00    -0.022 A 
ATOM      5  C   UNL d   1       1.228  -1.297   0.024  0.00  0.00     0.060 A 
ATOM      6  C   UNL d   1      -1.797   0.960   0.120  0.00  0.00     0.096 C 
ATOM      7  C   UNL d   1       2.285  -0.389  -0.078  0.00  0.00     0.104 A 
ATOM      8  O   UNL d   1      -1.582  -2.453  -1.164  0.00  0.00    -0.223 OA
ATOM      9  O   UNL d   1      -1.585  -2.355   1.382  0.00  0.00    -0.223 OA
ATOM     10  C   UNL d   1       0.726   1.476  -0.212  0.00  0.00     0.012 A 
ATOM     11  C   UNL d   1       2.039   0.990  -0.212  0.00  0.00     0.037 A 
ENDROOT
BRANCH   6  12
ATOM     12  S   UNL d   1      -2.175   1.776   1.731  0.00  0.00    -0.156 SA
BRANCH  12  13
ATOM     13  C   UNL d   1      -1.332   3.376   1.515  0.00  0.00     0.100 C 
BRANCH  13  14
ATOM     14  C   UNL d   1      -1.685   4.374   2.612  0.00  0.00     0.174 C 
BRANCH  14  15
ATOM     15  O   UNL d   1      -0.907   5.552   2.407  0.00  0.00    -0.400 OA
ATOM     16  H   UNL d   1      -1.054   6.130   3.177  0.00  0.00     0.209 HD
ENDBRANCH  14  15
ENDBRANCH  13  14
ENDBRANCH  12  13
ENDBRANCH   6  12
BRANCH   7  17
ATOM     17  N   UNL d   1       3.671  -0.874  -0.052  0.00  0.00    -0.116 N 
ATOM     18  O   UNL d   1       3.852  -2.098  -0.015  0.00  0.00    -0.532 OA
ATOM     19  O   UNL d   1       4.576  -0.027  -0.065  0.00  0.00    -0.532 OA
ENDBRANCH   7  17
TORSDOF 5
