REMARK  4 active torsions:
REMARK  status: ('A' for Active; 'I' for Inactive)
REMARK    1  A    between atoms: O_10  and  N_1 
REMARK    2  A    between atoms: N_6  and  C_4 
REMARK    3  A    between atoms: N_7  and  C_5 
REMARK    4  A    between atoms: C_19  and  O_10 
ROOT
ATOM      1  C   UNL d   1       4.187   3.537  -0.762  0.00  0.00     0.138 A 
ATOM      2  C   UNL d   1       5.402   3.610  -0.080  0.00  0.00     0.136 A 
ATOM      3  C   UNL d   1       3.456   2.340  -0.821  0.00  0.00     0.078 A 
ATOM      4  C   UNL d   1       5.920   2.447   0.512  0.00  0.00     0.041 A 
ATOM      5  C   UNL d   1       3.932   1.214  -0.150  0.00  0.00     0.102 A 
ATOM      6  C   UNL d   1       5.186   1.256   0.469  0.00  0.00     0.042 A 
ENDROOT
BRANCH   5   7
ATOM      7  O   UNL d   1       3.248   0.025  -0.021  0.00  0.00    -0.225 OA
BRANCH   7   8
ATOM      8  N   UNL d   1       1.865   0.155  -0.116  0.00  0.00    -0.140 N 
ATOM      9  C   UNL d   1       1.105   0.977   0.655  0.00  0.00     0.286 C 
ATOM     10  C   UNL d   1      -0.279   0.667   0.299  0.00  0.00     0.050 A 
ATOM     11  O   UNL d   1       1.417   1.814   1.481  0.00  0.00    -0.265 OA
ATOM     12  C   UNL d   1      -1.454   1.276   0.689  0.00  0.00     0.018 A 
ATOM     13  C   UNL d   1      -0.259  -0.414  -0.569  0.00  0.00     0.050 A 
ATOM     14  C   UNL d   1      -2.643   0.740   0.187  0.00  0.00     0.001 A 
ATOM     15  C   UNL d   1      -2.627  -0.378  -0.673  0.00  0.00     0.001 A 
ATOM     16  C   UNL d   1      -1.421  -0.971  -1.063  0.00  0.00     0.018 A 
ATOM     17  C   UNL d   1       1.143  -0.769  -0.806  0.00  0.00     0.286 C 
ATOM     18  O   UNL d   1       1.500  -1.722  -1.473  0.00  0.00    -0.265 OA
ENDBRANCH   7   8
ENDBRANCH   5   7
BRANCH   1  19
ATOM     19  N   UNL d   1       3.646   4.654  -1.499  0.00  0.00    -0.113 N 
ATOM     20  O   UNL d   1       4.284   5.024  -2.495  0.00  0.00    -0.532 OA
ATOM     21  O   UNL d   1       2.543   5.082  -1.140  0.00  0.00    -0.532 OA
ENDBRANCH   1  19
BRANCH   2  22
ATOM     22  N   UNL d   1       6.128   4.867   0.106  0.00  0.00    -0.113 N 
ATOM     23  O   UNL d   1       5.502   5.925  -0.014  0.00  0.00    -0.532 OA
ATOM     24  O   UNL d   1       7.320   4.790   0.434  0.00  0.00    -0.532 OA
ENDBRANCH   2  22
TORSDOF 4
