REMARK  5 active torsions:
REMARK  status: ('A' for Active; 'I' for Inactive)
REMARK    1  A    between atoms: C_2  and  C_1 
REMARK       I    between atoms: N_3  and  C_1 
REMARK    2  A    between atoms: C_8  and  N_3 
REMARK    3  A    between atoms: C_10  and  C_8 
REMARK    4  A    between atoms: C_11  and  C_10 
REMARK    5  A    between atoms: O_12  and  C_10 
ROOT
ATOM      1  C   UNL d   1      -1.237   0.736  -1.024  0.00  0.00     0.159 C 
ENDROOT
BRANCH   1   2
ATOM      2  N   UNL d   1      -1.568   1.339   0.257  0.00  0.00    -0.352 N 
ATOM      3  C   UNL d   1      -1.191   0.755   1.445  0.00  0.00     0.275 C 
ATOM      4  O   UNL d   1      -0.462  -0.236   1.482  0.00  0.00    -0.265 OA
ATOM      5  H   UNL d   1      -2.329   2.010   0.295  0.00  0.00     0.162 HD
BRANCH   3   6
ATOM      6  C   UNL d   1      -1.727   1.394   2.627  0.00  0.00     0.142 A 
ATOM      7  O   UNL d   1      -2.488   2.529   2.502  0.00  0.00    -0.317 OA
ATOM      8  C   UNL d   1      -2.828   2.922   3.757  0.00  0.00     0.143 A 
ATOM      9  C   UNL d   1      -2.312   2.056   4.693  0.00  0.00     0.027 A 
ATOM     10  C   UNL d   1      -1.605   1.069   3.965  0.00  0.00     0.045 A 
ENDBRANCH   3   6
ENDBRANCH   1   2
BRANCH   1  11
ATOM     11  C   UNL d   1      -1.759   1.574  -2.203  0.00  0.00     0.169 C 
BRANCH  11  12
ATOM     12  C   UNL d   1      -1.363   1.016  -3.555  0.00  0.00    -0.028 A 
ATOM     13  C   UNL d   1      -1.695  -0.293  -3.939  0.00  0.00     0.010 A 
ATOM     14  C   UNL d   1      -1.335  -0.779  -5.198  0.00  0.00     0.001 A 
ATOM     15  C   UNL d   1      -0.638   0.034  -6.090  0.00  0.00     0.000 A 
ATOM     16  C   UNL d   1      -0.303   1.335  -5.724  0.00  0.00     0.001 A 
ATOM     17  C   UNL d   1      -0.665   1.825  -4.467  0.00  0.00     0.010 A 
ENDBRANCH  11  12
BRANCH  11  18
ATOM     18  O   UNL d   1      -3.188   1.667  -2.098  0.00  0.00    -0.389 OA
ATOM     19  H   UNL d   1      -3.576   1.188  -2.849  0.00  0.00     0.210 HD
ENDBRANCH  11  18
ENDBRANCH   1  11
TORSDOF 5
