REMARK  6 active torsions:
REMARK  status: ('A' for Active; 'I' for Inactive)
REMARK    1  A    between atoms: C_8  and  C_1 
REMARK    2  A    between atoms: C_15  and  C_6 
REMARK    3  A    between atoms: C_9  and  C_16 
REMARK       I    between atoms: N_10  and  C_9 
REMARK    4  A    between atoms: C_14  and  N_10 
REMARK    5  A    between atoms: C_16  and  C_15 
REMARK    6  A    between atoms: O_22  and  C_17 
ROOT
ATOM      1  C   UNL d   1       0.060  -3.179   3.456  0.00  0.00     0.154 A 
ATOM      2  N   UNL d   1       1.085  -3.215   2.526  0.00  0.00    -0.322 N 
ATOM      3  HN  UNL d   1       1.988  -3.684   2.592  1.00  0.00     0.169 HD
ATOM      4  N   UNL d   1      -1.020  -2.493   3.036  0.00  0.00    -0.241 N 
ATOM      5  HN  UNL d   1      -1.898  -2.338   3.531  1.00  0.00     0.196 HD
ATOM      6  C   UNL d   1       0.604  -2.497   1.540  0.00  0.00     0.148 A 
ATOM      7  O   UNL d   1      -0.659  -2.043   1.767  0.00  0.00    -0.223 OA
ENDROOT
BRANCH   6   8
ATOM      8  C   UNL d   1       1.246  -2.103   0.264  0.00  0.00     0.096 C 
BRANCH   8   9
ATOM      9  C   UNL d   1       2.756  -2.317   0.276  0.00  0.00     0.111 C 
BRANCH   9  10
ATOM     10  C   UNL d   1       3.164  -3.751  -0.007  0.00  0.00     0.222 C 
ATOM     11  N   UNL d   1       2.991  -4.623   1.052  0.00  0.00    -0.327 N 
ATOM     12  H   UNL d   1       2.415  -4.307   1.835  0.00  0.00     0.169 HD
ATOM     13  O   UNL d   1       3.586  -4.046  -1.123  0.00  0.00    -0.273 OA
BRANCH  11  14
ATOM     14  C   UNL d   1       3.341  -5.986   1.052  0.00  0.00     0.034 A 
ATOM     15  C   UNL d   1       4.293  -6.522   0.177  0.00  0.00     0.032 A 
ATOM     16  C   UNL d   1       4.554  -7.894   0.153  0.00  0.00     0.039 A 
ATOM     17  C   UNL d   1       3.850  -8.753   0.994  0.00  0.00     0.068 A 
ATOM     18  C   UNL d   1       2.963  -8.218   1.929  0.00  0.00     0.039 A 
ATOM     19  C   UNL d   1       2.714  -6.840   1.964  0.00  0.00     0.032 A 
BRANCH  17  20
ATOM     20  O   UNL d   1       3.990 -10.115   0.992  0.00  0.00    -0.356 OA
ATOM     21  C   UNL d   1       4.223 -10.676  -0.299  0.00  0.00     0.210 C 
ENDBRANCH  17  20
ENDBRANCH  11  14
ENDBRANCH   9  10
ENDBRANCH   8   9
ENDBRANCH   6   8
BRANCH   1  22
ATOM     22  C   UNL d   1       0.181  -3.802   4.777  0.00  0.00     0.078 A 
ATOM     23  N   UNL d   1       1.321  -4.511   5.007  0.00  0.00    -0.363 N 
ATOM     24  C   UNL d   1       1.477  -5.053   6.235  0.00  0.00     0.088 A 
ATOM     25  HN  UNL d   1       2.028  -4.629   4.282  1.00  0.00     0.165 HD
ATOM     26  C   UNL d   1       0.549  -4.928   7.255  0.00  0.00     0.017 A 
ATOM     27  C   UNL d   1      -0.616  -4.213   7.002  0.00  0.00     0.004 A 
ATOM     28  C   UNL d   1      -0.807  -3.642   5.746  0.00  0.00     0.033 A 
ENDBRANCH   1  22
TORSDOF 6
