REMARK  2 active torsions:
REMARK  status: ('A' for Active; 'I' for Inactive)
REMARK    1  A    between atoms: O_5  and  C_2 
REMARK    2  A    between atoms: C_10  and  O_5 
ROOT
ATOM      1  C   UNL d   1      -2.176  -1.358  -1.159  0.00  0.00     0.165 A 
ATOM      2  C   UNL d   1      -1.698  -2.517  -0.559  0.00  0.00     0.186 A 
ATOM      3  C   UNL d   1      -1.397  -0.159  -1.207  0.00  0.00     0.122 C 
ATOM      4  N   UNL d   1      -0.752   0.809  -1.238  0.00  0.00    -0.190 NA
ATOM      5  N   UNL d   1      -3.404  -1.302  -1.752  0.00  0.00    -0.353 N 
ATOM      6  HN  UNL d   1      -3.752  -0.457  -2.204  1.00  0.00     0.166 HD
ATOM      7  N   UNL d   1      -2.453  -3.647  -0.480  0.00  0.00    -0.343 N 
ATOM      8  HN  UNL d   1      -2.122  -4.486  -0.004  1.00  0.00     0.167 HD
ATOM      9  C   UNL d   1      -4.128  -2.445  -1.701  0.00  0.00     0.106 A 
ATOM     10  C   UNL d   1      -3.667  -3.588  -1.071  0.00  0.00     0.107 A 
ENDROOT
BRANCH   2  11
ATOM     11  O   UNL d   1      -0.426  -2.516  -0.008  0.00  0.00    -0.291 OA
BRANCH  11  12
ATOM     12  C   UNL d   1       0.299  -3.687  -0.056  0.00  0.00     0.078 A 
ATOM     13  C   UNL d   1       0.252  -4.586  -1.128  0.00  0.00     0.039 A 
ATOM     14  C   UNL d   1       1.018  -5.752  -1.098  0.00  0.00     0.026 A 
ATOM     15  C   UNL d   1       1.861  -5.999  -0.017  0.00  0.00     0.034 A 
ATOM     16  C   UNL d   1       1.952  -5.082   1.030  0.00  0.00     0.026 A 
ATOM     17 CL   UNL d   1       2.796  -7.442   0.022  0.00  0.00    -0.084 Cl
ATOM     18  C   UNL d   1       1.173  -3.922   1.008  0.00  0.00     0.039 A 
ENDBRANCH  11  12
ENDBRANCH   2  11
TORSDOF 2
