REMARK  3 active torsions:
REMARK  status: ('A' for Active; 'I' for Inactive)
REMARK    1  A    between atoms: C_4  and  C_1 
REMARK    2  A    between atoms: N_2  and  C_7 
REMARK    3  A    between atoms: C_12  and  C_6 
ROOT
ATOM      1  C   UNL d   1      -0.188  -1.046   0.326  0.00  0.00     0.393 C 
ATOM      2  O   UNL d   1      -1.117   0.010   0.063  0.00  0.00    -0.342 OA
ATOM      3  N   UNL d   1       1.144  -0.634  -0.115  0.00  0.00     0.119 N 
ATOM      4  C   UNL d   1      -0.366   1.210  -0.166  0.00  0.00     0.185 C 
ATOM      5  C   UNL d   1       1.104   0.827  -0.040  0.00  0.00     0.310 C 
ATOM      6  H   UNL d   1       1.218  -0.897  -1.097  0.00  0.00     0.319 HD
ENDROOT
BRANCH   4   7
ATOM      7  C   UNL d   1      -0.756   1.836  -1.489  0.00  0.00    -0.028 A 
ATOM      8  C   UNL d   1      -0.676   3.232  -1.636  0.00  0.00     0.012 A 
ATOM      9  C   UNL d   1      -1.072   3.851  -2.824  0.00  0.00     0.037 A 
ATOM     10  C   UNL d   1      -1.546   3.069  -3.884  0.00  0.00     0.102 A 
ATOM     11  C   UNL d   1      -1.615   1.677  -3.763  0.00  0.00     0.037 A 
ATOM     12  C   UNL d   1      -1.218   1.067  -2.570  0.00  0.00     0.012 A 
BRANCH  10  13
ATOM     13  N   UNL d   1      -1.981   3.717  -5.127  0.00  0.00    -0.116 N 
ATOM     14  O   UNL d   1      -1.914   4.953  -5.187  0.00  0.00    -0.532 OA
ATOM     15  O   UNL d   1      -2.389   2.990  -6.044  0.00  0.00    -0.532 OA
ENDBRANCH  10  13
ENDBRANCH   4   7
BRANCH   1  16
ATOM     16  C   UNL d   1      -0.239  -1.470   1.784  0.00  0.00     0.022 A 
ATOM     17  C   UNL d   1       0.098  -2.773   2.186  0.00  0.00     0.044 A 
ATOM     18 CL   UNL d   1       0.631  -3.977   1.062  0.00  0.00    -0.084 Cl
ATOM     19  C   UNL d   1      -0.003  -3.162   3.529  0.00  0.00     0.024 A 
ATOM     20  C   UNL d   1      -0.429  -2.253   4.496  0.00  0.00     0.002 A 
ATOM     21  C   UNL d   1      -0.746  -0.952   4.124  0.00  0.00     0.001 A 
ATOM     22  C   UNL d   1      -0.650  -0.565   2.785  0.00  0.00     0.013 A 
ENDBRANCH   1  16
TORSDOF 3
