REMARK  6 active torsions:
REMARK  status: ('A' for Active; 'I' for Inactive)
REMARK    1  A    between atoms: C_14  and  N_5 
REMARK    2  A    between atoms: N_12  and  N_9 
REMARK    3  A    between atoms: C_18  and  C_16 
REMARK    4  A    between atoms: O_17  and  C_19 
REMARK    5  A    between atoms: C_20  and  O_17 
REMARK    6  A    between atoms: C_25  and  C_20 
ROOT
ATOM      1  C   UNL d   1      -0.197  -0.659  -0.009  0.00  0.00     0.145 A 
ATOM      2  C   UNL d   1       0.797  -1.122  -0.838  0.00  0.00     0.097 A 
ATOM      3  N   UNL d   1      -0.098   0.401   0.838  0.00  0.00    -0.335 N 
ATOM      4  HN  UNL d   1      -0.873   0.728   1.415  1.00  0.00     0.168 HD
ATOM      5  N   UNL d   1      -1.296  -1.495  -0.212  0.00  0.00    -0.239 N 
ATOM      6  C   UNL d   1       2.079  -0.474  -0.874  0.00  0.00     0.282 A 
ATOM      7  N   UNL d   1      -0.993  -2.471  -1.131  0.00  0.00    -0.302 N 
ATOM      8  HN  UNL d   1      -1.598  -3.226  -1.455  1.00  0.00     0.186 HD
ATOM      9  N   UNL d   1       2.180   0.556   0.089  0.00  0.00    -0.215 N 
ATOM     10  C   UNL d   1       0.261  -2.219  -1.509  0.00  0.00     0.128 A 
ATOM     11  C   UNL d   1       1.078   0.956   0.842  0.00  0.00     0.212 A 
ATOM     12  O   UNL d   1       2.937  -0.807  -1.685  0.00  0.00    -0.265 OA
ENDROOT
BRANCH   9  13
ATOM     13  N   UNL d   1       3.308   1.351   0.233  0.00  0.00    -0.301 N 
ATOM     14  C   UNL d   1       4.458   0.794   0.022  0.00  0.00     0.119 C 
ATOM     15  HN  UNL d   1       3.235   2.334   0.496  1.00  0.00     0.186 HD
BRANCH  14  16
ATOM     16  C   UNL d   1       5.716   1.558   0.035  0.00  0.00    -0.019 A 
ATOM     17  C   UNL d   1       5.745   2.929   0.298  0.00  0.00     0.015 A 
ATOM     18  C   UNL d   1       6.959   3.615   0.228  0.00  0.00     0.037 A 
ATOM     19  C   UNL d   1       8.133   2.940  -0.117  0.00  0.00     0.069 A 
ATOM     20  C   UNL d   1       8.103   1.560  -0.326  0.00  0.00     0.037 A 
ATOM     21  C   UNL d   1       6.894   0.870  -0.261  0.00  0.00     0.015 A 
BRANCH  19  22
ATOM     22  O   UNL d   1       9.252   3.720  -0.228  0.00  0.00    -0.347 OA
BRANCH  22  23
ATOM     23  C   UNL d   1      10.290   3.175  -1.044  0.00  0.00     0.214 C 
BRANCH  23  24
ATOM     24  C   UNL d   1      11.192   4.290  -1.500  0.00  0.00    -0.034 A 
ATOM     25  C   UNL d   1      12.400   4.551  -0.842  0.00  0.00     0.009 A 
ATOM     26  C   UNL d   1      13.235   5.577  -1.286  0.00  0.00     0.001 A 
ATOM     27  C   UNL d   1      12.866   6.353  -2.384  0.00  0.00     0.000 A 
ATOM     28  C   UNL d   1      11.659   6.110  -3.037  0.00  0.00     0.001 A 
ATOM     29  C   UNL d   1      10.823   5.086  -2.595  0.00  0.00     0.009 A 
ENDBRANCH  23  24
ENDBRANCH  22  23
ENDBRANCH  19  22
ENDBRANCH  14  16
ENDBRANCH   9  13
BRANCH   5  30
ATOM     30  C   UNL d   1      -2.590  -1.460   0.386  0.00  0.00     0.058 A 
ATOM     31  C   UNL d   1      -2.971  -0.438   1.265  0.00  0.00     0.031 A 
ATOM     32  C   UNL d   1      -4.244  -0.442   1.844  0.00  0.00     0.002 A 
ATOM     33  C   UNL d   1      -5.144  -1.463   1.553  0.00  0.00     0.000 A 
ATOM     34  C   UNL d   1      -4.780  -2.480   0.674  0.00  0.00     0.002 A 
ATOM     35  C   UNL d   1      -3.511  -2.478   0.090  0.00  0.00     0.031 A 
ENDBRANCH   5  30
TORSDOF 6
