REMARK  9 active torsions:
REMARK  status: ('A' for Active; 'I' for Inactive)
REMARK    1  A    between atoms: C_2  and  C_3 
REMARK    2  A    between atoms: S_5  and  C_2 
REMARK    3  A    between atoms: S_6  and  C_2 
REMARK    4  A    between atoms: C_18  and  S_5 
REMARK    5  A    between atoms: C_17  and  S_6 
REMARK    6  A    between atoms: C_9  and  C_17 
REMARK    7  A    between atoms: O_20  and  C_9 
REMARK    8  A    between atoms: C_10  and  C_18 
REMARK    9  A    between atoms: O_19  and  C_10 
ROOT
ATOM      1  C   UNL d   1       3.571  -1.336  -0.030  0.00  0.00     0.142 C 
ENDROOT
BRANCH   1   2
ATOM      2  C   UNL d   1       2.230  -0.607   0.005  0.00  0.00    -0.032 A 
ATOM      3  C   UNL d   1       1.097  -1.281   0.507  0.00  0.00     0.049 A 
ATOM      4  C   UNL d   1      -0.122  -0.631   0.492  0.00  0.00     0.105 A 
ATOM      5  C   UNL d   1      -0.256   0.650   0.017  0.00  0.00     0.105 A 
ATOM      6  O   UNL d   1      -1.306  -1.151   0.916  0.00  0.00    -0.323 OA
ATOM      7  O   UNL d   1      -1.534   1.106   0.095  0.00  0.00    -0.323 OA
ATOM      8  C   UNL d   1       0.816   1.347  -0.489  0.00  0.00     0.040 A 
ATOM      9  C   UNL d   1      -2.199  -0.048   0.650  0.00  0.00     0.352 A 
ATOM     10  C   UNL d   1       2.059   0.704  -0.514  0.00  0.00     0.012 A 
ENDBRANCH   1   2
BRANCH   1  11
ATOM     11  S   UNL d   1       3.690  -2.234  -1.652  0.00  0.00    -0.138 SA
BRANCH  11  12
ATOM     12  C   UNL d   1       5.291  -3.094  -1.480  0.00  0.00     0.185 C 
BRANCH  12  13
ATOM     13  C   UNL d   1       5.327  -4.026  -0.292  0.00  0.00     0.149 C 
ATOM     14  O   UNL d   1       6.320  -4.197   0.398  0.00  0.00    -0.649 OA
BRANCH  13  15
ATOM     15  O   UNL d   1       4.171  -4.700  -0.083  0.00  0.00    -0.776 OA
ATOM     16  H   UNL d   1       3.478  -4.453  -0.732  0.00  0.00     0.167 HD
ENDBRANCH  13  15
ENDBRANCH  12  13
ENDBRANCH  11  12
ENDBRANCH   1  11
BRANCH   1  17
ATOM     17  S   UNL d   1       5.038  -0.247   0.198  0.00  0.00    -0.138 SA
BRANCH  17  18
ATOM     18  C   UNL d   1       4.702   0.395   1.867  0.00  0.00     0.185 C 
BRANCH  18  19
ATOM     19  C   UNL d   1       4.753  -0.701   2.901  0.00  0.00     0.149 C 
ATOM     20  O   UNL d   1       3.848  -0.929   3.692  0.00  0.00    -0.649 OA
BRANCH  19  21
ATOM     21  O   UNL d   1       5.902  -1.412   2.893  0.00  0.00    -0.776 OA
ATOM     22  H   UNL d   1       6.514  -1.164   2.169  0.00  0.00     0.167 HD
ENDBRANCH  19  21
ENDBRANCH  18  19
ENDBRANCH  17  18
ENDBRANCH   1  17
TORSDOF 9
