REMARK  4 active torsions:
REMARK  status: ('A' for Active; 'I' for Inactive)
REMARK    1  A    between atoms: C_17  and  N_2 
REMARK    2  A    between atoms: N_5  and  C_12 
REMARK    3  A    between atoms: C_13  and  N_7 
REMARK    4  A    between atoms: C_14  and  C_17 
ROOT
ATOM      1  N   UNL d   1      -1.208   5.026  -3.224  0.00  0.00    -0.197 NA
ATOM      2  C   UNL d   1      -1.117   3.966  -2.765  0.00  0.00     0.060 C 
ATOM      3  C   UNL d   1      -0.990   2.623  -2.186  0.00  0.00     0.143 C 
ENDROOT
BRANCH   3   4
ATOM      4  C   UNL d   1      -1.276   2.656  -0.680  0.00  0.00     0.137 C 
BRANCH   4   5
ATOM      5  N   UNL d   1      -1.123   1.331  -0.069  0.00  0.00    -0.380 N 
ATOM      6  C   UNL d   1       0.095   0.663  -0.032  0.00  0.00     0.036 A 
ATOM      7  C   UNL d   1       0.137  -0.746   0.023  0.00  0.00    -0.029 A 
ATOM      8  C   UNL d   1       1.317   1.347  -0.063  0.00  0.00     0.032 A 
ATOM      9  C   UNL d   1       1.373  -1.421   0.051  0.00  0.00     0.040 A 
ATOM     10  C   UNL d   1      -1.133  -1.564   0.065  0.00  0.00     0.042 C 
ATOM     11  C   UNL d   1       2.583  -0.725   0.018  0.00  0.00     0.048 A 
ATOM     12  C   UNL d   1       2.541   0.668  -0.048  0.00  0.00     0.033 A 
ATOM     13  C   UNL d   1      -2.372  -0.747  -0.284  0.00  0.00     0.024 C 
ATOM     14  C   UNL d   1      -2.301   0.607   0.401  0.00  0.00     0.123 C 
BRANCH  11  15
ATOM     15  N   UNL d   1       3.783  -1.461  -0.014  0.00  0.00    -0.300 N 
ATOM     16  N   UNL d   1       4.700  -0.909   0.632  0.00  0.00    -0.300 N 
ATOM     17  HN  UNL d   1       4.594  -0.028   1.136  1.00  0.00     0.187 HD
ATOM     18  HN  UNL d   1       3.892  -2.346  -0.508  1.00  0.00     0.187 HD
BRANCH  16  19
ATOM     19  C   UNL d   1       5.898  -1.650   0.577  0.00  0.00     0.048 A 
ATOM     20  C   UNL d   1       7.115  -0.954   0.564  0.00  0.00     0.032 A 
ATOM     21  C   UNL d   1       8.333  -1.641   0.529  0.00  0.00     0.026 A 
ATOM     22  C   UNL d   1       8.341  -3.034   0.513  0.00  0.00     0.034 A 
ATOM     23  C   UNL d   1       7.144  -3.745   0.540  0.00  0.00     0.026 A 
ATOM     24 CL   UNL d   1       9.835  -3.884   0.467  0.00  0.00    -0.084 Cl
ATOM     25  C   UNL d   1       5.930  -3.053   0.578  0.00  0.00     0.032 A 
ENDBRANCH  16  19
ENDBRANCH  11  15
ENDBRANCH   4   5
ENDBRANCH   3   4
TORSDOF 4
