REMARK  3 active torsions:
REMARK  status: ('A' for Active; 'I' for Inactive)
REMARK       I    between atoms: N_3  and  C_1 
REMARK    1  A    between atoms: C_4  and  C_1 
REMARK    2  A    between atoms: N_2  and  C_4 
REMARK    3  A    between atoms: C_6  and  N_3 
ROOT
ATOM      1  C   UNL d   1       0.948  -0.037  -0.069  0.00  0.00     0.250 C 
ATOM      2  N   UNL d   1       1.751  -0.461   0.984  0.00  0.00    -0.326 N 
ATOM      3  O   UNL d   1       0.804  -0.622  -1.141  0.00  0.00    -0.271 OA
ATOM      4  H   UNL d   1       1.640   0.017   1.870  0.00  0.00     0.169 HD
ENDROOT
BRANCH   2   5
ATOM      5  C   UNL d   1       2.628  -1.567   0.978  0.00  0.00     0.034 A 
ATOM      6  C   UNL d   1       2.979  -2.261  -0.182  0.00  0.00     0.031 A 
ATOM      7  C   UNL d   1       3.847  -3.355  -0.127  0.00  0.00     0.020 A 
ATOM      8  C   UNL d   1       4.371  -3.763   1.096  0.00  0.00     0.006 A 
ATOM      9  C   UNL d   1       4.045  -3.071   2.261  0.00  0.00     0.020 A 
ATOM     10  I   UNL d   1       5.638  -5.405   1.178  0.00  0.00    -0.045 I 
ATOM     11  C   UNL d   1       3.180  -1.971   2.199  0.00  0.00     0.031 A 
ENDBRANCH   2   5
BRANCH   1  12
ATOM     12  C   UNL d   1       0.223   1.285   0.227  0.00  0.00     0.374 C 
BRANCH  12  13
ATOM     13  N   UNL d   1      -1.245   1.112   0.221  0.00  0.00     0.097 N 
ATOM     14  C   UNL d   1      -1.930   2.407   0.325  0.00  0.00     0.273 C 
ATOM     15  C   UNL d   1      -2.022   2.665   1.817  0.00  0.00     0.032 C 
ATOM     16  C   UNL d   1      -2.308   1.287   2.380  0.00  0.00     0.032 C 
ATOM     17  C   UNL d   1      -1.737   0.311   1.354  0.00  0.00     0.273 C 
ENDBRANCH  12  13
ENDBRANCH   1  12
TORSDOF 3
