REMARK  4 active torsions:
REMARK  status: ('A' for Active; 'I' for Inactive)
REMARK    1  A    between atoms: C_4  and  C_1 
REMARK       I    between atoms: N_7  and  C_4 
REMARK    2  A    between atoms: C_8  and  N_7 
REMARK    3  A    between atoms: N_10  and  C_9 
REMARK       I    between atoms: C_12  and  N_10 
REMARK    4  A    between atoms: O_20  and  C_17 
ROOT
ATOM      1  C   UNL d   1       3.726   0.049  -0.364  0.00  0.00     0.264 C 
ATOM      2  N   UNL d   1       4.484  -1.107  -0.265  0.00  0.00    -0.320 N 
ATOM      3  O   UNL d   1       2.494   0.028  -0.349  0.00  0.00    -0.267 OA
ATOM      4  H   UNL d   1       5.465  -0.997  -0.008  0.00  0.00     0.169 HD
ENDROOT
BRANCH   2   5
ATOM      5  C   UNL d   1       3.943  -2.409  -0.198  0.00  0.00     0.064 A 
ATOM      6  C   UNL d   1       4.481  -3.404   0.645  0.00  0.00     0.061 A 
ATOM      7  C   UNL d   1       3.791  -4.628   0.742  0.00  0.00     0.035 A 
ATOM      8  C   UNL d   1       2.638  -4.882  -0.006  0.00  0.00     0.039 A 
ATOM      9  C   UNL d   1       2.133  -3.913  -0.863  0.00  0.00     0.070 A 
ATOM     10  C   UNL d   1       2.801  -2.697  -0.971  0.00  0.00     0.068 A 
BRANCH   6  11
ATOM     11  N   UNL d   1       5.602  -3.290   1.506  0.00  0.00    -0.326 N 
ATOM     12  C   UNL d   1       6.624  -2.367   1.493  0.00  0.00     0.218 C 
ATOM     13  O   UNL d   1       6.824  -1.527   0.623  0.00  0.00    -0.274 OA
ATOM     14  C   UNL d   1       7.545  -2.460   2.681  0.00  0.00     0.117 C 
ATOM     15  H   UNL d   1       5.702  -4.041   2.175  0.00  0.00     0.169 HD
ENDBRANCH   6  11
BRANCH   9  16
ATOM     16  O   UNL d   1       0.999  -4.255  -1.546  0.00  0.00    -0.356 OA
ATOM     17  C   UNL d   1       0.192  -3.160  -1.975  0.00  0.00     0.210 C 
ENDBRANCH   9  16
ENDBRANCH   2   5
BRANCH   1  18
ATOM     18  C   UNL d   1       4.460   1.305  -0.468  0.00  0.00     0.096 C 
ATOM     19  S   UNL d   1       6.136   1.342  -0.793  0.00  0.00    -0.082 SA
ATOM     20  C   UNL d   1       6.148   3.041  -1.026  0.00  0.00     0.017 A 
ATOM     21  C   UNL d   1       7.246   3.833  -1.412  0.00  0.00     0.020 A 
ATOM     22  C   UNL d   1       4.886   3.593  -0.804  0.00  0.00     0.004 A 
ATOM     23  C   UNL d   1       7.047   5.195  -1.643  0.00  0.00     0.001 A 
ATOM     24  C   UNL d   1       5.794   5.764  -1.469  0.00  0.00     0.001 A 
ATOM     25  C   UNL d   1       4.723   4.984  -1.030  0.00  0.00     0.014 A 
ATOM     26  C   UNL d   1       3.948   2.587  -0.383  0.00  0.00     0.068 C 
ATOM     27 CL   UNL d   1       2.344   3.005   0.083  0.00  0.00    -0.082 Cl
ENDBRANCH   1  18
TORSDOF 4
