REMARK  5 active torsions:
REMARK  status: ('A' for Active; 'I' for Inactive)
REMARK    1  A    between atoms: C_6  and  C_1 
REMARK    2  A    between atoms: N_2  and  C_5 
REMARK    3  A    between atoms: S_7  and  C_3 
REMARK    4  A    between atoms: O_14  and  C_6 
REMARK    5  A    between atoms: C_13  and  S_7 
ROOT
ATOM      1  C   UNL d   1       1.387  -0.159   0.081  0.00  0.00     0.059 A 
ATOM      2  C   UNL d   1       0.598  -1.326   0.114  0.00  0.00     0.022 A 
ATOM      3  C   UNL d   1       0.780   1.111   0.059  0.00  0.00     0.055 A 
ATOM      4  C   UNL d   1      -0.613   1.219   0.085  0.00  0.00     0.103 A 
ATOM      5  C   UNL d   1      -0.803  -1.190   0.131  0.00  0.00     0.022 A 
ATOM      6  C   UNL d   1      -1.410   0.071   0.122  0.00  0.00     0.037 A 
ENDROOT
BRANCH   2   7
ATOM      7  S   UNL d   1       1.245  -2.987  -0.007  0.00  0.00    -0.090 SA
BRANCH   7   8
ATOM      8  C   UNL d   1       1.281  -3.602   1.673  0.00  0.00     0.005 A 
ATOM      9  C   UNL d   1       1.094  -2.814   2.814  0.00  0.00     0.019 A 
ATOM     10  C   UNL d   1       1.179  -3.377   4.093  0.00  0.00     0.001 A 
ATOM     11  C   UNL d   1       1.455  -4.734   4.247  0.00  0.00     0.000 A 
ATOM     12  C   UNL d   1       1.642  -5.531   3.122  0.00  0.00     0.001 A 
ATOM     13  C   UNL d   1       1.554  -4.968   1.845  0.00  0.00     0.019 A 
ENDBRANCH   7   8
ENDBRANCH   2   7
BRANCH   1  14
ATOM     14  C   UNL d   1       2.867  -0.158   0.023  0.00  0.00     0.294 C 
ATOM     15  O   UNL d   1       3.495   0.599  -0.701  0.00  0.00    -0.259 OA
BRANCH  14  16
ATOM     16  O   UNL d   1       3.370  -0.988   0.961  0.00  0.00    -0.322 OA
ATOM     17  C   UNL d   1       4.797  -1.044   1.052  0.00  0.00     0.213 C 
ENDBRANCH  14  16
ENDBRANCH   1  14
BRANCH   4  18
ATOM     18  N   UNL d   1      -1.245   2.546   0.070  0.00  0.00    -0.116 N 
ATOM     19  O   UNL d   1      -0.502   3.537   0.043  0.00  0.00    -0.532 OA
ATOM     20  O   UNL d   1      -2.482   2.592   0.093  0.00  0.00    -0.532 OA
ENDBRANCH   4  18
TORSDOF 5
