REMARK  8 active torsions:
REMARK  status: ('A' for Active; 'I' for Inactive)
REMARK    1  A    between atoms: C_2  and  C_1 
REMARK    2  A    between atoms: C_3  and  C_1 
REMARK    3  A    between atoms: C_5  and  C_1 
REMARK    4  A    between atoms: C_10  and  C_1 
REMARK    5  A    between atoms: O_8  and  C_2 
REMARK    6  A    between atoms: C_4  and  C_3 
REMARK    7  A    between atoms: O_9  and  C_4 
REMARK    8  A    between atoms: C_13  and  C_10 
ROOT
ATOM      1  C   UNL d   1       0.957   0.081  -0.069  0.00  0.00     0.081 C 
ENDROOT
BRANCH   1   2
ATOM      2  C   UNL d   1       0.417  -0.212  -1.493  0.00  0.00     0.154 C 
ATOM      3  O   UNL d   1       1.127  -0.515  -2.442  0.00  0.00    -0.649 OA
BRANCH   2   4
ATOM      4  O   UNL d   1      -0.928  -0.176  -1.647  0.00  0.00    -0.776 OA
ATOM      5  H   UNL d   1      -1.452   0.018  -0.828  0.00  0.00     0.167 HD
ENDBRANCH   2   4
ENDBRANCH   1   2
BRANCH   1   6
ATOM      6  C   UNL d   1       0.530  -1.133   0.823  0.00  0.00     0.135 C 
BRANCH   6   7
ATOM      7  C   UNL d   1      -0.950  -1.229   1.116  0.00  0.00     0.141 C 
ATOM      8  O   UNL d   1      -1.797  -0.461   0.685  0.00  0.00    -0.650 OA
BRANCH   7   9
ATOM      9  O   UNL d   1      -1.272  -2.300   1.870  0.00  0.00    -0.776 OA
ATOM     10  H   UNL d   1      -0.521  -2.878   2.107  0.00  0.00     0.167 HD
ENDBRANCH   7   9
ENDBRANCH   6   7
ENDBRANCH   1   6
BRANCH   1  11
ATOM     11  C   UNL d   1       0.527   1.431   0.543  0.00  0.00    -0.039 A 
ATOM     12  C   UNL d   1      -0.258   2.365  -0.157  0.00  0.00     0.008 A 
ATOM     13  C   UNL d   1      -0.666   3.562   0.440  0.00  0.00     0.001 A 
ATOM     14  C   UNL d   1      -0.262   3.874   1.732  0.00  0.00     0.000 A 
ATOM     15  C   UNL d   1       0.553   2.991   2.430  0.00  0.00     0.001 A 
ATOM     16  C   UNL d   1       0.938   1.781   1.846  0.00  0.00     0.008 A 
ENDBRANCH   1  11
BRANCH   1  17
ATOM     17  C   UNL d   1       2.535   0.027  -0.122  0.00  0.00     0.025 C 
BRANCH  17  18
ATOM     18  C   UNL d   1       3.230   1.162  -0.895  0.00  0.00    -0.003 C 
ATOM     19  C   UNL d   1       4.747   1.051  -0.802  0.00  0.00     0.005 C 
ENDBRANCH  17  18
ENDBRANCH   1  17
TORSDOF 8
