REMARK  1 active torsions:
REMARK  status: ('A' for Active; 'I' for Inactive)
REMARK    1  A    between atoms: O_16  and  N_6 
ROOT
ATOM      1  C   UNL d   1      -0.019   1.804  -0.002  0.00  0.00     0.076 A 
ATOM      2  C   UNL d   1       1.169   0.914  -0.001  0.00  0.00     0.006 A 
ATOM      3  C   UNL d   1      -1.212   0.914  -0.003  0.00  0.00     0.006 A 
ATOM      4  C   UNL d   1       0.708  -0.411  -0.001  0.00  0.00    -0.012 A 
ATOM      5  C   UNL d   1      -0.737  -0.413  -0.002  0.00  0.00    -0.012 A 
ATOM      6  N   UNL d   1       0.088   3.095  -0.002  0.00  0.00    -0.268 N 
ATOM      7  HN  UNL d   1       0.979   3.591  -0.002  1.00  0.00     0.194 HD
ATOM      8  C   UNL d   1      -1.625  -1.478  -0.000  0.00  0.00     0.014 A 
ATOM      9  C   UNL d   1       1.613  -1.460  -0.000  0.00  0.00     0.014 A 
ATOM     10  C   UNL d   1       2.514   1.239  -0.000  0.00  0.00     0.033 A 
ATOM     11  C   UNL d   1      -2.567   1.199  -0.003  0.00  0.00     0.033 A 
ATOM     12  C   UNL d   1      -3.456   0.123  -0.003  0.00  0.00     0.011 A 
ATOM     13  C   UNL d   1       3.420   0.177   0.001  0.00  0.00     0.011 A 
ATOM     14  C   UNL d   1       2.981  -1.160   0.001  0.00  0.00     0.020 A 
ATOM     15  C   UNL d   1      -2.996  -1.203  -0.001  0.00  0.00     0.020 A 
ATOM     16 BR   UNL d   1      -5.319   0.456  -0.004  0.00  0.00    -0.051 Br
ATOM     17 BR   UNL d   1       5.279   0.532   0.003  0.00  0.00    -0.051 Br
ENDROOT
BRANCH   6  18
ATOM     18  O   UNL d   1      -1.157   3.730  -0.002  0.00  0.00    -0.289 OA
ATOM     19  H   UNL d   1      -0.914   4.674  -0.000  0.00  0.00     0.244 HD
ENDBRANCH   6  18
TORSDOF 1
