REMARK  8 active torsions:
REMARK  status: ('A' for Active; 'I' for Inactive)
REMARK    1  A    between atoms: C_8  and  N_1 
REMARK    2  A    between atoms: C_10  and  C_2 
REMARK    3  A    between atoms: S_9  and  C_3 
REMARK    4  A    between atoms: C_21  and  S_9 
REMARK    5  A    between atoms: C_17  and  C_10 
REMARK    6  A    between atoms: O_26  and  C_11 
REMARK    7  A    between atoms: C_12  and  C_21 
REMARK    8  A    between atoms: O_28  and  C_15 
ROOT
ATOM      1  N   UNL d   1      -0.458  -1.267   0.184  0.00  0.00    -0.279 N 
ATOM      2  C   UNL d   1       0.811  -0.672   0.056  0.00  0.00     0.109 A 
ATOM      3  C   UNL d   1      -1.324  -0.174   0.047  0.00  0.00     0.167 A 
ATOM      4  N   UNL d   1       0.661   0.628  -0.149  0.00  0.00    -0.286 N 
ATOM      5  HN  UNL d   1       1.421   1.298  -0.267  1.00  0.00     0.188 HD
ATOM      6  N   UNL d   1      -0.661   0.926  -0.179  0.00  0.00    -0.278 N 
ATOM      7  HN  UNL d   1      -1.065   1.847  -0.348  1.00  0.00     0.189 HD
ENDROOT
BRANCH   2   8
ATOM      8  C   UNL d   1       2.176  -1.297   0.065  0.00  0.00     0.117 C 
BRANCH   8   9
ATOM      9  C   UNL d   1       2.772  -1.668  -1.282  0.00  0.00    -0.048 A 
ATOM     10  C   UNL d   1       3.721  -2.707  -1.365  0.00  0.00     0.047 A 
ATOM     11  C   UNL d   1       4.471  -2.936  -2.535  0.00  0.00     0.102 A 
ATOM     12  C   UNL d   1       4.229  -2.139  -3.666  0.00  0.00     0.101 A 
ATOM     13  C   UNL d   1       3.253  -1.138  -3.595  0.00  0.00     0.040 A 
ATOM     14  C   UNL d   1       2.544  -0.891  -2.421  0.00  0.00     0.010 A 
BRANCH  11  15
ATOM     15  O   UNL d   1       5.406  -3.934  -2.619  0.00  0.00    -0.353 OA
ATOM     16  C   UNL d   1       6.088  -4.285  -1.420  0.00  0.00     0.210 C 
ENDBRANCH  11  15
BRANCH  12  17
ATOM     17  O   UNL d   1       4.846  -2.173  -4.889  0.00  0.00    -0.353 OA
ATOM     18  C   UNL d   1       5.982  -3.004  -5.064  0.00  0.00     0.210 C 
ENDBRANCH  12  17
ENDBRANCH   8   9
ENDBRANCH   2   8
BRANCH   1  19
ATOM     19  C   UNL d   1      -0.788  -2.653   0.373  0.00  0.00     0.043 A 
ATOM     20  C   UNL d   1       0.080  -3.531   1.043  0.00  0.00     0.033 A 
ATOM     21  C   UNL d   1      -0.221  -4.893   1.173  0.00  0.00     0.044 A 
ATOM     22  C   UNL d   1      -1.423  -5.380   0.689  0.00  0.00     0.116 A 
ATOM     23  C   UNL d   1      -2.322  -4.532   0.065  0.00  0.00     0.044 A 
ATOM     24  F   UNL d   1      -1.721  -6.676   0.839  0.00  0.00    -0.206 F 
ATOM     25  C   UNL d   1      -1.996  -3.181  -0.114  0.00  0.00     0.033 A 
ENDBRANCH   1  19
BRANCH   3  26
ATOM     26  S   UNL d   1      -3.038  -0.155   0.392  0.00  0.00    -0.092 SA
BRANCH  26  27
ATOM     27  C   UNL d   1      -3.638   1.072  -0.814  0.00  0.00     0.087 C 
BRANCH  27  28
ATOM     28  C   UNL d   1      -5.133   1.192  -0.685  0.00  0.00    -0.005 A 
ATOM     29  C   UNL d   1      -6.058   0.047  -1.030  0.00  0.00     0.006 A 
ATOM     30  C   UNL d   1      -6.014   1.258  -1.914  0.00  0.00     0.006 A 
ENDBRANCH  27  28
ENDBRANCH  26  27
ENDBRANCH   3  26
TORSDOF 8
