REMARK  2 active torsions:
REMARK  status: ('A' for Active; 'I' for Inactive)
REMARK    1  A    between atoms: S_9  and  C_1 
REMARK    2  A    between atoms: C_11  and  S_9 
ROOT
ATOM      1  C   UNL d   1       2.422  -0.527  -0.046  0.00  0.00     0.096 C 
ATOM      2  C   UNL d   1       2.393   0.865  -0.154  0.00  0.00     0.085 C 
ATOM      3  N   UNL d   1       1.295  -1.269   0.094  0.00  0.00    -0.349 N 
ATOM      4  HN  UNL d   1       1.353  -2.282   0.201  1.00  0.00     0.166 HD
ATOM      5  C   UNL d   1       1.156   1.526  -0.011  0.00  0.00    -0.026 C 
ATOM      6  C   UNL d   1      -0.033   0.750   0.055  0.00  0.00    -0.002 A 
ATOM      7  C   UNL d   1       3.578   1.594  -0.512  0.00  0.00     0.103 C 
ATOM      8  C   UNL d   1       0.102  -0.655   0.091  0.00  0.00     0.043 A 
ATOM      9  N   UNL d   1       4.490   2.216  -0.864  0.00  0.00    -0.191 NA
ATOM     10  C   UNL d   1       1.067   3.035   0.031  0.00  0.00     0.050 C 
ATOM     11  C   UNL d   1      -1.336   1.305   0.034  0.00  0.00     0.014 A 
ATOM     12  C   UNL d   1      -1.043  -1.441   0.089  0.00  0.00     0.030 A 
ATOM     13  C   UNL d   1      -2.469   0.495   0.004  0.00  0.00     0.001 A 
ATOM     14  C   UNL d   1      -2.322  -0.883   0.027  0.00  0.00     0.002 A 
ENDROOT
BRANCH   1  15
ATOM     15  S   UNL d   1       3.927  -1.493  -0.155  0.00  0.00    -0.071 SA
BRANCH  15  16
ATOM     16  C   UNL d   1       4.480  -1.482   1.544  0.00  0.00     0.007 A 
ATOM     17  C   UNL d   1       3.706  -2.042   2.566  0.00  0.00     0.019 A 
ATOM     18  C   UNL d   1       4.145  -1.994   3.893  0.00  0.00     0.001 A 
ATOM     19  C   UNL d   1       5.367  -1.402   4.204  0.00  0.00     0.000 A 
ATOM     20  C   UNL d   1       6.165  -0.882   3.187  0.00  0.00     0.001 A 
ATOM     21  C   UNL d   1       5.726  -0.927   1.860  0.00  0.00     0.019 A 
ENDBRANCH  15  16
ENDBRANCH   1  15
TORSDOF 2
