REMARK  4 active torsions:
REMARK  status: ('A' for Active; 'I' for Inactive)
REMARK       I    between atoms: N_7  and  C_1 
REMARK    1  A    between atoms: C_8  and  C_1 
REMARK    2  A    between atoms: C_4  and  O_5 
REMARK    3  A    between atoms: O_5  and  C_8 
REMARK    4  A    between atoms: N_12  and  N_7 
ROOT
ATOM      1  O   UNL d   1       3.109  -0.996  -0.910  0.00  0.00    -0.341 OA
ENDROOT
BRANCH   1   2
ATOM      2  C   UNL d   1       4.447  -1.095  -1.195  0.00  0.00     0.086 A 
ATOM      3  C   UNL d   1       5.327  -1.336  -0.129  0.00  0.00     0.045 A 
ATOM      4  C   UNL d   1       6.706  -1.416  -0.344  0.00  0.00     0.041 A 
ATOM      5 BR   UNL d   1       4.690  -1.536   1.650  0.00  0.00    -0.048 Br
ATOM      6  C   UNL d   1       7.206  -1.273  -1.636  0.00  0.00     0.012 A 
ATOM      7  C   UNL d   1       6.343  -1.072  -2.711  0.00  0.00     0.022 A 
ATOM      8 BR   UNL d   1       9.069  -1.356  -1.939  0.00  0.00    -0.051 Br
ATOM      9  C   UNL d   1       4.965  -0.992  -2.491  0.00  0.00     0.039 A 
ENDBRANCH   1   2
BRANCH   1  10
ATOM     10  C   UNL d   1       2.352  -0.173  -1.796  0.00  0.00     0.279 C 
BRANCH  10  11
ATOM     11  C   UNL d   1       1.066   0.335  -1.152  0.00  0.00     0.255 C 
ATOM     12  O   UNL d   1       0.331   1.153  -1.709  0.00  0.00    -0.270 OA
ATOM     13  N   UNL d   1       0.798  -0.191   0.101  0.00  0.00    -0.292 N 
ATOM     14  H   UNL d   1       1.394  -0.936   0.467  0.00  0.00     0.183 HD
BRANCH  13  15
ATOM     15  N   UNL d   1      -0.374   0.185   0.786  0.00  0.00    -0.247 NA
ATOM     16  H   UNL d   1      -0.967   0.691   0.112  0.00  0.00     0.143 HD
ATOM     17  H   UNL d   1      -0.118   0.901   1.472  0.00  0.00     0.143 HD
ENDBRANCH  13  15
ENDBRANCH  10  11
ENDBRANCH   1  10
TORSDOF 4
