REMARK  3 active torsions:
REMARK  status: ('A' for Active; 'I' for Inactive)
REMARK    1  A    between atoms: C_5  and  C_1 
REMARK    2  A    between atoms: O_15  and  C_9 
REMARK    3  A    between atoms: O_16  and  C_10 
ROOT
ATOM      1  C   UNL d   1       0.532  -1.592   0.488  0.00  0.00     0.153 C 
ATOM      2  C   UNL d   1      -0.603  -0.638   0.171  0.00  0.00    -0.021 A 
ATOM      3  N   UNL d   1       1.785  -1.110  -0.073  0.00  0.00    -0.348 N 
ATOM      4  C   UNL d   1      -0.356   0.729   0.021  0.00  0.00    -0.038 A 
ATOM      5  C   UNL d   1       2.131   0.203  -0.204  0.00  0.00     0.222 C 
ATOM      6  C   UNL d   1      -1.921  -1.094   0.030  0.00  0.00     0.049 A 
ATOM      7  C   UNL d   1      -1.431   1.623  -0.127  0.00  0.00     0.047 A 
ATOM      8  C   UNL d   1      -2.995  -0.213  -0.184  0.00  0.00     0.102 A 
ATOM      9  C   UNL d   1      -2.756   1.170  -0.214  0.00  0.00     0.102 A 
ATOM     10  C   UNL d   1       1.057   1.253   0.003  0.00  0.00     0.142 C 
ATOM     11  O   UNL d   1       3.295   0.504  -0.448  0.00  0.00    -0.273 OA
ATOM     12  H   UNL d   1       2.556  -1.761  -0.149  0.00  0.00     0.163 HD
ENDROOT
BRANCH   1  13
ATOM     13  C   UNL d   1       0.664  -1.908   1.980  0.00  0.00    -0.009 A 
ATOM     14  C   UNL d   1       0.053  -3.033   2.568  0.00  0.00     0.042 A 
ATOM     15 CL   UNL d   1      -0.848  -4.192   1.653  0.00  0.00    -0.084 Cl
ATOM     16  C   UNL d   1       0.170  -3.285   3.943  0.00  0.00     0.024 A 
ATOM     17  C   UNL d   1       0.904  -2.430   4.760  0.00  0.00     0.002 A 
ATOM     18  C   UNL d   1       1.520  -1.317   4.205  0.00  0.00     0.001 A 
ATOM     19  C   UNL d   1       1.394  -1.055   2.836  0.00  0.00     0.011 A 
ENDBRANCH   1  13
BRANCH   8  20
ATOM     20  O   UNL d   1      -4.183  -0.882  -0.328  0.00  0.00    -0.353 OA
ATOM     21  C   UNL d   1      -5.349  -0.146  -0.663  0.00  0.00     0.210 C 
ENDBRANCH   8  20
BRANCH   9  22
ATOM     22  O   UNL d   1      -3.826   2.014  -0.337  0.00  0.00    -0.353 OA
ATOM     23  C   UNL d   1      -3.597   3.414  -0.259  0.00  0.00     0.210 C 
ENDBRANCH   9  22
TORSDOF 3
