REMARK  5 active torsions:
REMARK  status: ('A' for Active; 'I' for Inactive)
REMARK    1  A    between atoms: S_8  and  C_3 
REMARK    2  A    between atoms: O_16  and  C_4 
REMARK    3  A    between atoms: C_12  and  S_8 
REMARK    4  A    between atoms: C_9  and  C_12 
REMARK    5  A    between atoms: C_11  and  C_9 
ROOT
ATOM      1  N   UNL d   1      -4.454   0.589  -2.671  0.00  0.00    -0.318 N 
ATOM      2  HN  UNL d   1      -4.612   1.510  -2.263  1.00  0.00     0.170 HD
ATOM      3  C   UNL d   1      -3.693  -0.338  -2.078  0.00  0.00     0.146 A 
ATOM      4  C   UNL d   1      -4.992   0.220  -3.835  0.00  0.00     0.143 A 
ATOM      5  N   UNL d   1      -3.438  -1.555  -2.588  0.00  0.00    -0.341 N 
ATOM      6  HN  UNL d   1      -2.836  -2.217  -2.099  1.00  0.00     0.167 HD
ATOM      7  C   UNL d   1      -4.816  -0.990  -4.450  0.00  0.00     0.080 A 
ATOM      8  C   UNL d   1      -4.007  -1.871  -3.772  0.00  0.00     0.011 A 
ATOM      9  C   UNL d   1      -3.720  -3.238  -4.314  0.00  0.00     0.068 C 
ENDROOT
BRANCH   3  10
ATOM     10  S   UNL d   1      -3.010  -0.010  -0.472  0.00  0.00    -0.086 SA
BRANCH  10  11
ATOM     11  C   UNL d   1      -3.726   1.613  -0.074  0.00  0.00     0.166 C 
BRANCH  11  12
ATOM     12  C   UNL d   1      -5.246   1.630  -0.036  0.00  0.00     0.169 C 
ATOM     13  O   UNL d   1      -5.898   2.464  -0.667  0.00  0.00    -0.291 OA
BRANCH  12  14
ATOM     14  C   UNL d   1      -5.979   0.653   0.816  0.00  0.00     0.011 A 
ATOM     15  C   UNL d   1      -5.460   0.172   2.024  0.00  0.00     0.017 A 
ATOM     16  C   UNL d   1      -6.164  -0.797   2.747  0.00  0.00     0.025 A 
ATOM     17  C   UNL d   1      -7.383  -1.276   2.266  0.00  0.00     0.034 A 
ATOM     18  C   UNL d   1      -7.928  -0.766   1.090  0.00  0.00     0.025 A 
ATOM     19 CL   UNL d   1      -8.213  -2.514   3.125  0.00  0.00    -0.084 Cl
ATOM     20  C   UNL d   1      -7.230   0.204   0.368  0.00  0.00     0.017 A 
ENDBRANCH  12  14
ENDBRANCH  11  12
ENDBRANCH  10  11
ENDBRANCH   3  10
BRANCH   4  21
ATOM     21  O   UNL d   1      -5.797   1.157  -4.399  0.00  0.00    -0.346 OA
ATOM     22  H   UNL d   1      -5.768   1.858  -3.718  0.00  0.00     0.219 HD
ENDBRANCH   4  21
TORSDOF 5
