REMARK  3 active torsions:
REMARK  status: ('A' for Active; 'I' for Inactive)
REMARK    1  A    between atoms: N_6  and  C_1 
REMARK    2  A    between atoms: N_2  and  N_6 
REMARK    3  A    between atoms: C_12  and  C_11 
ROOT
ATOM      1  N   UNL d   1      -1.236  -1.416  -0.631  0.00  0.00    -0.309 N 
ATOM      2  HN  UNL d   1      -1.728  -0.839  -1.312  1.00  0.00     0.186 HD
ATOM      3  C   UNL d   1      -1.859  -2.202   0.186  0.00  0.00     0.118 C 
ENDROOT
BRANCH   1   4
ATOM      4  N   UNL d   1       0.124  -1.411  -0.521  0.00  0.00    -0.277 N 
ATOM      5  H   UNL d   1       0.595  -1.979   0.175  0.00  0.00     0.189 HD
BRANCH   4   6
ATOM      6  C   UNL d   1       0.886  -0.607  -1.325  0.00  0.00     0.184 C 
ATOM      7  S   UNL d   1       2.538  -0.539  -1.207  0.00  0.00    -0.040 SA
ATOM      8  N   UNL d   1       0.197   0.130  -2.228  0.00  0.00    -0.375 N 
ATOM      9  H   UNL d   1       0.657   0.776  -2.853  0.00  0.00     0.158 HD
ATOM     10  H   UNL d   1      -0.812   0.057  -2.206  0.00  0.00     0.158 HD
ENDBRANCH   4   6
ENDBRANCH   1   4
BRANCH   3  11
ATOM     11  C   UNL d   1      -3.334  -2.280   0.179  0.00  0.00    -0.018 A 
ATOM     12  C   UNL d   1      -4.075  -1.522  -0.735  0.00  0.00     0.038 A 
ATOM     13  C   UNL d   1      -5.470  -1.579  -0.721  0.00  0.00     0.056 A 
ATOM     14 CL   UNL d   1      -6.324  -0.614  -1.871  0.00  0.00    -0.083 Cl
ATOM     15  C   UNL d   1      -6.125  -2.396   0.209  0.00  0.00     0.055 A 
ATOM     16  C   UNL d   1      -5.378  -3.158   1.116  0.00  0.00     0.026 A 
ATOM     17 CL   UNL d   1      -7.846  -2.504   0.294  0.00  0.00    -0.083 Cl
ATOM     18  C   UNL d   1      -3.982  -3.103   1.103  0.00  0.00     0.014 A 
ENDBRANCH   3  11
TORSDOF 3
