REMARK  5 active torsions:
REMARK  status: ('A' for Active; 'I' for Inactive)
REMARK    1  A    between atoms: C_2  and  C_1 
REMARK    2  A    between atoms: C_12  and  C_1 
REMARK    3  A    between atoms: C_14  and  C_2 
REMARK    4  A    between atoms: N_6  and  N_3 
REMARK    5  A    between atoms: C_18  and  C_17 
ROOT
ATOM      1  C   UNL d   1       0.971   0.186  -0.130  0.00  0.00     0.109 C 
ATOM      2  N   UNL d   1       0.330   1.322  -0.178  0.00  0.00    -0.296 N 
ATOM      3  HN  UNL d   1       0.815   2.219  -0.157  1.00  0.00     0.187 HD
ENDROOT
BRANCH   1   4
ATOM      4  C   UNL d   1       0.276  -1.167  -0.141  0.00  0.00     0.210 C 
ATOM      5  O   UNL d   1       0.681  -2.024  -0.921  0.00  0.00    -0.285 OA
BRANCH   4   6
ATOM      6  C   UNL d   1      -0.871  -1.457   0.757  0.00  0.00     0.016 A 
ATOM      7  C   UNL d   1      -1.861  -2.337   0.301  0.00  0.00     0.015 A 
ATOM      8  C   UNL d   1      -3.012  -2.553   1.061  0.00  0.00     0.001 A 
ATOM      9  C   UNL d   1      -3.169  -1.904   2.284  0.00  0.00     0.000 A 
ATOM     10  C   UNL d   1      -2.169  -1.055   2.760  0.00  0.00     0.001 A 
ATOM     11  C   UNL d   1      -1.014  -0.835   2.002  0.00  0.00     0.015 A 
ENDBRANCH   4   6
ENDBRANCH   1   4
BRANCH   1  12
ATOM     12  C   UNL d   1       2.462   0.233  -0.096  0.00  0.00    -0.004 A 
ATOM     13  C   UNL d   1       3.103   1.368  -0.621  0.00  0.00     0.014 A 
ATOM     14  C   UNL d   1       4.492   1.478  -0.588  0.00  0.00     0.001 A 
ATOM     15  C   UNL d   1       5.253   0.458  -0.025  0.00  0.00     0.000 A 
ATOM     16  C   UNL d   1       4.625  -0.676   0.497  0.00  0.00     0.001 A 
ATOM     17  C   UNL d   1       3.231  -0.794   0.459  0.00  0.00     0.014 A 
ENDBRANCH   1  12
BRANCH   2  18
ATOM     18  N   UNL d   1      -1.049   1.236  -0.258  0.00  0.00    -0.311 N 
ATOM     19  C   UNL d   1      -1.596   2.258   0.318  0.00  0.00     0.118 C 
ATOM     20  HN  UNL d   1      -1.560   0.476  -0.706  1.00  0.00     0.186 HD
BRANCH  19  21
ATOM     21  C   UNL d   1      -3.055   2.406   0.438  0.00  0.00    -0.017 A 
ATOM     22  C   UNL d   1      -3.552   3.500   1.155  0.00  0.00     0.052 A 
ATOM     23  C   UNL d   1      -4.920   3.618   1.256  0.00  0.00     0.105 A 
ATOM     24  O   UNL d   1      -5.583   4.612   1.907  0.00  0.00    -0.323 OA
ATOM     25  C   UNL d   1      -5.776   2.704   0.683  0.00  0.00     0.105 A 
ATOM     26  C   UNL d   1      -6.953   4.241   1.645  0.00  0.00     0.352 A 
ATOM     27  O   UNL d   1      -7.082   3.013   0.899  0.00  0.00    -0.323 OA
ATOM     28  C   UNL d   1      -5.311   1.613  -0.021  0.00  0.00     0.040 A 
ATOM     29  C   UNL d   1      -3.926   1.463  -0.144  0.00  0.00     0.016 A 
ENDBRANCH  19  21
ENDBRANCH   2  18
TORSDOF 5
