REMARK  9 active torsions:
REMARK  status: ('A' for Active; 'I' for Inactive)
REMARK    1  A    between atoms: C_7  and  C_3 
REMARK    2  A    between atoms: C_6  and  C_4 
REMARK    3  A    between atoms: S_8  and  C_5 
REMARK    4  A    between atoms: O_16  and  C_6 
REMARK    5  A    between atoms: O_17  and  C_7 
REMARK    6  A    between atoms: C_11  and  S_8 
REMARK    7  A    between atoms: N_15  and  C_14 
REMARK    8  A    between atoms: C_20  and  O_16 
REMARK    9  A    between atoms: C_21  and  O_17 
ROOT
ATOM      1  N   UNL d   1      -1.324  -0.054   0.054  0.00  0.00    -0.346 N 
ATOM      2  HN  UNL d   1      -2.344  -0.086   0.071  1.00  0.00     0.166 HD
ATOM      3  C   UNL d   1      -0.584  -1.187   0.047  0.00  0.00     0.110 A 
ATOM      4  C   UNL d   1      -0.658   1.125   0.039  0.00  0.00     0.110 A 
ATOM      5  C   UNL d   1       1.466   0.036   0.011  0.00  0.00     0.010 A 
ATOM      6  C   UNL d   1       0.727   1.218   0.005  0.00  0.00     0.054 A 
ATOM      7  C   UNL d   1       0.802  -1.189   0.034  0.00  0.00     0.054 A 
ENDROOT
BRANCH   5   8
ATOM      8  S   UNL d   1       3.245   0.085  -0.097  0.00  0.00    -0.089 SA
BRANCH   8   9
ATOM      9  C   UNL d   1       3.689   0.150   1.641  0.00  0.00     0.026 A 
ATOM     10  C   UNL d   1       3.883  -1.023   2.401  0.00  0.00     0.023 A 
ATOM     11  C   UNL d   1       4.190  -0.898   3.763  0.00  0.00     0.024 A 
ATOM     12  C   UNL d   1       4.417   0.355   4.335  0.00  0.00     0.002 A 
ATOM     13  C   UNL d   1       4.292   1.506   3.562  0.00  0.00     0.001 A 
ATOM     14  C   UNL d   1       3.920   1.405   2.221  0.00  0.00     0.021 A 
BRANCH  10  15
ATOM     15  N   UNL d   1       3.573  -2.300   1.890  0.00  0.00    -0.302 NA
ATOM     16  H   UNL d   1       3.705  -2.339   0.881  0.00  0.00     0.124 HD
ATOM     17  H   UNL d   1       4.057  -3.054   2.367  0.00  0.00     0.124 HD
ENDBRANCH  10  15
ENDBRANCH   8   9
ENDBRANCH   5   8
BRANCH   4  18
ATOM     18  C   UNL d   1      -1.469   2.374   0.123  0.00  0.00     0.310 C 
ATOM     19  O   UNL d   1      -0.989   3.496   0.170  0.00  0.00    -0.258 OA
BRANCH  18  20
ATOM     20  O   UNL d   1      -2.785   2.056   0.231  0.00  0.00    -0.317 OA
BRANCH  20  21
ATOM     21  C   UNL d   1      -3.646   3.086   0.727  0.00  0.00     0.175 C 
ATOM     22  C   UNL d   1      -3.662   2.998   2.242  0.00  0.00     0.034 C 
ENDBRANCH  20  21
ENDBRANCH  18  20
ENDBRANCH   4  18
BRANCH   3  23
ATOM     23  C   UNL d   1      -1.310  -2.486  -0.057  0.00  0.00     0.310 C 
ATOM     24  O   UNL d   1      -0.749  -3.567  -0.178  0.00  0.00    -0.258 OA
BRANCH  23  25
ATOM     25  O   UNL d   1      -2.647  -2.268  -0.098  0.00  0.00    -0.317 OA
BRANCH  25  26
ATOM     26  C   UNL d   1      -3.447  -3.361  -0.562  0.00  0.00     0.175 C 
ATOM     27  C   UNL d   1      -3.540  -3.280  -2.075  0.00  0.00     0.034 C 
ENDBRANCH  25  26
ENDBRANCH  23  25
ENDBRANCH   3  23
TORSDOF 9
