REMARK  4 active torsions:
REMARK  status: ('A' for Active; 'I' for Inactive)
REMARK    1  A    between atoms: N_6  and  C_1 
REMARK    2  A    between atoms: O_7  and  C_1 
REMARK    3  A    between atoms: C_8  and  N_6 
REMARK    4  A    between atoms: C_10  and  O_7 
ROOT
ATOM      1  C   UNL d   1       0.978  -0.081   0.174  0.00  0.00     0.238 C 
ATOM      2  N   UNL d   1       0.220  -0.253   1.211  0.00  0.00    -0.259 N 
ATOM      3  HN  UNL d   1      -0.792  -0.330   1.111  1.00  0.00     0.181 HD
ATOM      4  C   UNL d   1       0.794  -0.326   2.408  0.00  0.00     0.185 C 
ATOM      5  N   UNL d   1       1.334  -0.349   3.433  0.00  0.00    -0.172 NA
ENDROOT
BRANCH   1   6
ATOM      6  N   UNL d   1       2.350   0.021   0.112  0.00  0.00    -0.321 N 
ATOM      7  H   UNL d   1       2.837   0.032   1.001  0.00  0.00     0.169 HD
BRANCH   6   8
ATOM      8  C   UNL d   1       3.168  -0.539  -0.892  0.00  0.00     0.035 A 
ATOM      9  C   UNL d   1       4.411   0.059  -1.151  0.00  0.00     0.031 A 
ATOM     10  C   UNL d   1       5.294  -0.495  -2.081  0.00  0.00     0.026 A 
ATOM     11  C   UNL d   1       4.947  -1.665  -2.750  0.00  0.00     0.034 A 
ATOM     12  C   UNL d   1       3.713  -2.267  -2.516  0.00  0.00     0.026 A 
ATOM     13 CL   UNL d   1       6.055  -2.380  -3.854  0.00  0.00    -0.084 Cl
ATOM     14  C   UNL d   1       2.824  -1.700  -1.596  0.00  0.00     0.031 A 
ENDBRANCH   6   8
ENDBRANCH   1   6
BRANCH   1  15
ATOM     15  O   UNL d   1       0.384   0.106  -1.080  0.00  0.00    -0.279 OA
BRANCH  15  16
ATOM     16  C   UNL d   1      -0.906   0.672  -1.177  0.00  0.00     0.079 A 
ATOM     17  C   UNL d   1      -1.351   1.666  -0.301  0.00  0.00     0.037 A 
ATOM     18  C   UNL d   1      -2.624   2.207  -0.459  0.00  0.00     0.003 A 
ATOM     19  C   UNL d   1      -3.429   1.790  -1.518  0.00  0.00     0.000 A 
ATOM     20  C   UNL d   1      -2.960   0.832  -2.421  0.00  0.00     0.003 A 
ATOM     21  C   UNL d   1      -1.694   0.269  -2.253  0.00  0.00     0.037 A 
ENDBRANCH  15  16
ENDBRANCH   1  15
TORSDOF 4
