REMARK  2 active torsions:
REMARK  status: ('A' for Active; 'I' for Inactive)
REMARK    1  A    between atoms: C_7  and  N_1 
REMARK    2  A    between atoms: S_12  and  C_2 
ROOT
ATOM      1  N   UNL d   1       2.450  -0.608   0.009  0.00  0.00    -0.258 N 
ATOM      2  C   UNL d   1       2.339   0.780   0.024  0.00  0.00     0.152 A 
ATOM      3  C   UNL d   1       1.315  -1.415   0.111  0.00  0.00     0.266 A 
ATOM      4  N   UNL d   1       1.214   1.415   0.066  0.00  0.00    -0.336 N 
ATOM      5  HN  UNL d   1       1.193   2.434   0.099  1.00  0.00     0.168 HD
ATOM      6  C   UNL d   1       0.016  -0.715   0.099  0.00  0.00     0.059 A 
ATOM      7  C   UNL d   1       0.028   0.677   0.065  0.00  0.00     0.049 A 
ATOM      8  O   UNL d   1       1.325  -2.642   0.198  0.00  0.00    -0.267 OA
ATOM      9  C   UNL d   1      -1.191  -1.426   0.080  0.00  0.00     0.019 A 
ATOM     10  C   UNL d   1      -1.188   1.361   0.005  0.00  0.00     0.030 A 
ATOM     11  C   UNL d   1      -2.399  -0.732   0.010  0.00  0.00     0.001 A 
ATOM     12  C   UNL d   1      -2.397   0.662  -0.029  0.00  0.00     0.002 A 
ENDROOT
BRANCH   1  13
ATOM     13  C   UNL d   1       3.699  -1.272  -0.119  0.00  0.00     0.051 A 
ATOM     14  C   UNL d   1       4.205  -1.619  -1.387  0.00  0.00    -0.033 A 
ATOM     15  C   UNL d   1       5.474  -2.217  -1.465  0.00  0.00     0.028 A 
ATOM     16  C   UNL d   1       3.449  -1.397  -2.670  0.00  0.00     0.050 C 
ATOM     17  C   UNL d   1       6.217  -2.455  -0.308  0.00  0.00     0.011 A 
ATOM     18  C   UNL d   1       5.707  -2.121   0.943  0.00  0.00     0.021 A 
ATOM     19 BR   UNL d   1       7.939  -3.224  -0.444  0.00  0.00    -0.051 Br
ATOM     20  C   UNL d   1       4.445  -1.533   1.040  0.00  0.00     0.032 A 
ENDBRANCH   1  13
BRANCH   2  21
ATOM     21  S   UNL d   1       3.773   1.796  -0.015  0.00  0.00    -0.106 SA
ATOM     22  H   UNL d   1       4.644   0.916  -0.518  0.00  0.00     0.110 HD
ENDBRANCH   2  21
TORSDOF 2
