REMARK  5 active torsions:
REMARK  status: ('A' for Active; 'I' for Inactive)
REMARK    1  A    between atoms: C_2  and  C_1 
REMARK    2  A    between atoms: O_8  and  C_1 
REMARK    3  A    between atoms: C_5  and  C_2 
REMARK    4  A    between atoms: C_3  and  S_4 
REMARK    5  A    between atoms: S_4  and  C_5 
ROOT
ATOM      1  C   UNL d   1       0.167  -0.546  -1.017  0.00  0.00     0.089 C 
ATOM      2  C   UNL d   1      -0.558  -1.868  -0.754  0.00  0.00     0.022 C 
ENDROOT
BRANCH   1   3
ATOM      3  C   UNL d   1       1.305  -0.771  -2.000  0.00  0.00     0.144 C 
ATOM      4  O   UNL d   1       1.385  -0.259  -3.107  0.00  0.00    -0.650 OA
BRANCH   3   5
ATOM      5  O   UNL d   1       2.273  -1.592  -1.530  0.00  0.00    -0.776 OA
ATOM      6  H   UNL d   1       2.122  -1.927  -0.627  0.00  0.00     0.167 HD
ENDBRANCH   3   5
ENDBRANCH   1   3
BRANCH   1   7
ATOM      7  C   UNL d   1      -0.768   0.539  -1.584  0.00  0.00     0.097 C 
BRANCH   7   8
ATOM      8  S   UNL d   1      -2.090   1.003  -0.412  0.00  0.00    -0.092 SA
BRANCH   8   9
ATOM      9  C   UNL d   1      -2.996   2.126  -1.424  0.00  0.00     0.182 C 
ATOM     10  O   UNL d   1      -2.593   2.484  -2.524  0.00  0.00    -0.286 OA
ATOM     11  C   UNL d   1      -4.304   2.587  -0.848  0.00  0.00     0.104 C 
ENDBRANCH   8   9
ENDBRANCH   7   8
ENDBRANCH   1   7
TORSDOF 5
