REMARK  4 active torsions:
REMARK  status: ('A' for Active; 'I' for Inactive)
REMARK    1  A    between atoms: C_11  and  C_2 
REMARK    2  A    between atoms: C_13  and  C_9 
REMARK    3  A    between atoms: C_14  and  C_12 
REMARK    4  A    between atoms: O_27  and  C_24 
ROOT
ATOM      1  N   UNL d   1       0.306   0.644   0.094  0.00  0.00    -0.235 N 
ATOM      2  C   UNL d   1      -0.814   1.462   0.084  0.00  0.00     0.144 A 
ATOM      3  C   UNL d   1       0.167  -0.749   0.018  0.00  0.00     0.130 A 
ATOM      4  N   UNL d   1       1.611   0.996   0.153  0.00  0.00    -0.289 N 
ATOM      5  HN  UNL d   1       1.994   1.933   0.274  1.00  0.00     0.188 HD
ATOM      6  N   UNL d   1      -1.052  -1.363   0.013  0.00  0.00    -0.340 N 
ATOM      7  HN  UNL d   1      -1.137  -2.379  -0.018  1.00  0.00     0.167 HD
ATOM      8  C   UNL d   1       1.441  -1.261  -0.068  0.00  0.00     0.084 A 
ATOM      9  C   UNL d   1       2.290  -0.145   0.019  0.00  0.00     0.086 A 
ATOM     10  C   UNL d   1      -2.041   0.903   0.043  0.00  0.00     0.067 A 
ATOM     11  C   UNL d   1      -2.102  -0.593   0.051  0.00  0.00     0.046 A 
ENDROOT
BRANCH  11  12
ATOM     12  C   UNL d   1      -3.463  -1.210   0.075  0.00  0.00    -0.009 A 
ATOM     13  C   UNL d   1      -4.550  -0.590   0.705  0.00  0.00     0.016 A 
ATOM     14  C   UNL d   1      -5.815  -1.191   0.693  0.00  0.00     0.037 A 
ATOM     15  C   UNL d   1      -5.998  -2.424   0.067  0.00  0.00     0.068 A 
ATOM     16  C   UNL d   1      -4.915  -3.048  -0.553  0.00  0.00     0.037 A 
ATOM     17  C   UNL d   1      -3.650  -2.455  -0.538  0.00  0.00     0.016 A 
BRANCH  15  18
ATOM     18  O   UNL d   1      -7.191  -3.084  -0.036  0.00  0.00    -0.356 OA
ATOM     19  C   UNL d   1      -8.117  -2.856   1.020  0.00  0.00     0.210 C 
ENDBRANCH  15  18
ENDBRANCH  11  12
BRANCH   2  20
ATOM     20  C   UNL d   1      -0.637   2.934   0.066  0.00  0.00     0.434 C 
ATOM     21  F   UNL d   1       0.634   3.399   0.035  0.00  0.00    -0.165 F 
ATOM     22  F   UNL d   1      -1.264   3.477  -1.015  0.00  0.00    -0.165 F 
ATOM     23  F   UNL d   1      -1.227   3.500   1.155  0.00  0.00    -0.165 F 
ENDBRANCH   2  20
BRANCH   9  24
ATOM     24  C   UNL d   1       3.778  -0.176  -0.039  0.00  0.00     0.103 A 
ATOM     25  O   UNL d   1       4.529  -1.297  -0.260  0.00  0.00    -0.320 OA
ATOM     26  C   UNL d   1       5.831  -0.912  -0.274  0.00  0.00     0.142 A 
ATOM     27  C   UNL d   1       5.939   0.439  -0.045  0.00  0.00     0.027 A 
ATOM     28  C   UNL d   1       4.615   0.915   0.106  0.00  0.00     0.041 A 
ENDBRANCH   9  24
TORSDOF 4
