REMARK  1 active torsions:
REMARK  status: ('A' for Active; 'I' for Inactive)
REMARK    1  A    between atoms: N_12  and  C_3 
ROOT
ATOM      1  C   UNL d   1       0.231  -0.595  -0.005  0.00  0.00     0.136 A 
ATOM      2  C   UNL d   1       0.277   0.796   0.006  0.00  0.00     0.060 A 
ATOM      3  C   UNL d   1       1.675   1.085   0.022  0.00  0.00     0.128 A 
ATOM      4  N   UNL d   1       2.430  -0.012   0.006  0.00  0.00    -0.282 N 
ATOM      5  HN  UNL d   1       3.448  -0.077   0.002  1.00  0.00     0.189 HD
ATOM      6  N   UNL d   1       1.533  -1.015  -0.005  0.00  0.00    -0.279 N 
ATOM      7  N   UNL d   1      -0.858  -1.391  -0.012  0.00  0.00    -0.344 N 
ATOM      8  HN  UNL d   1      -0.804  -2.409  -0.021  1.00  0.00     0.167 HD
ATOM      9  C   UNL d   1      -0.958   1.485   0.006  0.00  0.00    -0.042 A 
ATOM     10  C   UNL d   1      -2.116   0.681   0.002  0.00  0.00     0.032 A 
ATOM     11  C   UNL d   1      -2.026  -0.711  -0.004  0.00  0.00     0.007 A 
ATOM     12  C   UNL d   1       1.980  -2.385  -0.010  0.00  0.00     0.179 C 
ATOM     13  C   UNL d   1      -1.145   2.975   0.013  0.00  0.00     0.049 C 
ATOM     14  C   UNL d   1      -3.276  -1.541   0.002  0.00  0.00     0.068 C 
ENDROOT
BRANCH   3  15
ATOM     15  N   UNL d   1       2.235   2.299   0.058  0.00  0.00    -0.384 N 
ATOM     16  H   UNL d   1       1.736   3.165  -0.066  0.00  0.00     0.157 HD
ATOM     17  H   UNL d   1       3.243   2.359  -0.026  0.00  0.00     0.157 HD
ENDBRANCH   3  15
TORSDOF 1
