REMARK  2 active torsions:
REMARK  status: ('A' for Active; 'I' for Inactive)
REMARK    1  A    between atoms: C_7  and  N_1 
REMARK    2  A    between atoms: S_8  and  C_2 
ROOT
ATOM      1  N   UNL d   1      -0.130  -1.328   0.108  0.00  0.00    -0.218 N 
ATOM      2  C   UNL d   1       1.010  -0.604   0.415  0.00  0.00     0.177 A 
ATOM      3  N   UNL d   1       0.737   0.681   0.335  0.00  0.00    -0.264 N 
ATOM      4  HN  UNL d   1       1.372   1.456   0.528  1.00  0.00     0.186 HD
ATOM      5  N   UNL d   1      -1.100  -0.438  -0.232  0.00  0.00     0.001 NA
ATOM      6  N   UNL d   1      -0.570   0.765  -0.060  0.00  0.00    -0.006 NA
ENDROOT
BRANCH   1   7
ATOM      7  C   UNL d   1      -0.388  -2.724   0.118  0.00  0.00     0.068 A 
ATOM      8  C   UNL d   1      -0.088  -3.505   1.261  0.00  0.00    -0.033 A 
ATOM      9  C   UNL d   1      -0.307  -4.894   1.210  0.00  0.00     0.009 A 
ATOM     10  C   UNL d   1       0.376  -2.958   2.587  0.00  0.00     0.050 C 
ATOM     11  C   UNL d   1      -0.872  -5.492   0.089  0.00  0.00     0.001 A 
ATOM     12  C   UNL d   1      -1.230  -4.712  -1.005  0.00  0.00     0.009 A 
ATOM     13  C   UNL d   1      -0.986  -3.327  -1.019  0.00  0.00    -0.033 A 
ATOM     14  C   UNL d   1      -1.399  -2.583  -2.265  0.00  0.00     0.050 C 
ENDBRANCH   1   7
BRANCH   2  15
ATOM     15  S   UNL d   1       2.586  -1.274   0.689  0.00  0.00    -0.096 SA
ATOM     16  C   UNL d   1       3.403   0.123   1.493  0.00  0.00     0.099 C 
ENDBRANCH   2  15
TORSDOF 2
