REMARK  4 active torsions:
REMARK  status: ('A' for Active; 'I' for Inactive)
REMARK    1  A    between atoms: C_2  and  S_1 
REMARK    2  A    between atoms: N_7  and  S_1 
REMARK       I    between atoms: C_3  and  N_4 
REMARK    3  A    between atoms: C_13  and  C_3 
REMARK    4  A    between atoms: N_4  and  C_5 
ROOT
ATOM      1  C   UNL d   1       0.438   0.725  -1.575  0.00  0.00     0.081 A 
ATOM      2  C   UNL d   1       0.256   2.737  -2.930  0.00  0.00     0.042 A 
ATOM      3  C   UNL d   1       0.534   2.111  -1.710  0.00  0.00     0.055 A 
ATOM      4  C   UNL d   1      -0.214   1.951  -4.004  0.00  0.00    -0.035 A 
ATOM      5  C   UNL d   1      -0.036  -0.055  -2.625  0.00  0.00     0.026 A 
ATOM      6  C   UNL d   1      -0.375   0.561  -3.829  0.00  0.00     0.010 A 
ATOM      7  C   UNL d   1      -0.563   2.536  -5.347  0.00  0.00     0.050 C 
ENDROOT
BRANCH   2   8
ATOM      8  N   UNL d   1       0.446   4.132  -3.111  0.00  0.00    -0.326 N 
ATOM      9  C   UNL d   1       1.112   4.999  -2.253  0.00  0.00     0.226 C 
ATOM     10  O   UNL d   1       1.651   4.663  -1.194  0.00  0.00    -0.273 OA
ATOM     11  H   UNL d   1       0.132   4.522  -3.988  0.00  0.00     0.169 HD
BRANCH   9  12
ATOM     12  C   UNL d   1       1.179   6.464  -2.742  0.00  0.00     0.078 C 
ATOM     13  C   UNL d   1       1.443   6.787  -4.237  0.00  0.00     0.014 C 
ATOM     14  C   UNL d   1       2.306   7.975  -3.768  0.00  0.00     0.002 C 
ATOM     15  C   UNL d   1       2.519   7.208  -2.454  0.00  0.00     0.014 C 
ENDBRANCH   9  12
ENDBRANCH   2   8
BRANCH   1  16
ATOM     16  S   UNL d   1       0.914  -0.031  -0.035  0.00  0.00     0.260 S 
ATOM     17  O   UNL d   1       0.675  -1.454  -0.170  0.00  0.00    -0.200 OA
ATOM     18  O   UNL d   1       0.294   0.728   1.029  0.00  0.00    -0.200 OA
BRANCH  16  19
ATOM     19  N   UNL d   1       2.602   0.195   0.031  0.00  0.00    -0.315 N 
ATOM     20  C   UNL d   1       3.399  -0.489  -1.001  0.00  0.00     0.162 C 
ATOM     21  C   UNL d   1       3.107   1.539   0.364  0.00  0.00     0.162 C 
ENDBRANCH  16  19
ENDBRANCH   1  16
TORSDOF 4
