REMARK  0 active torsions:
REMARK  status: ('A' for Active; 'I' for Inactive)
ROOT
ATOM      1  C   UNL d   1      -2.313  -1.136   0.364  0.00  0.00    -0.054 C 
ATOM      2  C   UNL d   1      -1.635  -0.054   1.208  0.00  0.00     0.071 C 
ATOM      3  C   UNL d   1      -1.139  -2.116   0.444  0.00  0.00     0.071 C 
ATOM      4  C   UNL d   1      -0.025  -1.200  -0.066  0.00  0.00    -0.039 A 
ATOM      5  C   UNL d   1      -0.339   0.100   0.418  0.00  0.00    -0.039 A 
ATOM      6  C   UNL d   1      -1.295  -0.919   2.429  0.00  0.00    -0.016 C 
ATOM      7  C   UNL d   1      -0.998  -2.158   1.970  0.00  0.00    -0.016 C 
ATOM      8  C   UNL d   1      -3.554  -1.236  -0.146  0.00  0.00    -0.083 C 
ATOM      9  C   UNL d   1       0.526   1.160   0.258  0.00  0.00     0.009 A 
ATOM     10  C   UNL d   1       1.161  -1.460  -0.718  0.00  0.00     0.009 A 
ATOM     11  C   UNL d   1      -4.571  -0.134  -0.029  0.00  0.00     0.043 C 
ATOM     12  C   UNL d   1      -4.065  -2.481  -0.818  0.00  0.00     0.043 C 
ATOM     13  C   UNL d   1       1.727   0.905  -0.412  0.00  0.00     0.001 A 
ATOM     14  C   UNL d   1       2.040  -0.385  -0.892  0.00  0.00     0.001 A 
ENDROOT
TORSDOF 0
