REMARK  8 active torsions:
REMARK  status: ('A' for Active; 'I' for Inactive)
REMARK    1  A    between atoms: C_2  and  N_1 
REMARK    2  A    between atoms: C_17  and  C_2 
REMARK    3  A    between atoms: C_18  and  C_2 
REMARK    4  A    between atoms: C_3  and  C_19 
REMARK       I    between atoms: N_12  and  C_3 
REMARK    5  A    between atoms: C_7  and  C_15 
REMARK    6  A    between atoms: S_13  and  C_8 
REMARK    7  A    between atoms: N_9  and  N_12 
REMARK    8  A    between atoms: C_19  and  S_13 
ROOT
ATOM      1  N   UNL d   1       0.206   1.029  -0.159  0.00  0.00     0.104 N 
ATOM      2  C   UNL d   1      -1.037   0.358   0.326  0.00  0.00     0.290 C 
ATOM      3  C   UNL d   1       0.941  -0.223   0.172  0.00  0.00     0.290 C 
ATOM      4  C   UNL d   1      -0.381  -0.995  -0.080  0.00  0.00     0.104 C 
ENDROOT
BRANCH   4   5
ATOM      5  S   UNL d   1      -0.777  -1.410  -1.843  0.00  0.00    -0.151 SA
BRANCH   5   6
ATOM      6  C   UNL d   1       0.713  -2.351  -2.270  0.00  0.00     0.178 C 
BRANCH   6   7
ATOM      7  C   UNL d   1       0.855  -3.661  -1.522  0.00  0.00     0.245 C 
ATOM      8  N   UNL d   1      -0.334  -4.335  -1.290  0.00  0.00    -0.270 N 
ATOM      9  H   UNL d   1      -1.222  -3.904  -1.526  0.00  0.00     0.190 HD
ATOM     10  O   UNL d   1       1.971  -4.096  -1.234  0.00  0.00    -0.271 OA
BRANCH   8  11
ATOM     11  N   UNL d   1      -0.280  -5.587  -0.776  0.00  0.00    -0.308 N 
ATOM     12  C   UNL d   1      -1.395  -6.196  -0.540  0.00  0.00     0.120 C 
ATOM     13  HN  UNL d   1       0.615  -6.037  -0.581  1.00  0.00     0.186 HD
BRANCH  12  14
ATOM     14  C   UNL d   1      -1.370  -7.593  -0.038  0.00  0.00     0.003 A 
ATOM     15  C   UNL d   1      -2.535  -8.298   0.284  0.00  0.00     0.047 A 
ATOM     16  C   UNL d   1      -2.445  -9.622   0.731  0.00  0.00     0.048 A 
ATOM     17 CL   UNL d   1      -4.112  -7.605   0.158  0.00  0.00    -0.083 Cl
ATOM     18  C   UNL d   1      -1.198 -10.238   0.853  0.00  0.00     0.035 A 
ATOM     19  C   UNL d   1      -0.035  -9.543   0.539  0.00  0.00     0.025 A 
ATOM     20 CL   UNL d   1      -1.098 -11.866   1.394  0.00  0.00    -0.084 Cl
ATOM     21  C   UNL d   1      -0.121  -8.223   0.096  0.00  0.00     0.016 A 
ENDBRANCH  12  14
ENDBRANCH   8  11
ENDBRANCH   6   7
ENDBRANCH   5   6
ENDBRANCH   4   5
BRANCH   1  22
ATOM     22  C   UNL d   1       0.626   2.155   0.704  0.00  0.00     0.289 C 
BRANCH  22  23
ATOM     23  C   UNL d   1       1.977   2.716   0.243  0.00  0.00    -0.021 A 
ATOM     24  C   UNL d   1       2.156   3.190  -1.070  0.00  0.00     0.010 A 
ATOM     25  C   UNL d   1       3.364   3.763  -1.468  0.00  0.00     0.001 A 
ATOM     26  C   UNL d   1       4.418   3.863  -0.563  0.00  0.00     0.000 A 
ATOM     27  C   UNL d   1       4.267   3.381   0.736  0.00  0.00     0.001 A 
ATOM     28  C   UNL d   1       3.055   2.811   1.138  0.00  0.00     0.010 A 
ENDBRANCH  22  23
BRANCH  22  29
ATOM     29  C   UNL d   1      -0.416   3.279   0.774  0.00  0.00    -0.021 A 
ATOM     30  C   UNL d   1      -0.513   4.064   1.934  0.00  0.00     0.010 A 
ATOM     31  C   UNL d   1      -1.445   5.100   2.018  0.00  0.00     0.001 A 
ATOM     32  C   UNL d   1      -2.290   5.370   0.943  0.00  0.00     0.000 A 
ATOM     33  C   UNL d   1      -2.195   4.614  -0.220  0.00  0.00     0.001 A 
ATOM     34  C   UNL d   1      -1.262   3.583  -0.311  0.00  0.00     0.010 A 
ENDBRANCH  22  29
ENDBRANCH   1  22
TORSDOF 8
