REMARK  5 active torsions:
REMARK  status: ('A' for Active; 'I' for Inactive)
REMARK    1  A    between atoms: N_2  and  C_1 
REMARK    2  A    between atoms: C_3  and  C_5 
REMARK    3  A    between atoms: C_7  and  C_4 
REMARK       I    between atoms: C_5  and  N_13 
REMARK       I    between atoms: N_15  and  C_7 
REMARK    4  A    between atoms: O_23  and  C_8 
REMARK    5  A    between atoms: N_13  and  N_15 
ROOT
ATOM      1  C   UNL d   1       1.386  -2.494  -0.043  0.00  0.00     0.271 C 
ATOM      2  N   UNL d   1       0.638  -3.646   0.079  0.00  0.00    -0.263 N 
ATOM      3  O   UNL d   1       2.605  -2.522  -0.212  0.00  0.00    -0.266 OA
ATOM      4  H   UNL d   1      -0.349  -3.703   0.323  0.00  0.00     0.190 HD
ENDROOT
BRANCH   1   5
ATOM      5  C   UNL d   1       0.686  -1.186   0.020  0.00  0.00     0.051 A 
ATOM      6  C   UNL d   1       1.435  -0.009  -0.014  0.00  0.00     0.059 A 
ATOM      7  C   UNL d   1       0.777   1.233   0.014  0.00  0.00     0.154 A 
ATOM      8  C   UNL d   1      -0.604   1.305   0.084  0.00  0.00     0.175 A 
ATOM      9  N   UNL d   1      -1.326   0.154   0.118  0.00  0.00    -0.344 N 
ATOM     10  C   UNL d   1      -0.688  -1.046   0.082  0.00  0.00     0.107 A 
ATOM     11  HN  UNL d   1      -2.344   0.191   0.170  1.00  0.00     0.167 HD
BRANCH   7  12
ATOM     12  N   UNL d   1       1.619   2.391  -0.002  0.00  0.00    -0.111 N 
ATOM     13  O   UNL d   1       2.196   2.679   1.052  0.00  0.00    -0.532 OA
ATOM     14  O   UNL d   1       1.742   2.986  -1.081  0.00  0.00    -0.532 OA
ENDBRANCH   7  12
BRANCH   8  15
ATOM     15  O   UNL d   1      -1.442   2.363   0.175  0.00  0.00    -0.339 OA
ATOM     16  C   UNL d   1      -1.017   3.693  -0.048  0.00  0.00     0.211 C 
ENDBRANCH   8  15
ENDBRANCH   1   5
BRANCH   2  17
ATOM     17  N   UNL d   1       1.303  -4.878  -0.014  0.00  0.00    -0.261 N 
ATOM     18  C   UNL d   1       0.666  -6.023   0.429  0.00  0.00     0.295 C 
ATOM     19  O   UNL d   1      -0.466  -5.968   0.910  0.00  0.00    -0.264 OA
ATOM     20  H   UNL d   1       2.272  -4.868  -0.337  0.00  0.00     0.190 HD
BRANCH  18  21
ATOM     21  C   UNL d   1       1.413  -7.245   0.279  0.00  0.00     0.169 A 
ATOM     22  O   UNL d   1       2.591  -7.232  -0.408  0.00  0.00    -0.233 OA
ATOM     23  N   UNL d   1       3.108  -8.516  -0.468  0.00  0.00    -0.272 N 
ATOM     24  C   UNL d   1       2.235  -9.280   0.191  0.00  0.00     0.117 A 
ATOM     25  HN  UNL d   1       3.973  -8.813  -0.920  1.00  0.00     0.194 HD
ATOM     26  C   UNL d   1       1.153  -8.534   0.687  0.00  0.00     0.064 A 
ENDBRANCH  18  21
ENDBRANCH   2  17
TORSDOF 5
