REMARK  5 active torsions:
REMARK  status: ('A' for Active; 'I' for Inactive)
REMARK    1  A    between atoms: C_2  and  C_4 
REMARK    2  A    between atoms: C_12  and  N_3 
REMARK       I    between atoms: C_4  and  N_9 
REMARK    3  A    between atoms: N_10  and  C_6 
REMARK    4  A    between atoms: N_9  and  C_15 
REMARK    5  A    between atoms: C_15  and  C_12 
ROOT
ATOM      1  C   UNL d   1      -3.715  -3.861  -1.526  0.00  0.00     0.253 C 
ATOM      2  O   UNL d   1      -4.565  -3.049  -1.174  0.00  0.00    -0.268 OA
ATOM      3  N   UNL d   1      -2.365  -3.689  -1.282  0.00  0.00    -0.355 N 
ATOM      4  H   UNL d   1      -1.847  -4.554  -1.143  0.00  0.00     0.162 HD
ENDROOT
BRANCH   1   5
ATOM      5  C   UNL d   1      -4.077  -5.141  -2.227  0.00  0.00     0.052 A 
ATOM      6  C   UNL d   1      -5.318  -5.776  -2.015  0.00  0.00     0.021 A 
ATOM      7  C   UNL d   1      -5.578  -6.980  -2.693  0.00  0.00     0.024 A 
ATOM      8  C   UNL d   1      -4.629  -7.557  -3.540  0.00  0.00     0.002 A 
ATOM      9  C   UNL d   1      -3.411  -6.923  -3.752  0.00  0.00     0.001 A 
ATOM     10  C   UNL d   1      -3.136  -5.720  -3.102  0.00  0.00     0.019 A 
BRANCH   6  11
ATOM     11  N   UNL d   1      -6.380  -5.174  -1.320  0.00  0.00    -0.302 NA
ATOM     12  H   UNL d   1      -6.083  -4.364  -0.768  0.00  0.00     0.124 HD
ATOM     13  H   UNL d   1      -6.981  -5.815  -0.816  0.00  0.00     0.124 HD
ENDBRANCH   6  11
ENDBRANCH   1   5
BRANCH   3  14
ATOM     14  C   UNL d   1      -1.837  -2.522  -0.600  0.00  0.00     0.143 C 
BRANCH  14  15
ATOM     15  C   UNL d   1      -1.826  -2.646   0.930  0.00  0.00     0.147 C 
BRANCH  15  16
ATOM     16  N   UNL d   1      -0.888  -3.637   1.449  0.00  0.00    -0.331 N 
ATOM     17  C   UNL d   1      -0.990  -5.012   1.295  0.00  0.00     0.318 C 
ATOM     18  N   UNL d   1       0.068  -5.593   1.974  0.00  0.00    -0.341 N 
ATOM     19  O   UNL d   1      -1.834  -5.636   0.676  0.00  0.00    -0.247 OA
ATOM     20  C   UNL d   1       0.738  -4.617   2.788  0.00  0.00     0.144 C 
ATOM     21  H   UNL d   1       0.045  -6.591   2.144  0.00  0.00     0.164 HD
ATOM     22  C   UNL d   1       0.331  -3.293   2.152  0.00  0.00     0.147 C 
ENDBRANCH  15  16
ENDBRANCH  14  15
ENDBRANCH   3  14
TORSDOF 5
