REMARK  5 active torsions:
REMARK  status: ('A' for Active; 'I' for Inactive)
REMARK       I    between atoms: N_2  and  C_1 
REMARK    1  A    between atoms: C_4  and  N_2 
REMARK    2  A    between atoms: O_10  and  C_5 
REMARK    3  A    between atoms: C_12  and  O_10 
REMARK    4  A    between atoms: C_13  and  C_12 
REMARK    5  A    between atoms: C_14  and  C_13 
ROOT
ATOM      1  C   UNL d   1       0.886  -1.637   1.853  0.00  0.00     0.034 A 
ATOM      2  C   UNL d   1       1.968  -3.163   3.970  0.00  0.00     0.068 A 
ATOM      3  C   UNL d   1       1.955  -1.157   2.610  0.00  0.00     0.032 A 
ATOM      4  C   UNL d   1       0.360  -2.895   2.168  0.00  0.00     0.032 A 
ATOM      5  C   UNL d   1       2.495  -1.913   3.659  0.00  0.00     0.039 A 
ATOM      6  C   UNL d   1       0.904  -3.655   3.214  0.00  0.00     0.039 A 
ENDROOT
BRANCH   1   7
ATOM      7  N   UNL d   1       0.304  -0.920   0.782  0.00  0.00    -0.328 N 
ATOM      8  C   UNL d   1       0.687   0.321   0.307  0.00  0.00     0.218 C 
ATOM      9  O   UNL d   1       1.628   1.003   0.704  0.00  0.00    -0.274 OA
ATOM     10  C   UNL d   1      -0.177   0.833  -0.818  0.00  0.00     0.117 C 
ATOM     11  H   UNL d   1      -0.462  -1.383   0.308  0.00  0.00     0.169 HD
ENDBRANCH   1   7
BRANCH   2  12
ATOM     12  O   UNL d   1       2.440  -3.997   4.949  0.00  0.00    -0.351 OA
BRANCH  12  13
ATOM     13  C   UNL d   1       3.076  -3.349   6.053  0.00  0.00     0.175 C 
BRANCH  13  14
ATOM     14  C   UNL d   1       3.536  -4.412   7.050  0.00  0.00     0.026 C 
BRANCH  14  15
ATOM     15  C   UNL d   1       4.190  -3.767   8.271  0.00  0.00    -0.002 C 
ATOM     16  C   UNL d   1       4.675  -4.804   9.270  0.00  0.00     0.005 C 
ENDBRANCH  14  15
ENDBRANCH  13  14
ENDBRANCH  12  13
ENDBRANCH   2  12
TORSDOF 5
