REMARK  2 active torsions:
REMARK  status: ('A' for Active; 'I' for Inactive)
REMARK    1  A    between atoms: N_8  and  C_7 
REMARK    2  A    between atoms: C_14  and  N_8 
ROOT
ATOM      1  N   UNL d   1       1.052   0.977  -0.014  0.00  0.00    -0.270 N 
ATOM      2  N   UNL d   1      -1.250   0.441   0.064  0.00  0.00    -0.270 N 
ATOM      3  C   UNL d   1      -0.262   1.417   0.039  0.00  0.00     0.333 A 
ATOM      4  C   UNL d   1       0.382  -1.339   0.118  0.00  0.00     0.116 A 
ATOM      5  C   UNL d   1      -1.032  -0.927   0.071  0.00  0.00     0.268 A 
ATOM      6  C   UNL d   1       1.462  -0.342   0.017  0.00  0.00     0.268 A 
ATOM      7  C   UNL d   1       0.666  -2.644   0.288  0.00  0.00     0.111 C 
ATOM      8  O   UNL d   1      -0.541   2.617   0.062  0.00  0.00    -0.246 OA
ATOM      9  O   UNL d   1       2.647  -0.679  -0.025  0.00  0.00    -0.267 OA
ATOM     10  O   UNL d   1      -1.943  -1.753   0.050  0.00  0.00    -0.267 OA
ATOM     11  C   UNL d   1      -2.640   0.865   0.083  0.00  0.00     0.164 C 
ATOM     12  C   UNL d   1       2.116   1.967  -0.070  0.00  0.00     0.164 C 
ENDROOT
BRANCH   7  13
ATOM     13  N   UNL d   1       1.902  -3.243   0.359  0.00  0.00    -0.363 N 
ATOM     14  H   UNL d   1       2.704  -2.629   0.173  0.00  0.00     0.165 HD
BRANCH  13  15
ATOM     15  C   UNL d   1       2.231  -4.580   0.648  0.00  0.00     0.054 A 
ATOM     16  C   UNL d   1       3.487  -5.101   0.269  0.00  0.00     0.062 A 
ATOM     17  C   UNL d   1       3.812  -6.444   0.469  0.00  0.00     0.050 A 
ATOM     18 CL   UNL d   1       4.676  -4.084  -0.477  0.00  0.00    -0.082 Cl
ATOM     19  C   UNL d   1       2.881  -7.290   1.062  0.00  0.00     0.035 A 
ATOM     20  C   UNL d   1       1.640  -6.803   1.461  0.00  0.00     0.026 A 
ATOM     21 CL   UNL d   1       3.262  -8.950   1.301  0.00  0.00    -0.084 Cl
ATOM     22  C   UNL d   1       1.316  -5.459   1.247  0.00  0.00     0.033 A 
ENDBRANCH  13  15
ENDBRANCH   7  13
TORSDOF 2
