REMARK  5 active torsions:
REMARK  status: ('A' for Active; 'I' for Inactive)
REMARK    1  A    between atoms: N_2  and  S_1 
REMARK    2  A    between atoms: C_8  and  S_1 
REMARK    3  A    between atoms: C_5  and  N_4 
REMARK    4  A    between atoms: C_6  and  O_19 
REMARK    5  A    between atoms: O_19  and  C_27 
ROOT
ATOM      1  N   UNL d   1       0.628  -0.439   1.298  0.00  0.00    -0.203 NA
ATOM      2  N   UNL d   1       2.079  -2.765   2.211  0.00  0.00    -0.378 N 
ATOM      3  C   UNL d   1       1.682  -0.301   2.352  0.00  0.00     0.127 C 
ATOM      4  C   UNL d   1      -0.014  -1.782   1.359  0.00  0.00     0.127 C 
ATOM      5  C   UNL d   1       2.732  -1.440   2.287  0.00  0.00     0.138 C 
ATOM      6  C   UNL d   1       1.027  -2.892   1.186  0.00  0.00     0.138 C 
ENDROOT
BRANCH   1   7
ATOM      7  S   UNL d   1       1.031   0.126  -0.254  0.00  0.00     0.243 S 
ATOM      8  O   UNL d   1       0.116  -0.445  -1.214  0.00  0.00    -0.206 OA
ATOM      9  O   UNL d   1       2.467   0.030  -0.424  0.00  0.00    -0.206 OA
BRANCH   7  10
ATOM     10  C   UNL d   1       0.602   1.838  -0.089  0.00  0.00     0.074 A 
ATOM     11  C   UNL d   1       1.564   2.840  -0.209  0.00  0.00     0.027 A 
ATOM     12  C   UNL d   1       1.181   4.182  -0.077  0.00  0.00     0.038 A 
ATOM     13  C   UNL d   1      -0.161   4.509   0.141  0.00  0.00     0.078 A 
ATOM     14  C   UNL d   1      -1.105   3.488   0.290  0.00  0.00     0.038 A 
ATOM     15  C   UNL d   1      -0.734   2.153   0.166  0.00  0.00     0.027 A 
BRANCH  13  16
ATOM     16  O   UNL d   1      -0.688   5.760   0.248  0.00  0.00    -0.255 OA
BRANCH  16  17
ATOM     17  C   UNL d   1       0.001   6.858  -0.326  0.00  0.00     0.530 C 
ATOM     18  F   UNL d   1       0.799   6.511  -1.357  0.00  0.00    -0.144 F 
ATOM     19  F   UNL d   1      -0.916   7.735  -0.792  0.00  0.00    -0.144 F 
ATOM     20  F   UNL d   1       0.739   7.478   0.619  0.00  0.00    -0.144 F 
ENDBRANCH  16  17
ENDBRANCH  13  16
ENDBRANCH   7  10
ENDBRANCH   1   7
BRANCH   2  21
ATOM     21  C   UNL d   1       2.653  -3.877   2.826  0.00  0.00     0.044 A 
ATOM     22  C   UNL d   1       2.816  -5.162   2.217  0.00  0.00     0.017 A 
ATOM     23  C   UNL d   1       3.205  -6.244   3.052  0.00  0.00     0.046 A 
ATOM     24  C   UNL d   1       2.645  -5.449   0.837  0.00  0.00     0.018 A 
ATOM     25  C   UNL d   1       3.277  -7.528   2.533  0.00  0.00     0.054 A 
ATOM     26  N   UNL d   1       3.511  -6.100   4.346  0.00  0.00    -0.365 N 
ATOM     27  C   UNL d   1       3.012  -7.787   1.193  0.00  0.00     0.036 A 
ATOM     28  C   UNL d   1       2.716  -6.747   0.332  0.00  0.00     0.025 A 
ATOM     29 CL   UNL d   1       3.071  -9.399   0.598  0.00  0.00    -0.084 Cl
ATOM     30  C   UNL d   1       3.432  -4.870   4.878  0.00  0.00     0.090 A 
ATOM     31  HN  UNL d   1       3.795  -6.900   4.911  1.00  0.00     0.165 HD
ATOM     32  C   UNL d   1       3.007  -3.759   4.178  0.00  0.00     0.047 A 
ENDBRANCH   2  21
TORSDOF 5
