REMARK  6 active torsions:
REMARK  status: ('A' for Active; 'I' for Inactive)
REMARK    1  A    between atoms: N_4  and  S_1 
REMARK    2  A    between atoms: C_9  and  S_1 
REMARK    3  A    between atoms: C_7  and  C_2 
REMARK    4  A    between atoms: C_3  and  N_4 
REMARK    5  A    between atoms: O_19  and  C_7 
REMARK       I    between atoms: C_12  and  N_13 
REMARK    6  A    between atoms: N_13  and  C_18 
ROOT
ATOM      1  S   UNL d   1       1.025   0.125  -0.116  0.00  0.00     0.245 S 
ATOM      2  O   UNL d   1       0.231  -0.561  -1.115  0.00  0.00    -0.206 OA
ATOM      3  O   UNL d   1       2.463   0.228  -0.232  0.00  0.00    -0.206 OA
ENDROOT
BRANCH   1   4
ATOM      4  N   UNL d   1       0.601  -0.583   1.385  0.00  0.00    -0.179 NA
ATOM      5  H   UNL d   1      -0.335  -0.964   1.236  0.00  0.00     0.146 HD
BRANCH   4   6
ATOM      6  C   UNL d   1       1.496  -1.550   1.913  0.00  0.00     0.052 A 
ATOM      7  C   UNL d   1       2.589  -1.278   2.726  0.00  0.00     0.102 A 
ATOM      8  S   UNL d   1       3.380  -2.731   3.196  0.00  0.00    -0.093 SA
ATOM      9  C   UNL d   1       2.292  -3.699   2.322  0.00  0.00     0.059 A 
ATOM     10  C   UNL d   1       1.326  -2.963   1.665  0.00  0.00    -0.032 A 
ATOM     11  C   UNL d   1       0.283  -3.599   0.802  0.00  0.00     0.050 C 
BRANCH   7  12
ATOM     12  C   UNL d   1       3.064   0.016   3.196  0.00  0.00     0.301 C 
ATOM     13  O   UNL d   1       2.534   1.099   2.972  0.00  0.00    -0.259 OA
BRANCH  12  14
ATOM     14  O   UNL d   1       4.201  -0.113   3.949  0.00  0.00    -0.322 OA
ATOM     15  C   UNL d   1       4.738   1.116   4.436  0.00  0.00     0.213 C 
ENDBRANCH  12  14
ENDBRANCH   7  12
ENDBRANCH   4   6
ENDBRANCH   1   4
BRANCH   1  16
ATOM     16  C   UNL d   1       0.356   1.759   0.066  0.00  0.00     0.075 A 
ATOM     17  C   UNL d   1       1.168   2.806   0.500  0.00  0.00     0.027 A 
ATOM     18  C   UNL d   1       0.628   4.091   0.621  0.00  0.00     0.031 A 
ATOM     19  C   UNL d   1      -0.717   4.340   0.306  0.00  0.00     0.034 A 
ATOM     20  C   UNL d   1      -1.505   3.283  -0.158  0.00  0.00     0.031 A 
ATOM     21  C   UNL d   1      -0.974   1.996  -0.284  0.00  0.00     0.027 A 
BRANCH  19  22
ATOM     22  N   UNL d   1      -1.198   5.654   0.485  0.00  0.00    -0.328 N 
ATOM     23  C   UNL d   1      -2.493   6.102   0.289  0.00  0.00     0.218 C 
ATOM     24  O   UNL d   1      -3.450   5.438  -0.091  0.00  0.00    -0.274 OA
ATOM     25  C   UNL d   1      -2.675   7.567   0.602  0.00  0.00     0.117 C 
ATOM     26  H   UNL d   1      -0.522   6.328   0.820  0.00  0.00     0.169 HD
ENDBRANCH  19  22
ENDBRANCH   1  16
TORSDOF 6
