REMARK  5 active torsions:
REMARK  status: ('A' for Active; 'I' for Inactive)
REMARK    1  A    between atoms: N_4  and  C_8 
REMARK    2  A    between atoms: S_13  and  C_7 
REMARK    3  A    between atoms: C_11  and  C_19 
REMARK       I    between atoms: N_18  and  C_11 
REMARK    4  A    between atoms: C_19  and  S_13 
REMARK    5  A    between atoms: N_20  and  N_18 
ROOT
ATOM      1  S   UNL d   1      -1.525  -1.708   0.048  0.00  0.00     0.177 S 
ATOM      2  C   UNL d   1      -0.057  -0.768   0.068  0.00  0.00     0.069 A 
ATOM      3  C   UNL d   1      -2.637  -0.311  -0.017  0.00  0.00     0.165 A 
ATOM      4  C   UNL d   1      -0.325   0.600   0.026  0.00  0.00    -0.022 A 
ATOM      5  C   UNL d   1       1.217  -1.317   0.043  0.00  0.00     0.060 A 
ATOM      6  C   UNL d   1      -1.787   0.980   0.077  0.00  0.00     0.096 A 
ATOM      7  C   UNL d   1       2.289  -0.426  -0.032  0.00  0.00     0.104 A 
ATOM      8  O   UNL d   1      -1.568  -2.413  -1.214  0.00  0.00    -0.223 OA
ATOM      9  O   UNL d   1      -1.632  -2.372   1.331  0.00  0.00    -0.223 OA
ATOM     10  C   UNL d   1       0.758   1.465  -0.108  0.00  0.00     0.012 A 
ATOM     11  C   UNL d   1       2.064   0.959  -0.117  0.00  0.00     0.037 A 
ENDROOT
BRANCH   6  12
ATOM     12  S   UNL d   1      -2.282   1.844   1.628  0.00  0.00    -0.149 SA
BRANCH  12  13
ATOM     13  C   UNL d   1      -1.471   3.466   1.482  0.00  0.00     0.178 C 
BRANCH  13  14
ATOM     14  C   UNL d   1      -1.777   4.173   0.179  0.00  0.00     0.240 C 
ATOM     15  O   UNL d   1      -0.925   4.362  -0.690  0.00  0.00    -0.271 OA
ATOM     16  N   UNL d   1      -3.087   4.613   0.054  0.00  0.00    -0.293 N 
ATOM     17  H   UNL d   1      -3.803   4.245   0.681  0.00  0.00     0.183 HD
BRANCH  16  18
ATOM     18  N   UNL d   1      -3.490   5.231  -1.150  0.00  0.00    -0.247 NA
ATOM     19  H   UNL d   1      -2.704   5.153  -1.813  0.00  0.00     0.143 HD
ATOM     20  H   UNL d   1      -3.562   6.239  -0.981  0.00  0.00     0.143 HD
ENDBRANCH  16  18
ENDBRANCH  13  14
ENDBRANCH  12  13
ENDBRANCH   6  12
BRANCH   7  21
ATOM     21  N   UNL d   1       3.666  -0.935  -0.037  0.00  0.00    -0.116 N 
ATOM     22  O   UNL d   1       3.826  -2.162  -0.041  0.00  0.00    -0.532 OA
ATOM     23  O   UNL d   1       4.586  -0.104  -0.035  0.00  0.00    -0.532 OA
ENDBRANCH   7  21
TORSDOF 5
