REMARK  0 active torsions:
REMARK  status: ('A' for Active; 'I' for Inactive)
ROOT
ATOM      1  C   UNL d   1      -0.712   1.255   0.003  0.00  0.00     0.048 A 
ATOM      2  C   UNL d   1      -1.405   0.028   0.004  0.00  0.00     0.047 A 
ATOM      3  C   UNL d   1       0.700   1.266   0.001  0.00  0.00     0.047 A 
ATOM      4  C   UNL d   1       0.737  -1.195   0.002  0.00  0.00    -0.025 A 
ATOM      5  C   UNL d   1      -0.682  -1.186   0.004  0.00  0.00     0.037 A 
ATOM      6  C   UNL d   1       1.418   0.046  -0.001  0.00  0.00     0.037 A 
ATOM      7 BR   UNL d   1      -1.690   2.913   0.004  0.00  0.00    -0.048 Br
ATOM      8 BR   UNL d   1      -3.328   0.002   0.006  0.00  0.00    -0.048 Br
ATOM      9 BR   UNL d   1       1.647   2.942   0.001  0.00  0.00    -0.048 Br
ATOM     10 BR   UNL d   1       3.341   0.071  -0.007  0.00  0.00    -0.049 Br
ATOM     11 BR   UNL d   1      -1.617  -2.870   0.005  0.00  0.00    -0.049 Br
ATOM     12  C   UNL d   1       1.468  -2.521   0.004  0.00  0.00     0.050 C 
ENDROOT
TORSDOF 0
