REMARK  4 active torsions:
REMARK  status: ('A' for Active; 'I' for Inactive)
REMARK    1  A    between atoms: C_7  and  C_1 
REMARK    2  A    between atoms: C_9  and  C_3 
REMARK    3  A    between atoms: C_6  and  C_7 
REMARK    4  A    between atoms: N_11  and  C_8 
ROOT
ATOM      1  C   UNL d   1      -0.211  -1.240  -0.031  0.00  0.00     0.046 A 
ATOM      2  C   UNL d   1      -1.508  -0.636  -0.007  0.00  0.00     0.056 A 
ATOM      3  C   UNL d   1      -1.338   0.731   0.059  0.00  0.00     0.086 A 
ATOM      4  C   UNL d   1       0.673  -0.166  -0.018  0.00  0.00     0.064 A 
ATOM      5  O   UNL d   1      -0.007   1.018   0.039  0.00  0.00    -0.314 OA
ATOM      6  C   UNL d   1       2.147  -0.025  -0.031  0.00  0.00     0.077 C 
ENDROOT
BRANCH   1   7
ATOM      7  C   UNL d   1       0.176  -2.652  -0.045  0.00  0.00     0.185 C 
ATOM      8  O   UNL d   1       1.341  -3.026  -0.082  0.00  0.00    -0.287 OA
BRANCH   7   9
ATOM      9  C   UNL d   1      -0.957  -3.625   0.001  0.00  0.00     0.072 C 
ATOM     10  C   UNL d   1      -0.718  -4.944   0.022  0.00  0.00     0.088 C 
BRANCH  10  11
ATOM     11  N   UNL d   1      -1.605  -6.015   0.065  0.00  0.00    -0.398 N 
ATOM     12  C   UNL d   1      -3.061  -5.899   0.083  0.00  0.00     0.148 C 
ATOM     13  C   UNL d   1      -1.126  -7.401   0.088  0.00  0.00     0.148 C 
ENDBRANCH  10  11
ENDBRANCH   7   9
ENDBRANCH   1   7
BRANCH   3  14
ATOM     14  C   UNL d   1      -2.263   1.853   0.180  0.00  0.00    -0.002 A 
ATOM     15  C   UNL d   1      -1.857   3.082   0.722  0.00  0.00     0.014 A 
ATOM     16  C   UNL d   1      -2.782   4.111   0.932  0.00  0.00     0.001 A 
ATOM     17  C   UNL d   1      -4.120   3.929   0.590  0.00  0.00     0.000 A 
ATOM     18  C   UNL d   1      -4.533   2.727   0.022  0.00  0.00     0.001 A 
ATOM     19  C   UNL d   1      -3.609   1.698  -0.183  0.00  0.00     0.014 A 
ENDBRANCH   3  14
TORSDOF 4
