REMARK  5 active torsions:
REMARK  status: ('A' for Active; 'I' for Inactive)
REMARK    1  A    between atoms: C_5  and  C_1 
REMARK    2  A    between atoms: N_2  and  C_4 
REMARK    3  A    between atoms: S_9  and  C_3 
REMARK    4  A    between atoms: C_10  and  S_9 
REMARK    5  A    between atoms: N_18  and  C_14 
ROOT
ATOM      1  C   UNL d   1       0.836   1.186   0.099  0.00  0.00     0.084 A 
ATOM      2  C   UNL d   1      -0.554   1.196   0.016  0.00  0.00     0.089 A 
ATOM      3  C   UNL d   1       0.741  -1.246  -0.036  0.00  0.00     0.119 A 
ATOM      4  C   UNL d   1       1.487  -0.070   0.064  0.00  0.00     0.056 A 
ATOM      5  N   UNL d   1      -1.281   0.042  -0.079  0.00  0.00    -0.357 N 
ATOM      6  HN  UNL d   1      -2.299   0.075  -0.132  1.00  0.00     0.166 HD
ATOM      7  C   UNL d   1      -0.631  -1.147  -0.100  0.00  0.00     0.124 A 
ENDROOT
BRANCH   2   8
ATOM      8  S   UNL d   1      -1.583   2.648   0.067  0.00  0.00    -0.070 SA
BRANCH   8   9
ATOM      9  C   UNL d   1      -1.719   3.052  -1.678  0.00  0.00     0.028 A 
ATOM     10  C   UNL d   1      -2.273   2.171  -2.632  0.00  0.00     0.023 A 
ATOM     11  C   UNL d   1      -2.356   2.589  -3.968  0.00  0.00     0.024 A 
ATOM     12  C   UNL d   1      -1.861   3.831  -4.367  0.00  0.00     0.002 A 
ATOM     13  C   UNL d   1      -1.317   4.697  -3.423  0.00  0.00     0.001 A 
ATOM     14  C   UNL d   1      -1.252   4.312  -2.084  0.00  0.00     0.021 A 
BRANCH  10  15
ATOM     15  N   UNL d   1      -2.960   1.001  -2.257  0.00  0.00    -0.302 NA
ATOM     16  H   UNL d   1      -2.658   0.635  -1.350  0.00  0.00     0.124 HD
ATOM     17  H   UNL d   1      -2.990   0.283  -2.971  0.00  0.00     0.124 HD
ENDBRANCH  10  15
ENDBRANCH   8   9
ENDBRANCH   2   8
BRANCH   1  18
ATOM     18  C   UNL d   1       1.702   2.407   0.226  0.00  0.00     0.420 C 
ATOM     19  F   UNL d   1       1.072   3.603   0.322  0.00  0.00    -0.166 F 
ATOM     20  F   UNL d   1       2.506   2.330   1.326  0.00  0.00    -0.166 F 
ATOM     21  F   UNL d   1       2.555   2.525  -0.832  0.00  0.00    -0.166 F 
ENDBRANCH   1  18
BRANCH   3  22
ATOM     22  N   UNL d   1       1.382  -2.554  -0.067  0.00  0.00    -0.114 N 
ATOM     23  O   UNL d   1       2.618  -2.585  -0.004  0.00  0.00    -0.532 OA
ATOM     24  O   UNL d   1       0.652  -3.549  -0.158  0.00  0.00    -0.532 OA
ENDBRANCH   3  22
TORSDOF 5
