REMARK  6 active torsions:
REMARK  status: ('A' for Active; 'I' for Inactive)
REMARK    1  A    between atoms: S_9  and  C_1 
REMARK    2  A    between atoms: C_10  and  C_4 
REMARK       I    between atoms: C_5  and  N_6 
REMARK    3  A    between atoms: C_16  and  C_5 
REMARK    4  A    between atoms: N_6  and  C_11 
REMARK    5  A    between atoms: C_13  and  S_9 
REMARK    6  A    between atoms: O_18  and  C_10 
ROOT
ATOM      1  C   UNL d   1       3.909   1.801  -1.044  0.00  0.00     0.052 A 
ATOM      2  C   UNL d   1       3.375   2.507   0.057  0.00  0.00     0.035 A 
ATOM      3  C   UNL d   1       5.300   1.633  -1.151  0.00  0.00     0.031 A 
ATOM      4  C   UNL d   1       4.272   3.088   0.975  0.00  0.00     0.021 A 
ATOM      5  C   UNL d   1       5.655   2.958   0.825  0.00  0.00     0.002 A 
ATOM      6  C   UNL d   1       6.169   2.224  -0.236  0.00  0.00     0.002 A 
ENDROOT
BRANCH   2   7
ATOM      7  S   UNL d   1       1.637   2.664   0.486  0.00  0.00    -0.052 SA
BRANCH   7   8
ATOM      8  C   UNL d   1       1.163   0.998   0.877  0.00  0.00     0.150 A 
ATOM      9  N   UNL d   1       1.685   0.005   0.155  0.00  0.00    -0.332 N 
ATOM     10  C   UNL d   1       1.248  -1.240   0.413  0.00  0.00     0.112 A 
ATOM     11  HN  UNL d   1       2.387   0.184  -0.564  1.00  0.00     0.168 HD
ATOM     12  C   UNL d   1       0.312  -1.528   1.383  0.00  0.00     0.060 A 
ATOM     13  C   UNL d   1      -0.171  -0.445   2.087  0.00  0.00     0.009 A 
ATOM     14  N   UNL d   1       0.244   0.818   1.842  0.00  0.00    -0.340 N 
ATOM     15  C   UNL d   1      -1.185  -0.628   3.178  0.00  0.00     0.068 C 
ATOM     16  HN  UNL d   1      -0.127   1.608   2.371  1.00  0.00     0.167 HD
BRANCH  10  17
ATOM     17  C   UNL d   1       1.862  -2.288  -0.461  0.00  0.00     0.309 C 
ATOM     18  O   UNL d   1       2.721  -2.066  -1.305  0.00  0.00    -0.258 OA
BRANCH  17  19
ATOM     19  O   UNL d   1       1.326  -3.510  -0.200  0.00  0.00    -0.321 OA
ATOM     20  C   UNL d   1       1.859  -4.546  -1.027  0.00  0.00     0.213 C 
ENDBRANCH  17  19
ENDBRANCH  10  17
ENDBRANCH   7   8
ENDBRANCH   2   7
BRANCH   1  21
ATOM     21  N   UNL d   1       3.157   1.181  -2.068  0.00  0.00    -0.322 N 
ATOM     22  C   UNL d   1       2.146   1.793  -2.784  0.00  0.00     0.256 C 
ATOM     23  O   UNL d   1       1.813   2.967  -2.649  0.00  0.00    -0.267 OA
ATOM     24  H   UNL d   1       3.572   0.347  -2.457  0.00  0.00     0.169 HD
BRANCH  22  25
ATOM     25  C   UNL d   1       1.492   0.979  -3.866  0.00  0.00     0.032 A 
ATOM     26  C   UNL d   1       1.778  -0.372  -4.115  0.00  0.00     0.017 A 
ATOM     27  C   UNL d   1       1.128  -1.058  -5.149  0.00  0.00     0.001 A 
ATOM     28  C   UNL d   1       0.186  -0.407  -5.941  0.00  0.00     0.000 A 
ATOM     29  C   UNL d   1      -0.109   0.933  -5.704  0.00  0.00     0.001 A 
ATOM     30  C   UNL d   1       0.540   1.620  -4.675  0.00  0.00     0.017 A 
ENDBRANCH  22  25
ENDBRANCH   1  21
TORSDOF 6
