REMARK  2 active torsions:
REMARK  status: ('A' for Active; 'I' for Inactive)
REMARK       I    between atoms: N_2  and  C_1 
REMARK    1  A    between atoms: C_7  and  N_2 
REMARK    2  A    between atoms: C_8  and  C_3 
ROOT
ATOM      1  C   UNL d   1       2.354  -4.799   1.515  0.00  0.00    -0.055 A 
ATOM      2  C   UNL d   1       1.263  -4.896   0.644  0.00  0.00     0.010 A 
ATOM      3  C   UNL d   1       2.735  -3.527   1.960  0.00  0.00     0.010 A 
ATOM      4  C   UNL d   1       0.969  -2.485   0.648  0.00  0.00     0.034 A 
ATOM      5  C   UNL d   1       0.579  -3.753   0.217  0.00  0.00     0.030 A 
ATOM      6  C   UNL d   1       2.055  -2.380   1.523  0.00  0.00     0.030 A 
ENDROOT
BRANCH   4   7
ATOM      7  N   UNL d   1       0.349  -1.296   0.202  0.00  0.00    -0.328 N 
ATOM      8  C   UNL d   1      -0.832  -1.209  -0.513  0.00  0.00     0.218 C 
ATOM      9  O   UNL d   1      -1.624  -2.122  -0.736  0.00  0.00    -0.274 OA
ATOM     10  C   UNL d   1      -1.128   0.179  -1.020  0.00  0.00     0.117 C 
ATOM     11  H   UNL d   1       0.797  -0.431   0.471  0.00  0.00     0.169 HD
ENDBRANCH   4   7
BRANCH   1  12
ATOM     12  C   UNL d   1       3.126  -6.036   1.939  0.00  0.00     0.010 C 
ATOM     13  C   UNL d   1       2.234  -7.048   2.663  0.00  0.00     0.015 C 
ATOM     14  C   UNL d   1       3.813  -6.690   0.735  0.00  0.00     0.015 C 
ENDBRANCH   1  12
TORSDOF 2
