REMARK  5 active torsions:
REMARK  status: ('A' for Active; 'I' for Inactive)
REMARK    1  A    between atoms: C_8  and  C_2 
REMARK    2  A    between atoms: S_9  and  C_5 
REMARK    3  A    between atoms: C_18  and  S_9 
REMARK    4  A    between atoms: C_11  and  C_14 
REMARK    5  A    between atoms: C_14  and  C_18 
ROOT
ATOM      1  N   UNL d   1       0.849   0.030   0.122  0.00  0.00    -0.315 N 
ATOM      2  C   UNL d   1       0.011   1.113  -0.070  0.00  0.00     0.134 A 
ATOM      3  N   UNL d   1      -1.234   0.655  -0.092  0.00  0.00    -0.283 N 
ATOM      4  HN  UNL d   1      -2.073   1.227  -0.195  1.00  0.00     0.188 HD
ATOM      5  C   UNL d   1       0.037  -1.074   0.173  0.00  0.00     0.163 A 
ATOM      6  N   UNL d   1      -1.215  -0.712   0.046  0.00  0.00    -0.278 N 
ATOM      7  HN  UNL d   1      -2.026  -1.331   0.048  1.00  0.00     0.189 HD
ATOM      8  C   UNL d   1       2.281   0.026   0.293  0.00  0.00     0.160 C 
ENDROOT
BRANCH   5   9
ATOM      9  S   UNL d   1       0.636  -2.679   0.390  0.00  0.00    -0.085 SA
BRANCH   9  10
ATOM     10  C   UNL d   1      -0.898  -3.658   0.397  0.00  0.00     0.166 C 
BRANCH  10  11
ATOM     11  C   UNL d   1      -0.611  -5.123   0.709  0.00  0.00     0.169 C 
ATOM     12  O   UNL d   1       0.519  -5.574   0.890  0.00  0.00    -0.291 OA
BRANCH  11  13
ATOM     13  C   UNL d   1      -1.765  -6.073   0.806  0.00  0.00     0.013 A 
ATOM     14  C   UNL d   1      -3.090  -5.681   0.588  0.00  0.00     0.054 A 
ATOM     15  C   UNL d   1      -4.124  -6.611   0.731  0.00  0.00     0.103 A 
ATOM     16  O   UNL d   1      -5.399  -6.141   0.540  0.00  0.00    -0.346 OA
ATOM     17  C   UNL d   1      -3.846  -7.944   1.052  0.00  0.00     0.102 A 
ATOM     18  C   UNL d   1      -6.369  -7.041   1.091  0.00  0.00     0.202 C 
ATOM     19  C   UNL d   1      -6.073  -8.470   0.669  0.00  0.00     0.202 C 
ATOM     20  O   UNL d   1      -4.811  -8.905   1.189  0.00  0.00    -0.346 OA
ATOM     21  C   UNL d   1      -2.530  -8.341   1.268  0.00  0.00     0.040 A 
ATOM     22  C   UNL d   1      -1.495  -7.412   1.146  0.00  0.00     0.018 A 
ENDBRANCH  11  13
ENDBRANCH  10  11
ENDBRANCH   9  10
ENDBRANCH   5   9
BRANCH   2  23
ATOM     23  C   UNL d   1       0.380   2.534  -0.164  0.00  0.00     0.010 A 
ATOM     24  C   UNL d   1      -0.474   3.505   0.386  0.00  0.00     0.027 A 
ATOM     25  C   UNL d   1      -0.150   4.877   0.366  0.00  0.00    -0.025 A 
ATOM     26  C   UNL d   1      -1.005   5.847   0.915  0.00  0.00     0.012 A 
ATOM     27  C   UNL d   1       1.069   5.288  -0.215  0.00  0.00    -0.026 A 
ATOM     28  C   UNL d   1      -0.653   7.201   0.902  0.00  0.00     0.001 A 
ATOM     29  C   UNL d   1       0.560   7.600   0.349  0.00  0.00     0.001 A 
ATOM     30  C   UNL d   1       1.415   6.649  -0.207  0.00  0.00     0.012 A 
ATOM     31  C   UNL d   1       1.901   4.327  -0.802  0.00  0.00     0.013 A 
ATOM     32  C   UNL d   1       1.547   2.974  -0.801  0.00  0.00     0.016 A 
ENDBRANCH   2  23
TORSDOF 5
