REMARK  7 active torsions:
REMARK  status: ('A' for Active; 'I' for Inactive)
REMARK    1  A    between atoms: N_3  and  C_1 
REMARK    2  A    between atoms: N_4  and  C_1 
REMARK    3  A    between atoms: N_2  and  C_13 
REMARK    4  A    between atoms: C_7  and  N_3 
REMARK    5  A    between atoms: C_8  and  N_4 
REMARK    6  A    between atoms: C_13  and  C_8 
REMARK    7  A    between atoms: C_16  and  C_8 
ROOT
ATOM      1  N   UNL d   1       0.417   0.942   0.651  0.00  0.00    -0.357 N 
ATOM      2  H   UNL d   1       0.787   0.201   1.237  0.00  0.00     0.162 HD
ENDROOT
BRANCH   1   3
ATOM      3  C   UNL d   1       1.333   1.404  -0.250  0.00  0.00     0.172 C 
ATOM      4  S   UNL d   1       2.863   0.733  -0.174  0.00  0.00    -0.041 SA
BRANCH   3   5
ATOM      5  N   UNL d   1       0.905   2.404  -1.085  0.00  0.00    -0.332 N 
ATOM      6  H   UNL d   1       0.429   3.160  -0.598  0.00  0.00     0.168 HD
BRANCH   5   7
ATOM      7  C   UNL d   1       1.453   2.762  -2.345  0.00  0.00     0.056 A 
ATOM      8  C   UNL d   1       1.479   4.108  -2.748  0.00  0.00     0.062 A 
ATOM      9  C   UNL d   1       1.996   4.473  -3.996  0.00  0.00     0.050 A 
ATOM     10 CL   UNL d   1       0.908   5.362  -1.702  0.00  0.00    -0.082 Cl
ATOM     11  C   UNL d   1       2.457   3.485  -4.862  0.00  0.00     0.035 A 
ATOM     12  C   UNL d   1       2.402   2.143  -4.496  0.00  0.00     0.026 A 
ATOM     13 CL   UNL d   1       3.083   3.921  -6.404  0.00  0.00    -0.084 Cl
ATOM     14  C   UNL d   1       1.899   1.783  -3.242  0.00  0.00     0.033 A 
ENDBRANCH   5   7
ENDBRANCH   3   5
ENDBRANCH   1   3
BRANCH   1  15
ATOM     15  C   UNL d   1      -1.039   1.104   0.606  0.00  0.00     0.135 C 
BRANCH  15  16
ATOM     16  C   UNL d   1      -1.787  -0.047   1.318  0.00  0.00     0.159 C 
BRANCH  16  17
ATOM     17  N   UNL d   1      -1.525  -1.368   0.785  0.00  0.00    -0.349 N 
ATOM     18  C   UNL d   1      -1.909  -1.837  -0.436  0.00  0.00     0.182 A 
ATOM     19  N   UNL d   1      -1.615  -3.110  -0.576  0.00  0.00    -0.361 N 
ATOM     20  C   UNL d   1      -1.028  -3.479   0.607  0.00  0.00     0.106 A 
ATOM     21  HN  UNL d   1      -1.786  -3.698  -1.391  1.00  0.00     0.166 HD
ATOM     22  C   UNL d   1      -0.955  -2.408   1.468  0.00  0.00     0.108 A 
ENDBRANCH  16  17
ENDBRANCH  15  16
BRANCH  15  23
ATOM     23  C   UNL d   1      -1.458   2.416   1.252  0.00  0.00    -0.034 A 
ATOM     24  C   UNL d   1      -2.291   3.311   0.563  0.00  0.00     0.009 A 
ATOM     25  C   UNL d   1      -2.749   4.474   1.186  0.00  0.00     0.001 A 
ATOM     26  C   UNL d   1      -2.386   4.753   2.502  0.00  0.00     0.000 A 
ATOM     27  C   UNL d   1      -1.550   3.881   3.194  0.00  0.00     0.001 A 
ATOM     28  C   UNL d   1      -1.083   2.723   2.571  0.00  0.00     0.009 A 
ENDBRANCH  15  23
ENDBRANCH   1  15
TORSDOF 7
