REMARK  11 active torsions:
REMARK  status: ('A' for Active; 'I' for Inactive)
REMARK    1  A    between atoms: N_2  and  S_1 
REMARK    2  A    between atoms: C_5  and  S_1 
REMARK    3  A    between atoms: C_6  and  N_2 
REMARK    4  A    between atoms: C_14  and  N_2 
REMARK    5  A    between atoms: C_3  and  O_17 
REMARK       I    between atoms: C_4  and  N_12 
REMARK       I    between atoms: N_13  and  C_4 
REMARK    6  A    between atoms: C_8  and  C_6 
REMARK    7  A    between atoms: C_7  and  C_11 
REMARK       I    between atoms: N_15  and  C_7 
REMARK    8  A    between atoms: C_11  and  C_14 
REMARK    9  A    between atoms: N_12  and  N_15 
REMARK   10  A    between atoms: C_28  and  N_13 
REMARK   11  A    between atoms: O_17  and  C_29 
ROOT
ATOM      1  C   UNL d   1      -1.083   3.681   2.132  0.00  0.00     0.237 C 
ATOM      2  N   UNL d   1      -1.761   4.537   1.290  0.00  0.00    -0.266 N 
ATOM      3  O   UNL d   1      -1.618   3.079   3.063  0.00  0.00    -0.272 OA
ATOM      4  H   UNL d   1      -1.384   4.741   0.355  0.00  0.00     0.190 HD
ENDROOT
BRANCH   1   5
ATOM      5  C   UNL d   1       0.401   3.607   1.873  0.00  0.00     0.120 C 
BRANCH   5   6
ATOM      6  C   UNL d   1       0.840   2.209   1.464  0.00  0.00     0.117 C 
BRANCH   6   7
ATOM      7  N   UNL d   1       0.385   1.736   0.085  0.00  0.00    -0.200 NA
BRANCH   7   8
ATOM      8  S   UNL d   1       0.900   2.804  -1.163  0.00  0.00     0.244 S 
ATOM      9  O   UNL d   1       2.344   2.841  -1.098  0.00  0.00    -0.206 OA
ATOM     10  O   UNL d   1       0.119   4.019  -1.036  0.00  0.00    -0.206 OA
BRANCH   8  11
ATOM     11  C   UNL d   1       0.449   2.083  -2.724  0.00  0.00     0.074 A 
ATOM     12  C   UNL d   1      -0.895   1.857  -3.031  0.00  0.00     0.026 A 
ATOM     13  C   UNL d   1      -1.244   1.447  -4.323  0.00  0.00     0.025 A 
ATOM     14  C   UNL d   1      -0.255   1.279  -5.296  0.00  0.00     0.034 A 
ATOM     15  C   UNL d   1       1.088   1.492  -4.985  0.00  0.00     0.025 A 
ATOM     16 CL   UNL d   1      -0.696   0.841  -6.901  0.00  0.00    -0.084 Cl
ATOM     17  C   UNL d   1       1.444   1.890  -3.695  0.00  0.00     0.026 A 
ENDBRANCH   8  11
ENDBRANCH   7   8
BRANCH   7  18
ATOM     18  C   UNL d   1       0.832   0.316  -0.138  0.00  0.00     0.172 C 
BRANCH  18  19
ATOM     19  C   UNL d   1       0.305  -0.590   0.928  0.00  0.00     0.066 A 
ATOM     20  O   UNL d   1       1.239  -1.232   1.692  0.00  0.00    -0.326 OA
ATOM     21  C   UNL d   1       0.567  -1.941   2.635  0.00  0.00     0.142 A 
ATOM     22  C   UNL d   1      -0.789  -1.770   2.489  0.00  0.00     0.027 A 
ATOM     23  C   UNL d   1      -0.962  -0.906   1.379  0.00  0.00     0.036 A 
ENDBRANCH  18  19
ENDBRANCH   7  18
ENDBRANCH   6   7
ENDBRANCH   5   6
ENDBRANCH   1   5
BRANCH   2  24
ATOM     24  N   UNL d   1      -3.164   4.580   1.406  0.00  0.00    -0.249 N 
ATOM     25  C   UNL d   1      -3.888   4.960   0.289  0.00  0.00     0.339 C 
ATOM     26  N   UNL d   1      -5.239   5.024   0.546  0.00  0.00    -0.308 N 
ATOM     27  O   UNL d   1      -3.334   5.165  -0.791  0.00  0.00    -0.245 OA
ATOM     28  H   UNL d   1      -5.532   4.663   1.443  0.00  0.00     0.170 HD
ATOM     29  H   UNL d   1      -3.514   4.757   2.341  0.00  0.00     0.192 HD
BRANCH  26  30
ATOM     30  C   UNL d   1      -6.261   5.409  -0.347  0.00  0.00     0.036 A 
ATOM     31  C   UNL d   1      -6.025   5.904  -1.631  0.00  0.00     0.032 A 
ATOM     32  C   UNL d   1      -7.087   6.268  -2.474  0.00  0.00     0.039 A 
ATOM     33  C   UNL d   1      -8.403   6.115  -2.050  0.00  0.00     0.078 A 
ATOM     34  C   UNL d   1      -8.641   5.653  -0.753  0.00  0.00     0.039 A 
ATOM     35  C   UNL d   1      -7.582   5.299   0.091  0.00  0.00     0.032 A 
BRANCH  33  36
ATOM     36  O   UNL d   1      -9.530   6.371  -2.769  0.00  0.00    -0.255 OA
BRANCH  36  37
ATOM     37  C   UNL d   1      -9.441   6.532  -4.175  0.00  0.00     0.530 C 
ATOM     38  F   UNL d   1      -8.476   5.774  -4.738  0.00  0.00    -0.144 F 
ATOM     39  F   UNL d   1     -10.622   6.158  -4.719  0.00  0.00    -0.144 F 
ATOM     40  F   UNL d   1      -9.228   7.830  -4.483  0.00  0.00    -0.144 F 
ENDBRANCH  36  37
ENDBRANCH  33  36
ENDBRANCH  26  30
ENDBRANCH   2  24
TORSDOF 11
