REMARK  7 active torsions:
REMARK  status: ('A' for Active; 'I' for Inactive)
REMARK    1  A    between atoms: C_2  and  C_1 
REMARK       I    between atoms: N_13  and  C_2 
REMARK    2  A    between atoms: C_3  and  C_18 
REMARK    3  A    between atoms: C_21  and  C_4 
REMARK    4  A    between atoms: C_5  and  C_11 
REMARK    5  A    between atoms: N_6  and  N_13 
REMARK    6  A    between atoms: C_22  and  C_21 
REMARK    7  A    between atoms: C_23  and  C_22 
ROOT
ATOM      1  C   UNL d   1       2.169   1.119   0.018  0.00  0.00     0.050 A 
ATOM      2  N   UNL d   1       1.886  -1.297   0.021  0.00  0.00    -0.373 N 
ATOM      3  HN  UNL d   1       2.293  -2.233   0.030  1.00  0.00     0.164 HD
ATOM      4  C   UNL d   1       0.772   1.271  -0.021  0.00  0.00     0.040 A 
ATOM      5  C   UNL d   1      -0.050   0.145  -0.023  0.00  0.00     0.034 A 
ATOM      6  C   UNL d   1       2.662  -0.180   0.041  0.00  0.00     0.104 A 
ATOM      7  C   UNL d   1       0.547  -1.105  -0.011  0.00  0.00     0.108 A 
ENDROOT
BRANCH   1   8
ATOM      8  C   UNL d   1       2.999   2.355   0.048  0.00  0.00     0.271 C 
ATOM      9  N   UNL d   1       4.388   2.244   0.007  0.00  0.00    -0.266 N 
ATOM     10  H   UNL d   1       4.862   1.351   0.094  0.00  0.00     0.190 HD
ATOM     11  O   UNL d   1       2.413   3.435   0.104  0.00  0.00    -0.266 OA
BRANCH   9  12
ATOM     12  N   UNL d   1       5.242   3.320   0.108  0.00  0.00    -0.308 N 
ATOM     13  C   UNL d   1       4.861   4.472  -0.362  0.00  0.00     0.126 C 
ATOM     14  HN  UNL d   1       6.158   3.215   0.544  1.00  0.00     0.186 HD
BRANCH  13  15
ATOM     15  C   UNL d   1       5.690   5.633  -0.148  0.00  0.00     0.021 A 
ATOM     16  S   UNL d   1       5.250   7.146  -0.809  0.00  0.00    -0.101 SA
ATOM     17  C   UNL d   1       6.573   7.925  -0.049  0.00  0.00     0.050 A 
ATOM     18  C   UNL d   1       7.363   7.038   0.648  0.00  0.00     0.008 A 
ATOM     19  C   UNL d   1       6.853   5.714   0.586  0.00  0.00     0.021 A 
ENDBRANCH  13  15
ENDBRANCH   9  12
ENDBRANCH   1   8
BRANCH   5  20
ATOM     20  C   UNL d   1      -1.471   0.229  -0.026  0.00  0.00    -0.066 C 
ATOM     21  C   UNL d   1      -2.679   0.166  -0.009  0.00  0.00    -0.101 C 
BRANCH  21  22
ATOM     22  C   UNL d   1      -4.136   0.012   0.006  0.00  0.00     0.094 C 
BRANCH  22  23
ATOM     23  C   UNL d   1      -4.568  -1.199   0.838  0.00  0.00     0.012 C 
BRANCH  23  24
ATOM     24  C   UNL d   1      -6.090  -1.345   0.847  0.00  0.00    -0.004 C 
ATOM     25  C   UNL d   1      -6.542  -2.542   1.669  0.00  0.00     0.005 C 
ENDBRANCH  23  24
ENDBRANCH  22  23
ENDBRANCH  21  22
ENDBRANCH   5  20
TORSDOF 7
