REMARK  5 active torsions:
REMARK  status: ('A' for Active; 'I' for Inactive)
REMARK    1  A    between atoms: C_7  and  N_1 
REMARK    2  A    between atoms: C_8  and  N_3 
REMARK    3  A    between atoms: N_11  and  C_4 
REMARK    4  A    between atoms: C_13  and  C_8 
REMARK    5  A    between atoms: C_14  and  C_13 
ROOT
ATOM      1  N   UNL d   1      -0.585   1.295  -0.042  0.00  0.00    -0.254 N 
ATOM      2  C   UNL d   1      -1.363   0.122  -0.092  0.00  0.00     0.337 C 
ATOM      3  N   UNL d   1      -0.683  -1.093  -0.133  0.00  0.00    -0.266 N 
ATOM      4  C   UNL d   1       0.811   1.269  -0.116  0.00  0.00     0.094 C 
ATOM      5  C   UNL d   1       0.688  -1.173  -0.032  0.00  0.00     0.254 C 
ATOM      6  C   UNL d   1       1.432   0.086  -0.115  0.00  0.00     0.117 C 
ATOM      7  O   UNL d   1      -2.596   0.172  -0.107  0.00  0.00    -0.246 OA
ATOM      8  O   UNL d   1       1.328  -2.212   0.134  0.00  0.00    -0.268 OA
ENDROOT
BRANCH   3   9
ATOM      9  C   UNL d   1      -1.423  -2.366  -0.024  0.00  0.00     0.142 C 
BRANCH   9  10
ATOM     10  C   UNL d   1      -2.743  -2.475  -0.806  0.00  0.00     0.059 C 
BRANCH  10  11
ATOM     11  C   UNL d   1      -3.433  -3.815  -0.706  0.00  0.00    -0.057 A 
ATOM     12  C   UNL d   1      -4.715  -3.888  -0.135  0.00  0.00     0.007 A 
ATOM     13  C   UNL d   1      -5.408  -5.096  -0.091  0.00  0.00     0.001 A 
ATOM     14  C   UNL d   1      -4.827  -6.247  -0.613  0.00  0.00     0.000 A 
ATOM     15  C   UNL d   1      -3.552  -6.190  -1.178  0.00  0.00     0.001 A 
ATOM     16  C   UNL d   1      -2.857  -4.978  -1.228  0.00  0.00     0.007 A 
ENDBRANCH  10  11
ENDBRANCH   9  10
ENDBRANCH   3   9
BRANCH   1  17
ATOM     17  C   UNL d   1      -1.311   2.540   0.006  0.00  0.00     0.051 A 
ATOM     18  C   UNL d   1      -2.223   2.842   1.043  0.00  0.00    -0.035 A 
ATOM     19  C   UNL d   1      -2.496   1.945   2.222  0.00  0.00     0.050 C 
ATOM     20  C   UNL d   1      -2.922   4.063   1.000  0.00  0.00     0.009 A 
ATOM     21  C   UNL d   1      -2.720   4.973  -0.037  0.00  0.00     0.001 A 
ATOM     22  C   UNL d   1      -1.817   4.679  -1.051  0.00  0.00     0.002 A 
ATOM     23  C   UNL d   1      -1.117   3.473  -1.030  0.00  0.00     0.031 A 
ENDBRANCH   1  17
BRANCH   4  24
ATOM     24  N   UNL d   1       1.581   2.424  -0.134  0.00  0.00    -0.288 NA
ATOM     25  H   UNL d   1       1.119   3.208   0.321  0.00  0.00     0.125 HD
ATOM     26  H   UNL d   1       2.536   2.303   0.190  0.00  0.00     0.125 HD
ENDBRANCH   4  24
TORSDOF 5
