REMARK  6 active torsions:
REMARK  status: ('A' for Active; 'I' for Inactive)
REMARK    1  A    between atoms: C_8  and  C_2 
REMARK    2  A    between atoms: S_9  and  C_5 
REMARK    3  A    between atoms: C_13  and  S_9 
REMARK    4  A    between atoms: C_10  and  C_13 
REMARK    5  A    between atoms: C_19  and  C_10 
REMARK    6  A    between atoms: C_11  and  C_12 
ROOT
ATOM      1  O   UNL d   1      -0.585  -0.140  -0.951  0.00  0.00    -0.267 OA
ATOM      2  C   UNL d   1      -0.218  -1.003   0.049  0.00  0.00     0.175 A 
ATOM      3  N   UNL d   1       0.521  -0.420   0.974  0.00  0.00    -0.277 N 
ATOM      4  HN  UNL d   1       0.899  -0.855   1.816  1.00  0.00     0.189 HD
ATOM      5  C   UNL d   1       0.033   1.020  -0.560  0.00  0.00     0.204 A 
ATOM      6  N   UNL d   1       0.680   0.888   0.581  0.00  0.00    -0.272 N 
ATOM      7  HN  UNL d   1       1.198   1.615   1.075  1.00  0.00     0.189 HD
ENDROOT
BRANCH   2   8
ATOM      8  C   UNL d   1      -0.653  -2.391  -0.041  0.00  0.00     0.017 A 
ATOM      9  C   UNL d   1      -1.453  -2.876  -1.080  0.00  0.00     0.016 A 
ATOM     10  C   UNL d   1      -1.832  -4.228  -1.121  0.00  0.00     0.009 A 
ATOM     11  C   UNL d   1      -1.428  -5.141  -0.126  0.00  0.00    -0.051 A 
ATOM     12  C   UNL d   1      -0.626  -4.640   0.909  0.00  0.00     0.009 A 
ATOM     13  C   UNL d   1      -0.248  -3.292   0.951  0.00  0.00     0.016 A 
BRANCH  11  14
ATOM     14  C   UNL d   1      -1.865  -6.617  -0.186  0.00  0.00    -0.024 C 
ATOM     15  C   UNL d   1      -1.331  -7.470   0.989  0.00  0.00     0.019 C 
ATOM     16  C   UNL d   1      -3.405  -6.704  -0.149  0.00  0.00     0.019 C 
ATOM     17  C   UNL d   1      -1.352  -7.269  -1.488  0.00  0.00     0.019 C 
ENDBRANCH  11  14
ENDBRANCH   2   8
BRANCH   5  18
ATOM     18  S   UNL d   1      -0.034   2.498  -1.470  0.00  0.00    -0.077 SA
BRANCH  18  19
ATOM     19  C   UNL d   1       1.572   3.219  -0.997  0.00  0.00     0.166 C 
BRANCH  19  20
ATOM     20  C   UNL d   1       2.736   2.344  -1.437  0.00  0.00     0.169 C 
ATOM     21  O   UNL d   1       2.662   1.521  -2.348  0.00  0.00    -0.291 OA
BRANCH  20  22
ATOM     22  C   UNL d   1       4.040   2.509  -0.739  0.00  0.00     0.010 A 
ATOM     23  C   UNL d   1       4.902   1.406  -0.678  0.00  0.00     0.015 A 
ATOM     24  C   UNL d   1       6.142   1.516  -0.047  0.00  0.00     0.001 A 
ATOM     25  C   UNL d   1       6.530   2.729   0.515  0.00  0.00     0.000 A 
ATOM     26  C   UNL d   1       5.681   3.835   0.450  0.00  0.00     0.001 A 
ATOM     27  C   UNL d   1       4.434   3.728  -0.175  0.00  0.00     0.015 A 
ENDBRANCH  20  22
ENDBRANCH  19  20
ENDBRANCH  18  19
ENDBRANCH   5  18
TORSDOF 6
