REMARK  4 active torsions:
REMARK  status: ('A' for Active; 'I' for Inactive)
REMARK    1  A    between atoms: C_2  and  S_1 
REMARK    2  A    between atoms: N_3  and  S_1 
REMARK       I    between atoms: C_4  and  N_5 
REMARK    3  A    between atoms: O_9  and  C_4 
REMARK    4  A    between atoms: C_14  and  O_9 
ROOT
ATOM      1  N   UNL d   1       0.349   0.595   1.298  0.00  0.00    -0.205 NA
ATOM      2  C   UNL d   1      -2.247   2.778   3.527  0.00  0.00     0.363 C 
ATOM      3  N   UNL d   1      -1.079   2.028   3.573  0.00  0.00    -0.327 N 
ATOM      4  C   UNL d   1       0.162   2.079   1.393  0.00  0.00     0.127 C 
ATOM      5  C   UNL d   1       0.090   2.532   2.855  0.00  0.00     0.143 C 
ATOM      6  O   UNL d   1      -2.345   3.789   2.839  0.00  0.00    -0.238 OA
ATOM      7  C   UNL d   1      -0.831  -0.466   3.198  0.00  0.00     0.035 C 
ATOM      8  C   UNL d   1      -0.884  -0.142   1.708  0.00  0.00     0.109 C 
ATOM      9  C   UNL d   1      -0.965   0.708   4.179  0.00  0.00     0.129 C 
ENDROOT
BRANCH   1  10
ATOM     10  S   UNL d   1       1.015   0.063  -0.190  0.00  0.00     0.245 S 
ATOM     11  O   UNL d   1       1.063  -1.379  -0.213  0.00  0.00    -0.206 OA
ATOM     12  O   UNL d   1       0.325   0.791  -1.238  0.00  0.00    -0.206 OA
BRANCH  10  13
ATOM     13  C   UNL d   1       2.692   0.642  -0.137  0.00  0.00     0.098 A 
ATOM     14  C   UNL d   1       3.117   1.552  -1.120  0.00  0.00     0.050 A 
ATOM     15  C   UNL d   1       4.437   1.996  -1.127  0.00  0.00     0.035 A 
ATOM     16 CL   UNL d   1       4.959   3.118  -2.322  0.00  0.00    -0.084 Cl
ATOM     17  C   UNL d   1       5.341   1.536  -0.174  0.00  0.00     0.025 A 
ATOM     18  C   UNL d   1       4.920   0.625   0.797  0.00  0.00     0.027 A 
ATOM     19  C   UNL d   1       3.593   0.172   0.822  0.00  0.00     0.057 A 
ATOM     20 CL   UNL d   1       3.184  -0.936   2.080  0.00  0.00    -0.083 Cl
ENDBRANCH  10  13
ENDBRANCH   1  10
BRANCH   2  21
ATOM     21  O   UNL d   1      -3.244   2.296   4.318  0.00  0.00    -0.294 OA
BRANCH  21  22
ATOM     22  C   UNL d   1      -4.532   2.980   4.366  0.00  0.00     0.061 C 
ATOM     23  C   UNL d   1      -5.193   2.993   2.981  0.00  0.00     0.046 C 
ATOM     24  C   UNL d   1      -5.408   2.156   5.327  0.00  0.00     0.046 C 
ATOM     25  C   UNL d   1      -4.409   4.399   4.942  0.00  0.00     0.046 C 
ENDBRANCH  21  22
ENDBRANCH   2  21
TORSDOF 4
