REMARK  6 active torsions:
REMARK  status: ('A' for Active; 'I' for Inactive)
REMARK    1  A    between atoms: C_3  and  C_1 
REMARK    2  A    between atoms: C_2  and  C_4 
REMARK       I    between atoms: N_11  and  C_3 
REMARK    3  A    between atoms: C_4  and  O_12 
REMARK    4  A    between atoms: C_23  and  N_11 
REMARK    5  A    between atoms: O_12  and  C_24 
REMARK    6  A    between atoms: C_24  and  C_23 
ROOT
ATOM      1  C   UNL d   1      -0.790   4.710   0.002  0.00  0.00     0.149 C 
ENDROOT
BRANCH   1   2
ATOM      2  N   UNL d   1      -0.975   3.270  -0.035  0.00  0.00    -0.355 N 
ATOM      3  C   UNL d   1      -1.168   2.534   1.116  0.00  0.00     0.256 C 
ATOM      4  O   UNL d   1      -1.237   3.054   2.223  0.00  0.00    -0.268 OA
ATOM      5  H   UNL d   1      -1.069   2.826  -0.941  0.00  0.00     0.162 HD
BRANCH   3   6
ATOM      6  C   UNL d   1      -1.304   1.060   0.955  0.00  0.00     0.092 A 
ATOM      7  C   UNL d   1      -1.977   0.545  -0.157  0.00  0.00     0.133 A 
ATOM      8  F   UNL d   1      -2.476   1.362  -1.098  0.00  0.00    -0.205 F 
ATOM      9  C   UNL d   1      -2.155  -0.827  -0.336  0.00  0.00     0.043 A 
ATOM     10  C   UNL d   1      -1.658  -1.718   0.611  0.00  0.00     0.005 A 
ATOM     11  C   UNL d   1      -0.979  -1.226   1.724  0.00  0.00     0.025 A 
ATOM     12  C   UNL d   1      -0.798   0.157   1.901  0.00  0.00     0.052 A 
ATOM     13 CL   UNL d   1       0.128   0.630   3.283  0.00  0.00    -0.083 Cl
ENDBRANCH   3   6
ENDBRANCH   1   2
BRANCH   1  14
ATOM     14  C   UNL d   1      -2.099   5.490   0.123  0.00  0.00     0.198 C 
BRANCH  14  15
ATOM     15  O   UNL d   1      -1.836   6.905   0.192  0.00  0.00    -0.316 OA
BRANCH  15  16
ATOM     16  C   UNL d   1      -1.765   7.551  -0.997  0.00  0.00     0.298 C 
ATOM     17  O   UNL d   1      -1.828   7.032  -2.098  0.00  0.00    -0.259 OA
BRANCH  16  18
ATOM     18  C   UNL d   1      -1.576   8.996  -0.768  0.00  0.00     0.099 A 
ATOM     19  C   UNL d   1      -2.364   9.647   0.186  0.00  0.00     0.134 A 
ATOM     20  F   UNL d   1      -3.275   8.975   0.905  0.00  0.00    -0.205 F 
ATOM     21  C   UNL d   1      -2.254  11.021   0.400  0.00  0.00     0.043 A 
ATOM     22  C   UNL d   1      -1.357  11.770  -0.354  0.00  0.00     0.005 A 
ATOM     23  C   UNL d   1      -0.568  11.136  -1.315  0.00  0.00     0.025 A 
ATOM     24  C   UNL d   1      -0.671   9.753  -1.522  0.00  0.00     0.053 A 
ATOM     25 CL   UNL d   1       0.391   9.060  -2.697  0.00  0.00    -0.083 Cl
ENDBRANCH  16  18
ENDBRANCH  15  16
ENDBRANCH  14  15
ENDBRANCH   1  14
TORSDOF 6
