REMARK  9 active torsions:
REMARK  status: ('A' for Active; 'I' for Inactive)
REMARK       I    between atoms: N_2  and  C_1 
REMARK       I    between atoms: N_3  and  C_1 
REMARK    1  A    between atoms: C_9  and  N_2 
REMARK    2  A    between atoms: C_13  and  N_3 
REMARK    3  A    between atoms: C_4  and  C_5 
REMARK    4  A    between atoms: O_10  and  C_14 
REMARK    5  A    between atoms: C_12  and  O_10 
REMARK    6  A    between atoms: C_11  and  C_13 
REMARK    7  A    between atoms: C_14  and  C_11 
REMARK    8  A    between atoms: O_22  and  C_11 
REMARK    9  A    between atoms: O_23  and  C_15 
ROOT
ATOM      1  C   UNL d   1       1.094  -0.012  -0.027  0.00  0.00     0.320 C 
ATOM      2  N   UNL d   1       0.498   0.239  -1.228  0.00  0.00    -0.309 N 
ATOM      3  N   UNL d   1       0.273  -0.037   1.056  0.00  0.00    -0.340 N 
ATOM      4  O   UNL d   1       2.291  -0.209   0.175  0.00  0.00    -0.247 OA
ATOM      5  H   UNL d   1      -0.440   0.598  -1.202  0.00  0.00     0.170 HD
ATOM      6  H   UNL d   1       0.773  -0.329   1.893  0.00  0.00     0.164 HD
ENDROOT
BRANCH   3   7
ATOM      7  C   UNL d   1      -1.173  -0.030   1.134  0.00  0.00     0.158 C 
BRANCH   7   8
ATOM      8  C   UNL d   1      -1.629  -0.183   2.591  0.00  0.00     0.160 C 
BRANCH   8   9
ATOM      9  C   UNL d   1      -3.155  -0.125   2.689  0.00  0.00     0.209 C 
BRANCH   9  10
ATOM     10  O   UNL d   1      -3.539  -0.203   4.063  0.00  0.00    -0.349 OA
BRANCH  10  11
ATOM     11  C   UNL d   1      -4.882  -0.223   4.320  0.00  0.00     0.069 A 
ATOM     12  C   UNL d   1      -5.894  -0.052   3.376  0.00  0.00     0.039 A 
ATOM     13  C   UNL d   1      -7.238  -0.092   3.762  0.00  0.00     0.039 A 
ATOM     14  C   UNL d   1      -7.583  -0.299   5.097  0.00  0.00     0.068 A 
ATOM     15  C   UNL d   1      -6.569  -0.466   6.042  0.00  0.00     0.039 A 
ATOM     16  C   UNL d   1      -5.227  -0.427   5.656  0.00  0.00     0.039 A 
BRANCH  14  17
ATOM     17  O   UNL d   1      -8.855  -0.352   5.594  0.00  0.00    -0.356 OA
ATOM     18  C   UNL d   1      -9.913  -0.206   4.654  0.00  0.00     0.210 C 
ENDBRANCH  14  17
ENDBRANCH  10  11
ENDBRANCH   9  10
ENDBRANCH   8   9
BRANCH   8  19
ATOM     19  O   UNL d   1      -1.119  -1.424   3.105  0.00  0.00    -0.392 OA
ATOM     20  H   UNL d   1      -1.595  -2.158   2.680  0.00  0.00     0.210 HD
ENDBRANCH   8  19
ENDBRANCH   7   8
ENDBRANCH   3   7
BRANCH   2  21
ATOM     21  C   UNL d   1       1.146   0.266  -2.485  0.00  0.00     0.036 A 
ATOM     22  C   UNL d   1       2.420  -0.253  -2.700  0.00  0.00     0.030 A 
ATOM     23  C   UNL d   1       3.026  -0.162  -3.957  0.00  0.00     0.010 A 
ATOM     24  C   UNL d   1       2.379   0.446  -5.046  0.00  0.00    -0.051 A 
ATOM     25  C   UNL d   1       1.086   0.944  -4.821  0.00  0.00     0.010 A 
ATOM     26  C   UNL d   1       0.473   0.845  -3.562  0.00  0.00     0.030 A 
BRANCH  24  27
ATOM     27  C   UNL d   1       3.092   0.536  -6.405  0.00  0.00    -0.024 C 
ATOM     28  C   UNL d   1       2.241   1.215  -7.501  0.00  0.00     0.019 C 
ATOM     29  C   UNL d   1       4.396   1.352  -6.261  0.00  0.00     0.019 C 
ATOM     30  C   UNL d   1       3.443  -0.881  -6.908  0.00  0.00     0.019 C 
ENDBRANCH  24  27
ENDBRANCH   2  21
TORSDOF 9
