REMARK  4 active torsions:
REMARK  status: ('A' for Active; 'I' for Inactive)
REMARK    1  A    between atoms: N_2  and  C_1 
REMARK    2  A    between atoms: N_3  and  C_1 
REMARK    3  A    between atoms: C_8  and  N_2 
REMARK    4  A    between atoms: C_10  and  N_3 
ROOT
ATOM      1  C   UNL d   1       1.157  -0.486   0.148  0.00  0.00     0.176 C 
ATOM      2  S   UNL d   1       2.723  -0.695   0.706  0.00  0.00    -0.041 SA
ENDROOT
BRANCH   1   3
ATOM      3  N   UNL d   1       0.746  -0.619  -1.153  0.00  0.00    -0.333 N 
ATOM      4  H   UNL d   1       0.159   0.143  -1.472  0.00  0.00     0.168 HD
BRANCH   3   5
ATOM      5  C   UNL d   1       1.212  -1.524  -2.127  0.00  0.00     0.035 A 
ATOM      6  C   UNL d   1       1.702  -2.789  -1.792  0.00  0.00     0.055 A 
ATOM      7  C   UNL d   1       2.114  -3.678  -2.790  0.00  0.00     0.058 A 
ATOM      8 CL   UNL d   1       2.679  -5.235  -2.296  0.00  0.00    -0.082 Cl
ATOM      9  C   UNL d   1       2.039  -3.300  -4.134  0.00  0.00     0.055 A 
ATOM     10  C   UNL d   1       1.518  -2.048  -4.472  0.00  0.00     0.028 A 
ATOM     11 CL   UNL d   1       2.562  -4.329  -5.418  0.00  0.00    -0.083 Cl
ATOM     12  C   UNL d   1       1.086  -1.171  -3.473  0.00  0.00     0.031 A 
ENDBRANCH   3   5
ENDBRANCH   1   3
BRANCH   1  13
ATOM     13  N   UNL d   1       0.233  -0.016   1.041  0.00  0.00    -0.333 N 
ATOM     14  H   UNL d   1       0.651   0.296   1.913  0.00  0.00     0.168 HD
BRANCH  13  15
ATOM     15  C   UNL d   1      -1.178  -0.087   1.035  0.00  0.00     0.034 A 
ATOM     16  C   UNL d   1      -1.924  -0.808   0.101  0.00  0.00     0.036 A 
ATOM     17  C   UNL d   1      -3.328  -0.869   0.172  0.00  0.00    -0.054 A 
ATOM     18  C   UNL d   1      -4.078  -1.657  -0.869  0.00  0.00     0.049 C 
ATOM     19  C   UNL d   1      -3.996  -0.206   1.216  0.00  0.00    -0.056 A 
ATOM     20  C   UNL d   1      -3.244   0.491   2.170  0.00  0.00     0.009 A 
ATOM     21  C   UNL d   1      -5.495  -0.243   1.335  0.00  0.00     0.049 C 
ATOM     22  C   UNL d   1      -1.851   0.548   2.081  0.00  0.00     0.030 A 
ENDBRANCH  13  15
ENDBRANCH   1  13
TORSDOF 4
