REMARK  2 active torsions:
REMARK  status: ('A' for Active; 'I' for Inactive)
REMARK    1  A    between atoms: C_7  and  C_1 
REMARK    2  A    between atoms: O_11  and  C_10 
ROOT
ATOM      1  C   UNL d   1       1.721   1.599   0.003  0.00  0.00     0.121 A 
ATOM      2  N   UNL d   1       2.163   0.295   0.002  0.00  0.00    -0.308 N 
ATOM      3  N   UNL d   1       0.460   1.908  -0.023  0.00  0.00    -0.341 N 
ATOM      4  HN  UNL d   1       0.159   2.883  -0.054  1.00  0.00     0.167 HD
ATOM      5  C   UNL d   1       1.328  -0.791  -0.018  0.00  0.00     0.259 A 
ATOM      6  C   UNL d   1      -0.110  -0.486  -0.011  0.00  0.00     0.059 A 
ATOM      7  C   UNL d   1      -0.481   0.861  -0.008  0.00  0.00     0.049 A 
ATOM      8  O   UNL d   1       1.757  -1.939  -0.044  0.00  0.00    -0.267 OA
ATOM      9  C   UNL d   1      -1.064  -1.508  -0.007  0.00  0.00     0.019 A 
ATOM     10  C   UNL d   1      -1.841   1.175   0.013  0.00  0.00     0.030 A 
ATOM     11  C   UNL d   1      -2.418  -1.179   0.005  0.00  0.00     0.001 A 
ATOM     12  C   UNL d   1      -2.806   0.162   0.019  0.00  0.00     0.002 A 
ATOM     13  H   UNL d   1       3.145   0.068  -0.057  0.00  0.00     0.170 HD
ENDROOT
BRANCH   1  14
ATOM     14  C   UNL d   1       2.757   2.669   0.005  0.00  0.00     0.041 A 
ATOM     15  C   UNL d   1       2.479   3.924  -0.555  0.00  0.00     0.079 A 
ATOM     16  C   UNL d   1       3.449   4.924  -0.575  0.00  0.00     0.037 A 
ATOM     17  C   UNL d   1       4.704   4.688  -0.014  0.00  0.00     0.003 A 
ATOM     18  C   UNL d   1       4.986   3.454   0.569  0.00  0.00     0.001 A 
ATOM     19  C   UNL d   1       4.017   2.447   0.583  0.00  0.00     0.018 A 
BRANCH  15  20
ATOM     20  O   UNL d   1       1.268   4.244  -1.109  0.00  0.00    -0.360 OA
ATOM     21  H   UNL d   1       0.638   3.527  -0.870  0.00  0.00     0.217 HD
ENDBRANCH  15  20
ENDBRANCH   1  14
TORSDOF 2
