REMARK  1 active torsions:
REMARK  status: ('A' for Active; 'I' for Inactive)
REMARK    1  A    between atoms: C_8  and  N_5 
ROOT
ATOM      1  C   UNL d   1       1.678   0.021   0.130  0.00  0.00     0.141 C 
ATOM      2  N   UNL d   1       1.399  -1.217  -0.093  0.00  0.00    -0.369 N 
ATOM      3  HN  UNL d   1       2.065  -1.984   0.008  1.00  0.00     0.161 HD
ATOM      4  S   UNL d   1       0.342   1.153   0.009  0.00  0.00    -0.083 SA
ATOM      5  N   UNL d   1       2.870   0.573   0.493  0.00  0.00    -0.337 N 
ATOM      6  C   UNL d   1      -0.850  -0.223   0.006  0.00  0.00     0.024 C 
ATOM      7  C   UNL d   1       0.001  -1.384  -0.513  0.00  0.00     0.142 C 
ATOM      8  C   UNL d   1      -1.339  -0.469   1.436  0.00  0.00     0.029 C 
ATOM      9  C   UNL d   1      -2.024   0.062  -0.928  0.00  0.00     0.029 C 
ATOM     10  H   UNL d   1       2.850   1.556   0.730  0.00  0.00     0.168 HD
ENDROOT
BRANCH   5  11
ATOM     11  C   UNL d   1       4.138  -0.030   0.453  0.00  0.00     0.034 A 
ATOM     12  C   UNL d   1       4.397  -1.201  -0.274  0.00  0.00     0.031 A 
ATOM     13  C   UNL d   1       5.649  -1.821  -0.236  0.00  0.00     0.026 A 
ATOM     14  C   UNL d   1       6.660  -1.282   0.550  0.00  0.00     0.034 A 
ATOM     15  C   UNL d   1       6.428  -0.125   1.288  0.00  0.00     0.026 A 
ATOM     16 CL   UNL d   1       8.195  -2.054   0.614  0.00  0.00    -0.084 Cl
ATOM     17  C   UNL d   1       5.173   0.495   1.240  0.00  0.00     0.031 A 
ENDBRANCH   5  11
TORSDOF 1
