REMARK  5 active torsions:
REMARK  status: ('A' for Active; 'I' for Inactive)
REMARK       I    between atoms: C_2  and  N_1 
REMARK    1  A    between atoms: O_7  and  C_2 
REMARK    2  A    between atoms: C_3  and  C_5 
REMARK       I    between atoms: N_10  and  C_5 
REMARK    3  A    between atoms: C_17  and  O_7 
REMARK    4  A    between atoms: C_19  and  N_10 
REMARK    5  A    between atoms: C_12  and  C_19 
ROOT
ATOM      1  N   UNL d   1       2.267   0.607   0.212  0.00  0.00    -0.310 N 
ATOM      2  C   UNL d   1       3.484   1.262   0.330  0.00  0.00     0.364 C 
ATOM      3  C   UNL d   1       2.211  -0.832   0.584  0.00  0.00     0.186 C 
ATOM      4  C   UNL d   1       1.168   1.160  -0.577  0.00  0.00     0.168 C 
ATOM      5  C   UNL d   1       1.141  -1.622  -0.202  0.00  0.00     0.074 C 
ATOM      6  C   UNL d   1      -0.152   0.502  -0.260  0.00  0.00    -0.034 A 
ATOM      7  C   UNL d   1      -0.179  -0.897  -0.130  0.00  0.00    -0.048 A 
ATOM      8  O   UNL d   1       4.463   0.735   0.836  0.00  0.00    -0.238 OA
ATOM      9  C   UNL d   1      -1.388  -1.563   0.088  0.00  0.00     0.008 A 
ATOM     10  C   UNL d   1      -1.339   1.228  -0.132  0.00  0.00     0.009 A 
ATOM     11  C   UNL d   1      -2.540   0.562   0.117  0.00  0.00     0.001 A 
ATOM     12  C   UNL d   1      -2.567  -0.830   0.214  0.00  0.00     0.001 A 
ENDROOT
BRANCH   3  13
ATOM     13  C   UNL d   1       1.988  -1.092   2.097  0.00  0.00     0.241 C 
ATOM     14  N   UNL d   1       1.837   0.014   2.896  0.00  0.00    -0.355 N 
ATOM     15  H   UNL d   1       1.947   0.933   2.487  0.00  0.00     0.162 HD
ATOM     16  O   UNL d   1       1.936  -2.235   2.555  0.00  0.00    -0.271 OA
BRANCH  14  17
ATOM     17  C   UNL d   1       1.596  -0.122   4.312  0.00  0.00     0.168 C 
BRANCH  17  18
ATOM     18  C   UNL d   1       1.412   1.237   4.903  0.00  0.00     0.000 A 
ATOM     19  S   UNL d   1      -0.154   1.924   5.025  0.00  0.00    -0.105 SA
ATOM     20  C   UNL d   1       0.463   3.365   5.709  0.00  0.00     0.050 A 
ATOM     21  C   UNL d   1       1.831   3.323   5.854  0.00  0.00     0.008 A 
ATOM     22  C   UNL d   1       2.379   2.089   5.402  0.00  0.00     0.017 A 
ENDBRANCH  17  18
ENDBRANCH  14  17
ENDBRANCH   3  13
BRANCH   2  23
ATOM     23  O   UNL d   1       3.467   2.533  -0.160  0.00  0.00    -0.294 OA
BRANCH  23  24
ATOM     24  C   UNL d   1       4.690   3.325  -0.198  0.00  0.00     0.061 C 
ATOM     25  C   UNL d   1       5.744   2.660  -1.093  0.00  0.00     0.046 C 
ATOM     26  C   UNL d   1       4.289   4.676  -0.818  0.00  0.00     0.046 C 
ATOM     27  C   UNL d   1       5.243   3.599   1.208  0.00  0.00     0.046 C 
ENDBRANCH  23  24
ENDBRANCH   2  23
TORSDOF 5
