REMARK  5 active torsions:
REMARK  status: ('A' for Active; 'I' for Inactive)
REMARK    1  A    between atoms: C_7  and  N_1 
REMARK    2  A    between atoms: C_5  and  C_2 
REMARK    3  A    between atoms: O_10  and  C_5 
REMARK    4  A    between atoms: C_13  and  C_7 
REMARK    5  A    between atoms: C_12  and  C_13 
ROOT
ATOM      1  N   UNL d   1      -0.081  -1.032  -0.010  0.00  0.00    -0.351 N 
ATOM      2  C   UNL d   1      -0.382   1.146  -0.807  0.00  0.00     0.110 C 
ATOM      3  C   UNL d   1      -0.284  -0.261   1.118  0.00  0.00     0.220 C 
ATOM      4  C   UNL d   1      -0.341  -0.314  -1.234  0.00  0.00     0.141 C 
ATOM      5  C   UNL d   1      -0.766   1.096   0.671  0.00  0.00     0.119 C 
ATOM      6  O   UNL d   1      -0.147  -0.608   2.277  0.00  0.00    -0.273 OA
ENDROOT
BRANCH   1   7
ATOM      7  C   UNL d   1       0.386  -2.411   0.007  0.00  0.00     0.130 C 
BRANCH   7   8
ATOM      8  C   UNL d   1       1.913  -2.505  -0.034  0.00  0.00     0.058 C 
BRANCH   8   9
ATOM      9  C   UNL d   1       2.393  -3.935  -0.115  0.00  0.00    -0.057 A 
ATOM     10  C   UNL d   1       2.562  -4.557  -1.361  0.00  0.00     0.009 A 
ATOM     11  C   UNL d   1       3.007  -5.879  -1.439  0.00  0.00     0.024 A 
ATOM     12  C   UNL d   1       3.281  -6.587  -0.271  0.00  0.00     0.034 A 
ATOM     13  C   UNL d   1       3.108  -5.986   0.974  0.00  0.00     0.024 A 
ATOM     14 CL   UNL d   1       3.839  -8.212  -0.367  0.00  0.00    -0.084 Cl
ATOM     15  C   UNL d   1       2.661  -4.664   1.052  0.00  0.00     0.009 A 
ENDBRANCH   8   9
ENDBRANCH   7   8
ENDBRANCH   1   7
BRANCH   2  16
ATOM     16  C   UNL d   1       0.956   1.827  -1.004  0.00  0.00     0.145 C 
ATOM     17  O   UNL d   1       1.965   1.284  -1.424  0.00  0.00    -0.650 OA
BRANCH  16  18
ATOM     18  O   UNL d   1       0.931   3.148  -0.711  0.00  0.00    -0.776 OA
ATOM     19  H   UNL d   1       0.070   3.495  -0.406  0.00  0.00     0.167 HD
ENDBRANCH  16  18
ENDBRANCH   2  16
TORSDOF 5
