REMARK  7 active torsions:
REMARK  status: ('A' for Active; 'I' for Inactive)
REMARK    1  A    between atoms: C_6  and  N_1 
REMARK    2  A    between atoms: C_8  and  C_6 
REMARK       I    between atoms: N_15  and  C_8 
REMARK    3  A    between atoms: C_9  and  C_18 
REMARK    4  A    between atoms: C_20  and  N_15 
REMARK    5  A    between atoms: S_16  and  C_21 
REMARK    6  A    between atoms: C_18  and  S_16 
REMARK    7  A    between atoms: C_21  and  C_20 
ROOT
ATOM      1  C   UNL d   1       3.720  -2.376   0.001  0.00  0.00     0.237 C 
ATOM      2  O   UNL d   1       4.377  -1.338  -0.025  0.00  0.00    -0.272 OA
ATOM      3  N   UNL d   1       4.306  -3.623   0.089  0.00  0.00    -0.359 N 
ATOM      4  H   UNL d   1       3.759  -4.432  -0.192  0.00  0.00     0.162 HD
ENDROOT
BRANCH   1   5
ATOM      5  C   UNL d   1       2.212  -2.349   0.019  0.00  0.00     0.249 C 
BRANCH   5   6
ATOM      6  N   UNL d   1       1.623  -2.996  -1.130  0.00  0.00    -0.265 N 
ATOM      7  N   UNL d   1       0.783  -4.037  -0.943  0.00  0.00    -0.019 NA
ATOM      8  N   UNL d   1       0.306  -4.383  -2.130  0.00  0.00    -0.282 N 
ATOM      9  C   UNL d   1       0.859  -3.557  -3.071  0.00  0.00     0.074 A 
ATOM     10  HN  UNL d   1      -0.359  -5.135  -2.311  1.00  0.00     0.184 HD
ATOM     11  C   UNL d   1       1.718  -2.654  -2.453  0.00  0.00     0.077 A 
ATOM     12  C   UNL d   1       0.684  -3.510  -4.461  0.00  0.00     0.033 A 
ATOM     13  C   UNL d   1       2.436  -1.684  -3.159  0.00  0.00     0.033 A 
ATOM     14  C   UNL d   1       2.260  -1.658  -4.548  0.00  0.00     0.002 A 
ATOM     15  C   UNL d   1       1.399  -2.551  -5.191  0.00  0.00     0.002 A 
ENDBRANCH   5   6
ENDBRANCH   1   5
BRANCH   3  16
ATOM     16  C   UNL d   1       5.757  -3.748   0.013  0.00  0.00     0.132 C 
BRANCH  16  17
ATOM     17  C   UNL d   1       6.239  -5.197  -0.085  0.00  0.00     0.094 C 
BRANCH  17  18
ATOM     18  S   UNL d   1       5.577  -5.942  -1.610  0.00  0.00    -0.161 SA
BRANCH  18  19
ATOM     19  C   UNL d   1       6.368  -7.583  -1.522  0.00  0.00     0.139 C 
BRANCH  19  20
ATOM     20  C   UNL d   1       5.957  -8.388  -2.701  0.00  0.00     0.061 A 
ATOM     21  O   UNL d   1       6.953  -8.827  -3.526  0.00  0.00    -0.326 OA
ATOM     22  C   UNL d   1       6.354  -9.484  -4.554  0.00  0.00     0.142 A 
ATOM     23  C   UNL d   1       4.988  -9.486  -4.396  0.00  0.00     0.027 A 
ATOM     24  C   UNL d   1       4.731  -8.792  -3.191  0.00  0.00     0.035 A 
ENDBRANCH  19  20
ENDBRANCH  18  19
ENDBRANCH  17  18
ENDBRANCH  16  17
ENDBRANCH   3  16
TORSDOF 7
