REMARK  5 active torsions:
REMARK  status: ('A' for Active; 'I' for Inactive)
REMARK    1  A    between atoms: C_4  and  C_3 
REMARK    2  A    between atoms: C_6  and  C_4 
REMARK    3  A    between atoms: C_5  and  C_7 
REMARK    4  A    between atoms: C_7  and  C_10 
REMARK    5  A    between atoms: C_13  and  C_8 
ROOT
ATOM      1  C   UNL d   1       6.218  -1.507  -0.150  0.00  0.00     0.000 C 
ATOM      2  C   UNL d   1       4.968  -0.779  -0.118  0.00  0.00     0.001 C 
ENDROOT
BRANCH   2   3
ATOM      3  C   UNL d   1       3.764  -1.370  -0.063  0.00  0.00     0.011 C 
BRANCH   3   4
ATOM      4  C   UNL d   1       2.489  -0.630  -0.040  0.00  0.00    -0.035 A 
ATOM      5  C   UNL d   1       1.344  -1.214  -0.600  0.00  0.00     0.023 A 
ATOM      6  C   UNL d   1       0.104  -0.544  -0.601  0.00  0.00    -0.025 A 
ATOM      7  C   UNL d   1       0.011   0.738  -0.015  0.00  0.00    -0.026 A 
ATOM      8  C   UNL d   1      -1.045  -1.114  -1.175  0.00  0.00     0.012 A 
ATOM      9  C   UNL d   1       1.150   1.308   0.568  0.00  0.00     0.013 A 
ATOM     10  C   UNL d   1      -1.218   1.418  -0.024  0.00  0.00     0.012 A 
ATOM     11  C   UNL d   1       2.371   0.628   0.563  0.00  0.00     0.012 A 
ATOM     12  C   UNL d   1      -2.346   0.839  -0.604  0.00  0.00     0.001 A 
ATOM     13  C   UNL d   1      -2.261  -0.427  -1.176  0.00  0.00     0.001 A 
ENDBRANCH   3   4
ENDBRANCH   2   3
BRANCH   1  14
ATOM     14  C   UNL d   1       7.407  -0.888  -0.193  0.00  0.00     0.000 C 
BRANCH  14  15
ATOM     15  C   UNL d   1       8.664  -1.601  -0.261  0.00  0.00     0.001 C 
ATOM     16  C   UNL d   1       9.853  -0.980  -0.331  0.00  0.00     0.011 C 
BRANCH  16  17
ATOM     17  C   UNL d   1      11.146  -1.674  -0.455  0.00  0.00    -0.036 A 
ATOM     18  C   UNL d   1      11.275  -2.897  -1.129  0.00  0.00     0.011 A 
ATOM     19  C   UNL d   1      12.523  -3.509  -1.268  0.00  0.00     0.001 A 
ATOM     20  C   UNL d   1      13.661  -2.898  -0.747  0.00  0.00     0.000 A 
ATOM     21  C   UNL d   1      13.552  -1.674  -0.091  0.00  0.00     0.001 A 
ATOM     22  C   UNL d   1      12.302  -1.063   0.050  0.00  0.00     0.011 A 
ENDBRANCH  16  17
ENDBRANCH  14  15
ENDBRANCH   1  14
TORSDOF 5
