REMARK  3 active torsions:
REMARK  status: ('A' for Active; 'I' for Inactive)
REMARK    1  A    between atoms: C_9  and  N_1 
REMARK    2  A    between atoms: N_5  and  C_4 
REMARK    3  A    between atoms: C_13  and  C_6 
ROOT
ATOM      1  N   UNL d   1       1.108   0.063   0.311  0.00  0.00    -0.365 N 
ATOM      2  HN  UNL d   1       0.659  -0.752   0.729  1.00  0.00     0.165 HD
ATOM      3  C   UNL d   1       0.386   1.046  -0.119  0.00  0.00     0.099 C 
ENDROOT
BRANCH   1   4
ATOM      4  C   UNL d   1       2.509   0.112   0.206  0.00  0.00     0.032 A 
ATOM      5  C   UNL d   1       3.278   1.261   0.427  0.00  0.00     0.036 A 
ATOM      6  C   UNL d   1       4.684   1.227   0.364  0.00  0.00    -0.054 A 
ATOM      7  C   UNL d   1       5.462   2.497   0.591  0.00  0.00     0.049 C 
ATOM      8  C   UNL d   1       5.338   0.005   0.113  0.00  0.00    -0.056 A 
ATOM      9  C   UNL d   1       4.568  -1.144  -0.103  0.00  0.00     0.009 A 
ATOM     10  C   UNL d   1       6.839  -0.099   0.092  0.00  0.00     0.049 C 
ATOM     11  C   UNL d   1       3.173  -1.086  -0.057  0.00  0.00     0.030 A 
ENDBRANCH   1   4
BRANCH   3  12
ATOM     12  C   UNL d   1      -1.089   1.014  -0.025  0.00  0.00    -0.021 A 
ATOM     13  C   UNL d   1      -1.756  -0.131   0.405  0.00  0.00     0.015 A 
ATOM     14  C   UNL d   1      -3.157  -0.137   0.495  0.00  0.00     0.030 A 
ATOM     15  C   UNL d   1      -3.930   0.992   0.169  0.00  0.00     0.029 A 
ATOM     16  C   UNL d   1      -3.219   2.131  -0.251  0.00  0.00     0.030 A 
ATOM     17  C   UNL d   1      -1.821   2.148  -0.360  0.00  0.00     0.015 A 
BRANCH  15  18
ATOM     18  N   UNL d   1      -5.318   1.031   0.327  0.00  0.00    -0.390 N 
ATOM     19  C   UNL d   1      -6.122   1.694  -0.703  0.00  0.00     0.149 C 
ATOM     20  C   UNL d   1      -6.008  -0.072   0.995  0.00  0.00     0.149 C 
ENDBRANCH  15  18
ENDBRANCH   3  12
TORSDOF 3
