REMARK  2 active torsions:
REMARK  status: ('A' for Active; 'I' for Inactive)
REMARK    1  A    between atoms: C_9  and  CA_8 
REMARK    2  A    between atoms: OXT_12  and  C_9 
ROOT
ATOM      1  C   UNL d   1       0.674   0.520  -0.116  0.00  0.00    -0.019 A 
ATOM      2  C   UNL d   1       1.105  -0.789  -0.070  0.00  0.00     0.045 A 
ATOM      3  N   UNL d   1      -0.001  -1.594  -0.021  0.00  0.00    -0.357 N 
ATOM      4  C   UNL d   1      -0.745   0.517  -0.075  0.00  0.00    -0.001 A 
ATOM      5  C   UNL d   1       1.652   1.634  -0.179  0.00  0.00     0.088 C 
ATOM      6  C   UNL d   1      -1.143  -0.821  -0.015  0.00  0.00     0.043 A 
ATOM      7  N   UNL d   1       3.467  -0.161  -0.283  0.00  0.00     0.104 N 
ATOM      8  CA  UNL d   1       3.022   1.143   0.342  0.00  0.00     0.321 C 
ATOM      9  C   UNL d   1       2.510  -1.259  -0.013  0.00  0.00     0.328 C 
ATOM     10  C   UNL d   1      -1.733   1.520  -0.073  0.00  0.00     0.014 A 
ATOM     11  C   UNL d   1      -2.489  -1.203   0.043  0.00  0.00     0.030 A 
ATOM     12  C   UNL d   1      -3.082   1.153  -0.013  0.00  0.00     0.001 A 
ATOM     13  C   UNL d   1      -3.452  -0.189   0.043  0.00  0.00     0.002 A 
ATOM     14  H   UNL d   1       0.003  -2.603   0.026  0.00  0.00     0.166 HD
ATOM     15  H   UNL d   1       4.343  -0.432   0.176  0.00  0.00     0.317 HD
ENDROOT
BRANCH   8  16
ATOM     16  C   UNL d   1       4.048   2.221  -0.016  0.00  0.00     0.174 C 
ATOM     17  O   UNL d   1       4.206   3.267   0.592  0.00  0.00    -0.648 OA
BRANCH  16  18
ATOM     18  OXT UNL d   1       4.750   1.895  -1.133  0.00  0.00    -0.775 OA
ATOM     19  HXT UNL d   1       4.414   1.015  -1.436  0.00  0.00     0.167 HD
ENDBRANCH  16  18
ENDBRANCH   8  16
TORSDOF 2
