REMARK  7 active torsions:
REMARK  status: ('A' for Active; 'I' for Inactive)
REMARK    1  A    between atoms: C_10  and  N_1 
REMARK    2  A    between atoms: S_17  and  C_2 
REMARK    3  A    between atoms: C_14  and  C_3 
REMARK    4  A    between atoms: N_4  and  C_9 
REMARK    5  A    between atoms: S_12  and  C_14 
REMARK    6  A    between atoms: C_13  and  S_12 
REMARK    7  A    between atoms: O_19  and  C_16 
ROOT
ATOM      1  N   UNL d   1      -0.202  -1.311  -0.183  0.00  0.00    -0.276 N 
ATOM      2  C   UNL d   1       0.994  -0.633  -0.393  0.00  0.00     0.165 A 
ATOM      3  C   UNL d   1      -1.140  -0.281  -0.041  0.00  0.00     0.114 A 
ATOM      4  N   UNL d   1       0.800   0.662  -0.382  0.00  0.00    -0.278 N 
ATOM      5  HN  UNL d   1       1.512   1.378  -0.531  1.00  0.00     0.189 HD
ATOM      6  N   UNL d   1      -0.520   0.883  -0.135  0.00  0.00    -0.286 N 
ATOM      7  HN  UNL d   1      -0.960   1.798  -0.039  1.00  0.00     0.188 HD
ENDROOT
BRANCH   3   8
ATOM      8  C   UNL d   1      -2.622  -0.444   0.112  0.00  0.00     0.158 C 
BRANCH   8   9
ATOM      9  S   UNL d   1      -3.536   1.017  -0.540  0.00  0.00    -0.120 SA
BRANCH   9  10
ATOM     10  C   UNL d   1      -5.140   0.807   0.228  0.00  0.00     0.034 A 
ATOM     11  C   UNL d   1      -6.183   0.044  -0.310  0.00  0.00     0.119 A 
ATOM     12  C   UNL d   1      -7.468   0.020   0.252  0.00  0.00     0.037 A 
ATOM     13  C   UNL d   1      -7.727   0.784   1.388  0.00  0.00     0.003 A 
ATOM     14  C   UNL d   1      -6.705   1.552   1.947  0.00  0.00     0.002 A 
ATOM     15  C   UNL d   1      -5.428   1.566   1.371  0.00  0.00     0.021 A 
BRANCH  11  16
ATOM     16  N   UNL d   1      -5.973  -0.760  -1.492  0.00  0.00    -0.114 N 
ATOM     17  O   UNL d   1      -5.313  -1.800  -1.352  0.00  0.00    -0.532 OA
ATOM     18  O   UNL d   1      -6.526  -0.388  -2.535  0.00  0.00    -0.532 OA
ENDBRANCH  11  16
ENDBRANCH   9  10
ENDBRANCH   8   9
ENDBRANCH   3   8
BRANCH   1  19
ATOM     19  C   UNL d   1      -0.407  -2.726  -0.154  0.00  0.00     0.076 A 
ATOM     20  C   UNL d   1      -1.200  -3.343   0.833  0.00  0.00     0.095 A 
ATOM     21  C   UNL d   1      -1.332  -4.740   0.823  0.00  0.00     0.039 A 
ATOM     22  C   UNL d   1      -0.660  -5.520  -0.121  0.00  0.00     0.003 A 
ATOM     23  C   UNL d   1       0.135  -4.913  -1.083  0.00  0.00     0.002 A 
ATOM     24  C   UNL d   1       0.249  -3.523  -1.113  0.00  0.00     0.033 A 
BRANCH  20  25
ATOM     25  O   UNL d   1      -1.738  -2.546   1.805  0.00  0.00    -0.354 OA
ATOM     26  C   UNL d   1      -2.446  -3.174   2.869  0.00  0.00     0.210 C 
ENDBRANCH  20  25
ENDBRANCH   1  19
BRANCH   2  27
ATOM     27  S   UNL d   1       2.588  -1.323  -0.462  0.00  0.00    -0.105 SA
ATOM     28  H   UNL d   1       2.349  -2.486   0.157  0.00  0.00     0.110 HD
ENDBRANCH   2  27
TORSDOF 7
