REMARK  8 active torsions:
REMARK  status: ('A' for Active; 'I' for Inactive)
REMARK    1  A    between atoms: N_3  and  N_2 
REMARK    2  A    between atoms: C_14  and  C_5 
REMARK    3  A    between atoms: C_21  and  N_8 
REMARK    4  A    between atoms: O_25  and  C_10 
REMARK    5  A    between atoms: O_26  and  C_12 
REMARK    6  A    between atoms: O_27  and  C_13 
REMARK    7  A    between atoms: C_18  and  C_14 
REMARK    8  A    between atoms: O_29  and  C_16 
ROOT
ATOM      1  C   UNL d   1       0.021   0.670  -0.044  0.00  0.00    -0.024 A 
ATOM      2  N   UNL d   1       2.449   0.600   0.385  0.00  0.00    -0.304 N 
ATOM      3  C   UNL d   1       1.373   1.314  -0.328  0.00  0.00     0.141 C 
ATOM      4  C   UNL d   1      -0.070  -0.728   0.003  0.00  0.00    -0.045 A 
ATOM      5  C   UNL d   1      -1.144   1.443   0.096  0.00  0.00     0.049 A 
ATOM      6  C   UNL d   1      -2.405   0.844   0.239  0.00  0.00     0.102 A 
ATOM      7  C   UNL d   1      -1.322  -1.330   0.113  0.00  0.00     0.047 A 
ATOM      8  C   UNL d   1      -2.493  -0.562   0.230  0.00  0.00     0.102 A 
ATOM      9  C   UNL d   1       2.313  -0.829   0.693  0.00  0.00     0.149 C 
ATOM     10  C   UNL d   1       1.200  -1.527  -0.097  0.00  0.00     0.060 C 
ENDROOT
BRANCH   2  11
ATOM     11  N   UNL d   1       3.481   1.359   0.871  0.00  0.00    -0.244 N 
ATOM     12  N   UNL d   1       4.221   0.735   1.657  0.00  0.00    -0.287 N 
ATOM     13  HN  UNL d   1       4.034  -0.216   1.975  1.00  0.00     0.188 HD
ATOM     14  HN  UNL d   1       3.629   2.335   0.615  1.00  0.00     0.208 HD
BRANCH  12  15
ATOM     15  C   UNL d   1       5.342   1.487   2.058  0.00  0.00     0.051 A 
ATOM     16  C   UNL d   1       5.301   2.860   2.340  0.00  0.00     0.054 A 
ATOM     17  C   UNL d   1       6.464   3.535   2.717  0.00  0.00     0.036 A 
ATOM     18 CL   UNL d   1       6.405   5.225   3.033  0.00  0.00    -0.084 Cl
ATOM     19  C   UNL d   1       7.675   2.854   2.836  0.00  0.00     0.024 A 
ATOM     20  C   UNL d   1       7.722   1.485   2.591  0.00  0.00     0.004 A 
ATOM     21  C   UNL d   1       6.560   0.809   2.211  0.00  0.00     0.031 A 
ENDBRANCH  12  15
ENDBRANCH   2  11
BRANCH   3  22
ATOM     22  C   UNL d   1       1.685   1.363  -1.849  0.00  0.00     0.070 C 
BRANCH  22  23
ATOM     23  C   UNL d   1       0.680   2.154  -2.657  0.00  0.00    -0.053 A 
ATOM     24  C   UNL d   1       0.815   3.547  -2.785  0.00  0.00     0.046 A 
ATOM     25  C   UNL d   1      -0.159   4.319  -3.440  0.00  0.00     0.102 A 
ATOM     26  C   UNL d   1      -1.284   3.677  -3.986  0.00  0.00     0.101 A 
ATOM     27  C   UNL d   1      -1.402   2.283  -3.873  0.00  0.00     0.040 A 
ATOM     28  C   UNL d   1      -0.431   1.528  -3.221  0.00  0.00     0.010 A 
BRANCH  25  29
ATOM     29  O   UNL d   1      -0.070   5.682  -3.543  0.00  0.00    -0.353 OA
ATOM     30  C   UNL d   1       1.102   6.321  -3.055  0.00  0.00     0.210 C 
ENDBRANCH  25  29
BRANCH  26  31
ATOM     31  O   UNL d   1      -2.354   4.226  -4.646  0.00  0.00    -0.353 OA
ATOM     32  C   UNL d   1      -2.385   5.627  -4.863  0.00  0.00     0.210 C 
ENDBRANCH  26  31
ENDBRANCH  22  23
ENDBRANCH   3  22
BRANCH   6  33
ATOM     33  O   UNL d   1      -3.560   1.567   0.378  0.00  0.00    -0.353 OA
ATOM     34  C   UNL d   1      -3.479   2.986   0.360  0.00  0.00     0.210 C 
ENDBRANCH   6  33
BRANCH   8  35
ATOM     35  O   UNL d   1      -3.609  -1.354   0.321  0.00  0.00    -0.353 OA
ATOM     36  C   UNL d   1      -4.882  -0.740   0.434  0.00  0.00     0.210 C 
ENDBRANCH   8  35
TORSDOF 8
