REMARK  5 active torsions:
REMARK  status: ('A' for Active; 'I' for Inactive)
REMARK    1  A    between atoms: C_11  and  C_3 
REMARK    2  A    between atoms: S_8  and  C_6 
REMARK    3  A    between atoms: C_12  and  S_8 
REMARK    4  A    between atoms: C_9  and  C_12 
REMARK    5  A    between atoms: C_10  and  C_9 
ROOT
ATOM      1  N   UNL d   1       1.270   0.287  -0.126  0.00  0.00    -0.320 N 
ATOM      2  HN  UNL d   1       2.225   0.529  -0.389  1.00  0.00     0.169 HD
ATOM      3  C   UNL d   1       0.157   1.112  -0.053  0.00  0.00     0.132 A 
ATOM      4  N   UNL d   1      -0.967   0.476   0.327  0.00  0.00    -0.283 N 
ATOM      5  HN  UNL d   1      -1.907   0.853   0.454  1.00  0.00     0.188 HD
ATOM      6  C   UNL d   1       0.793  -0.880   0.228  0.00  0.00     0.161 A 
ATOM      7  N   UNL d   1      -0.532  -0.780   0.494  0.00  0.00    -0.278 N 
ATOM      8  H   UNL d   1      -1.172  -1.507   0.793  0.00  0.00     0.189 HD
ENDROOT
BRANCH   6   9
ATOM      9  S   UNL d   1       1.592  -2.392   0.389  0.00  0.00    -0.085 SA
BRANCH   9  10
ATOM     10  C   UNL d   1       3.312  -1.935   0.038  0.00  0.00     0.166 C 
BRANCH  10  11
ATOM     11  C   UNL d   1       4.252  -3.123   0.204  0.00  0.00     0.169 C 
ATOM     12  O   UNL d   1       3.884  -4.251   0.527  0.00  0.00    -0.291 OA
BRANCH  11  13
ATOM     13  C   UNL d   1       5.716  -2.901  -0.022  0.00  0.00     0.011 A 
ATOM     14  C   UNL d   1       6.232  -1.672  -0.456  0.00  0.00     0.017 A 
ATOM     15  C   UNL d   1       7.613  -1.506  -0.613  0.00  0.00     0.025 A 
ATOM     16  C   UNL d   1       8.481  -2.562  -0.341  0.00  0.00     0.034 A 
ATOM     17  C   UNL d   1       7.981  -3.794   0.072  0.00  0.00     0.025 A 
ATOM     18 CL   UNL d   1      10.178  -2.338  -0.507  0.00  0.00    -0.084 Cl
ATOM     19  C   UNL d   1       6.601  -3.963   0.228  0.00  0.00     0.017 A 
ENDBRANCH  11  13
ENDBRANCH  10  11
ENDBRANCH   9  10
ENDBRANCH   6   9
BRANCH   3  20
ATOM     20  C   UNL d   1       0.207   2.544  -0.346  0.00  0.00     0.009 A 
ATOM     21  C   UNL d   1       1.396   3.146  -0.779  0.00  0.00     0.015 A 
ATOM     22  C   UNL d   1       1.443   4.519  -1.047  0.00  0.00     0.001 A 
ATOM     23  C   UNL d   1       0.302   5.304  -0.884  0.00  0.00     0.000 A 
ATOM     24  C   UNL d   1      -0.888   4.718  -0.459  0.00  0.00     0.001 A 
ATOM     25  C   UNL d   1      -0.935   3.348  -0.193  0.00  0.00     0.015 A 
ENDBRANCH   3  20
TORSDOF 5
