REMARK  4 active torsions:
REMARK  status: ('A' for Active; 'I' for Inactive)
REMARK    1  A    between atoms: C_8  and  C_1 
REMARK    2  A    between atoms: C_11  and  C_2 
REMARK    3  A    between atoms: C_10  and  N_5 
REMARK    4  A    between atoms: N_7  and  C_8 
ROOT
ATOM      1  C   UNL d   1       1.303   2.286  -0.692  0.00  0.00     0.016 A 
ATOM      2  C   UNL d   1       1.707   3.506  -1.338  0.00  0.00     0.067 A 
ATOM      3  N   UNL d   1       0.749   3.931  -2.183  0.00  0.00    -0.300 N 
ATOM      4  HN  UNL d   1       0.778   4.748  -2.793  1.00  0.00     0.187 HD
ATOM      5  N   UNL d   1      -0.246   3.051  -2.048  0.00  0.00    -0.311 N 
ATOM      6  C   UNL d   1       0.025   2.056  -1.165  0.00  0.00     0.118 A 
ATOM      7  H   UNL d   1      -1.087   3.193  -2.598  0.00  0.00     0.186 HD
ENDROOT
BRANCH   1   8
ATOM      8  C   UNL d   1       2.039   1.407   0.272  0.00  0.00     0.315 C 
BRANCH   8   9
ATOM      9  N   UNL d   1       3.351   1.005  -0.247  0.00  0.00     0.096 N 
ATOM     10  C   UNL d   1       4.094   0.200   0.755  0.00  0.00     0.292 C 
ATOM     11  C   UNL d   1       3.628  -1.272   0.939  0.00  0.00     0.153 C 
ATOM     12  N   UNL d   1       3.530  -1.936  -0.366  0.00  0.00    -0.378 N 
ATOM     13  C   UNL d   1       2.748  -1.210  -1.377  0.00  0.00     0.153 C 
ATOM     14  C   UNL d   1       3.285   0.231  -1.512  0.00  0.00     0.292 C 
BRANCH  12  15
ATOM     15  C   UNL d   1       3.879  -3.259  -0.545  0.00  0.00     0.030 A 
ATOM     16  C   UNL d   1       4.399  -3.702  -1.775  0.00  0.00     0.032 A 
ATOM     17  C   UNL d   1       4.836  -5.017  -1.961  0.00  0.00     0.044 A 
ATOM     18  C   UNL d   1       4.748  -5.917  -0.913  0.00  0.00     0.116 A 
ATOM     19  C   UNL d   1       4.225  -5.526   0.310  0.00  0.00     0.044 A 
ATOM     20  F   UNL d   1       5.181  -7.173  -1.080  0.00  0.00    -0.206 F 
ATOM     21  C   UNL d   1       3.798  -4.205   0.490  0.00  0.00     0.032 A 
ENDBRANCH  12  15
ENDBRANCH   8   9
ENDBRANCH   1   8
BRANCH   2  22
ATOM     22  C   UNL d   1       2.947   4.277  -1.206  0.00  0.00    -0.007 A 
ATOM     23  C   UNL d   1       3.517   4.890  -2.338  0.00  0.00     0.017 A 
ATOM     24  C   UNL d   1       4.676   5.663  -2.226  0.00  0.00     0.043 A 
ATOM     25  C   UNL d   1       5.267   5.830  -0.983  0.00  0.00     0.116 A 
ATOM     26  C   UNL d   1       4.720   5.239   0.150  0.00  0.00     0.043 A 
ATOM     27  F   UNL d   1       6.373   6.578  -0.870  0.00  0.00    -0.206 F 
ATOM     28  C   UNL d   1       3.560   4.468   0.040  0.00  0.00     0.017 A 
ENDBRANCH   2  22
TORSDOF 4
