REMARK  5 active torsions:
REMARK  status: ('A' for Active; 'I' for Inactive)
REMARK    1  A    between atoms: C_3  and  C_1 
REMARK    2  A    between atoms: C_6  and  C_2 
REMARK    3  A    between atoms: O_14  and  C_3 
REMARK       I    between atoms: C_7  and  N_8 
REMARK    4  A    between atoms: N_8  and  C_13 
REMARK    5  A    between atoms: C_19  and  O_14 
ROOT
ATOM      1  C   UNL d   1       0.146   0.605  -0.046  0.00  0.00     0.126 C 
ATOM      2  C   UNL d   1       1.117  -0.341  -0.067  0.00  0.00    -0.025 C 
ATOM      3  C   UNL d   1      -1.237   0.246   0.001  0.00  0.00     0.106 C 
ATOM      4  N   UNL d   1      -2.362  -0.040   0.041  0.00  0.00    -0.191 NA
ATOM      5  C   UNL d   1       2.607  -0.129  -0.136  0.00  0.00     0.050 C 
ENDROOT
BRANCH   1   6
ATOM      6  C   UNL d   1       0.447   2.064   0.027  0.00  0.00     0.304 C 
ATOM      7  O   UNL d   1       1.489   2.550   0.440  0.00  0.00    -0.258 OA
BRANCH   6   8
ATOM      8  O   UNL d   1      -0.656   2.773  -0.329  0.00  0.00    -0.317 OA
BRANCH   8   9
ATOM      9  C   UNL d   1      -0.706   4.139   0.110  0.00  0.00     0.174 C 
ATOM     10  C   UNL d   1      -1.277   4.168   1.517  0.00  0.00     0.034 C 
ENDBRANCH   8   9
ENDBRANCH   6   8
ENDBRANCH   1   6
BRANCH   2  11
ATOM     11  C   UNL d   1       0.753  -1.773   0.018  0.00  0.00    -0.029 A 
ATOM     12  C   UNL d   1       0.446  -2.512  -1.127  0.00  0.00     0.014 A 
ATOM     13  C   UNL d   1       0.077  -3.858  -1.014  0.00  0.00     0.030 A 
ATOM     14  C   UNL d   1       0.009  -4.483   0.239  0.00  0.00     0.034 A 
ATOM     15  C   UNL d   1       0.313  -3.736   1.377  0.00  0.00     0.030 A 
ATOM     16  C   UNL d   1       0.681  -2.391   1.270  0.00  0.00     0.014 A 
BRANCH  14  17
ATOM     17  N   UNL d   1      -0.368  -5.843   0.270  0.00  0.00    -0.328 N 
ATOM     18  C   UNL d   1      -0.495  -6.650   1.387  0.00  0.00     0.218 C 
ATOM     19  O   UNL d   1      -0.302  -6.326   2.555  0.00  0.00    -0.274 OA
ATOM     20  C   UNL d   1      -0.909  -8.064   1.059  0.00  0.00     0.117 C 
ATOM     21  H   UNL d   1      -0.567  -6.265  -0.627  0.00  0.00     0.169 HD
ENDBRANCH  14  17
ENDBRANCH   2  11
TORSDOF 5
