REMARK  3 active torsions:
REMARK  status: ('A' for Active; 'I' for Inactive)
REMARK    1  A    between atoms: N_2  and  S_1 
REMARK    2  A    between atoms: C_3  and  S_1 
REMARK    3  A    between atoms: S_14  and  C_4 
ROOT
ATOM      1  S   UNL d   1       0.874  -0.185   0.029  0.00  0.00     0.268 S 
ATOM      2  O   UNL d   1      -0.166  -0.963   0.677  0.00  0.00    -0.200 OA
ATOM      3  O   UNL d   1       2.265  -0.369   0.382  0.00  0.00    -0.200 OA
ENDROOT
BRANCH   1   4
ATOM      4  N   UNL d   1       0.484   1.463   0.213  0.00  0.00    -0.251 N 
ATOM      5  C   UNL d   1       1.342   2.559  -0.073  0.00  0.00     0.151 C 
ATOM      6  N   UNL d   1       1.061   3.769   0.255  0.00  0.00    -0.370 N 
ATOM      7  C   UNL d   1      -0.148   4.051   1.018  0.00  0.00     0.123 C 
ATOM      8  HN  UNL d   1       1.683   4.530  -0.017  1.00  0.00     0.161 HD
ATOM      9  C   UNL d   1      -1.273   3.107   0.656  0.00  0.00     0.041 C 
ATOM     10  C   UNL d   1      -0.812   1.686   0.902  0.00  0.00     0.145 C 
BRANCH   5  11
ATOM     11  S   UNL d   1       2.772   2.291  -1.040  0.00  0.00    -0.098 SA
ATOM     12  C   UNL d   1       3.768   3.721  -0.578  0.00  0.00     0.099 C 
ENDBRANCH   5  11
ENDBRANCH   1   4
BRANCH   1  13
ATOM     13  C   UNL d   1       0.705  -0.523  -1.710  0.00  0.00     0.103 A 
ATOM     14  C   UNL d   1       0.225   0.462  -2.586  0.00  0.00     0.052 A 
ATOM     15  C   UNL d   1       0.175   0.216  -3.962  0.00  0.00     0.057 A 
ATOM     16 CL   UNL d   1      -0.367   1.499  -4.983  0.00  0.00    -0.083 Cl
ATOM     17  C   UNL d   1       0.565  -1.028  -4.464  0.00  0.00     0.057 A 
ATOM     18  C   UNL d   1       1.000  -2.024  -3.586  0.00  0.00     0.051 A 
ATOM     19 CL   UNL d   1       0.527  -1.401  -6.149  0.00  0.00    -0.082 Cl
ATOM     20  C   UNL d   1       1.075  -1.776  -2.209  0.00  0.00     0.059 A 
ATOM     21 CL   UNL d   1       1.607  -3.086  -1.219  0.00  0.00    -0.083 Cl
ENDBRANCH   1  13
TORSDOF 3
