REMARK  5 active torsions:
REMARK  status: ('A' for Active; 'I' for Inactive)
REMARK    1  A    between atoms: C_2  and  N_1 
REMARK    2  A    between atoms: C_7  and  C_4 
REMARK    3  A    between atoms: C_12  and  C_11 
REMARK    4  A    between atoms: O_24  and  C_12 
REMARK    5  A    between atoms: C_27  and  O_24 
ROOT
ATOM      1  C   UNL d   1       1.183   2.212  -1.117  0.00  0.00     0.045 A 
ATOM      2  C   UNL d   1       1.806   2.035  -2.389  0.00  0.00     0.018 A 
ATOM      3  C   UNL d   1       1.488   4.606  -1.429  0.00  0.00     0.119 A 
ATOM      4  N   UNL d   1       2.020   4.430  -2.664  0.00  0.00    -0.352 N 
ATOM      5  HN  UNL d   1       2.304   5.232  -3.227  1.00  0.00     0.166 HD
ATOM      6  C   UNL d   1       1.055   3.531  -0.656  0.00  0.00     0.064 A 
ATOM      7  C   UNL d   1       2.166   3.186  -3.129  0.00  0.00     0.045 A 
ATOM      8  C   UNL d   1       2.126   0.779  -2.958  0.00  0.00     0.033 A 
ATOM      9  C   UNL d   1       2.647   0.648  -4.248  0.00  0.00     0.040 A 
ATOM     10  C   UNL d   1       2.709   3.045  -4.400  0.00  0.00     0.031 A 
ATOM     11  C   UNL d   1       2.930   1.793  -4.980  0.00  0.00     0.020 A 
ENDROOT
BRANCH   1  12
ATOM     12  N   UNL d   1       0.657   1.181  -0.342  0.00  0.00    -0.379 N 
ATOM     13  C   UNL d   1      -0.002   0.004  -0.922  0.00  0.00     0.127 C 
ATOM     14  C   UNL d   1      -1.357  -0.252  -0.250  0.00  0.00    -0.000 C 
ATOM     15  C   UNL d   1      -1.958  -1.558  -0.769  0.00  0.00     0.011 C 
ATOM     16  C   UNL d   1      -1.226  -0.281   1.278  0.00  0.00     0.011 C 
ATOM     17  C   UNL d   1      -0.534   0.991   1.789  0.00  0.00    -0.000 C 
ATOM     18  C   UNL d   1       0.837   1.151   1.115  0.00  0.00     0.127 C 
ATOM     19  C   UNL d   1      -0.402   0.956   3.309  0.00  0.00     0.011 C 
ENDBRANCH   1  12
BRANCH   3  20
ATOM     20  C   UNL d   1       1.336   6.013  -0.871  0.00  0.00     0.432 C 
ATOM     21  F   UNL d   1       1.801   6.998  -1.690  0.00  0.00    -0.165 F 
ATOM     22  F   UNL d   1       0.037   6.333  -0.607  0.00  0.00    -0.165 F 
ATOM     23  F   UNL d   1       1.996   6.176   0.314  0.00  0.00    -0.165 F 
ENDBRANCH   3  20
BRANCH   9  24
ATOM     24  C   UNL d   1       2.910  -0.729  -4.739  0.00  0.00     0.293 C 
ATOM     25  O   UNL d   1       2.656  -1.733  -4.095  0.00  0.00    -0.259 OA
BRANCH  24  26
ATOM     26  O   UNL d   1       3.554  -0.682  -5.931  0.00  0.00    -0.318 OA
BRANCH  26  27
ATOM     27  C   UNL d   1       4.231  -1.891  -6.293  0.00  0.00     0.174 C 
ATOM     28  C   UNL d   1       5.618  -1.846  -5.677  0.00  0.00     0.034 C 
ENDBRANCH  26  27
ENDBRANCH  24  26
ENDBRANCH   9  24
TORSDOF 5
