REMARK  7 active torsions:
REMARK  status: ('A' for Active; 'I' for Inactive)
REMARK    1  A    between atoms: C_8  and  C_1 
REMARK    2  A    between atoms: C_13  and  N_2 
REMARK    3  A    between atoms: C_7  and  C_10 
REMARK       I    between atoms: N_11  and  C_8 
REMARK    4  A    between atoms: S_12  and  C_9 
REMARK    5  A    between atoms: C_10  and  N_11 
REMARK    6  A    between atoms: C_18  and  S_12 
REMARK    7  A    between atoms: O_31  and  C_22 
ROOT
ATOM      1  C   UNL d   1      -0.180   2.061  -1.408  0.00  0.00     0.255 C 
ATOM      2  N   UNL d   1       0.465   3.191  -0.967  0.00  0.00    -0.352 N 
ATOM      3  O   UNL d   1      -1.008   2.087  -2.317  0.00  0.00    -0.268 OA
ATOM      4  H   UNL d   1       1.282   3.085  -0.383  0.00  0.00     0.163 HD
ENDROOT
BRANCH   2   5
ATOM      5  C   UNL d   1       0.198   4.503  -1.502  0.00  0.00     0.164 C 
BRANCH   5   6
ATOM      6  C   UNL d   1       0.644   5.700  -0.670  0.00  0.00    -0.002 A 
ATOM      7  C   UNL d   1       0.416   7.002  -1.205  0.00  0.00     0.015 A 
ATOM      8  C   UNL d   1       0.838   8.148  -0.509  0.00  0.00     0.019 A 
ATOM      9  C   UNL d   1       1.481   8.045   0.717  0.00  0.00     0.003 A 
ATOM     10  C   UNL d   1       1.699   6.791   1.264  0.00  0.00     0.024 A 
ATOM     11  C   UNL d   1       1.282   5.635   0.591  0.00  0.00     0.043 A 
ATOM     12 CL   UNL d   1       1.654   4.175   1.437  0.00  0.00    -0.084 Cl
BRANCH   7  13
ATOM     13  S   UNL d   1      -0.241   7.275  -2.857  0.00  0.00    -0.090 SA
BRANCH  13  14
ATOM     14  C   UNL d   1      -1.922   7.824  -2.607  0.00  0.00     0.005 A 
ATOM     15  C   UNL d   1      -2.403   8.854  -3.430  0.00  0.00     0.020 A 
ATOM     16  C   UNL d   1      -3.752   9.224  -3.403  0.00  0.00     0.025 A 
ATOM     17  C   UNL d   1      -4.631   8.561  -2.553  0.00  0.00     0.034 A 
ATOM     18  C   UNL d   1      -4.165   7.551  -1.712  0.00  0.00     0.025 A 
ATOM     19 CL   UNL d   1      -6.301   8.970  -2.561  0.00  0.00    -0.084 Cl
ATOM     20  C   UNL d   1      -2.813   7.184  -1.739  0.00  0.00     0.020 A 
ENDBRANCH  13  14
ENDBRANCH   7  13
ENDBRANCH   5   6
ENDBRANCH   2   5
BRANCH   1  21
ATOM     21  C   UNL d   1       0.183   0.839  -0.705  0.00  0.00     0.073 C 
ATOM     22  C   UNL d   1      -0.110  -0.469  -1.081  0.00  0.00     0.048 C 
ATOM     23  N   UNL d   1       0.279  -1.272  -0.018  0.00  0.00    -0.260 N 
ATOM     24  C   UNL d   1      -0.649  -0.993  -2.365  0.00  0.00     0.071 C 
ATOM     25  N   UNL d   1       1.098  -0.601   0.825  0.00  0.00    -0.304 N 
ATOM     26  C   UNL d   1       0.904   0.675   0.498  0.00  0.00     0.126 C 
ATOM     27  HN  UNL d   1       1.717  -0.982   1.540  1.00  0.00     0.186 HD
BRANCH  23  28
ATOM     28  C   UNL d   1      -0.172  -2.559   0.359  0.00  0.00     0.056 A 
ATOM     29  C   UNL d   1       0.680  -3.404   1.083  0.00  0.00     0.034 A 
ATOM     30  C   UNL d   1       0.206  -4.625   1.574  0.00  0.00     0.039 A 
ATOM     31  C   UNL d   1      -1.129  -4.982   1.382  0.00  0.00     0.068 A 
ATOM     32  C   UNL d   1      -1.980  -4.123   0.681  0.00  0.00     0.039 A 
ATOM     33  C   UNL d   1      -1.505  -2.923   0.148  0.00  0.00     0.034 A 
BRANCH  31  34
ATOM     34  O   UNL d   1      -1.730  -6.110   1.868  0.00  0.00    -0.356 OA
ATOM     35  C   UNL d   1      -0.866  -7.184   2.212  0.00  0.00     0.210 C 
ENDBRANCH  31  34
ENDBRANCH  23  28
ENDBRANCH   1  21
TORSDOF 7
