REMARK  6 active torsions:
REMARK  status: ('A' for Active; 'I' for Inactive)
REMARK    1  A    between atoms: C_6  and  C_1 
REMARK    2  A    between atoms: C_5  and  C_4 
REMARK       I    between atoms: N_18  and  C_6 
REMARK    3  A    between atoms: C_7  and  C_10 
REMARK    4  A    between atoms: C_11  and  C_14 
REMARK    5  A    between atoms: C_16  and  C_17 
REMARK       I    between atoms: C_17  and  N_20 
REMARK    6  A    between atoms: N_20  and  N_18 
ROOT
ATOM      1  C   UNL d   1       1.166   0.897   0.101  0.00  0.00     0.110 A 
ATOM      2  N   UNL d   1      -0.098   1.484   0.160  0.00  0.00    -0.344 N 
ATOM      3  HN  UNL d   1      -0.270   2.469   0.358  1.00  0.00     0.167 HD
ATOM      4  C   UNL d   1      -1.040   0.588  -0.075  0.00  0.00     0.103 A 
ATOM      5  S   UNL d   1      -0.451  -1.017  -0.336  0.00  0.00    -0.079 SA
ATOM      6  C   UNL d   1       1.154  -0.460  -0.161  0.00  0.00     0.087 A 
ENDROOT
BRANCH   1   7
ATOM      7  C   UNL d   1       2.397   1.669   0.276  0.00  0.00     0.287 C 
ATOM      8  N   UNL d   1       2.198   3.004   0.576  0.00  0.00    -0.262 N 
ATOM      9  H   UNL d   1       1.267   3.404   0.686  0.00  0.00     0.190 HD
ATOM     10  O   UNL d   1       3.519   1.180   0.162  0.00  0.00    -0.264 OA
BRANCH   8  11
ATOM     11  N   UNL d   1       3.319   3.818   0.759  0.00  0.00    -0.263 N 
ATOM     12  C   UNL d   1       3.166   5.109   1.219  0.00  0.00     0.271 C 
ATOM     13  O   UNL d   1       2.092   5.641   1.464  0.00  0.00    -0.266 OA
ATOM     14  H   UNL d   1       4.225   3.372   0.623  0.00  0.00     0.190 HD
BRANCH  12  15
ATOM     15  C   UNL d   1       4.435   5.868   1.369  0.00  0.00     0.048 A 
ATOM     16  C   UNL d   1       4.733   6.624   2.514  0.00  0.00     0.063 A 
ATOM     17  C   UNL d   1       5.928   7.376   2.525  0.00  0.00     0.017 A 
ATOM     18  C   UNL d   1       6.810   7.355   1.444  0.00  0.00     0.001 A 
ATOM     19  C   UNL d   1       6.515   6.587   0.325  0.00  0.00     0.001 A 
ATOM     20  C   UNL d   1       5.330   5.852   0.282  0.00  0.00     0.018 A 
BRANCH  16  21
ATOM     21  C   UNL d   1       3.865   6.679   3.749  0.00  0.00     0.418 C 
ATOM     22  F   UNL d   1       2.933   5.704   3.873  0.00  0.00    -0.166 F 
ATOM     23  F   UNL d   1       4.627   6.567   4.882  0.00  0.00    -0.166 F 
ATOM     24  F   UNL d   1       3.218   7.870   3.876  0.00  0.00    -0.166 F 
ENDBRANCH  16  21
ENDBRANCH  12  15
ENDBRANCH   8  11
ENDBRANCH   1   7
BRANCH   4  25
ATOM     25  C   UNL d   1      -2.490   0.856  -0.157  0.00  0.00     0.088 A 
ATOM     26  N   UNL d   1      -3.293  -0.151   0.303  0.00  0.00    -0.361 N 
ATOM     27  C   UNL d   1      -4.634   0.025   0.250  0.00  0.00     0.104 A 
ATOM     28  HN  UNL d   1      -2.892  -1.011   0.677  1.00  0.00     0.165 HD
ATOM     29  C   UNL d   1      -5.242   1.167  -0.245  0.00  0.00     0.065 A 
ATOM     30  C   UNL d   1      -4.410   2.189  -0.711  0.00  0.00     0.043 A 
ATOM     31  C   UNL d   1      -3.020   2.042  -0.670  0.00  0.00     0.064 A 
ATOM     32 CL   UNL d   1      -2.069   3.327  -1.319  0.00  0.00    -0.082 Cl
BRANCH  29  33
ATOM     33  C   UNL d   1      -6.736   1.260  -0.276  0.00  0.00     0.418 C 
ATOM     34  F   UNL d   1      -7.195   2.444  -0.767  0.00  0.00    -0.166 F 
ATOM     35  F   UNL d   1      -7.299   0.292  -1.050  0.00  0.00    -0.166 F 
ATOM     36  F   UNL d   1      -7.292   1.125   0.958  0.00  0.00    -0.166 F 
ENDBRANCH  29  33
ENDBRANCH   4  25
TORSDOF 6
