REMARK  1 active torsions:
REMARK  status: ('A' for Active; 'I' for Inactive)
REMARK    1  A    between atoms: O_11  and  C_1 
ROOT
ATOM      1  C   UNL d   1       0.738   0.756   1.128  0.00  0.00     0.060 C 
ATOM      2  C   UNL d   1       0.261  -1.528   0.152  0.00  0.00    -0.040 C 
ATOM      3  C   UNL d   1       0.530   0.490  -1.378  0.00  0.00    -0.040 C 
ATOM      4  C   UNL d   1      -1.528   0.286   0.109  0.00  0.00    -0.040 C 
ATOM      5  C   UNL d   1      -0.770   1.034   1.227  0.00  0.00     0.047 C 
ATOM      6  C   UNL d   1       0.993  -0.754   1.270  0.00  0.00     0.047 C 
ATOM      7  C   UNL d   1       1.256   1.234  -0.237  0.00  0.00     0.047 C 
ATOM      8  C   UNL d   1       0.777  -1.028  -1.217  0.00  0.00     0.018 C 
ATOM      9  C   UNL d   1      -1.253  -1.230   0.252  0.00  0.00     0.018 C 
ATOM     10  C   UNL d   1      -0.988   0.761  -1.260  0.00  0.00     0.018 C 
ATOM     11  C   UNL d   1      -3.030   0.563   0.209  0.00  0.00     0.015 C 
ATOM     12  C   UNL d   1       1.047   0.968  -2.738  0.00  0.00     0.015 C 
ATOM     13  C   UNL d   1       0.515  -3.031   0.296  0.00  0.00     0.015 C 
ENDROOT
BRANCH   1  14
ATOM     14  O   UNL d   1       1.426   1.459   2.154  0.00  0.00    -0.390 OA
ATOM     15  H   UNL d   1       1.088   1.146   3.010  0.00  0.00     0.210 HD
ENDBRANCH   1  14
TORSDOF 1
