REMARK  4 active torsions:
REMARK  status: ('A' for Active; 'I' for Inactive)
REMARK    1  A    between atoms: C_5  and  C_1 
REMARK    2  A    between atoms: C_10  and  C_2 
REMARK       I    between atoms: N_15  and  C_5 
REMARK    3  A    between atoms: C_6  and  C_16 
REMARK    4  A    between atoms: C_21  and  N_15 
ROOT
ATOM      1  C   UNL d   1       0.132  -4.513   0.241  0.00  0.00     0.261 C 
ATOM      2  N   UNL d   1      -0.729  -3.559  -0.278  0.00  0.00    -0.323 N 
ATOM      3  O   UNL d   1      -0.135  -5.698   0.374  0.00  0.00    -0.267 OA
ATOM      4  H   UNL d   1      -0.304  -2.713  -0.637  0.00  0.00     0.169 HD
ENDROOT
BRANCH   2   5
ATOM      5  C   UNL d   1      -2.123  -3.682  -0.468  0.00  0.00     0.035 A 
ATOM      6  C   UNL d   1      -2.934  -4.564   0.250  0.00  0.00     0.030 A 
ATOM      7  C   UNL d   1      -4.338  -4.530   0.106  0.00  0.00     0.016 A 
ATOM      8  C   UNL d   1      -4.962  -3.635  -0.780  0.00  0.00    -0.002 A 
ATOM      9  C   UNL d   1      -4.122  -2.800  -1.537  0.00  0.00     0.016 A 
ATOM     10  C   UNL d   1      -2.731  -2.804  -1.368  0.00  0.00     0.030 A 
BRANCH   8  11
ATOM     11  C   UNL d   1      -6.430  -3.481  -0.934  0.00  0.00     0.085 A 
ATOM     12  N   UNL d   1      -6.981  -2.649  -1.803  0.00  0.00    -0.349 N 
ATOM     13  C   UNL d   1      -8.358  -2.629  -1.669  0.00  0.00     0.050 A 
ATOM     14  HN  UNL d   1      -6.459  -2.095  -2.482  1.00  0.00     0.166 HD
ATOM     15  C   UNL d   1      -9.250  -1.831  -2.414  0.00  0.00     0.031 A 
ATOM     16  C   UNL d   1      -8.873  -3.477  -0.693  0.00  0.00     0.034 A 
ATOM     17  C   UNL d   1     -10.625  -1.894  -2.161  0.00  0.00     0.009 A 
ATOM     18  C   UNL d   1     -11.132  -2.745  -1.177  0.00  0.00    -0.061 A 
ATOM     19  C   UNL d   1     -10.258  -3.553  -0.432  0.00  0.00     0.028 A 
ATOM     20  C   UNL d   1     -12.615  -2.780  -0.923  0.00  0.00     0.048 C 
ATOM     21  S   UNL d   1      -7.567  -4.319   0.053  0.00  0.00    -0.070 SA
ENDBRANCH   8  11
ENDBRANCH   2   5
BRANCH   1  22
ATOM     22  C   UNL d   1       1.446  -3.986   0.582  0.00  0.00     0.093 A 
ATOM     23  C   UNL d   1       2.758  -4.495   0.291  0.00  0.00     0.085 A 
ATOM     24  N   UNL d   1       3.687  -3.707   0.858  0.00  0.00    -0.259 N 
ATOM     25  O   UNL d   1       3.023  -2.701   1.503  0.00  0.00    -0.241 OA
ATOM     26  HN  UNL d   1       4.698  -3.835   0.816  1.00  0.00     0.195 HD
ATOM     27  C   UNL d   1       1.691  -2.840   1.312  0.00  0.00     0.090 A 
ATOM     28  C   UNL d   1       0.858  -1.778   1.912  0.00  0.00     0.080 C 
BRANCH  23  29
ATOM     29  C   UNL d   1       3.193  -5.553  -0.629  0.00  0.00     0.015 A 
ATOM     30  C   UNL d   1       4.294  -6.395  -0.375  0.00  0.00     0.046 A 
ATOM     31 CL   UNL d   1       5.082  -6.490   1.165  0.00  0.00    -0.083 Cl
ATOM     32  C   UNL d   1       4.807  -7.220  -1.387  0.00  0.00     0.025 A 
ATOM     33  C   UNL d   1       4.220  -7.236  -2.652  0.00  0.00     0.002 A 
ATOM     34  C   UNL d   1       3.105  -6.446  -2.902  0.00  0.00     0.001 A 
ATOM     35  C   UNL d   1       2.595  -5.611  -1.903  0.00  0.00     0.015 A 
ENDBRANCH  23  29
ENDBRANCH   1  22
TORSDOF 4
