REMARK  9 active torsions:
REMARK  status: ('A' for Active; 'I' for Inactive)
REMARK    1  A    between atoms: S_9  and  C_1 
REMARK    2  A    between atoms: C_17  and  N_2 
REMARK    3  A    between atoms: C_18  and  C_3 
REMARK    4  A    between atoms: N_10  and  C_6 
REMARK    5  A    between atoms: C_11  and  S_9 
REMARK    6  A    between atoms: C_16  and  C_12 
REMARK    7  A    between atoms: O_34  and  C_16 
REMARK    8  A    between atoms: C_22  and  C_23 
REMARK    9  A    between atoms: C_35  and  C_24 
ROOT
ATOM      1  C   UNL d   1      -0.164  -1.265  -0.249  0.00  0.00     0.174 C 
ATOM      2  N   UNL d   1       1.111  -0.722  -0.127  0.00  0.00    -0.275 N 
ATOM      3  C   UNL d   1       0.878   0.668  -0.139  0.00  0.00     0.139 C 
ATOM      4  N   UNL d   1      -0.423   0.887  -0.085  0.00  0.00    -0.282 N 
ATOM      5  HN  UNL d   1      -0.870   1.800   0.003  1.00  0.00     0.188 HD
ATOM      6  N   UNL d   1      -1.070  -0.315  -0.168  0.00  0.00    -0.277 N 
ATOM      7  HN  UNL d   1      -2.081  -0.452  -0.166  1.00  0.00     0.189 HD
ENDROOT
BRANCH   1   8
ATOM      8  S   UNL d   1      -0.596  -2.949  -0.205  0.00  0.00    -0.032 SA
BRANCH   8   9
ATOM      9  C   UNL d   1      -0.690  -3.322  -1.954  0.00  0.00     0.110 A 
ATOM     10  C   UNL d   1      -1.381  -4.406  -2.491  0.00  0.00     0.137 A 
ATOM     11  C   UNL d   1      -1.289  -4.727  -3.857  0.00  0.00     0.058 A 
ATOM     12  C   UNL d   1      -0.480  -3.941  -4.674  0.00  0.00     0.057 A 
ATOM     13  C   UNL d   1       0.162  -2.862  -4.087  0.00  0.00     0.106 A 
ATOM     14  N   UNL d   1       0.074  -2.544  -2.769  0.00  0.00    -0.357 N 
ATOM     15  HN  UNL d   1       0.573  -1.737  -2.396  1.00  0.00     0.166 HD
BRANCH  10  16
ATOM     16  N   UNL d   1      -2.182  -5.265  -1.659  0.00  0.00    -0.113 N 
ATOM     17  O   UNL d   1      -1.590  -5.972  -0.834  0.00  0.00    -0.532 OA
ATOM     18  O   UNL d   1      -3.396  -5.281  -1.889  0.00  0.00    -0.532 OA
ENDBRANCH  10  16
BRANCH  12  19
ATOM     19  C   UNL d   1      -0.237  -4.188  -6.111  0.00  0.00     0.294 C 
ATOM     20  O   UNL d   1       0.406  -3.417  -6.811  0.00  0.00    -0.259 OA
BRANCH  19  21
ATOM     21  O   UNL d   1      -0.776  -5.365  -6.507  0.00  0.00    -0.322 OA
ATOM     22  C   UNL d   1      -0.522  -5.673  -7.884  0.00  0.00     0.213 C 
ENDBRANCH  19  21
ENDBRANCH  12  19
ENDBRANCH   8   9
ENDBRANCH   1   8
BRANCH   2  23
ATOM     23  C   UNL d   1       2.394  -1.358  -0.041  0.00  0.00     0.043 A 
ATOM     24  C   UNL d   1       2.691  -2.503  -0.778  0.00  0.00     0.031 A 
ATOM     25  C   UNL d   1       3.999  -2.987  -0.846  0.00  0.00     0.010 A 
ATOM     26  C   UNL d   1       5.045  -2.346  -0.172  0.00  0.00    -0.055 A 
ATOM     27  C   UNL d   1       4.744  -1.225   0.604  0.00  0.00     0.010 A 
ATOM     28  C   UNL d   1       3.429  -0.760   0.697  0.00  0.00     0.031 A 
BRANCH  26  29
ATOM     29  C   UNL d   1       6.458  -2.891  -0.213  0.00  0.00     0.010 C 
ATOM     30  C   UNL d   1       6.492  -4.257   0.479  0.00  0.00     0.015 C 
ATOM     31  C   UNL d   1       7.025  -2.963  -1.632  0.00  0.00     0.015 C 
ENDBRANCH  26  29
ENDBRANCH   2  23
BRANCH   3  32
ATOM     32  C   UNL d   1       1.906   1.718  -0.228  0.00  0.00     0.010 C 
ATOM     33  C   UNL d   1       2.981   1.603  -1.115  0.00  0.00     0.016 C 
ATOM     34  C   UNL d   1       4.098   2.434  -0.998  0.00  0.00     0.009 C 
ATOM     35  C   UNL d   1       4.145   3.473  -0.053  0.00  0.00    -0.051 C 
ATOM     36  C   UNL d   1       2.998   3.667   0.737  0.00  0.00     0.009 C 
ATOM     37  C   UNL d   1       1.893   2.802   0.654  0.00  0.00     0.016 C 
BRANCH  35  38
ATOM     38  C   UNL d   1       5.426   4.316   0.096  0.00  0.00    -0.024 C 
ATOM     39  C   UNL d   1       5.273   5.504   1.069  0.00  0.00     0.019 C 
ATOM     40  C   UNL d   1       6.575   3.430   0.631  0.00  0.00     0.019 C 
ATOM     41  C   UNL d   1       5.846   4.895  -1.273  0.00  0.00     0.019 C 
ENDBRANCH  35  38
ENDBRANCH   3  32
TORSDOF 9
