REMARK  5 active torsions:
REMARK  status: ('A' for Active; 'I' for Inactive)
REMARK    1  A    between atoms: N_4  and  C_1 
REMARK       I    between atoms: C_2  and  N_5 
REMARK       I    between atoms: N_7  and  C_2 
REMARK    2  A    between atoms: C_3  and  C_10 
REMARK    3  A    between atoms: N_5  and  C_6 
REMARK    4  A    between atoms: C_19  and  N_7 
REMARK    5  A    between atoms: C_23  and  O_21 
ROOT
ATOM      1  O   UNL d   1       2.784   0.294   1.391  0.00  0.00    -0.401 OA
ATOM      2  H   UNL d   1       2.022  -0.149   1.807  0.00  0.00     0.209 HD
ENDROOT
BRANCH   1   3
ATOM      3  C   UNL d   1       3.260  -0.537   0.346  0.00  0.00     0.159 C 
ATOM      4  C   UNL d   1       3.702   0.328  -0.820  0.00  0.00     0.033 C 
ENDBRANCH   1   3
TORSDOF 5
