REMARK  7 active torsions:
REMARK  status: ('A' for Active; 'I' for Inactive)
REMARK    1  A    between atoms: O_20  and  C_1 
REMARK    2  A    between atoms: O_22  and  C_2 
REMARK    3  A    between atoms: O_21  and  C_3 
REMARK       I    between atoms: C_4  and  N_11 
REMARK    4  A    between atoms: C_7  and  C_4 
REMARK    5  A    between atoms: N_11  and  N_5 
REMARK    6  A    between atoms: N_13  and  C_10 
REMARK    7  A    between atoms: C_19  and  C_12 
ROOT
ATOM      1  N   UNL d   1      -3.672  -0.636  -0.328  0.00  0.00    -0.308 N 
ATOM      2  HN  UNL d   1      -3.339  -1.600  -0.308  1.00  0.00     0.186 HD
ATOM      3  C   UNL d   1      -2.867   0.362  -0.205  0.00  0.00     0.118 C 
ENDROOT
BRANCH   1   4
ATOM      4  N   UNL d   1      -4.992  -0.339  -0.485  0.00  0.00    -0.266 N 
ATOM      5  C   UNL d   1      -5.904  -1.368  -0.650  0.00  0.00     0.270 C 
ATOM      6  O   UNL d   1      -5.624  -2.565  -0.720  0.00  0.00    -0.266 OA
ATOM      7  H   UNL d   1      -5.278   0.632  -0.554  0.00  0.00     0.190 HD
BRANCH   5   8
ATOM      8  C   UNL d   1      -7.331  -0.955  -0.778  0.00  0.00     0.033 A 
ATOM      9  C   UNL d   1      -8.190  -1.748  -1.537  0.00  0.00     0.019 A 
ATOM     10  C   UNL d   1      -9.543  -1.405  -1.671  0.00  0.00     0.030 A 
ATOM     11  C   UNL d   1     -10.097  -0.277  -1.043  0.00  0.00     0.029 A 
ATOM     12  C   UNL d   1      -9.207   0.485  -0.261  0.00  0.00     0.030 A 
ATOM     13  C   UNL d   1      -7.846   0.164  -0.129  0.00  0.00     0.019 A 
BRANCH  11  14
ATOM     14  N   UNL d   1     -11.448   0.039  -1.111  0.00  0.00    -0.390 N 
ATOM     15  C   UNL d   1     -11.893   1.433  -1.079  0.00  0.00     0.149 C 
ATOM     16  C   UNL d   1     -12.427  -0.882  -1.686  0.00  0.00     0.149 C 
ENDBRANCH  11  14
ENDBRANCH   5   8
ENDBRANCH   1   4
BRANCH   3  17
ATOM     17  C   UNL d   1      -1.415   0.156  -0.013  0.00  0.00    -0.014 A 
ATOM     18  C   UNL d   1      -0.863  -1.123  -0.043  0.00  0.00     0.052 A 
ATOM     19  C   UNL d   1       0.509  -1.310   0.163  0.00  0.00     0.105 A 
ATOM     20  C   UNL d   1       1.343  -0.197   0.375  0.00  0.00     0.135 A 
ATOM     21  C   UNL d   1       0.788   1.104   0.306  0.00  0.00     0.105 A 
ATOM     22  C   UNL d   1      -0.596   1.268   0.167  0.00  0.00     0.052 A 
BRANCH  19  23
ATOM     23  O   UNL d   1       0.889  -2.620   0.035  0.00  0.00    -0.353 OA
ATOM     24  C   UNL d   1       1.931  -3.077   0.884  0.00  0.00     0.210 C 
ENDBRANCH  19  23
BRANCH  20  25
ATOM     25  O   UNL d   1       2.698  -0.399   0.464  0.00  0.00    -0.351 OA
ATOM     26  C   UNL d   1       3.331   0.197   1.598  0.00  0.00     0.210 C 
ENDBRANCH  20  25
BRANCH  21  27
ATOM     27  O   UNL d   1       1.657   2.169   0.343  0.00  0.00    -0.353 OA
ATOM     28  C   UNL d   1       1.179   3.405  -0.181  0.00  0.00     0.210 C 
ENDBRANCH  21  27
ENDBRANCH   3  17
TORSDOF 7
