REMARK  3 active torsions:
REMARK  status: ('A' for Active; 'I' for Inactive)
REMARK    1  A    between atoms: C_12  and  C_1 
REMARK    2  A    between atoms: C_10  and  O_14 
REMARK    3  A    between atoms: O_14  and  C_12 
ROOT
ATOM      1  C   UNL d   1      -5.324   1.213  -2.208  0.00  0.00     0.027 A 
ATOM      2  N   UNL d   1      -7.072   2.848  -1.889  0.00  0.00    -0.359 N 
ATOM      3  HN  UNL d   1      -8.032   3.156  -2.042  1.00  0.00     0.166 HD
ATOM      4  C   UNL d   1      -4.455   2.003  -1.424  0.00  0.00     0.083 A 
ATOM      5  C   UNL d   1      -6.638   1.686  -2.400  0.00  0.00     0.045 A 
ATOM      6  C   UNL d   1      -4.902   3.216  -0.909  0.00  0.00     0.062 A 
ATOM      7  C   UNL d   1      -6.211   3.603  -1.167  0.00  0.00     0.008 A 
ATOM      8  C   UNL d   1      -4.937  -0.011  -2.796  0.00  0.00     0.058 A 
ATOM      9  C   UNL d   1      -7.521   0.927  -3.162  0.00  0.00     0.033 A 
ATOM     10  C   UNL d   1      -5.844  -0.742  -3.550  0.00  0.00     0.117 A 
ATOM     11  C   UNL d   1      -7.136  -0.284  -3.740  0.00  0.00     0.044 A 
ATOM     12  F   UNL d   1      -5.465  -1.903  -4.100  0.00  0.00    -0.206 F 
ATOM     13  C   UNL d   1      -6.717   4.933  -0.693  0.00  0.00     0.068 C 
ENDROOT
BRANCH   4  14
ATOM     14  O   UNL d   1      -3.158   1.563  -1.290  0.00  0.00    -0.346 OA
BRANCH  14  15
ATOM     15  C   UNL d   1      -2.553   1.762  -0.004  0.00  0.00     0.215 C 
BRANCH  15  16
ATOM     16  C   UNL d   1      -1.226   1.003   0.050  0.00  0.00    -0.021 A 
ATOM     17  C   UNL d   1       0.022   1.688   0.119  0.00  0.00    -0.047 A 
ATOM     18  C   UNL d   1       1.240   0.955   0.034  0.00  0.00    -0.049 A 
ATOM     19  C   UNL d   1       0.109   3.193   0.260  0.00  0.00     0.049 C 
ATOM     20  C   UNL d   1       2.584   1.656  -0.030  0.00  0.00     0.049 C 
ATOM     21  C   UNL d   1       1.222  -0.464   0.008  0.00  0.00    -0.049 A 
ATOM     22  C   UNL d   1      -0.012  -1.155   0.016  0.00  0.00    -0.049 A 
ATOM     23  C   UNL d   1       2.542  -1.211  -0.022  0.00  0.00     0.049 C 
ATOM     24  C   UNL d   1      -1.234  -0.425   0.015  0.00  0.00    -0.047 A 
ATOM     25  C   UNL d   1      -0.006  -2.670   0.019  0.00  0.00     0.049 C 
ATOM     26  C   UNL d   1      -2.535  -1.202  -0.022  0.00  0.00     0.049 C 
ENDBRANCH  15  16
ENDBRANCH  14  15
ENDBRANCH   4  14
TORSDOF 3
