REMARK  5 active torsions:
REMARK  status: ('A' for Active; 'I' for Inactive)
REMARK    1  A    between atoms: N_2  and  C_1 
REMARK    2  A    between atoms: N_10  and  C_3 
REMARK    3  A    between atoms: C_4  and  C_5 
REMARK    4  A    between atoms: O_11  and  C_4 
REMARK    5  A    between atoms: C_14  and  O_11 
ROOT
ATOM      1  C   UNL d   1       1.705   0.838   0.547  0.00  0.00     0.032 A 
ATOM      2  C   UNL d   1       0.705   1.832   0.358  0.00  0.00     0.028 A 
ATOM      3  C   UNL d   1      -1.055   0.153   0.458  0.00  0.00     0.041 A 
ATOM      4  C   UNL d   1      -0.652   1.482   0.314  0.00  0.00     0.042 A 
ATOM      5  C   UNL d   1       1.275  -0.492   0.694  0.00  0.00     0.026 A 
ATOM      6  C   UNL d   1      -0.086  -0.836   0.648  0.00  0.00     0.019 A 
ENDROOT
BRANCH   1   7
ATOM      7  N   UNL d   1       3.071   1.204   0.575  0.00  0.00    -0.282 NA
ATOM      8  C   UNL d   1       4.067   0.168   0.257  0.00  0.00     0.096 C 
ATOM      9  C   UNL d   1       5.428   0.816  -0.025  0.00  0.00     0.015 C 
ATOM     10  C   UNL d   1       5.851   1.800   1.066  0.00  0.00     0.002 C 
ATOM     11  C   UNL d   1       4.725   2.777   1.394  0.00  0.00     0.015 C 
ATOM     12  C   UNL d   1       3.448   2.014   1.749  0.00  0.00     0.096 C 
ENDBRANCH   1   7
BRANCH   2  13
ATOM     13  N   UNL d   1       1.056   3.145  -0.028  0.00  0.00    -0.301 NA
ATOM     14  H   UNL d   1       2.048   3.319   0.104  0.00  0.00     0.124 HD
ATOM     15  H   UNL d   1       0.444   3.865   0.339  0.00  0.00     0.124 HD
ENDBRANCH   2  13
BRANCH   3  16
ATOM     16  C   UNL d   1      -2.508  -0.153   0.327  0.00  0.00     0.293 C 
ATOM     17  O   UNL d   1      -3.361   0.712   0.172  0.00  0.00    -0.259 OA
BRANCH  16  18
ATOM     18  O   UNL d   1      -2.731  -1.493   0.364  0.00  0.00    -0.318 OA
BRANCH  18  19
ATOM     19  C   UNL d   1      -4.079  -1.898   0.080  0.00  0.00     0.174 C 
ATOM     20  C   UNL d   1      -4.951  -1.824   1.320  0.00  0.00     0.034 C 
ENDBRANCH  18  19
ENDBRANCH  16  18
ENDBRANCH   3  16
TORSDOF 5
