REMARK  8 active torsions:
REMARK  status: ('A' for Active; 'I' for Inactive)
REMARK    1  A    between atoms: C_2  and  N_1 
REMARK       I    between atoms: C_3  and  N_1 
REMARK    2  A    between atoms: N_4  and  C_2 
REMARK    3  A    between atoms: C_6  and  C_3 
REMARK    4  A    between atoms: C_12  and  N_4 
REMARK    5  A    between atoms: C_18  and  C_15 
REMARK    6  A    between atoms: C_20  and  C_18 
REMARK    7  A    between atoms: C_22  and  C_20 
REMARK    8  A    between atoms: C_21  and  C_22 
ROOT
ATOM      1  N   UNL d   1       0.801  -0.127   0.563  0.00  0.00    -0.299 N 
ATOM      2  C   UNL d   1       2.183   0.021   0.639  0.00  0.00     0.257 C 
ATOM      3  O   UNL d   1       2.779   1.096   0.664  0.00  0.00    -0.267 OA
ATOM      4  H   UNL d   1       0.426  -1.055   0.522  0.00  0.00     0.171 HD
ENDROOT
BRANCH   1   5
ATOM      5  C   UNL d   1      -0.148   0.856   0.743  0.00  0.00     0.179 C 
ATOM      6  S   UNL d   1      -0.024   2.199   1.730  0.00  0.00    -0.040 SA
BRANCH   5   7
ATOM      7  N   UNL d   1      -1.341   0.675   0.086  0.00  0.00    -0.332 N 
ATOM      8  H   UNL d   1      -2.060   1.317   0.411  0.00  0.00     0.168 HD
BRANCH   7   9
ATOM      9  C   UNL d   1      -1.585   0.108  -1.187  0.00  0.00     0.049 A 
ATOM     10  C   UNL d   1      -2.876   0.180  -1.712  0.00  0.00     0.117 A 
ATOM     11  N   UNL d   1      -3.226  -0.210  -2.962  0.00  0.00    -0.373 N 
ATOM     12  C   UNL d   1      -2.237  -0.692  -3.742  0.00  0.00     0.088 A 
ATOM     13  HN  UNL d   1      -4.187  -0.143  -3.296  1.00  0.00     0.164 HD
ATOM     14  C   UNL d   1      -0.929  -0.827  -3.316  0.00  0.00     0.019 A 
ATOM     15  C   UNL d   1      -0.604  -0.421  -2.025  0.00  0.00     0.032 A 
ENDBRANCH   7   9
ENDBRANCH   5   7
ENDBRANCH   1   5
BRANCH   2  16
ATOM     16  C   UNL d   1       2.993  -1.228   0.601  0.00  0.00     0.032 A 
ATOM     17  C   UNL d   1       2.612  -2.379  -0.092  0.00  0.00     0.017 A 
ATOM     18  C   UNL d   1       3.422  -3.521  -0.042  0.00  0.00     0.008 A 
ATOM     19  C   UNL d   1       4.613  -3.516   0.696  0.00  0.00    -0.058 A 
ATOM     20  C   UNL d   1       5.025  -2.333   1.315  0.00  0.00     0.008 A 
ATOM     21  C   UNL d   1       4.220  -1.197   1.272  0.00  0.00     0.017 A 
BRANCH  19  22
ATOM     22  C   UNL d   1       5.425  -4.778   0.876  0.00  0.00     0.038 C 
BRANCH  22  23
ATOM     23  C   UNL d   1       5.544  -5.202   2.349  0.00  0.00     0.005 C 
BRANCH  23  24
ATOM     24  C   UNL d   1       4.190  -5.517   3.001  0.00  0.00    -0.000 C 
BRANCH  24  25
ATOM     25  C   UNL d   1       4.371  -5.920   4.466  0.00  0.00    -0.005 C 
ATOM     26  C   UNL d   1       3.039  -6.229   5.130  0.00  0.00     0.005 C 
ENDBRANCH  24  25
ENDBRANCH  23  24
ENDBRANCH  22  23
ENDBRANCH  19  22
ENDBRANCH   2  16
TORSDOF 8
