REMARK  8 active torsions:
REMARK  status: ('A' for Active; 'I' for Inactive)
REMARK    1  A    between atoms: C_2  and  N_1 
REMARK    2  A    between atoms: C_5  and  C_4 
REMARK    3  A    between atoms: O_24  and  C_5 
REMARK    4  A    between atoms: S_11  and  C_6 
REMARK    5  A    between atoms: C_9  and  C_20 
REMARK       I    between atoms: N_13  and  C_9 
REMARK    6  A    between atoms: C_20  and  S_11 
REMARK    7  A    between atoms: C_14  and  N_13 
REMARK    8  A    between atoms: C_26  and  O_24 
ROOT
ATOM      1  C   UNL d   1      -0.054  -2.748  -0.475  0.00  0.00     0.120 A 
ATOM      2  C   UNL d   1      -0.657  -3.380   0.622  0.00  0.00     0.055 A 
ATOM      3  C   UNL d   1      -1.644  -2.703   1.339  0.00  0.00     0.042 A 
ATOM      4  C   UNL d   1      -0.442  -1.470  -0.916  0.00  0.00     0.034 A 
ATOM      5  C   UNL d   1      -1.952  -1.381   1.001  0.00  0.00     0.019 A 
ATOM      6  C   UNL d   1      -1.367  -0.776  -0.122  0.00  0.00     0.022 A 
ENDROOT
BRANCH   4   7
ATOM      7  S   UNL d   1       0.030  -0.892  -2.552  0.00  0.00    -0.118 SA
BRANCH   7   8
ATOM      8  C   UNL d   1       0.068   0.912  -2.393  0.00  0.00     0.182 C 
BRANCH   8   9
ATOM      9  C   UNL d   1       1.175   1.420  -1.491  0.00  0.00     0.231 C 
ATOM     10  N   UNL d   1       2.366   0.724  -1.555  0.00  0.00    -0.326 N 
ATOM     11  H   UNL d   1       2.409  -0.058  -2.208  0.00  0.00     0.169 HD
ATOM     12  O   UNL d   1       0.980   2.453  -0.849  0.00  0.00    -0.272 OA
BRANCH  10  13
ATOM     13  C   UNL d   1       3.571   1.069  -0.904  0.00  0.00     0.036 A 
ATOM     14  C   UNL d   1       3.632   2.010   0.124  0.00  0.00     0.053 A 
ATOM     15  C   UNL d   1       4.860   2.410   0.653  0.00  0.00     0.042 A 
ATOM     16 CL   UNL d   1       4.846   3.612   1.896  0.00  0.00    -0.084 Cl
ATOM     17  C   UNL d   1       6.058   1.867   0.171  0.00  0.00    -0.040 A 
ATOM     18  C   UNL d   1       5.989   0.869  -0.812  0.00  0.00     0.011 A 
ATOM     19  C   UNL d   1       7.392   2.363   0.648  0.00  0.00     0.050 C 
ATOM     20  C   UNL d   1       4.754   0.463  -1.335  0.00  0.00     0.030 A 
ENDBRANCH  10  13
ENDBRANCH   8   9
ENDBRANCH   7   8
ENDBRANCH   4   7
BRANCH   1  21
ATOM     21  N   UNL d   1       1.037  -3.452  -1.126  0.00  0.00    -0.114 N 
ATOM     22  O   UNL d   1       0.808  -4.597  -1.529  0.00  0.00    -0.532 OA
ATOM     23  O   UNL d   1       2.133  -2.875  -1.183  0.00  0.00    -0.532 OA
ENDBRANCH   1  21
BRANCH   3  24
ATOM     24  C   UNL d   1      -2.369  -3.330   2.477  0.00  0.00     0.293 C 
ATOM     25  O   UNL d   1      -3.116  -2.723   3.223  0.00  0.00    -0.259 OA
BRANCH  24  26
ATOM     26  O   UNL d   1      -2.024  -4.637   2.562  0.00  0.00    -0.318 OA
BRANCH  26  27
ATOM     27  C   UNL d   1      -2.343  -5.280   3.802  0.00  0.00     0.174 C 
ATOM     28  C   UNL d   1      -1.202  -5.015   4.765  0.00  0.00     0.034 C 
ENDBRANCH  26  27
ENDBRANCH  24  26
ENDBRANCH   3  24
TORSDOF 8
