REMARK  5 active torsions:
REMARK  status: ('A' for Active; 'I' for Inactive)
REMARK    1  A    between atoms: C_2  and  C_1 
REMARK    2  A    between atoms: S_8  and  C_1 
REMARK       I    between atoms: N_6  and  C_2 
REMARK    3  A    between atoms: C_5  and  C_7 
REMARK    4  A    between atoms: C_9  and  N_6 
REMARK    5  A    between atoms: C_19  and  S_8 
ROOT
ATOM      1  C   UNL d   1       0.263  -0.140   1.287  0.00  0.00     0.306 C 
ATOM      2  N   UNL d   1      -0.265   1.089   1.703  0.00  0.00    -0.319 N 
ATOM      3  O   UNL d   1       0.202  -0.573   0.137  0.00  0.00    -0.265 OA
ATOM      4  H   UNL d   1       0.003   1.385   2.638  0.00  0.00     0.169 HD
ENDROOT
BRANCH   2   5
ATOM      5  C   UNL d   1      -0.936   2.028   0.886  0.00  0.00     0.057 A 
ATOM      6  C   UNL d   1      -0.999   3.381   1.253  0.00  0.00     0.032 A 
ATOM      7  N   UNL d   1      -1.566   4.334   0.465  0.00  0.00    -0.354 N 
ATOM      8  C   UNL d   1      -0.411   3.892   2.538  0.00  0.00     0.070 C 
ATOM      9  C   UNL d   1      -2.104   3.963  -0.731  0.00  0.00     0.117 A 
ATOM     10  HN  UNL d   1      -1.589   5.309   0.764  1.00  0.00     0.166 HD
ATOM     11  C   UNL d   1      -2.141   2.629  -1.125  0.00  0.00     0.036 A 
ATOM     12  C   UNL d   1      -1.553   1.663  -0.311  0.00  0.00     0.034 A 
BRANCH   9  13
ATOM     13  C   UNL d   1      -2.662   5.022  -1.674  0.00  0.00     0.432 C 
ATOM     14  F   UNL d   1      -2.427   6.306  -1.283  0.00  0.00    -0.165 F 
ATOM     15  F   UNL d   1      -2.136   4.921  -2.933  0.00  0.00    -0.165 F 
ATOM     16  F   UNL d   1      -4.013   4.920  -1.838  0.00  0.00    -0.165 F 
ENDBRANCH   9  13
ENDBRANCH   2   5
BRANCH   1  17
ATOM     17  C   UNL d   1       0.960  -0.907   2.441  0.00  0.00     0.375 C 
ATOM     18  F   UNL d   1       0.338  -2.093   2.689  0.00  0.00    -0.182 F 
ATOM     19  F   UNL d   1       0.875  -0.184   3.603  0.00  0.00    -0.182 F 
BRANCH  17  20
ATOM     20  S   UNL d   1       2.716  -1.165   2.028  0.00  0.00    -0.043 SA
BRANCH  20  21
ATOM     21  C   UNL d   1       3.225  -2.376   3.240  0.00  0.00     0.006 A 
ATOM     22  C   UNL d   1       4.175  -3.330   2.849  0.00  0.00     0.018 A 
ATOM     23  C   UNL d   1       4.641  -4.288   3.754  0.00  0.00     0.001 A 
ATOM     24  C   UNL d   1       4.167  -4.297   5.065  0.00  0.00     0.000 A 
ATOM     25  C   UNL d   1       3.235  -3.347   5.466  0.00  0.00     0.001 A 
ATOM     26  C   UNL d   1       2.768  -2.388   4.564  0.00  0.00     0.018 A 
ENDBRANCH  20  21
ENDBRANCH  17  20
ENDBRANCH   1  17
TORSDOF 5
