REMARK  4 active torsions:
REMARK  status: ('A' for Active; 'I' for Inactive)
REMARK    1  A    between atoms: C_9  and  C_3 
REMARK    2  A    between atoms: S_6  and  C_16 
REMARK    3  A    between atoms: N_22  and  S_6 
REMARK    4  A    between atoms: C_18  and  C_12 
ROOT
ATOM      1  N   UNL d   1       0.577   0.801   0.009  0.00  0.00    -0.302 N 
ATOM      2  C   UNL d   1      -0.130  -0.374  -0.018  0.00  0.00     0.123 A 
ATOM      3  C   UNL d   1      -0.074   2.114  -0.061  0.00  0.00     0.249 C 
ATOM      4  N   UNL d   1       0.684  -1.411  -0.037  0.00  0.00    -0.340 N 
ATOM      5  HN  UNL d   1       0.428  -2.398  -0.078  1.00  0.00     0.167 HD
ATOM      6  N   UNL d   1      -1.536   2.090   0.184  0.00  0.00    -0.362 N 
ATOM      7  C   UNL d   1      -1.582  -0.361  -0.017  0.00  0.00     0.035 A 
ATOM      8  C   UNL d   1       1.917   0.510   0.051  0.00  0.00     0.065 A 
ATOM      9  C   UNL d   1      -2.240   0.884   0.036  0.00  0.00     0.044 A 
ATOM     10  C   UNL d   1       1.951  -0.882   0.011  0.00  0.00     0.061 A 
ATOM     11  C   UNL d   1      -2.311  -1.559  -0.050  0.00  0.00     0.017 A 
ATOM     12  C   UNL d   1       3.070   1.299   0.100  0.00  0.00     0.032 A 
ATOM     13  C   UNL d   1      -3.639   0.886   0.114  0.00  0.00     0.030 A 
ATOM     14  C   UNL d   1       3.189  -1.539   0.022  0.00  0.00     0.032 A 
ATOM     15  C   UNL d   1      -3.702  -1.533   0.007  0.00  0.00     0.001 A 
ATOM     16  C   UNL d   1       4.295   0.625   0.114  0.00  0.00     0.002 A 
ATOM     17  C   UNL d   1       4.357  -0.770   0.077  0.00  0.00     0.002 A 
ATOM     18  C   UNL d   1      -4.365  -0.311   0.094  0.00  0.00     0.002 A 
ATOM     19  H   UNL d   1      -2.020   2.905  -0.176  0.00  0.00     0.162 HD
ENDROOT
BRANCH   3  20
ATOM     20  C   UNL d   1       0.306   2.752  -1.373  0.00  0.00     0.096 A 
ATOM     21  O   UNL d   1       0.968   3.956  -1.347  0.00  0.00    -0.310 OA
ATOM     22  C   UNL d   1       1.271   4.287  -2.647  0.00  0.00     0.086 A 
ATOM     23  C   UNL d   1       0.793   3.301  -3.491  0.00  0.00     0.041 A 
ATOM     24  C   UNL d   1       0.170   2.334  -2.678  0.00  0.00     0.040 A 
BRANCH  22  25
ATOM     25  C   UNL d   1       1.954   5.554  -2.888  0.00  0.00    -0.001 A 
ATOM     26  C   UNL d   1       2.338   6.366  -1.819  0.00  0.00     0.039 A 
ATOM     27  C   UNL d   1       2.845   7.645  -2.055  0.00  0.00     0.080 A 
ATOM     28  C   UNL d   1       3.017   8.127  -3.354  0.00  0.00     0.025 A 
ATOM     29  C   UNL d   1       2.684   7.309  -4.429  0.00  0.00     0.002 A 
ATOM     30  C   UNL d   1       2.160   6.031  -4.197  0.00  0.00     0.014 A 
BRANCH  27  31
ATOM     31  S   UNL d   1       3.197   8.706  -0.691  0.00  0.00     0.256 S 
ATOM     32  O   UNL d   1       3.195  10.078  -1.138  0.00  0.00    -0.201 OA
ATOM     33  O   UNL d   1       2.414   8.261   0.456  0.00  0.00    -0.201 OA
BRANCH  31  34
ATOM     34  N   UNL d   1       4.782   8.275  -0.405  0.00  0.00    -0.324 N 
ATOM     35  H   UNL d   1       5.456   9.008  -0.629  0.00  0.00     0.169 HD
ATOM     36  H   UNL d   1       4.924   7.747   0.453  0.00  0.00     0.169 HD
ENDBRANCH  31  34
ENDBRANCH  27  31
ENDBRANCH  22  25
ENDBRANCH   3  20
TORSDOF 4
