REMARK  5 active torsions:
REMARK  status: ('A' for Active; 'I' for Inactive)
REMARK    1  A    between atoms: C_8  and  C_1 
REMARK    2  A    between atoms: C_9  and  C_2 
REMARK    3  A    between atoms: C_7  and  C_3 
REMARK    4  A    between atoms: O_14  and  C_8 
REMARK    5  A    between atoms: O_15  and  C_9 
ROOT
ATOM      1  C   UNL d   1      -1.497  -0.850  -0.072  0.00  0.00     0.092 A 
ATOM      2  C   UNL d   1      -0.253  -1.451   0.110  0.00  0.00     0.115 A 
ATOM      3  C   UNL d   1      -1.411   0.578   0.196  0.00  0.00     0.070 A 
ATOM      4  N   UNL d   1      -0.210   0.999   0.606  0.00  0.00    -0.324 N 
ATOM      5  HN  UNL d   1       0.016   1.959   0.868  1.00  0.00     0.174 HD
ATOM      6  S   UNL d   1       0.850  -0.258   0.624  0.00  0.00    -0.007 SA
ENDROOT
BRANCH   3   7
ATOM      7  C   UNL d   1      -2.503   1.567   0.119  0.00  0.00     0.036 A 
ATOM      8  C   UNL d   1      -3.678   1.430   0.886  0.00  0.00     0.048 A 
ATOM      9 CL   UNL d   1      -3.900   0.171   2.058  0.00  0.00    -0.083 Cl
ATOM     10  C   UNL d   1      -4.724   2.357   0.777  0.00  0.00     0.025 A 
ATOM     11  C   UNL d   1      -4.599   3.467  -0.050  0.00  0.00     0.003 A 
ATOM     12  C   UNL d   1      -3.429   3.649  -0.779  0.00  0.00     0.025 A 
ATOM     13  C   UNL d   1      -2.395   2.704  -0.710  0.00  0.00     0.048 A 
ATOM     14 CL   UNL d   1      -1.014   3.017  -1.713  0.00  0.00    -0.083 Cl
ENDBRANCH   3   7
BRANCH   1  15
ATOM     15  C   UNL d   1      -2.716  -1.552  -0.426  0.00  0.00     0.296 C 
ATOM     16  O   UNL d   1      -3.529  -1.113  -1.228  0.00  0.00    -0.259 OA
BRANCH  15  17
ATOM     17  O   UNL d   1      -2.895  -2.670   0.336  0.00  0.00    -0.322 OA
ATOM     18  C   UNL d   1      -4.156  -3.328   0.204  0.00  0.00     0.213 C 
ENDBRANCH  15  17
ENDBRANCH   1  15
BRANCH   2  19
ATOM     19  C   UNL d   1       0.226  -2.805  -0.046  0.00  0.00     0.302 C 
ATOM     20  O   UNL d   1       1.264  -3.255   0.424  0.00  0.00    -0.259 OA
BRANCH  19  21
ATOM     21  O   UNL d   1      -0.625  -3.532  -0.826  0.00  0.00    -0.322 OA
ATOM     22  C   UNL d   1      -0.269  -4.910  -0.948  0.00  0.00     0.213 C 
ENDBRANCH  19  21
ENDBRANCH   2  19
TORSDOF 5
