REMARK  2 active torsions:
REMARK  status: ('A' for Active; 'I' for Inactive)
REMARK    1  A    between atoms: C_6  and  C_1 
REMARK    2  A    between atoms: C_12  and  C_3 
ROOT
ATOM      1  C   UNL d   1      -0.167  -1.288  -0.032  0.00  0.00     0.024 A 
ATOM      2  C   UNL d   1      -1.495  -0.783  -0.034  0.00  0.00     0.054 A 
ATOM      3  C   UNL d   1      -1.406   0.595  -0.009  0.00  0.00     0.086 A 
ATOM      4  C   UNL d   1       0.661  -0.183  -0.025  0.00  0.00     0.062 A 
ATOM      5  O   UNL d   1      -0.090   0.960  -0.013  0.00  0.00    -0.314 OA
ATOM      6  C   UNL d   1       2.123   0.029  -0.019  0.00  0.00     0.077 C 
ENDROOT
BRANCH   1   7
ATOM      7  C   UNL d   1       0.182  -2.710  -0.024  0.00  0.00     0.062 A 
ATOM      8  N   UNL d   1       1.439  -3.166   0.027  0.00  0.00    -0.300 N 
ATOM      9  N   UNL d   1       1.303  -4.501   0.035  0.00  0.00    -0.311 N 
ATOM     10  HN  UNL d   1       2.302  -2.623   0.054  1.00  0.00     0.187 HD
ATOM     11  C   UNL d   1       0.007  -4.918  -0.014  0.00  0.00     0.109 A 
ATOM     12  H   UNL d   1       2.144  -5.068   0.076  0.00  0.00     0.186 HD
ATOM     13  C   UNL d   1      -0.753  -3.772  -0.055  0.00  0.00     0.050 A 
ENDBRANCH   1   7
BRANCH   3  14
ATOM     14  C   UNL d   1      -2.392   1.673   0.032  0.00  0.00    -0.002 A 
ATOM     15  C   UNL d   1      -3.762   1.376   0.119  0.00  0.00     0.014 A 
ATOM     16  C   UNL d   1      -4.718   2.394   0.173  0.00  0.00     0.001 A 
ATOM     17  C   UNL d   1      -4.319   3.727   0.140  0.00  0.00     0.000 A 
ATOM     18  C   UNL d   1      -2.965   4.042   0.053  0.00  0.00     0.001 A 
ATOM     19  C   UNL d   1      -2.009   3.022  -0.001  0.00  0.00     0.014 A 
ENDBRANCH   3  14
TORSDOF 2
