REMARK  5 active torsions:
REMARK  status: ('A' for Active; 'I' for Inactive)
REMARK       I    between atoms: N_3  and  C_1 
REMARK       I    between atoms: N_6  and  C_1 
REMARK    1  A    between atoms: C_2  and  N_4 
REMARK    2  A    between atoms: C_16  and  N_6 
REMARK    3  A    between atoms: O_17  and  C_18 
REMARK    4  A    between atoms: C_19  and  O_17 
REMARK    5  A    between atoms: C_24  and  C_19 
ROOT
ATOM      1  C   UNL d   1      -1.666   4.776   1.444  0.00  0.00     0.124 A 
ATOM      2  C   UNL d   1      -1.287   5.903   0.697  0.00  0.00     0.088 A 
ATOM      3  C   UNL d   1      -0.194   5.890  -0.232  0.00  0.00     0.103 C 
ATOM      4  N   UNL d   1       0.693   5.909  -0.980  0.00  0.00    -0.191 NA
ATOM      5  N   UNL d   1      -2.788   4.813   2.207  0.00  0.00    -0.351 N 
ATOM      6  HN  UNL d   1      -3.079   3.990   2.734  1.00  0.00     0.166 HD
ATOM      7  C   UNL d   1      -2.055   7.074   0.774  0.00  0.00     0.028 A 
ATOM      8  C   UNL d   1      -3.514   5.953   2.260  0.00  0.00     0.090 A 
ATOM      9  C   UNL d   1      -3.188   7.102   1.571  0.00  0.00     0.019 A 
ENDROOT
BRANCH   1  10
ATOM     10  N   UNL d   1      -1.004   3.573   1.380  0.00  0.00    -0.363 N 
ATOM     11  C   UNL d   1      -1.722   2.324   1.641  0.00  0.00     0.144 C 
ATOM     12  C   UNL d   1      -1.247   1.278   0.606  0.00  0.00     0.147 C 
ATOM     13  N   UNL d   1       0.229   1.158   0.554  0.00  0.00    -0.331 N 
ATOM     14  C   UNL d   1       0.945   0.051   0.111  0.00  0.00     0.323 C 
ATOM     15  C   UNL d   1       0.945   2.447   0.476  0.00  0.00     0.147 C 
ATOM     16  N   UNL d   1       0.263  -1.143   0.142  0.00  0.00    -0.309 N 
ATOM     17  O   UNL d   1       2.110   0.171  -0.261  0.00  0.00    -0.247 OA
ATOM     18  H   UNL d   1      -0.660  -1.138   0.528  0.00  0.00     0.170 HD
ATOM     19  C   UNL d   1       0.449   3.444   1.532  0.00  0.00     0.144 C 
BRANCH  16  20
ATOM     20  C   UNL d   1       0.721  -2.393  -0.317  0.00  0.00     0.036 A 
ATOM     21  C   UNL d   1       2.008  -2.631  -0.800  0.00  0.00     0.032 A 
ATOM     22  C   UNL d   1       2.345  -3.871  -1.345  0.00  0.00     0.039 A 
ATOM     23  C   UNL d   1       1.393  -4.882  -1.423  0.00  0.00     0.069 A 
ATOM     24  C   UNL d   1       0.136  -4.688  -0.853  0.00  0.00     0.039 A 
ATOM     25  C   UNL d   1      -0.201  -3.448  -0.306  0.00  0.00     0.032 A 
BRANCH  23  26
ATOM     26  O   UNL d   1       1.782  -6.016  -2.082  0.00  0.00    -0.347 OA
BRANCH  26  27
ATOM     27  C   UNL d   1       0.716  -6.689  -2.756  0.00  0.00     0.214 C 
BRANCH  27  28
ATOM     28  C   UNL d   1       1.253  -7.443  -3.945  0.00  0.00    -0.034 A 
ATOM     29  C   UNL d   1       1.040  -8.822  -4.067  0.00  0.00     0.009 A 
ATOM     30  C   UNL d   1       1.473  -9.505  -5.204  0.00  0.00     0.001 A 
ATOM     31  C   UNL d   1       2.121  -8.816  -6.228  0.00  0.00     0.000 A 
ATOM     32  C   UNL d   1       2.342  -7.445  -6.116  0.00  0.00     0.001 A 
ATOM     33  C   UNL d   1       1.910  -6.760  -4.980  0.00  0.00     0.009 A 
ENDBRANCH  27  28
ENDBRANCH  26  27
ENDBRANCH  23  26
ENDBRANCH  16  20
ENDBRANCH   1  10
TORSDOF 5
