REMARK  4 active torsions:
REMARK  status: ('A' for Active; 'I' for Inactive)
REMARK    1  A    between atoms: N_6  and  C_1 
REMARK    2  A    between atoms: C_2  and  C_3 
REMARK    3  A    between atoms: C_9  and  C_11 
REMARK       I    between atoms: N_15  and  C_9 
REMARK    4  A    between atoms: N_22  and  N_15 
ROOT
ATOM      1  N   UNL d   1      -0.022   2.574  -0.050  0.00  0.00    -0.268 NA
ATOM      2  C   UNL d   1       1.028   5.227   0.252  0.00  0.00     0.081 C 
ATOM      3  C   UNL d   1       1.070   2.963  -0.951  0.00  0.00     0.098 C 
ATOM      4  C   UNL d   1       0.170   3.086   1.309  0.00  0.00     0.098 C 
ATOM      5  C   UNL d   1       0.025   4.608   1.240  0.00  0.00     0.029 C 
ATOM      6  C   UNL d   1       1.033   4.488  -1.099  0.00  0.00     0.029 C 
ENDROOT
BRANCH   1   7
ATOM      7  C   UNL d   1      -0.377   1.217  -0.102  0.00  0.00     0.104 A 
ATOM      8  N   UNL d   1       0.533   0.323  -0.564  0.00  0.00    -0.354 N 
ATOM      9  C   UNL d   1       0.172  -0.978  -0.676  0.00  0.00     0.105 A 
ATOM     10  HN  UNL d   1       1.472   0.626  -0.822  1.00  0.00     0.166 HD
ATOM     11  C   UNL d   1      -1.080  -1.470  -0.347  0.00  0.00     0.065 A 
ATOM     12  C   UNL d   1      -2.016  -0.557   0.136  0.00  0.00     0.044 A 
ATOM     13  C   UNL d   1      -1.673   0.792   0.255  0.00  0.00     0.073 A 
ATOM     14 CL   UNL d   1      -2.921   1.883   0.757  0.00  0.00    -0.081 Cl
BRANCH  11  15
ATOM     15  C   UNL d   1      -1.393  -2.920  -0.542  0.00  0.00     0.418 C 
ATOM     16  F   UNL d   1      -2.656  -3.255  -0.161  0.00  0.00    -0.166 F 
ATOM     17  F   UNL d   1      -1.282  -3.305  -1.843  0.00  0.00    -0.166 F 
ATOM     18  F   UNL d   1      -0.562  -3.733   0.163  0.00  0.00    -0.166 F 
ENDBRANCH  11  15
ENDBRANCH   1   7
BRANCH   2  19
ATOM     19  C   UNL d   1       2.420   5.291   0.869  0.00  0.00     0.235 C 
ATOM     20  O   UNL d   1       3.386   4.652   0.459  0.00  0.00    -0.272 OA
ATOM     21  N   UNL d   1       2.498   6.148   1.965  0.00  0.00    -0.294 N 
ATOM     22  H   UNL d   1       1.745   6.807   2.153  0.00  0.00     0.183 HD
BRANCH  21  23
ATOM     23  N   UNL d   1       3.745   6.362   2.587  0.00  0.00    -0.247 NA
ATOM     24  H   UNL d   1       4.469   6.090   1.905  0.00  0.00     0.143 HD
ATOM     25  H   UNL d   1       3.847   5.663   3.329  0.00  0.00     0.143 HD
ENDBRANCH  21  23
ENDBRANCH   2  19
TORSDOF 4
