REMARK  1 active torsions:
REMARK  status: ('A' for Active; 'I' for Inactive)
REMARK    1  A    between atoms: N_8  and  C_1 
ROOT
ATOM      1  C   UNL d   1      -0.717   1.266  -0.007  0.00  0.00     0.053 A 
ATOM      2  C   UNL d   1      -1.427   0.046  -0.029  0.00  0.00     0.079 A 
ATOM      3  N   UNL d   1       0.638  -1.209   0.052  0.00  0.00    -0.366 N 
ATOM      4  HN  UNL d   1       1.136  -2.097   0.098  1.00  0.00     0.165 HD
ATOM      5  C   UNL d   1       0.684   1.206  -0.021  0.00  0.00     0.072 A 
ATOM      6  C   UNL d   1      -0.722  -1.164   0.017  0.00  0.00     0.029 A 
ATOM      7  C   UNL d   1       1.304  -0.032   0.024  0.00  0.00     0.114 A 
ATOM      8 CL   UNL d   1      -3.162   0.089  -0.081  0.00  0.00    -0.080 Cl
ATOM      9 CL   UNL d   1       1.650   2.636  -0.061  0.00  0.00    -0.081 Cl
ATOM     10  C   UNL d   1      -1.380  -2.513   0.014  0.00  0.00     0.070 C 
ENDROOT
BRANCH   1  11
ATOM     11  N   UNL d   1      -1.386   2.502  -0.192  0.00  0.00    -0.300 NA
ATOM     12  H   UNL d   1      -2.352   2.490   0.129  0.00  0.00     0.124 HD
ATOM     13  H   UNL d   1      -0.856   3.304   0.141  0.00  0.00     0.124 HD
ENDBRANCH   1  11
TORSDOF 1
