REMARK  4 active torsions:
REMARK  status: ('A' for Active; 'I' for Inactive)
REMARK       I    between atoms: N_2  and  C_1 
REMARK    1  A    between atoms: C_3  and  C_1 
REMARK    2  A    between atoms: O_12  and  C_4 
REMARK    3  A    between atoms: O_13  and  C_5 
REMARK    4  A    between atoms: O_14  and  C_6 
ROOT
ATOM      1  C   UNL d   1       0.139  -1.052   0.807  0.00  0.00     0.037 C 
ATOM      2  C   UNL d   1      -1.062  -2.838   2.635  0.00  0.00     0.135 C 
ATOM      3  C   UNL d   1      -1.746  -2.448   1.468  0.00  0.00     0.105 C 
ATOM      4  C   UNL d   1       0.265  -2.387   2.821  0.00  0.00     0.105 C 
ATOM      5  C   UNL d   1      -1.100  -1.631   0.528  0.00  0.00     0.057 C 
ATOM      6  C   UNL d   1       0.837  -1.464   1.939  0.00  0.00     0.057 C 
ENDROOT
BRANCH   1   7
ATOM      7  C   UNL d   1       0.774  -0.079  -0.129  0.00  0.00     0.254 C 
ATOM      8  N   UNL d   1       0.017   0.960  -0.705  0.00  0.00    -0.339 N 
ATOM      9  C   UNL d   1      -1.326   1.374  -0.219  0.00  0.00     0.084 C 
ATOM     10  C   UNL d   1       0.551   1.815  -1.799  0.00  0.00     0.084 C 
ATOM     11  C   UNL d   1      -2.325   1.336  -1.386  0.00  0.00     0.025 C 
ATOM     12  C   UNL d   1      -1.309   2.728   0.498  0.00  0.00     0.032 C 
ATOM     13  C   UNL d   1      -1.855   2.174  -2.571  0.00  0.00     0.004 C 
ATOM     14  C   UNL d   1      -0.433   1.797  -2.985  0.00  0.00     0.025 C 
ATOM     15  C   UNL d   1       1.958   1.524  -2.329  0.00  0.00     0.032 C 
ATOM     16  O   UNL d   1       1.965  -0.279  -0.351  0.00  0.00    -0.267 OA
ENDBRANCH   1   7
BRANCH   3  17
ATOM     17  O   UNL d   1      -3.021  -2.901   1.244  0.00  0.00    -0.353 OA
ATOM     18  C   UNL d   1      -3.869  -2.050   0.474  0.00  0.00     0.210 C 
ENDBRANCH   3  17
BRANCH   4  19
ATOM     19  O   UNL d   1       1.078  -2.735   3.875  0.00  0.00    -0.353 OA
ATOM     20  C   UNL d   1       1.080  -4.128   4.189  0.00  0.00     0.210 C 
ENDBRANCH   4  19
BRANCH   2  21
ATOM     21  O   UNL d   1      -1.552  -3.609   3.657  0.00  0.00    -0.351 OA
ATOM     22  C   UNL d   1      -2.909  -4.016   3.659  0.00  0.00     0.210 C 
ENDBRANCH   2  21
TORSDOF 4
