REMARK  3 active torsions:
REMARK  status: ('A' for Active; 'I' for Inactive)
REMARK    1  A    between atoms: C_3  and  C_1 
REMARK    2  A    between atoms: C_4  and  C_1 
REMARK       I    between atoms: C_7  and  N_2 
REMARK    3  A    between atoms: C_18  and  C_7 
ROOT
ATOM      1  C   UNL d   1       0.430   1.272   0.343  0.00  0.00     0.238 C 
ATOM      2  N   UNL d   1       1.636   0.378   0.014  0.00  0.00    -0.318 N 
ATOM      3  C   UNL d   1      -0.613   0.137   0.701  0.00  0.00     0.057 C 
ATOM      4  C   UNL d   1       1.231  -1.022   0.202  0.00  0.00     0.112 C 
ATOM      5  C   UNL d   1       2.933   0.663  -0.342  0.00  0.00     0.221 C 
ATOM      6  C   UNL d   1      -0.927  -0.676  -0.543  0.00  0.00    -0.021 C 
ATOM      7  C   UNL d   1       0.207  -1.319  -0.865  0.00  0.00    -0.005 C 
ATOM      8  C   UNL d   1       0.278  -0.909   1.393  0.00  0.00     0.041 C 
ATOM      9  O   UNL d   1       3.711  -0.237  -0.659  0.00  0.00    -0.273 OA
ENDROOT
BRANCH   1  10
ATOM     10  C   UNL d   1       0.587   2.208   1.537  0.00  0.00     0.422 C 
ATOM     11  F   UNL d   1       1.179   1.592   2.587  0.00  0.00    -0.168 F 
ATOM     12  F   UNL d   1       1.337   3.296   1.269  0.00  0.00    -0.168 F 
ATOM     13  F   UNL d   1      -0.612   2.653   1.978  0.00  0.00    -0.168 F 
ENDBRANCH   1  10
BRANCH   1  14
ATOM     14  C   UNL d   1      -0.111   2.150  -0.788  0.00  0.00     0.422 C 
ATOM     15  F   UNL d   1      -0.158   1.505  -1.977  0.00  0.00    -0.168 F 
ATOM     16  F   UNL d   1      -1.373   2.564  -0.521  0.00  0.00    -0.168 F 
ATOM     17  F   UNL d   1       0.623   3.262  -1.003  0.00  0.00    -0.168 F 
ENDBRANCH   1  14
BRANCH   5  18
ATOM     18  C   UNL d   1       3.408   2.096  -0.230  0.00  0.00     0.098 C 
ATOM     19  C   UNL d   1       4.759   2.324  -0.889  0.00  0.00     0.014 C 
ENDBRANCH   5  18
TORSDOF 3
