REMARK  1 active torsions:
REMARK  status: ('A' for Active; 'I' for Inactive)
REMARK    1  A    between atoms: C_10  and  N_7 
ROOT
ATOM      1  C   UNL d   1      -2.062  -0.704  -0.095  0.00  0.00     0.150 A 
ATOM      2  N   UNL d   1      -1.694   0.421  -0.661  0.00  0.00    -0.335 N 
ATOM      3  HN  UNL d   1      -2.325   1.054  -1.153  1.00  0.00     0.168 HD
ATOM      4  S   UNL d   1      -0.760  -1.624   0.571  0.00  0.00    -0.052 SA
ATOM      5  C   UNL d   1      -0.340   0.636  -0.505  0.00  0.00     0.051 A 
ATOM      6  C   UNL d   1       0.346  -0.367   0.177  0.00  0.00     0.035 A 
ATOM      7  N   UNL d   1      -3.326  -1.186  -0.006  0.00  0.00    -0.337 N 
ATOM      8  C   UNL d   1       0.371   1.766  -0.955  0.00  0.00     0.031 A 
ATOM      9  C   UNL d   1       1.722  -0.270   0.446  0.00  0.00     0.021 A 
ATOM     10  C   UNL d   1       2.403   0.870   0.006  0.00  0.00     0.002 A 
ATOM     11  C   UNL d   1       1.739   1.875  -0.692  0.00  0.00     0.002 A 
ATOM     12  H   UNL d   1      -3.429  -2.113   0.387  0.00  0.00     0.168 HD
ENDROOT
BRANCH   7  13
ATOM     13  C   UNL d   1      -4.522  -0.435   0.008  0.00  0.00     0.035 A 
ATOM     14  C   UNL d   1      -5.747  -1.117  -0.019  0.00  0.00     0.053 A 
ATOM     15  C   UNL d   1      -6.965  -0.421  -0.019  0.00  0.00     0.042 A 
ATOM     16 CL   UNL d   1      -8.423  -1.349  -0.033  0.00  0.00    -0.084 Cl
ATOM     17  C   UNL d   1      -6.992   0.979  -0.006  0.00  0.00    -0.040 A 
ATOM     18  C   UNL d   1      -5.772   1.663  -0.015  0.00  0.00     0.011 A 
ATOM     19  C   UNL d   1      -8.274   1.759   0.016  0.00  0.00     0.050 C 
ATOM     20  C   UNL d   1      -4.560   0.963  -0.019  0.00  0.00     0.030 A 
ENDBRANCH   7  13
TORSDOF 1
