REMARK  5 active torsions:
REMARK  status: ('A' for Active; 'I' for Inactive)
REMARK    1  A    between atoms: N_2  and  C_1 
REMARK       I    between atoms: C_3  and  N_2 
REMARK    2  A    between atoms: C_10  and  C_3 
REMARK    3  A    between atoms: O_18  and  C_5 
REMARK    4  A    between atoms: S_6  and  C_10 
REMARK    5  A    between atoms: C_11  and  S_6 
ROOT
ATOM      1  N   UNL d   1       2.160   2.647  -0.038  0.00  0.00    -0.324 N 
ATOM      2  C   UNL d   1       1.474   3.858  -0.022  0.00  0.00     0.231 C 
ATOM      3  O   UNL d   1       0.252   4.003  -0.017  0.00  0.00    -0.272 OA
ATOM      4  H   UNL d   1       3.154   2.743   0.082  0.00  0.00     0.169 HD
ENDROOT
BRANCH   1   5
ATOM      5  C   UNL d   1       1.620   1.336   0.001  0.00  0.00     0.070 A 
ATOM      6  C   UNL d   1       0.270   1.135  -0.349  0.00  0.00     0.056 A 
ATOM      7  C   UNL d   1      -0.310  -0.136  -0.340  0.00  0.00     0.036 A 
ATOM      8 CL   UNL d   1      -1.959  -0.333  -0.793  0.00  0.00    -0.084 Cl
ATOM      9  C   UNL d   1       0.436  -1.244   0.020  0.00  0.00     0.026 A 
ATOM     10  C   UNL d   1       1.773  -1.069   0.362  0.00  0.00     0.041 A 
ATOM     11  C   UNL d   1       2.388   0.202   0.353  0.00  0.00     0.095 A 
BRANCH  11  12
ATOM     12  O   UNL d   1       3.694   0.067   0.732  0.00  0.00    -0.354 OA
ATOM     13  C   UNL d   1       4.567   1.161   0.905  0.00  0.00     0.210 C 
ENDBRANCH  11  12
ENDBRANCH   1   5
BRANCH   2  14
ATOM     14  C   UNL d   1       2.399   5.078  -0.027  0.00  0.00     0.182 C 
BRANCH  14  15
ATOM     15  S   UNL d   1       3.506   4.988   1.428  0.00  0.00    -0.121 SA
BRANCH  15  16
ATOM     16  C   UNL d   1       4.397   6.535   1.393  0.00  0.00     0.001 A 
ATOM     17  C   UNL d   1       4.798   7.055   2.633  0.00  0.00     0.020 A 
ATOM     18  C   UNL d   1       5.580   8.210   2.712  0.00  0.00     0.025 A 
ATOM     19  C   UNL d   1       5.973   8.853   1.546  0.00  0.00     0.034 A 
ATOM     20  C   UNL d   1       5.585   8.351   0.303  0.00  0.00     0.025 A 
ATOM     21 CL   UNL d   1       6.958  10.261   1.635  0.00  0.00    -0.084 Cl
ATOM     22  C   UNL d   1       4.798   7.193   0.227  0.00  0.00     0.020 A 
ENDBRANCH  15  16
ENDBRANCH  14  15
ENDBRANCH   2  14
TORSDOF 5
