REMARK  6 active torsions:
REMARK  status: ('A' for Active; 'I' for Inactive)
REMARK    1  A    between atoms: C_3  and  C_1 
REMARK    2  A    between atoms: N_2  and  C_5 
REMARK       I    between atoms: N_7  and  C_3 
REMARK    3  A    between atoms: C_8  and  C_4 
REMARK    4  A    between atoms: C_6  and  N_7 
REMARK    5  A    between atoms: O_20  and  C_8 
REMARK    6  A    between atoms: C_22  and  O_20 
ROOT
ATOM      1  C   UNL d   1       2.519  -0.097   0.468  0.00  0.00     0.258 C 
ATOM      2  N   UNL d   1       3.204  -1.246   0.116  0.00  0.00    -0.322 N 
ATOM      3  O   UNL d   1       1.296  -0.035   0.572  0.00  0.00    -0.267 OA
ATOM      4  H   UNL d   1       4.191  -1.323   0.334  0.00  0.00     0.169 HD
ENDROOT
BRANCH   2   5
ATOM      5  C   UNL d   1       2.537  -2.470  -0.106  0.00  0.00     0.051 A 
ATOM      6  C   UNL d   1       1.459  -2.646  -0.989  0.00  0.00     0.066 A 
ATOM      7  C   UNL d   1       0.799  -3.888  -1.024  0.00  0.00     0.026 A 
ATOM      8  C   UNL d   1       1.218  -4.955  -0.217  0.00  0.00    -0.061 A 
ATOM      9  C   UNL d   1       2.336  -4.785   0.602  0.00  0.00     0.009 A 
ATOM     10  C   UNL d   1       0.478  -6.258  -0.252  0.00  0.00     0.048 C 
ATOM     11  C   UNL d   1       3.000  -3.558   0.644  0.00  0.00     0.031 A 
BRANCH   6  12
ATOM     12  C   UNL d   1       1.049  -1.668  -2.038  0.00  0.00     0.295 C 
ATOM     13  O   UNL d   1      -0.060  -1.658  -2.547  0.00  0.00    -0.259 OA
BRANCH  12  14
ATOM     14  O   UNL d   1       2.135  -0.984  -2.484  0.00  0.00    -0.318 OA
BRANCH  14  15
ATOM     15  C   UNL d   1       1.970  -0.256  -3.709  0.00  0.00     0.174 C 
ATOM     16  C   UNL d   1       2.551  -1.080  -4.844  0.00  0.00     0.034 C 
ENDBRANCH  14  15
ENDBRANCH  12  14
ENDBRANCH   6  12
ENDBRANCH   2   5
BRANCH   1  17
ATOM     17  C   UNL d   1       3.303   1.149   0.724  0.00  0.00     0.065 A 
ATOM     18  C   UNL d   1       4.568   1.264   1.310  0.00  0.00     0.118 A 
ATOM     19  C   UNL d   1       5.206   2.509   1.452  0.00  0.00     0.037 A 
ATOM     20  C   UNL d   1       4.557   3.669   1.037  0.00  0.00     0.009 A 
ATOM     21  C   UNL d   1       3.264   3.597   0.510  0.00  0.00    -0.061 A 
ATOM     22  C   UNL d   1       2.654   2.343   0.353  0.00  0.00     0.026 A 
ATOM     23  C   UNL d   1       2.546   4.854   0.113  0.00  0.00     0.048 C 
BRANCH  18  24
ATOM     24  N   UNL d   1       5.260   0.133   1.884  0.00  0.00    -0.115 N 
ATOM     25  O   UNL d   1       5.599  -0.774   1.112  0.00  0.00    -0.532 OA
ATOM     26  O   UNL d   1       5.495   0.166   3.098  0.00  0.00    -0.532 OA
ENDBRANCH  18  24
ENDBRANCH   1  17
TORSDOF 6
