REMARK  4 active torsions:
REMARK  status: ('A' for Active; 'I' for Inactive)
REMARK    1  A    between atoms: C_2  and  C_1 
REMARK    2  A    between atoms: N_10  and  C_2 
REMARK    3  A    between atoms: O_9  and  C_5 
REMARK    4  A    between atoms: C_11  and  O_9 
ROOT
ATOM      1  C   UNL d   1       0.725   1.304  -0.057  0.00  0.00     0.017 A 
ATOM      2  N   UNL d   1      -1.337   0.023  -0.049  0.00  0.00    -0.346 N 
ATOM      3  HN  UNL d   1      -2.356  -0.009  -0.069  1.00  0.00     0.167 HD
ATOM      4  C   UNL d   1      -0.593  -1.106  -0.010  0.00  0.00     0.147 A 
ATOM      5  C   UNL d   1      -0.663   1.199  -0.059  0.00  0.00     0.104 A 
ATOM      6  C   UNL d   1       1.461   0.113  -0.064  0.00  0.00     0.020 A 
ATOM      7  C   UNL d   1       0.793  -1.111  -0.048  0.00  0.00     0.057 A 
ENDROOT
BRANCH   4   8
ATOM      8  O   UNL d   1      -1.222  -2.341   0.048  0.00  0.00    -0.294 OA
BRANCH   8   9
ATOM      9  C   UNL d   1      -2.403  -2.428   0.751  0.00  0.00     0.077 A 
ATOM     10  C   UNL d   1      -3.362  -3.312   0.249  0.00  0.00     0.039 A 
ATOM     11  C   UNL d   1      -4.575  -3.486   0.922  0.00  0.00     0.026 A 
ATOM     12  C   UNL d   1      -4.819  -2.784   2.100  0.00  0.00     0.034 A 
ATOM     13  C   UNL d   1      -3.856  -1.923   2.622  0.00  0.00     0.026 A 
ATOM     14 CL   UNL d   1      -6.317  -2.988   2.923  0.00  0.00    -0.084 Cl
ATOM     15  C   UNL d   1      -2.641  -1.756   1.955  0.00  0.00     0.039 A 
ENDBRANCH   8   9
ENDBRANCH   4   8
BRANCH   1  16
ATOM     16  C   UNL d   1       1.403   2.623  -0.017  0.00  0.00     0.105 C 
ATOM     17  S   UNL d   1       0.840   3.972   0.792  0.00  0.00    -0.060 SA
BRANCH  16  18
ATOM     18  N   UNL d   1       2.592   2.726  -0.692  0.00  0.00    -0.389 N 
ATOM     19  H   UNL d   1       2.966   2.003  -1.295  0.00  0.00     0.157 HD
ATOM     20  H   UNL d   1       3.061   3.626  -0.704  0.00  0.00     0.157 HD
ENDBRANCH  16  18
ENDBRANCH   1  16
TORSDOF 4
