REMARK  6 active torsions:
REMARK  status: ('A' for Active; 'I' for Inactive)
REMARK    1  A    between atoms: C_4  and  C_1 
REMARK       I    between atoms: C_2  and  N_5 
REMARK       I    between atoms: N_3  and  C_2 
REMARK    2  A    between atoms: C_6  and  N_3 
REMARK    3  A    between atoms: N_5  and  C_11 
REMARK    4  A    between atoms: S_7  and  C_8 
REMARK    5  A    between atoms: C_15  and  S_7 
REMARK    6  A    between atoms: C_17  and  C_15 
ROOT
ATOM      1  C   UNL d   1      -3.431   1.780  -0.465  0.00  0.00     0.325 C 
ATOM      2  N   UNL d   1      -3.065   0.651   0.197  0.00  0.00    -0.307 N 
ATOM      3  N   UNL d   1      -2.497   2.726  -0.761  0.00  0.00    -0.309 N 
ATOM      4  O   UNL d   1      -4.622   1.807  -0.792  0.00  0.00    -0.247 OA
ATOM      5  H   UNL d   1      -3.784  -0.043   0.016  0.00  0.00     0.170 HD
ATOM      6  H   UNL d   1      -1.562   2.573  -0.409  0.00  0.00     0.170 HD
ENDROOT
BRANCH   2   7
ATOM      7  C   UNL d   1      -1.818   0.146   0.582  0.00  0.00     0.053 A 
ATOM      8  C   UNL d   1      -0.962   0.722   1.535  0.00  0.00     0.027 A 
ATOM      9  C   UNL d   1       0.213   0.013   1.869  0.00  0.00     0.021 A 
ATOM     10  C   UNL d   1       0.522  -1.221   1.283  0.00  0.00     0.002 A 
ATOM     11  C   UNL d   1      -0.345  -1.782   0.358  0.00  0.00     0.002 A 
ATOM     12  C   UNL d   1      -1.514  -1.111   0.028  0.00  0.00     0.031 A 
BRANCH   8  13
ATOM     13  S   UNL d   1      -1.195   2.270   2.417  0.00  0.00    -0.123 SA
BRANCH  13  14
ATOM     14  C   UNL d   1      -2.962   2.244   2.891  0.00  0.00     0.118 C 
BRANCH  14  15
ATOM     15  C   UNL d   1      -3.323   3.432   3.756  0.00  0.00    -0.049 A 
ATOM     16  C   UNL d   1      -3.637   4.664   3.158  0.00  0.00     0.009 A 
ATOM     17  C   UNL d   1      -4.002   5.764   3.936  0.00  0.00     0.024 A 
ATOM     18  C   UNL d   1      -4.050   5.642   5.322  0.00  0.00     0.034 A 
ATOM     19  C   UNL d   1      -3.729   4.433   5.934  0.00  0.00     0.024 A 
ATOM     20 CL   UNL d   1      -4.512   6.994   6.282  0.00  0.00    -0.084 Cl
ATOM     21  C   UNL d   1      -3.364   3.329   5.156  0.00  0.00     0.009 A 
ENDBRANCH  14  15
ENDBRANCH  13  14
ENDBRANCH   8  13
ENDBRANCH   2   7
BRANCH   3  22
ATOM     22  C   UNL d   1      -2.714   3.870  -1.574  0.00  0.00     0.037 A 
ATOM     23  C   UNL d   1      -3.954   4.187  -2.144  0.00  0.00     0.045 A 
ATOM     24  C   UNL d   1      -4.120   5.275  -3.017  0.00  0.00     0.050 A 
ATOM     25  C   UNL d   1      -3.022   6.096  -3.285  0.00  0.00     0.016 A 
ATOM     26  C   UNL d   1      -1.786   5.820  -2.700  0.00  0.00     0.003 A 
ATOM     27  C   UNL d   1      -1.629   4.710  -1.855  0.00  0.00     0.029 A 
BRANCH  24  28
ATOM     28  C   UNL d   1      -5.454   5.522  -3.682  0.00  0.00     0.417 C 
ATOM     29  F   UNL d   1      -6.430   4.649  -3.309  0.00  0.00    -0.166 F 
ATOM     30  F   UNL d   1      -5.376   5.428  -5.040  0.00  0.00    -0.166 F 
ATOM     31  F   UNL d   1      -5.948   6.764  -3.423  0.00  0.00    -0.166 F 
ENDBRANCH  24  28
ENDBRANCH   3  22
TORSDOF 6
