REMARK  5 active torsions:
REMARK  status: ('A' for Active; 'I' for Inactive)
REMARK    1  A    between atoms: C_6  and  N_1 
REMARK    2  A    between atoms: C_13  and  C_6 
REMARK    3  A    between atoms: O_18  and  C_13 
REMARK    4  A    between atoms: C_20  and  C_13 
REMARK    5  A    between atoms: O_19  and  C_20 
ROOT
ATOM      1  N   UNL d   1       0.100  -1.589  -0.052  0.00  0.00    -0.343 N 
ATOM      2  C   UNL d   1       0.736   0.555  -0.044  0.00  0.00     0.005 A 
ATOM      3  C   UNL d   1      -0.690   0.505  -0.036  0.00  0.00     0.005 A 
ATOM      4  C   UNL d   1       1.208  -0.759  -0.057  0.00  0.00     0.046 A 
ATOM      5  C   UNL d   1      -1.066  -0.838  -0.038  0.00  0.00     0.046 A 
ATOM      6  C   UNL d   1      -2.418  -1.227  -0.021  0.00  0.00     0.032 A 
ATOM      7  C   UNL d   1       2.585  -1.045  -0.060  0.00  0.00     0.032 A 
ATOM      8  C   UNL d   1      -1.693   1.498  -0.016  0.00  0.00     0.033 A 
ATOM      9  C   UNL d   1       1.663   1.621  -0.031  0.00  0.00     0.033 A 
ATOM     10  C   UNL d   1       3.030   1.335  -0.037  0.00  0.00     0.011 A 
ATOM     11  C   UNL d   1      -3.036   1.114  -0.001  0.00  0.00     0.011 A 
ATOM     12  C   UNL d   1       3.487   0.024  -0.056  0.00  0.00     0.021 A 
ATOM     13  C   UNL d   1      -3.396  -0.228  -0.004  0.00  0.00     0.021 A 
ATOM     14 BR   UNL d   1       4.273   2.762  -0.010  0.00  0.00    -0.051 Br
ATOM     15 BR   UNL d   1      -4.382   2.443   0.028  0.00  0.00    -0.051 Br
ENDROOT
BRANCH   1  16
ATOM     16  C   UNL d   1       0.137  -3.045   0.031  0.00  0.00     0.163 C 
BRANCH  16  17
ATOM     17  C   UNL d   1       0.047  -3.786  -1.315  0.00  0.00     0.160 C 
BRANCH  17  18
ATOM     18  O   UNL d   1      -1.139  -3.452  -2.040  0.00  0.00    -0.392 OA
ATOM     19  H   UNL d   1      -1.120  -2.497  -2.233  0.00  0.00     0.210 HD
ENDBRANCH  17  18
BRANCH  17  20
ATOM     20  C   UNL d   1       1.280  -3.628  -2.208  0.00  0.00     0.197 C 
BRANCH  20  21
ATOM     21  O   UNL d   1       2.439  -4.120  -1.547  0.00  0.00    -0.398 OA
ATOM     22  H   UNL d   1       3.146  -4.173  -2.215  0.00  0.00     0.209 HD
ENDBRANCH  20  21
ENDBRANCH  17  20
ENDBRANCH  16  17
ENDBRANCH   1  16
TORSDOF 5
