REMARK  3 active torsions:
REMARK  status: ('A' for Active; 'I' for Inactive)
REMARK    1  A    between atoms: C_3  and  C_12 
REMARK    2  A    between atoms: C_4  and  C_3 
REMARK    3  A    between atoms: C_12  and  S_6 
ROOT
ATOM      1  C   UNL d   1       1.918   0.412   1.215  0.00  0.00     0.134 C 
ATOM      2  N   UNL d   1       0.788   0.541   1.446  0.00  0.00    -0.184 NA
ATOM      3  S   UNL d   1       3.550   0.218   0.840  0.00  0.00    -0.043 SA
ENDROOT
BRANCH   3   4
ATOM      4  C   UNL d   1       3.448   0.667  -0.915  0.00  0.00     0.174 C 
BRANCH   4   5
ATOM      5  C   UNL d   1       4.814   0.582  -1.564  0.00  0.00     0.169 C 
ATOM      6  O   UNL d   1       5.343   1.574  -2.068  0.00  0.00    -0.291 OA
BRANCH   5   7
ATOM      7  C   UNL d   1       5.538  -0.722  -1.609  0.00  0.00     0.011 A 
ATOM      8  C   UNL d   1       4.867  -1.948  -1.645  0.00  0.00     0.015 A 
ATOM      9  C   UNL d   1       5.595  -3.142  -1.656  0.00  0.00     0.007 A 
ATOM     10  C   UNL d   1       6.996  -3.126  -1.637  0.00  0.00    -0.062 A 
ATOM     11  C   UNL d   1       7.662  -1.896  -1.615  0.00  0.00     0.007 A 
ATOM     12  C   UNL d   1       7.756  -4.420  -1.641  0.00  0.00     0.048 C 
ATOM     13  C   UNL d   1       6.938  -0.701  -1.605  0.00  0.00     0.015 A 
ENDBRANCH   5   7
ENDBRANCH   4   5
ENDBRANCH   3   4
TORSDOF 3
