REMARK  6 active torsions:
REMARK  status: ('A' for Active; 'I' for Inactive)
REMARK    1  A    between atoms: C_2  and  C_1 
REMARK       I    between atoms: N_10  and  C_1 
REMARK       I    between atoms: N_4  and  C_2 
REMARK    2  A    between atoms: C_13  and  N_4 
REMARK    3  A    between atoms: N_12  and  C_6 
REMARK    4  A    between atoms: C_7  and  C_18 
REMARK    5  A    between atoms: N_8  and  N_10 
REMARK    6  A    between atoms: S_21  and  C_20 
ROOT
ATOM      1  C   UNL d   1       0.738   0.332   0.405  0.00  0.00     0.328 C 
ATOM      2  N   UNL d   1       0.119   1.093   1.385  0.00  0.00    -0.262 N 
ATOM      3  O   UNL d   1       0.240  -0.504  -0.338  0.00  0.00    -0.261 OA
ATOM      4  H   UNL d   1       0.705   1.742   1.910  0.00  0.00     0.190 HD
ENDROOT
BRANCH   2   5
ATOM      5  N   UNL d   1      -1.200   0.924   1.702  0.00  0.00    -0.308 N 
ATOM      6  C   UNL d   1      -1.633   1.701   2.652  0.00  0.00     0.120 C 
ATOM      7  HN  UNL d   1      -1.797   0.244   1.232  1.00  0.00     0.186 HD
BRANCH   6   8
ATOM      8  C   UNL d   1      -3.017   1.612   3.186  0.00  0.00     0.003 A 
ATOM      9  C   UNL d   1      -3.449   2.426   4.235  0.00  0.00     0.047 A 
ATOM     10  C   UNL d   1      -4.717   2.227   4.806  0.00  0.00     0.054 A 
ATOM     11 CL   UNL d   1      -2.486   3.705   4.892  0.00  0.00    -0.083 Cl
ATOM     12  C   UNL d   1      -5.589   1.210   4.379  0.00  0.00     0.031 A 
ATOM     13  C   UNL d   1      -5.163   0.470   3.263  0.00  0.00     0.030 A 
ATOM     14  C   UNL d   1      -3.897   0.657   2.679  0.00  0.00     0.017 A 
BRANCH  12  15
ATOM     15  N   UNL d   1      -6.826   1.008   5.012  0.00  0.00    -0.390 N 
ATOM     16  C   UNL d   1      -6.832   1.064   6.482  0.00  0.00     0.149 C 
ATOM     17  C   UNL d   1      -7.735  -0.012   4.481  0.00  0.00     0.149 C 
ENDBRANCH  12  15
ENDBRANCH   6   8
ENDBRANCH   2   5
BRANCH   1  18
ATOM     18  C   UNL d   1       2.235   0.660   0.276  0.00  0.00     0.315 C 
ATOM     19  N   UNL d   1       2.829   0.060  -0.823  0.00  0.00    -0.319 N 
ATOM     20  H   UNL d   1       2.193  -0.470  -1.413  0.00  0.00     0.169 HD
ATOM     21  O   UNL d   1       2.730   1.425   1.094  0.00  0.00    -0.262 OA
BRANCH  19  22
ATOM     22  C   UNL d   1       4.156   0.238  -1.265  0.00  0.00     0.036 A 
ATOM     23  C   UNL d   1       5.145   0.836  -0.481  0.00  0.00     0.048 A 
ATOM     24  C   UNL d   1       6.426   1.086  -0.990  0.00  0.00     0.002 A 
ATOM     25  C   UNL d   1       6.730   0.677  -2.292  0.00  0.00     0.018 A 
ATOM     26  C   UNL d   1       5.765   0.035  -3.070  0.00  0.00     0.004 A 
ATOM     27  C   UNL d   1       4.484  -0.187  -2.558  0.00  0.00     0.029 A 
BRANCH  24  28
ATOM     28  S   UNL d   1       7.700   1.901  -0.037  0.00  0.00    -0.134 SA
ATOM     29  C   UNL d   1       6.715   3.062   0.953  0.00  0.00     0.095 C 
ENDBRANCH  24  28
ENDBRANCH  19  22
ENDBRANCH   1  18
TORSDOF 6
