REMARK  6 active torsions:
REMARK  status: ('A' for Active; 'I' for Inactive)
REMARK    1  A    between atoms: C_5  and  C_1 
REMARK    2  A    between atoms: C_6  and  C_2 
REMARK       I    between atoms: N_9  and  C_5 
REMARK    3  A    between atoms: C_14  and  N_9 
REMARK    4  A    between atoms: C_18  and  N_9 
REMARK    5  A    between atoms: C_17  and  C_14 
REMARK    6  A    between atoms: C_15  and  C_18 
ROOT
ATOM      1  N   UNL d   1      -2.685  -2.981   3.187  0.00  0.00    -0.197 NA
ATOM      2  C   UNL d   1      -2.806  -3.414   2.112  0.00  0.00     0.060 C 
ATOM      3  C   UNL d   1      -2.981  -4.010   0.783  0.00  0.00     0.143 C 
ENDROOT
BRANCH   3   4
ATOM      4  C   UNL d   1      -2.049  -3.428  -0.288  0.00  0.00     0.140 C 
BRANCH   4   5
ATOM      5  N   UNL d   1      -0.600  -3.547  -0.033  0.00  0.00    -0.343 N 
ATOM      6  C   UNL d   1       0.192  -2.470   0.435  0.00  0.00     0.259 C 
ATOM      7  O   UNL d   1       1.270  -2.659   0.991  0.00  0.00    -0.267 OA
BRANCH   6   8
ATOM      8  C   UNL d   1      -0.303  -1.114   0.242  0.00  0.00     0.092 C 
ATOM      9  C   UNL d   1      -0.314   0.022   1.134  0.00  0.00     0.085 C 
ATOM     10  N   UNL d   1      -0.988   1.029   0.550  0.00  0.00    -0.259 N 
ATOM     11  O   UNL d   1      -1.221   0.668  -0.745  0.00  0.00    -0.241 OA
ATOM     12  HN  UNL d   1      -1.273   1.902   0.993  1.00  0.00     0.195 HD
ATOM     13  C   UNL d   1      -0.773  -0.590  -0.953  0.00  0.00     0.090 C 
ATOM     14  C   UNL d   1      -0.905  -1.078  -2.341  0.00  0.00     0.080 C 
BRANCH   9  15
ATOM     15  C   UNL d   1       0.206   0.207   2.504  0.00  0.00     0.015 A 
ATOM     16  C   UNL d   1       0.704   1.448   2.972  0.00  0.00     0.046 A 
ATOM     17 CL   UNL d   1       0.871   2.866   1.983  0.00  0.00    -0.083 Cl
ATOM     18  C   UNL d   1       1.142   1.600   4.298  0.00  0.00     0.025 A 
ATOM     19  C   UNL d   1       1.116   0.523   5.176  0.00  0.00     0.002 A 
ATOM     20  C   UNL d   1       0.648  -0.708   4.732  0.00  0.00     0.001 A 
ATOM     21  C   UNL d   1       0.194  -0.863   3.415  0.00  0.00     0.015 A 
ENDBRANCH   9  15
ENDBRANCH   6   8
BRANCH   5  22
ATOM     22  C   UNL d   1      -0.031  -4.907   0.061  0.00  0.00     0.164 C 
BRANCH  22  23
ATOM     23  C   UNL d   1       0.387  -5.601  -1.226  0.00  0.00    -0.040 A 
ATOM     24  C   UNL d   1       0.973  -4.930  -2.307  0.00  0.00     0.009 A 
ATOM     25  C   UNL d   1       1.548  -5.645  -3.370  0.00  0.00     0.001 A 
ATOM     26  C   UNL d   1       1.554  -7.039  -3.367  0.00  0.00     0.000 A 
ATOM     27  C   UNL d   1       0.955  -7.724  -2.316  0.00  0.00     0.001 A 
ATOM     28  C   UNL d   1       0.377  -7.012  -1.260  0.00  0.00     0.009 A 
ENDBRANCH  22  23
ENDBRANCH   5  22
ENDBRANCH   4   5
ENDBRANCH   3   4
TORSDOF 6
