REMARK  5 active torsions:
REMARK  status: ('A' for Active; 'I' for Inactive)
REMARK    1  A    between atoms: S_10  and  C_3 
REMARK    2  A    between atoms: C_8  and  C_4 
REMARK    3  A    between atoms: C_5  and  C_14 
REMARK       I    between atoms: N_9  and  C_5 
REMARK    4  A    between atoms: C_17  and  N_9 
REMARK    5  A    between atoms: C_14  and  S_10 
ROOT
ATOM      1  N   UNL d   1      -0.608   0.038   1.145  0.00  0.00    -0.336 N 
ATOM      2  HN  UNL d   1      -0.749   0.088   2.154  1.00  0.00     0.168 HD
ATOM      3  C   UNL d   1      -0.225   1.111   0.439  0.00  0.00     0.145 A 
ATOM      4  C   UNL d   1      -0.798  -1.111   0.463  0.00  0.00     0.047 A 
ATOM      5  N   UNL d   1      -0.010   1.137  -0.881  0.00  0.00    -0.347 N 
ATOM      6  HN  UNL d   1       0.278   1.986  -1.366  1.00  0.00     0.167 HD
ATOM      7  C   UNL d   1      -0.596  -1.183  -0.904  0.00  0.00     0.047 A 
ATOM      8  C   UNL d   1      -0.196  -0.025  -1.527  0.00  0.00     0.092 A 
ENDROOT
BRANCH   3   9
ATOM      9  S   UNL d   1      -0.259   2.645   1.319  0.00  0.00    -0.085 SA
BRANCH   9  10
ATOM     10  C   UNL d   1      -1.367   3.552   0.209  0.00  0.00     0.185 C 
BRANCH  10  11
ATOM     11  C   UNL d   1      -2.768   2.978   0.024  0.00  0.00     0.231 C 
ATOM     12  N   UNL d   1      -3.153   1.958   0.872  0.00  0.00    -0.327 N 
ATOM     13  H   UNL d   1      -2.496   1.699   1.601  0.00  0.00     0.169 HD
ATOM     14  O   UNL d   1      -3.495   3.491  -0.833  0.00  0.00    -0.272 OA
BRANCH  12  15
ATOM     15  C   UNL d   1      -4.391   1.279   0.887  0.00  0.00     0.034 A 
ATOM     16  C   UNL d   1      -5.372   1.430  -0.096  0.00  0.00     0.029 A 
ATOM     17  C   UNL d   1      -6.609   0.790   0.027  0.00  0.00     0.002 A 
ATOM     18  C   UNL d   1      -6.874  -0.015   1.130  0.00  0.00     0.000 A 
ATOM     19  C   UNL d   1      -5.886  -0.212   2.092  0.00  0.00     0.002 A 
ATOM     20  C   UNL d   1      -4.646   0.422   1.964  0.00  0.00     0.029 A 
ENDBRANCH  12  15
ENDBRANCH  10  11
ENDBRANCH   9  10
ENDBRANCH   3   9
BRANCH   4  21
ATOM     21  C   UNL d   1      -1.266  -2.247   1.269  0.00  0.00     0.006 A 
ATOM     22  C   UNL d   1      -0.885  -2.398   2.606  0.00  0.00     0.101 A 
ATOM     23  N   UNL d   1      -1.281  -3.409   3.420  0.00  0.00    -0.374 N 
ATOM     24  C   UNL d   1      -2.113  -4.325   2.887  0.00  0.00     0.087 A 
ATOM     25  HN  UNL d   1      -0.964  -3.473   4.388  1.00  0.00     0.164 HD
ATOM     26  C   UNL d   1      -2.566  -4.277   1.581  0.00  0.00     0.018 A 
ATOM     27  C   UNL d   1      -2.137  -3.227   0.770  0.00  0.00     0.016 A 
ENDBRANCH   4  21
TORSDOF 5
