REMARK  2 active torsions:
REMARK  status: ('A' for Active; 'I' for Inactive)
REMARK    1  A    between atoms: C_2  and  C_1 
REMARK    2  A    between atoms: C_8  and  C_2 
ROOT
ATOM      1  C   UNL d   1       2.370  -0.618  -0.128  0.00  0.00     0.035 A 
ATOM      2  C   UNL d   1       2.319   0.784  -0.075  0.00  0.00     0.028 A 
ATOM      3  C   UNL d   1       1.177  -1.357  -0.127  0.00  0.00     0.056 A 
ATOM      4  C   UNL d   1       1.081   1.436  -0.027  0.00  0.00     0.059 A 
ATOM      5  C   UNL d   1      -0.049  -0.701  -0.046  0.00  0.00     0.103 A 
ATOM      6  C   UNL d   1      -0.099   0.695  -0.026  0.00  0.00     0.103 A 
ATOM      7  O   UNL d   1      -1.167  -1.494  -0.002  0.00  0.00    -0.346 OA
ATOM      8  O   UNL d   1      -1.273   1.402   0.002  0.00  0.00    -0.346 OA
ATOM      9 BR   UNL d   1       3.869   1.880  -0.012  0.00  0.00    -0.050 Br
ATOM     10  C   UNL d   1      -2.389   0.574  -0.351  0.00  0.00     0.202 C 
ATOM     11  C   UNL d   1      -2.325  -0.748   0.395  0.00  0.00     0.202 C 
ENDROOT
BRANCH   1  12
ATOM     12  C   UNL d   1       3.648  -1.356  -0.267  0.00  0.00     0.193 C 
ATOM     13  O   UNL d   1       4.415  -1.042  -1.173  0.00  0.00    -0.287 OA
BRANCH  12  14
ATOM     14  C   UNL d   1       3.981  -2.517   0.608  0.00  0.00     0.015 A 
ATOM     15  C   UNL d   1       3.370  -2.731   1.849  0.00  0.00     0.017 A 
ATOM     16  C   UNL d   1       3.699  -3.860   2.607  0.00  0.00     0.025 A 
ATOM     17  C   UNL d   1       4.649  -4.765   2.136  0.00  0.00     0.034 A 
ATOM     18  C   UNL d   1       5.284  -4.547   0.916  0.00  0.00     0.025 A 
ATOM     19 CL   UNL d   1       5.042  -6.157   3.067  0.00  0.00    -0.084 Cl
ATOM     20  C   UNL d   1       4.952  -3.423   0.155  0.00  0.00     0.017 A 
ENDBRANCH  12  14
ENDBRANCH   1  12
TORSDOF 2
