REMARK  2 active torsions:
REMARK  status: ('A' for Active; 'I' for Inactive)
REMARK    1  A    between atoms: C_11  and  N_1 
REMARK    2  A    between atoms: C_8  and  C_5 
ROOT
ATOM      1  N   UNL d   1       2.338  -0.653  -0.037  0.00  0.00    -0.220 N 
ATOM      2  N   UNL d   1       2.316   0.724   0.064  0.00  0.00    -0.289 N 
ATOM      3  HN  UNL d   1       3.193   1.240   0.137  1.00  0.00     0.188 HD
ATOM      4  C   UNL d   1       1.183  -1.440   0.030  0.00  0.00     0.278 C 
ATOM      5  C   UNL d   1       1.187   1.368   0.066  0.00  0.00     0.070 C 
ATOM      6  C   UNL d   1      -0.099  -0.719   0.016  0.00  0.00     0.046 A 
ATOM      7  C   UNL d   1      -0.121   0.669  -0.055  0.00  0.00     0.009 A 
ATOM      8  O   UNL d   1       1.134  -2.667   0.093  0.00  0.00    -0.265 OA
ATOM      9  C   UNL d   1      -1.298  -1.454   0.013  0.00  0.00     0.018 A 
ATOM     10  C   UNL d   1      -1.355   1.308  -0.247  0.00  0.00     0.015 A 
ATOM     11  C   UNL d   1      -2.523  -0.801  -0.087  0.00  0.00     0.001 A 
ATOM     12  C   UNL d   1      -2.549   0.581  -0.235  0.00  0.00     0.001 A 
ENDROOT
BRANCH   5  13
ATOM     13  C   UNL d   1       1.275   2.867   0.187  0.00  0.00    -0.005 A 
ATOM     14  C   UNL d   1       2.352   3.525  -0.430  0.00  0.00     0.040 A 
ATOM     15  C   UNL d   1       2.443   4.918  -0.385  0.00  0.00     0.073 A 
ATOM     16 CL   UNL d   1       3.775   5.708  -1.136  0.00  0.00    -0.081 Cl
ATOM     17  C   UNL d   1       1.456   5.660   0.261  0.00  0.00     0.138 A 
ATOM     18  C   UNL d   1       0.410   5.019   0.915  0.00  0.00     0.045 A 
ATOM     19  F   UNL d   1       1.499   7.000   0.275  0.00  0.00    -0.204 F 
ATOM     20  C   UNL d   1       0.342   3.623   0.912  0.00  0.00     0.017 A 
ENDBRANCH   5  13
BRANCH   1  21
ATOM     21  C   UNL d   1       3.652  -1.219  -0.179  0.00  0.00     0.060 A 
ATOM     22  C   UNL d   1       3.852  -2.488  -0.748  0.00  0.00     0.031 A 
ATOM     23  C   UNL d   1       5.133  -3.034  -0.883  0.00  0.00     0.002 A 
ATOM     24  C   UNL d   1       6.243  -2.323  -0.442  0.00  0.00     0.000 A 
ATOM     25  C   UNL d   1       6.072  -1.057   0.116  0.00  0.00     0.002 A 
ATOM     26  C   UNL d   1       4.790  -0.506   0.232  0.00  0.00     0.031 A 
ENDBRANCH   1  21
TORSDOF 2
