REMARK  6 active torsions:
REMARK  status: ('A' for Active; 'I' for Inactive)
REMARK    1  A    between atoms: C_2  and  C_1 
REMARK    2  A    between atoms: C_10  and  C_1 
REMARK    3  A    between atoms: C_11  and  C_10 
REMARK    4  A    between atoms: C_14  and  C_11 
REMARK    5  A    between atoms: C_12  and  C_13 
REMARK    6  A    between atoms: C_13  and  C_14 
ROOT
ATOM      1  C   UNL d   1       0.897  -0.136  -0.042  0.00  0.00     0.159 C 
ATOM      2  O   UNL d   1       0.268  -0.015  -1.091  0.00  0.00    -0.292 OA
ENDROOT
BRANCH   1   3
ATOM      3  C   UNL d   1       0.141  -0.323   1.235  0.00  0.00     0.010 A 
ATOM      4  C   UNL d   1      -1.258  -0.419   1.172  0.00  0.00     0.016 A 
ATOM      5  C   UNL d   1      -2.011  -0.618   2.332  0.00  0.00     0.020 A 
ATOM      6  C   UNL d   1      -1.365  -0.720   3.562  0.00  0.00     0.011 A 
ATOM      7  C   UNL d   1       0.023  -0.612   3.641  0.00  0.00     0.020 A 
ATOM      8 BR   UNL d   1      -2.376  -1.012   5.132  0.00  0.00    -0.051 Br
ATOM      9  C   UNL d   1       0.777  -0.413   2.480  0.00  0.00     0.016 A 
ENDBRANCH   1   3
BRANCH   1  10
ATOM     10  C   UNL d   1       2.419  -0.108   0.001  0.00  0.00     0.084 C 
BRANCH  10  11
ATOM     11  C   UNL d   1       3.017   0.005  -1.402  0.00  0.00     0.008 C 
BRANCH  11  12
ATOM     12  C   UNL d   1       4.546   0.046  -1.387  0.00  0.00     0.000 C 
BRANCH  12  13
ATOM     13  C   UNL d   1       5.088   0.186  -2.812  0.00  0.00    -0.000 C 
BRANCH  13  14
ATOM     14  C   UNL d   1       6.615   0.227  -2.851  0.00  0.00    -0.005 C 
ATOM     15  C   UNL d   1       7.119   0.370  -4.279  0.00  0.00     0.005 C 
ENDBRANCH  13  14
ENDBRANCH  12  13
ENDBRANCH  11  12
ENDBRANCH  10  11
ENDBRANCH   1  10
TORSDOF 6
