REMARK  9 active torsions:
REMARK  status: ('A' for Active; 'I' for Inactive)
REMARK    1  A    between atoms: C_6  and  C_1 
REMARK    2  A    between atoms: C_9  and  C_4 
REMARK       I    between atoms: N_8  and  C_6 
REMARK    3  A    between atoms: C_12  and  N_8 
REMARK    4  A    between atoms: O_11  and  C_15 
REMARK    5  A    between atoms: C_14  and  O_11 
REMARK    6  A    between atoms: C_13  and  C_12 
REMARK    7  A    between atoms: C_15  and  C_13 
REMARK    8  A    between atoms: O_21  and  C_13 
REMARK    9  A    between atoms: O_22  and  C_16 
ROOT
ATOM      1  C   UNL d   1       0.325  -2.538  -0.310  0.00  0.00     0.256 C 
ATOM      2  N   UNL d   1      -0.461  -3.667  -0.210  0.00  0.00    -0.354 N 
ATOM      3  O   UNL d   1      -0.173  -1.415  -0.309  0.00  0.00    -0.267 OA
ATOM      4  H   UNL d   1      -0.049  -4.587  -0.219  0.00  0.00     0.162 HD
ENDROOT
BRANCH   2   5
ATOM      5  C   UNL d   1      -1.912  -3.582  -0.237  0.00  0.00     0.156 C 
BRANCH   5   6
ATOM      6  C   UNL d   1      -2.584  -4.962  -0.284  0.00  0.00     0.160 C 
BRANCH   6   7
ATOM      7  C   UNL d   1      -4.115  -4.818  -0.252  0.00  0.00     0.209 C 
BRANCH   7   8
ATOM      8  O   UNL d   1      -4.689  -6.133  -0.223  0.00  0.00    -0.349 OA
BRANCH   8   9
ATOM      9  C   UNL d   1      -6.057  -6.210  -0.227  0.00  0.00     0.069 A 
ATOM     10  C   UNL d   1      -6.939  -5.130  -0.252  0.00  0.00     0.039 A 
ATOM     11  C   UNL d   1      -8.326  -5.342  -0.277  0.00  0.00     0.039 A 
ATOM     12  C   UNL d   1      -8.843  -6.637  -0.274  0.00  0.00     0.068 A 
ATOM     13  C   UNL d   1      -7.960  -7.716  -0.233  0.00  0.00     0.039 A 
ATOM     14  C   UNL d   1      -6.578  -7.505  -0.208  0.00  0.00     0.039 A 
BRANCH  12  15
ATOM     15  O   UNL d   1     -10.166  -6.976  -0.307  0.00  0.00    -0.356 OA
ATOM     16  C   UNL d   1     -11.104  -5.912  -0.419  0.00  0.00     0.210 C 
ENDBRANCH  12  15
ENDBRANCH   8   9
ENDBRANCH   7   8
ENDBRANCH   6   7
BRANCH   6  17
ATOM     17  O   UNL d   1      -2.171  -5.623  -1.492  0.00  0.00    -0.392 OA
ATOM     18  H   UNL d   1      -2.905  -6.211  -1.758  0.00  0.00     0.210 HD
ENDBRANCH   6  17
ENDBRANCH   5   6
ENDBRANCH   2   5
BRANCH   1  19
ATOM     19  C   UNL d   1       1.759  -2.752  -0.402  0.00  0.00     0.092 A 
ATOM     20  C   UNL d   1       2.834  -1.884  -0.003  0.00  0.00     0.083 A 
ATOM     21  N   UNL d   1       4.018  -2.433  -0.330  0.00  0.00    -0.259 N 
ATOM     22  O   UNL d   1       3.750  -3.642  -0.903  0.00  0.00    -0.241 OA
ATOM     23  HN  UNL d   1       4.940  -2.025  -0.177  1.00  0.00     0.195 HD
ATOM     24  C   UNL d   1       2.412  -3.848  -0.950  0.00  0.00     0.090 A 
ATOM     25  C   UNL d   1       2.014  -5.122  -1.580  0.00  0.00     0.080 C 
BRANCH  20  26
ATOM     26  C   UNL d   1       2.840  -0.598   0.719  0.00  0.00    -0.006 A 
ATOM     27  C   UNL d   1       3.893   0.310   0.516  0.00  0.00     0.014 A 
ATOM     28  C   UNL d   1       4.003   1.474   1.282  0.00  0.00     0.001 A 
ATOM     29  C   UNL d   1       3.049   1.754   2.256  0.00  0.00     0.000 A 
ATOM     30  C   UNL d   1       1.985   0.879   2.453  0.00  0.00     0.001 A 
ATOM     31  C   UNL d   1       1.880  -0.291   1.692  0.00  0.00     0.014 A 
ENDBRANCH  20  26
ENDBRANCH   1  19
TORSDOF 9
