REMARK  8 active torsions:
REMARK  status: ('A' for Active; 'I' for Inactive)
REMARK    1  A    between atoms: C_3  and  C_1 
REMARK       I    between atoms: N_5  and  C_1 
REMARK       I    between atoms: C_2  and  N_6 
REMARK    2  A    between atoms: C_4  and  C_2 
REMARK    3  A    between atoms: N_9  and  N_5 
REMARK    4  A    between atoms: N_6  and  N_10 
REMARK       I    between atoms: C_12  and  N_9 
REMARK       I    between atoms: N_10  and  C_11 
REMARK    5  A    between atoms: C_11  and  C_23 
REMARK    6  A    between atoms: C_24  and  C_12 
REMARK    7  A    between atoms: C_23  and  C_25 
REMARK    8  A    between atoms: C_25  and  C_24 
ROOT
ATOM      1  C   UNL d   1      -4.015  -0.616  -3.824  0.00  0.00     0.019 C 
ENDROOT
BRANCH   1   2
ATOM      2  C   UNL d   1      -5.542  -0.669  -3.861  0.00  0.00     0.105 C 
BRANCH   2   3
ATOM      3  C   UNL d   1      -6.196   0.670  -3.586  0.00  0.00     0.236 C 
ATOM      4  N   UNL d   1      -7.553   0.574  -3.348  0.00  0.00    -0.267 N 
ATOM      5  H   UNL d   1      -8.024  -0.306  -3.141  0.00  0.00     0.190 HD
ATOM      6  O   UNL d   1      -5.596   1.742  -3.614  0.00  0.00    -0.272 OA
BRANCH   4   7
ATOM      7  N   UNL d   1      -8.248   1.743  -3.026  0.00  0.00    -0.263 N 
ATOM      8  C   UNL d   1      -9.525   1.659  -2.495  0.00  0.00     0.277 C 
ATOM      9  O   UNL d   1     -10.058   0.563  -2.318  0.00  0.00    -0.265 OA
ATOM     10  H   UNL d   1      -7.775   2.631  -3.180  0.00  0.00     0.190 HD
BRANCH   8  11
ATOM     11  C   UNL d   1     -10.172   2.926  -2.179  0.00  0.00     0.074 A 
ATOM     12  S   UNL d   1      -9.358   4.430  -2.317  0.00  0.00    -0.097 SA
ATOM     13  C   UNL d   1     -10.725   5.303  -1.778  0.00  0.00     0.050 A 
ATOM     14  C   UNL d   1     -11.790   4.476  -1.504  0.00  0.00     0.009 A 
ATOM     15  C   UNL d   1     -11.471   3.105  -1.734  0.00  0.00     0.025 A 
ENDBRANCH   8  11
ENDBRANCH   4   7
ENDBRANCH   2   3
ENDBRANCH   1   2
BRANCH   1  16
ATOM     16  C   UNL d   1      -3.455  -0.399  -2.419  0.00  0.00     0.105 C 
BRANCH  16  17
ATOM     17  C   UNL d   1      -1.944  -0.439  -2.459  0.00  0.00     0.236 C 
ATOM     18  N   UNL d   1      -1.353   0.772  -2.742  0.00  0.00    -0.267 N 
ATOM     19  H   UNL d   1      -1.857   1.659  -2.777  0.00  0.00     0.190 HD
ATOM     20  O   UNL d   1      -1.305  -1.480  -2.316  0.00  0.00    -0.272 OA
BRANCH  18  21
ATOM     21  N   UNL d   1       0.040   0.828  -2.833  0.00  0.00    -0.263 N 
ATOM     22  C   UNL d   1       0.663   2.043  -3.054  0.00  0.00     0.277 C 
ATOM     23  O   UNL d   1       0.001   3.078  -3.158  0.00  0.00    -0.265 OA
ATOM     24  H   UNL d   1       0.550  -0.052  -2.777  0.00  0.00     0.190 HD
BRANCH  22  25
ATOM     25  C   UNL d   1       2.116   2.015  -3.154  0.00  0.00     0.074 A 
ATOM     26  S   UNL d   1       3.032   0.591  -2.879  0.00  0.00    -0.097 SA
ATOM     27  C   UNL d   1       4.513   1.407  -3.138  0.00  0.00     0.050 A 
ATOM     28  C   UNL d   1       4.323   2.734  -3.448  0.00  0.00     0.009 A 
ATOM     29  C   UNL d   1       2.942   3.083  -3.459  0.00  0.00     0.025 A 
ENDBRANCH  22  25
ENDBRANCH  18  21
ENDBRANCH  16  17
ENDBRANCH   1  16
TORSDOF 8
