REMARK  2 active torsions:
REMARK  status: ('A' for Active; 'I' for Inactive)
REMARK       I    between atoms: C_6  and  N_8 
REMARK    1  A    between atoms: C_10  and  C_6 
REMARK    2  A    between atoms: N_8  and  C_11 
ROOT
ATOM      1  N   UNL d   1       1.825   1.075  -0.076  0.00  0.00    -0.338 N 
ATOM      2  HN  UNL d   1       2.259   1.996  -0.140  1.00  0.00     0.168 HD
ATOM      3  C   UNL d   1       2.416  -0.101   0.006  0.00  0.00     0.120 A 
ATOM      4  O   UNL d   1       1.562  -1.173   0.069  0.00  0.00    -0.296 OA
ATOM      5  C   UNL d   1       0.321  -0.604   0.030  0.00  0.00     0.106 A 
ATOM      6  C   UNL d   1       0.489   0.767  -0.056  0.00  0.00     0.068 A 
ATOM      7  C   UNL d   1      -0.912  -1.251   0.072  0.00  0.00     0.069 A 
ATOM      8  C   UNL d   1      -2.051  -0.428   0.031  0.00  0.00     0.037 A 
ATOM      9  C   UNL d   1      -0.644   1.581  -0.108  0.00  0.00     0.035 A 
ATOM     10  C   UNL d   1      -1.907   0.966  -0.061  0.00  0.00     0.032 A 
ATOM     11  C   UNL d   1       3.859  -0.406   0.043  0.00  0.00     0.098 C 
ENDROOT
BRANCH   8  12
ATOM     12  N   UNL d   1      -3.304  -1.078   0.066  0.00  0.00    -0.325 N 
ATOM     13  C   UNL d   1      -4.566  -0.499   0.118  0.00  0.00     0.255 C 
ATOM     14  O   UNL d   1      -4.773   0.709   0.245  0.00  0.00    -0.270 OA
ATOM     15  H   UNL d   1      -3.283  -2.094   0.064  0.00  0.00     0.169 HD
BRANCH  13  16
ATOM     16  C   UNL d   1      -5.750  -1.470   0.006  0.00  0.00     0.270 C 
ATOM     17 CL   UNL d   1      -5.240  -3.142  -0.343  0.00  0.00    -0.098 Cl
ATOM     18 CL   UNL d   1      -6.682  -1.432   1.517  0.00  0.00    -0.098 Cl
ENDBRANCH  13  16
ENDBRANCH   8  12
TORSDOF 2
