REMARK  3 active torsions:
REMARK  status: ('A' for Active; 'I' for Inactive)
REMARK    1  A    between atoms: C_4  and  C_1 
REMARK    2  A    between atoms: N_7  and  C_4 
REMARK    3  A    between atoms: C_9  and  N_7 
ROOT
ATOM      1  C   UNL d   1       2.113   0.142   0.163  0.00  0.00     0.050 A 
ATOM      2  S   UNL d   1       1.280  -1.353   0.267  0.00  0.00    -0.086 SA
ATOM      3  C   UNL d   1       1.232   1.213   0.082  0.00  0.00    -0.030 A 
ATOM      4  C   UNL d   1      -0.151   0.774   0.048  0.00  0.00    -0.012 A 
ATOM      5  C   UNL d   1      -0.261  -0.611   0.168  0.00  0.00     0.016 A 
ATOM      6  C   UNL d   1       1.623   2.658   0.017  0.00  0.00     0.050 C 
ATOM      7  C   UNL d   1      -1.353   1.519  -0.082  0.00  0.00     0.013 A 
ATOM      8  C   UNL d   1      -1.513  -1.260   0.187  0.00  0.00     0.019 A 
ATOM      9  C   UNL d   1      -2.596   0.880  -0.090  0.00  0.00     0.001 A 
ATOM     10  C   UNL d   1      -2.674  -0.498   0.050  0.00  0.00     0.001 A 
ENDROOT
BRANCH   1  11
ATOM     11  C   UNL d   1       3.562   0.147   0.181  0.00  0.00     0.118 C 
ATOM     12  S   UNL d   1       4.369  -0.418   1.546  0.00  0.00    -0.059 SA
BRANCH  11  13
ATOM     13  N   UNL d   1       4.343   0.689  -0.814  0.00  0.00    -0.346 N 
ATOM     14  H   UNL d   1       5.314   0.748  -0.528  0.00  0.00     0.167 HD
BRANCH  13  15
ATOM     15  C   UNL d   1       4.087   1.088  -2.140  0.00  0.00     0.033 A 
ATOM     16  C   UNL d   1       2.897   0.873  -2.832  0.00  0.00     0.029 A 
ATOM     17  C   UNL d   1       2.768   1.275  -4.167  0.00  0.00     0.002 A 
ATOM     18  C   UNL d   1       3.833   1.884  -4.828  0.00  0.00     0.000 A 
ATOM     19  C   UNL d   1       5.028   2.099  -4.151  0.00  0.00     0.002 A 
ATOM     20  C   UNL d   1       5.153   1.704  -2.817  0.00  0.00     0.029 A 
ENDBRANCH  13  15
ENDBRANCH  11  13
ENDBRANCH   1  11
TORSDOF 3
