REMARK  2 active torsions:
REMARK  status: ('A' for Active; 'I' for Inactive)
REMARK    1  A    between atoms: C_2  and  C_1 
REMARK       I    between atoms: N_5  and  C_2 
REMARK    2  A    between atoms: C_10  and  N_9 
ROOT
ATOM      1  C   UNL d   1      -0.457  -2.831   0.013  0.00  0.00     0.263 C 
ATOM      2  N   UNL d   1       0.734  -3.508  -0.296  0.00  0.00    -0.344 N 
ATOM      3  N   UNL d   1       3.217  -4.886  -0.749  0.00  0.00    -0.378 N 
ATOM      4  O   UNL d   1      -0.533  -2.155   1.042  0.00  0.00    -0.267 OA
ATOM      5  C   UNL d   1       1.731  -3.647   0.781  0.00  0.00     0.146 C 
ATOM      6  C   UNL d   1       0.899  -4.430  -1.430  0.00  0.00     0.146 C 
ATOM      7  C   UNL d   1       2.353  -4.601  -1.902  0.00  0.00     0.143 C 
ATOM      8  C   UNL d   1       3.176  -3.821   0.271  0.00  0.00     0.143 C 
ENDROOT
BRANCH   1   9
ATOM      9  C   UNL d   1      -1.567  -2.875  -0.909  0.00  0.00     0.110 C 
ATOM     10  C   UNL d   1      -2.321  -1.835  -1.436  0.00  0.00     0.043 C 
ATOM     11  N   UNL d   1      -3.347  -2.241  -2.288  0.00  0.00    -0.296 N 
ATOM     12  C   UNL d   1      -2.160  -0.380  -1.202  0.00  0.00     0.071 C 
ATOM     13  N   UNL d   1      -3.448  -3.557  -2.347  0.00  0.00    -0.061 NA
ATOM     14  HN  UNL d   1      -3.948  -1.598  -2.804  1.00  0.00     0.183 HD
ATOM     15  S   UNL d   1      -2.358  -4.331  -1.347  0.00  0.00     0.007 SA
ENDBRANCH   1   9
BRANCH   3  16
ATOM     16  C   UNL d   1       4.325  -5.710  -0.861  0.00  0.00     0.030 A 
ATOM     17  C   UNL d   1       4.868  -6.089  -2.102  0.00  0.00     0.032 A 
ATOM     18  C   UNL d   1       5.916  -7.012  -2.199  0.00  0.00     0.044 A 
ATOM     19  C   UNL d   1       6.446  -7.569  -1.047  0.00  0.00     0.116 A 
ATOM     20  C   UNL d   1       5.957  -7.207   0.197  0.00  0.00     0.044 A 
ATOM     21  F   UNL d   1       7.430  -8.472  -1.138  0.00  0.00    -0.206 F 
ATOM     22  C   UNL d   1       4.907  -6.286   0.284  0.00  0.00     0.032 A 
ENDBRANCH   3  16
TORSDOF 2
