REMARK  1 active torsions:
REMARK  status: ('A' for Active; 'I' for Inactive)
REMARK    1  A    between atoms: C_2  and  N_1 
ROOT
ATOM      1  C   UNL d   1       0.117   0.403   1.176  0.00  0.00     0.105 A 
ATOM      2  C   UNL d   1      -0.884  -0.480   1.603  0.00  0.00     0.075 A 
ATOM      3  C   UNL d   1      -1.603  -0.195   2.768  0.00  0.00     0.104 A 
ATOM      4  C   UNL d   1      -1.309   0.977   3.489  0.00  0.00     0.102 A 
ATOM      5  O   UNL d   1      -2.592  -0.976   3.285  0.00  0.00    -0.346 OA
ATOM      6  O   UNL d   1      -1.897   1.225   4.705  0.00  0.00    -0.346 OA
ATOM      7  C   UNL d   1       0.415   1.565   1.901  0.00  0.00     0.039 A 
ATOM      8  C   UNL d   1      -0.298   1.844   3.068  0.00  0.00     0.042 A 
ATOM      9  O   UNL d   1      -4.437  -2.394   4.628  0.00  0.00    -0.387 OA
ATOM     10  O   UNL d   1      -5.139   0.955   5.894  0.00  0.00    -0.387 OA
ATOM     11  C   UNL d   1      -2.916  -2.215   2.664  0.00  0.00     0.201 C 
ATOM     12  C   UNL d   1      -3.202   1.814   4.577  0.00  0.00     0.201 C 
ATOM     13  C   UNL d   1      -4.194  -2.816   3.283  0.00  0.00     0.194 C 
ATOM     14  C   UNL d   1      -3.921   1.714   5.932  0.00  0.00     0.194 C 
ATOM     15  C   UNL d   1      -5.129  -1.141   4.662  0.00  0.00     0.193 C 
ATOM     16  C   UNL d   1      -4.945  -0.460   6.013  0.00  0.00     0.193 C 
ENDROOT
BRANCH   1  17
ATOM     17  N   UNL d   1       0.872   0.091  -0.047  0.00  0.00    -0.116 N 
ATOM     18  O   UNL d   1       0.559  -0.929  -0.674  0.00  0.00    -0.532 OA
ATOM     19  O   UNL d   1       1.777   0.873  -0.380  0.00  0.00    -0.532 OA
ENDBRANCH   1  17
TORSDOF 1
