REMARK  7 active torsions:
REMARK  status: ('A' for Active; 'I' for Inactive)
REMARK    1  A    between atoms: S_4  and  C_1 
REMARK    2  A    between atoms: C_17  and  N_2 
REMARK    3  A    between atoms: N_7  and  C_3 
REMARK    4  A    between atoms: C_8  and  S_4 
REMARK    5  A    between atoms: O_24  and  C_9 
REMARK    6  A    between atoms: C_16  and  C_12 
REMARK    7  A    between atoms: O_25  and  C_16 
ROOT
ATOM      1  C   UNL d   1       0.077  -1.403  -0.207  0.00  0.00     0.175 A 
ATOM      2  N   UNL d   1      -0.064  -0.492   0.837  0.00  0.00    -0.255 N 
ATOM      3  N   UNL d   1       0.417  -0.783  -1.319  0.00  0.00    -0.276 N 
ATOM      4  HN  UNL d   1       0.566  -1.222  -2.228  1.00  0.00     0.189 HD
ATOM      5  C   UNL d   1       0.290   0.715   0.230  0.00  0.00     0.245 A 
ATOM      6  N   UNL d   1       0.536   0.549  -1.044  0.00  0.00    -0.263 N 
ATOM      7  HN  UNL d   1       0.774   1.282  -1.712  1.00  0.00     0.190 HD
ENDROOT
BRANCH   1   8
ATOM      8  S   UNL d   1      -0.394  -3.068  -0.221  0.00  0.00    -0.032 SA
BRANCH   8   9
ATOM      9  C   UNL d   1       1.181  -3.846   0.118  0.00  0.00     0.110 A 
ATOM     10  C   UNL d   1       1.494  -5.151  -0.244  0.00  0.00     0.137 A 
ATOM     11  C   UNL d   1       2.625  -5.798   0.275  0.00  0.00     0.058 A 
ATOM     12  C   UNL d   1       3.437  -5.100   1.167  0.00  0.00     0.057 A 
ATOM     13  C   UNL d   1       3.116  -3.777   1.433  0.00  0.00     0.106 A 
ATOM     14  N   UNL d   1       2.020  -3.149   0.933  0.00  0.00    -0.357 N 
ATOM     15  HN  UNL d   1       1.829  -2.174   1.164  1.00  0.00     0.166 HD
BRANCH  10  16
ATOM     16  N   UNL d   1       0.641  -5.898  -1.129  0.00  0.00    -0.113 N 
ATOM     17  O   UNL d   1      -0.436  -6.297  -0.670  0.00  0.00    -0.532 OA
ATOM     18  O   UNL d   1       1.088  -6.143  -2.256  0.00  0.00    -0.532 OA
ENDBRANCH  10  16
BRANCH  12  19
ATOM     19  C   UNL d   1       4.574  -5.695   1.899  0.00  0.00     0.294 C 
ATOM     20  O   UNL d   1       5.309  -5.048   2.627  0.00  0.00    -0.259 OA
BRANCH  19  21
ATOM     21  O   UNL d   1       4.612  -7.034   1.703  0.00  0.00    -0.322 OA
ATOM     22  C   UNL d   1       5.614  -7.700   2.477  0.00  0.00     0.213 C 
ENDBRANCH  19  21
ENDBRANCH  12  19
ENDBRANCH   8   9
ENDBRANCH   1   8
BRANCH   2  23
ATOM     23  C   UNL d   1      -0.438  -0.661   2.214  0.00  0.00     0.045 A 
ATOM     24  C   UNL d   1      -0.183  -1.847   2.910  0.00  0.00     0.032 A 
ATOM     25  C   UNL d   1      -0.432  -1.947   4.285  0.00  0.00     0.026 A 
ATOM     26  C   UNL d   1      -0.968  -0.867   4.974  0.00  0.00     0.034 A 
ATOM     27  C   UNL d   1      -1.280   0.303   4.293  0.00  0.00     0.026 A 
ATOM     28 CL   UNL d   1      -1.232  -0.980   6.668  0.00  0.00    -0.084 Cl
ATOM     29  C   UNL d   1      -1.024   0.406   2.918  0.00  0.00     0.032 A 
ENDBRANCH   2  23
BRANCH   5  30
ATOM     30  O   UNL d   1       0.472   1.886   0.828  0.00  0.00    -0.331 OA
ATOM     31  H   UNL d   1       0.797   1.716   1.727  0.00  0.00     0.221 HD
ENDBRANCH   5  30
TORSDOF 7
