REMARK  4 active torsions:
REMARK  status: ('A' for Active; 'I' for Inactive)
REMARK    1  A    between atoms: C_2  and  C_1 
REMARK       I    between atoms: N_4  and  C_2 
REMARK    2  A    between atoms: C_6  and  C_20 
REMARK       I    between atoms: N_12  and  C_6 
REMARK    3  A    between atoms: C_20  and  N_9 
REMARK    4  A    between atoms: C_15  and  N_12 
ROOT
ATOM      1  C   UNL d   1       2.212  -0.089  -2.240  0.00  0.00     0.251 C 
ATOM      2  N   UNL d   1       1.569   0.593  -3.278  0.00  0.00    -0.346 N 
ATOM      3  N   UNL d   1      -1.084   1.789  -3.514  0.00  0.00     0.100 N 
ATOM      4  O   UNL d   1       2.625   0.506  -1.245  0.00  0.00    -0.270 OA
ATOM      5  C   UNL d   1       1.442   2.043  -3.201  0.00  0.00     0.156 C 
ATOM      6  C   UNL d   1       0.607  -0.009  -4.202  0.00  0.00     0.156 C 
ATOM      7  C   UNL d   1      -0.835   0.368  -3.799  0.00  0.00     0.293 C 
ATOM      8  C   UNL d   1       0.018   2.445  -2.776  0.00  0.00     0.293 C 
ENDROOT
BRANCH   3   9
ATOM      9  C   UNL d   1      -1.593   2.604  -4.617  0.00  0.00     0.375 C 
BRANCH   9  10
ATOM     10  C   UNL d   1      -2.869   2.109  -5.307  0.00  0.00     0.250 C 
ATOM     11  N   UNL d   1      -3.978   1.585  -4.719  0.00  0.00    -0.326 N 
ATOM     12  H   UNL d   1      -4.624   1.308  -5.451  0.00  0.00     0.169 HD
ATOM     13  O   UNL d   1      -2.936   2.217  -6.544  0.00  0.00    -0.271 OA
BRANCH  11  14
ATOM     14  C   UNL d   1      -4.372   1.222  -3.419  0.00  0.00     0.037 C 
ATOM     15  C   UNL d   1      -3.735   1.588  -2.240  0.00  0.00     0.069 C 
ATOM     16  C   UNL d   1      -4.079   0.970  -1.033  0.00  0.00     0.104 C 
ATOM     17  O   UNL d   1      -3.282   1.244   0.052  0.00  0.00    -0.346 OA
ATOM     18  C   UNL d   1      -5.154   0.083  -0.965  0.00  0.00     0.102 C 
ATOM     19  C   UNL d   1      -3.323   0.144   0.969  0.00  0.00     0.202 C 
ATOM     20  C   UNL d   1      -4.765  -0.183   1.323  0.00  0.00     0.202 C 
ATOM     21  O   UNL d   1      -5.521  -0.584   0.173  0.00  0.00    -0.346 OA
ATOM     22  C   UNL d   1      -5.885  -0.187  -2.113  0.00  0.00     0.042 C 
ATOM     23  C   UNL d   1      -5.489   0.372  -3.333  0.00  0.00     0.032 C 
ENDBRANCH  11  14
ENDBRANCH   9  10
ENDBRANCH   3   9
BRANCH   1  24
ATOM     24  C   UNL d   1       2.356  -1.623  -2.387  0.00  0.00     0.245 C 
ATOM     25  O   UNL d   1       2.941  -2.012  -3.632  0.00  0.00    -0.331 OA
ATOM     26  C   UNL d   1       4.311  -1.985  -3.598  0.00  0.00     0.103 A 
ATOM     27  C   UNL d   1       4.969  -2.006  -4.828  0.00  0.00     0.040 A 
ATOM     28  C   UNL d   1       5.051  -1.951  -2.415  0.00  0.00     0.102 A 
ATOM     29  C   UNL d   1       6.364  -1.966  -4.878  0.00  0.00     0.003 A 
ATOM     30  C   UNL d   1       7.102  -1.909  -3.695  0.00  0.00     0.003 A 
ATOM     31  C   UNL d   1       6.444  -1.900  -2.464  0.00  0.00     0.039 A 
ATOM     32  O   UNL d   1       4.485  -1.951  -1.171  0.00  0.00    -0.345 OA
ATOM     33  C   UNL d   1       3.091  -2.271  -1.211  0.00  0.00     0.218 C 
ENDBRANCH   1  24
TORSDOF 4
