REMARK  3 active torsions:
REMARK  status: ('A' for Active; 'I' for Inactive)
REMARK       I    between atoms: N_5  and  C_1 
REMARK       I    between atoms: N_7  and  C_1 
REMARK       I    between atoms: C_2  and  N_4 
REMARK    1  A    between atoms: C_3  and  C_2 
REMARK    2  A    between atoms: N_4  and  N_5 
REMARK    3  A    between atoms: C_16  and  N_7 
ROOT
ATOM      1  C   UNL d   1       0.159  -3.621  -0.354  0.00  0.00     0.270 C 
ATOM      2  N   UNL d   1       0.869  -2.439  -0.330  0.00  0.00    -0.262 N 
ATOM      3  O   UNL d   1      -1.025  -3.699  -0.037  0.00  0.00    -0.266 OA
ATOM      4  H   UNL d   1       1.878  -2.366  -0.453  0.00  0.00     0.190 HD
ENDROOT
BRANCH   2   5
ATOM      5  N   UNL d   1       0.215  -1.265   0.084  0.00  0.00    -0.248 N 
ATOM      6  C   UNL d   1       0.942  -0.086   0.005  0.00  0.00     0.339 C 
ATOM      7  N   UNL d   1       0.173   1.016   0.314  0.00  0.00    -0.308 N 
ATOM      8  O   UNL d   1       2.136  -0.103  -0.283  0.00  0.00    -0.245 OA
ATOM      9  H   UNL d   1      -0.767   0.823   0.627  0.00  0.00     0.170 HD
ATOM     10  H   UNL d   1      -0.789  -1.264  -0.074  0.00  0.00     0.192 HD
BRANCH   7  11
ATOM     11  C   UNL d   1       0.580   2.367   0.342  0.00  0.00     0.036 A 
ATOM     12  C   UNL d   1       1.858   2.803  -0.011  0.00  0.00     0.029 A 
ATOM     13  C   UNL d   1       2.193   4.160   0.058  0.00  0.00     0.002 A 
ATOM     14  C   UNL d   1       1.250   5.095   0.475  0.00  0.00     0.000 A 
ATOM     15  C   UNL d   1      -0.032   4.675   0.819  0.00  0.00     0.002 A 
ATOM     16  C   UNL d   1      -0.365   3.318   0.752  0.00  0.00     0.029 A 
ENDBRANCH   7  11
ENDBRANCH   2   5
BRANCH   1  17
ATOM     17  C   UNL d   1       0.903  -4.830  -0.796  0.00  0.00     0.034 A 
ATOM     18  C   UNL d   1       0.529  -6.077  -0.283  0.00  0.00     0.030 A 
ATOM     19  C   UNL d   1       1.165  -7.252  -0.728  0.00  0.00    -0.009 A 
ATOM     20  C   UNL d   1       0.815  -8.517  -0.234  0.00  0.00     0.015 A 
ATOM     21  C   UNL d   1       2.180  -7.185  -1.707  0.00  0.00     0.042 A 
ATOM     22  C   UNL d   1       1.452  -9.652  -0.724  0.00  0.00     0.018 A 
ATOM     23  C   UNL d   1       2.423  -9.483  -1.691  0.00  0.00     0.088 A 
ATOM     24  N   UNL d   1       2.799  -8.280  -2.181  0.00  0.00    -0.365 N 
ATOM     25  HN  UNL d   1       3.529  -8.206  -2.889  1.00  0.00     0.165 HD
ATOM     26  C   UNL d   1       2.537  -5.936  -2.197  0.00  0.00     0.031 A 
ATOM     27  C   UNL d   1       1.915  -4.760  -1.756  0.00  0.00     0.019 A 
ENDBRANCH   1  17
TORSDOF 3
