REMARK  6 active torsions:
REMARK  status: ('A' for Active; 'I' for Inactive)
REMARK    1  A    between atoms: C_3  and  C_1 
REMARK       I    between atoms: N_7  and  C_1 
REMARK    2  A    between atoms: O_16  and  C_2 
REMARK    3  A    between atoms: O_18  and  C_4 
REMARK    4  A    between atoms: C_19  and  N_7 
REMARK    5  A    between atoms: C_11  and  C_20 
REMARK    6  A    between atoms: C_20  and  C_19 
ROOT
ATOM      1  C   UNL d   1       3.229   1.190   0.067  0.00  0.00     0.127 C 
ENDROOT
BRANCH   1   2
ATOM      2  N   UNL d   1       2.469  -0.043  -0.070  0.00  0.00    -0.357 N 
ATOM      3  C   UNL d   1       1.090   0.010  -0.122  0.00  0.00     0.251 C 
ATOM      4  O   UNL d   1       0.455   1.060  -0.069  0.00  0.00    -0.268 OA
ATOM      5  H   UNL d   1       2.914  -0.925   0.148  0.00  0.00     0.162 HD
BRANCH   3   6
ATOM      6  C   UNL d   1       0.362  -1.283  -0.231  0.00  0.00     0.032 A 
ATOM      7  C   UNL d   1       0.903  -2.380  -0.915  0.00  0.00     0.018 A 
ATOM      8  C   UNL d   1       0.150  -3.550  -1.062  0.00  0.00     0.025 A 
ATOM      9  C   UNL d   1      -1.137  -3.624  -0.528  0.00  0.00     0.034 A 
ATOM     10  C   UNL d   1      -1.680  -2.540   0.158  0.00  0.00     0.025 A 
ATOM     11 CL   UNL d   1      -2.068  -5.056  -0.737  0.00  0.00    -0.084 Cl
ATOM     12  C   UNL d   1      -0.933  -1.368   0.301  0.00  0.00     0.018 A 
ENDBRANCH   3   6
ENDBRANCH   1   2
BRANCH   1  13
ATOM     13  C   UNL d   1       4.739   0.957   0.098  0.00  0.00     0.058 C 
BRANCH  13  14
ATOM     14  C   UNL d   1       5.516   2.251   0.173  0.00  0.00    -0.054 A 
ATOM     15  C   UNL d   1       5.899   2.919  -1.003  0.00  0.00     0.046 A 
ATOM     16  C   UNL d   1       6.629   4.120  -0.963  0.00  0.00     0.102 A 
ATOM     17  C   UNL d   1       6.952   4.673   0.287  0.00  0.00     0.101 A 
ATOM     18  C   UNL d   1       6.573   4.005   1.459  0.00  0.00     0.040 A 
ATOM     19  C   UNL d   1       5.855   2.809   1.407  0.00  0.00     0.010 A 
BRANCH  16  20
ATOM     20  O   UNL d   1       7.075   4.767  -2.085  0.00  0.00    -0.353 OA
ATOM     21  C   UNL d   1       6.786   4.190  -3.351  0.00  0.00     0.210 C 
ENDBRANCH  16  20
BRANCH  17  22
ATOM     22  O   UNL d   1       7.676   5.814   0.531  0.00  0.00    -0.353 OA
ATOM     23  C   UNL d   1       7.556   6.869  -0.416  0.00  0.00     0.210 C 
ENDBRANCH  17  22
ENDBRANCH  13  14
ENDBRANCH   1  13
TORSDOF 6
