REMARK  2 active torsions:
REMARK  status: ('A' for Active; 'I' for Inactive)
REMARK       I    between atoms: C_8  and  N_1 
REMARK    1  A    between atoms: C_9  and  C_4 
REMARK    2  A    between atoms: C_7  and  C_9 
REMARK       I    between atoms: N_16  and  C_8 
ROOT
ATOM      1  N   UNL d   1      -0.526  -0.794  -0.258  0.00  0.00    -0.210 N 
ATOM      2  N   UNL d   1       0.827  -0.624  -0.251  0.00  0.00    -0.294 N 
ATOM      3  HN  UNL d   1       1.542  -1.333  -0.416  1.00  0.00     0.187 HD
ATOM      4  C   UNL d   1      -0.213   1.388   0.128  0.00  0.00    -0.006 A 
ATOM      5  C   UNL d   1      -1.190   0.399   0.008  0.00  0.00     0.044 A 
ATOM      6  C   UNL d   1       1.014   0.669   0.018  0.00  0.00     0.031 A 
ATOM      7  C   UNL d   1      -1.041  -2.095  -0.525  0.00  0.00     0.341 C 
ATOM      8  O   UNL d   1      -2.242  -2.323  -0.511  0.00  0.00    -0.245 OA
ATOM      9  N   UNL d   1      -0.021  -2.970  -0.814  0.00  0.00    -0.346 N 
ATOM     10  C   UNL d   1      -2.670   0.458   0.125  0.00  0.00     0.071 C 
ATOM     11  C   UNL d   1       2.415   1.142   0.155  0.00  0.00     0.070 C 
ATOM     12  C   UNL d   1      -0.257  -4.312  -1.265  0.00  0.00     0.151 C 
ATOM     13  H   UNL d   1       0.914  -2.560  -0.855  0.00  0.00     0.163 HD
ENDROOT
BRANCH   4  14
ATOM     14  C   UNL d   1      -0.404   2.868   0.376  0.00  0.00     0.082 C 
BRANCH  14  15
ATOM     15  C   UNL d   1       0.184   3.726  -0.725  0.00  0.00    -0.036 C 
ATOM     16  C   UNL d   1      -0.542   4.335  -1.827  0.00  0.00    -0.010 A 
ATOM     17  C   UNL d   1       0.336   4.848  -2.791  0.00  0.00     0.015 A 
ATOM     18  C   UNL d   1      -1.933   4.469  -2.077  0.00  0.00     0.037 A 
ATOM     19  C   UNL d   1      -0.118   5.374  -4.016  0.00  0.00     0.021 A 
ATOM     20  S   UNL d   1       1.968   4.771  -2.266  0.00  0.00    -0.101 SA
ATOM     21  C   UNL d   1      -1.490   5.493  -4.230  0.00  0.00     0.025 A 
ATOM     22  C   UNL d   1      -2.383   5.077  -3.255  0.00  0.00     0.035 A 
ATOM     23 CL   UNL d   1      -4.070   5.331  -3.489  0.00  0.00    -0.084 Cl
ATOM     24  C   UNL d   1       1.517   4.093  -0.775  0.00  0.00     0.058 C 
ENDBRANCH  14  15
ENDBRANCH   4  14
TORSDOF 2
