REMARK  5 active torsions:
REMARK  status: ('A' for Active; 'I' for Inactive)
REMARK    1  A    between atoms: C_2  and  S_1 
REMARK    2  A    between atoms: N_4  and  S_1 
REMARK    3  A    between atoms: C_11  and  N_4 
REMARK    4  A    between atoms: O_16  and  C_15 
REMARK    5  A    between atoms: C_19  and  O_16 
ROOT
ATOM      1  N   UNL d   1       0.201   0.708   1.310  0.00  0.00    -0.278 N 
ATOM      2  H   UNL d   1      -0.305   1.588   1.216  0.00  0.00     0.179 HD
ENDROOT
BRANCH   1   3
ATOM      3  S   UNL d   1      -0.059  -0.373   0.069  0.00  0.00     0.265 S 
ATOM      4  O   UNL d   1      -0.322   0.406  -1.120  0.00  0.00    -0.200 OA
ATOM      5  O   UNL d   1       0.953  -1.407   0.090  0.00  0.00    -0.200 OA
BRANCH   3   6
ATOM      6  C   UNL d   1      -1.578  -1.168   0.431  0.00  0.00     0.110 A 
ATOM      7  C   UNL d   1      -2.715  -0.498   0.908  0.00  0.00     0.108 A 
ATOM      8  C   UNL d   1      -4.002  -1.182   1.025  0.00  0.00     0.086 A 
ATOM      9  N   UNL d   1      -2.892   0.771   1.304  0.00  0.00    -0.238 N 
ATOM     10  N   UNL d   1      -4.902  -0.313   1.499  0.00  0.00    -0.239 N 
ATOM     11  C   UNL d   1      -4.183  -2.531   0.664  0.00  0.00     0.034 A 
ATOM     12  O   UNL d   1      -4.224   0.879   1.666  0.00  0.00    -0.156 OA
ATOM     13  HN  UNL d   1      -5.886  -0.494   1.696  1.00  0.00     0.197 HD
ATOM     14  C   UNL d   1      -3.024  -3.179   0.198  0.00  0.00     0.004 A 
ATOM     15  C   UNL d   1      -1.770  -2.526   0.090  0.00  0.00     0.028 A 
ATOM     16  HN  UNL d   1      -2.188   1.509   1.331  1.00  0.00     0.197 HD
ENDBRANCH   3   6
ENDBRANCH   1   3
BRANCH   1  17
ATOM     17  C   UNL d   1       0.735   0.361   2.580  0.00  0.00     0.076 A 
ATOM     18  C   UNL d   1       2.092   0.078   2.824  0.00  0.00     0.103 A 
ATOM     19  C   UNL d   1       2.512  -0.169   4.141  0.00  0.00     0.039 A 
ATOM     20  C   UNL d   1       1.619  -0.095   5.212  0.00  0.00     0.003 A 
ATOM     21  C   UNL d   1       0.285   0.205   4.970  0.00  0.00     0.002 A 
ATOM     22  C   UNL d   1      -0.152   0.434   3.664  0.00  0.00     0.033 A 
BRANCH  18  23
ATOM     23  O   UNL d   1       3.121  -0.065   1.922  0.00  0.00    -0.309 OA
BRANCH  23  24
ATOM     24  C   UNL d   1       3.253   0.709   0.799  0.00  0.00     0.076 A 
ATOM     25  C   UNL d   1       2.781   2.010   0.644  0.00  0.00     0.037 A 
ATOM     26  C   UNL d   1       2.892   2.643  -0.597  0.00  0.00     0.003 A 
ATOM     27  C   UNL d   1       3.543   2.009  -1.655  0.00  0.00     0.000 A 
ATOM     28  C   UNL d   1       4.110   0.751  -1.469  0.00  0.00     0.003 A 
ATOM     29  C   UNL d   1       3.966   0.105  -0.242  0.00  0.00     0.037 A 
ENDBRANCH  23  24
ENDBRANCH  18  23
ENDBRANCH   1  17
TORSDOF 5
