REMARK  4 active torsions:
REMARK  status: ('A' for Active; 'I' for Inactive)
REMARK       I    between atoms: N_2  and  C_1 
REMARK       I    between atoms: N_4  and  C_1 
REMARK    1  A    between atoms: C_3  and  N_2 
REMARK    2  A    between atoms: C_7  and  N_4 
REMARK    3  A    between atoms: C_9  and  C_7 
REMARK    4  A    between atoms: O_11  and  C_10 
ROOT
ATOM      1  C   UNL d   1       0.963   0.191   0.116  0.00  0.00     0.321 C 
ATOM      2  N   UNL d   1       2.321  -0.068   0.104  0.00  0.00    -0.308 N 
ATOM      3  N   UNL d   1       0.265  -0.872   0.644  0.00  0.00    -0.339 N 
ATOM      4  O   UNL d   1       0.423   1.200  -0.326  0.00  0.00    -0.247 OA
ATOM      5  H   UNL d   1       2.505  -1.030  -0.145  0.00  0.00     0.170 HD
ATOM      6  H   UNL d   1       0.760  -1.421   1.332  0.00  0.00     0.164 HD
ENDROOT
BRANCH   2   7
ATOM      7  C   UNL d   1       3.252   0.878  -0.386  0.00  0.00     0.042 A 
ATOM      8  C   UNL d   1       3.333   2.200   0.087  0.00  0.00    -0.035 A 
ATOM      9  C   UNL d   1       2.537   2.720   1.252  0.00  0.00     0.050 C 
ATOM     10  C   UNL d   1       4.226   3.088  -0.539  0.00  0.00     0.009 A 
ATOM     11  C   UNL d   1       5.059   2.661  -1.573  0.00  0.00     0.001 A 
ATOM     12  C   UNL d   1       5.027   1.332  -1.982  0.00  0.00     0.002 A 
ATOM     13  C   UNL d   1       4.137   0.441  -1.382  0.00  0.00     0.030 A 
ENDBRANCH   2   7
BRANCH   3  14
ATOM     14  C   UNL d   1      -1.179  -0.848   0.743  0.00  0.00     0.163 C 
BRANCH  14  15
ATOM     15  C   UNL d   1      -1.665  -0.277   2.054  0.00  0.00    -0.038 A 
ATOM     16  C   UNL d   1      -1.475   1.085   2.350  0.00  0.00     0.045 A 
ATOM     17  C   UNL d   1      -1.925   1.631   3.553  0.00  0.00     0.068 A 
ATOM     18  C   UNL d   1      -2.591   0.811   4.463  0.00  0.00     0.037 A 
ATOM     19  C   UNL d   1      -2.802  -0.539   4.181  0.00  0.00     0.003 A 
ATOM     20  C   UNL d   1      -2.337  -1.083   2.983  0.00  0.00     0.009 A 
BRANCH  17  21
ATOM     21  O   UNL d   1      -1.781   2.934   3.946  0.00  0.00    -0.356 OA
ATOM     22  C   UNL d   1      -1.084   3.796   3.054  0.00  0.00     0.210 C 
ENDBRANCH  17  21
ENDBRANCH  14  15
ENDBRANCH   3  14
TORSDOF 4
