REMARK  2 active torsions:
REMARK  status: ('A' for Active; 'I' for Inactive)
REMARK    1  A    between atoms: C_4  and  C_1 
REMARK       I    between atoms: N_7  and  C_1 
REMARK    2  A    between atoms: C_14  and  N_7 
ROOT
ATOM      1  C   UNL d   1       1.015  -0.082  -0.055  0.00  0.00     0.256 C 
ATOM      2  N   UNL d   1       0.237   0.008  -1.196  0.00  0.00    -0.323 N 
ATOM      3  O   UNL d   1       2.239  -0.074  -0.002  0.00  0.00    -0.267 OA
ATOM      4  H   UNL d   1      -0.749   0.198  -1.072  0.00  0.00     0.169 HD
ENDROOT
BRANCH   1   5
ATOM      5  C   UNL d   1       0.263  -0.148   1.230  0.00  0.00     0.033 A 
ATOM      6  C   UNL d   1      -0.944  -0.858   1.330  0.00  0.00     0.038 A 
ATOM      7  C   UNL d   1      -1.582  -0.898   2.584  0.00  0.00     0.033 A 
ATOM      8  S   UNL d   1      -3.058  -1.675   3.025  0.00  0.00    -0.083 SA
ATOM      9  C   UNL d   1      -1.049  -0.268   3.712  0.00  0.00     0.049 A 
ATOM     10  C   UNL d   1      -2.873  -1.101   4.626  0.00  0.00     0.139 A 
ATOM     11  N   UNL d   1      -1.797  -0.388   4.870  0.00  0.00    -0.359 N 
ATOM     12  HN  UNL d   1      -1.551   0.015   5.774  1.00  0.00     0.166 HD
ATOM     13  C   UNL d   1       0.175   0.418   3.591  0.00  0.00     0.032 A 
ATOM     14  C   UNL d   1       0.823   0.469   2.352  0.00  0.00     0.019 A 
ENDBRANCH   1   5
BRANCH   2  15
ATOM     15  C   UNL d   1       0.699  -0.039  -2.531  0.00  0.00     0.035 A 
ATOM     16  C   UNL d   1       2.007  -0.381  -2.882  0.00  0.00     0.031 A 
ATOM     17  C   UNL d   1       2.392  -0.448  -4.226  0.00  0.00     0.026 A 
ATOM     18  C   UNL d   1       1.468  -0.167  -5.226  0.00  0.00     0.034 A 
ATOM     19  C   UNL d   1       0.162   0.182  -4.894  0.00  0.00     0.026 A 
ATOM     20 CL   UNL d   1       1.938  -0.263  -6.877  0.00  0.00    -0.084 Cl
ATOM     21  C   UNL d   1      -0.223   0.242  -3.549  0.00  0.00     0.031 A 
ENDBRANCH   2  15
TORSDOF 2
