REMARK  4 active torsions:
REMARK  status: ('A' for Active; 'I' for Inactive)
REMARK    1  A    between atoms: C_14  and  N_5 
REMARK    2  A    between atoms: N_12  and  N_9 
REMARK    3  A    between atoms: C_17  and  C_16 
REMARK    4  A    between atoms: O_20  and  C_19 
ROOT
ATOM      1  C   UNL d   1      -0.164  -0.698   0.050  0.00  0.00     0.145 A 
ATOM      2  C   UNL d   1      -0.238   0.674   0.025  0.00  0.00     0.097 A 
ATOM      3  N   UNL d   1       0.976  -1.433   0.144  0.00  0.00    -0.335 N 
ATOM      4  HN  UNL d   1       0.981  -2.452   0.183  1.00  0.00     0.168 HD
ATOM      5  N   UNL d   1      -1.478  -1.160  -0.044  0.00  0.00    -0.239 N 
ATOM      6  C   UNL d   1       0.958   1.467   0.100  0.00  0.00     0.282 A 
ATOM      7  N   UNL d   1      -2.353  -0.107  -0.149  0.00  0.00    -0.302 N 
ATOM      8  HN  UNL d   1      -3.366  -0.150  -0.252  1.00  0.00     0.186 HD
ATOM      9  N   UNL d   1       2.127   0.676   0.112  0.00  0.00    -0.215 N 
ATOM     10  C   UNL d   1      -1.590   0.985  -0.089  0.00  0.00     0.128 A 
ATOM     11  C   UNL d   1       2.060  -0.714   0.179  0.00  0.00     0.212 A 
ATOM     12  O   UNL d   1       0.917   2.695   0.135  0.00  0.00    -0.265 OA
ENDROOT
BRANCH   9  13
ATOM     13  N   UNL d   1       3.318   1.371   0.180  0.00  0.00    -0.301 N 
ATOM     14  C   UNL d   1       4.408   0.861  -0.290  0.00  0.00     0.119 C 
ATOM     15  HN  UNL d   1       3.338   2.297   0.607  1.00  0.00     0.186 HD
BRANCH  14  16
ATOM     16  C   UNL d   1       5.671   1.625  -0.232  0.00  0.00    -0.017 A 
ATOM     17  C   UNL d   1       5.689   2.901   0.349  0.00  0.00     0.049 A 
ATOM     18  C   UNL d   1       6.872   3.636   0.378  0.00  0.00     0.069 A 
ATOM     19  C   UNL d   1       8.027   3.092  -0.190  0.00  0.00     0.037 A 
ATOM     20  C   UNL d   1       8.010   1.819  -0.768  0.00  0.00     0.004 A 
ATOM     21  C   UNL d   1       6.830   1.078  -0.787  0.00  0.00     0.013 A 
BRANCH  18  22
ATOM     22  O   UNL d   1       7.025   4.882   0.922  0.00  0.00    -0.356 OA
ATOM     23  C   UNL d   1       5.876   5.460   1.534  0.00  0.00     0.210 C 
ENDBRANCH  18  22
ENDBRANCH  14  16
ENDBRANCH   9  13
BRANCH   5  24
ATOM     24  C   UNL d   1      -1.971  -2.501  -0.051  0.00  0.00     0.058 A 
ATOM     25  C   UNL d   1      -1.126  -3.600   0.150  0.00  0.00     0.031 A 
ATOM     26  C   UNL d   1      -1.638  -4.900   0.125  0.00  0.00     0.002 A 
ATOM     27  C   UNL d   1      -2.994  -5.115  -0.101  0.00  0.00     0.000 A 
ATOM     28  C   UNL d   1      -3.846  -4.031  -0.293  0.00  0.00     0.002 A 
ATOM     29  C   UNL d   1      -3.341  -2.728  -0.265  0.00  0.00     0.031 A 
ENDBRANCH   5  24
TORSDOF 4
