REMARK  9 active torsions:
REMARK  status: ('A' for Active; 'I' for Inactive)
REMARK    1  A    between atoms: C_3  and  CA_1 
REMARK    2  A    between atoms: N_4  and  CA_1 
REMARK    3  A    between atoms: CA_1  and  C_6 
REMARK    4  A    between atoms: C_2  and  C_6 
REMARK    5  A    between atoms: OXT_12  and  C_3 
REMARK       I    between atoms: C_7  and  N_4 
REMARK    6  A    between atoms: O_14  and  C_5 
REMARK    7  A    between atoms: O_9  and  C_8 
REMARK    8  A    between atoms: C_13  and  O_9 
REMARK    9  A    between atoms: C_16  and  C_13 
ROOT
ATOM      1  C   UNL d   1       3.114  -0.417  -1.383  0.00  0.00    -0.019 A 
ATOM      2  C   UNL d   1       3.568   0.641  -2.212  0.00  0.00     0.107 A 
ATOM      3  C   UNL d   1       4.157   0.346  -3.462  0.00  0.00     0.102 A 
ATOM      4  C   UNL d   1       3.187  -1.742  -1.848  0.00  0.00     0.010 A 
ATOM      5  C   UNL d   1       3.748  -2.030  -3.079  0.00  0.00     0.003 A 
ATOM      6  C   UNL d   1       4.234  -0.997  -3.872  0.00  0.00     0.040 A 
ENDROOT
BRANCH   1   7
ATOM      7  C   UNL d   1       2.523  -0.177  -0.005  0.00  0.00     0.077 C 
BRANCH   7   8
ATOM      8  CA  UNL d   1       3.277  -0.906   1.117  0.00  0.00     0.186 C 
BRANCH   8   9
ATOM      9  C   UNL d   1       4.656  -0.288   1.382  0.00  0.00     0.163 C 
ATOM     10  O   UNL d   1       4.882   0.914   1.432  0.00  0.00    -0.648 OA
BRANCH   9  11
ATOM     11  OXT UNL d   1       5.591  -1.208   1.730  0.00  0.00    -0.775 OA
ATOM     12  HXT UNL d   1       5.199  -2.092   1.915  0.00  0.00     0.167 HD
ENDBRANCH   9  11
ENDBRANCH   8   9
BRANCH   8  13
ATOM     13  N   UNL d   1       2.525  -0.868   2.371  0.00  0.00    -0.347 N 
ATOM     14  C   UNL d   1       2.754  -1.835   3.321  0.00  0.00     0.214 C 
ATOM     15  O   UNL d   1       3.544  -2.756   3.140  0.00  0.00    -0.274 OA
ATOM     16  C   UNL d   1       1.965  -1.659   4.593  0.00  0.00     0.117 C 
ATOM     17  H   UNL d   1       2.205   0.040   2.688  0.00  0.00     0.163 HD
ENDBRANCH   8  13
ENDBRANCH   7   8
ENDBRANCH   1   7
BRANCH   2  18
ATOM     18  O   UNL d   1       3.424   1.890  -1.664  0.00  0.00    -0.353 OA
ATOM     19  C   UNL d   1       3.238   2.987  -2.549  0.00  0.00     0.210 C 
ENDBRANCH   2  18
BRANCH   3  20
ATOM     20  O   UNL d   1       4.664   1.378  -4.225  0.00  0.00    -0.348 OA
BRANCH  20  21
ATOM     21  C   UNL d   1       5.276   1.000  -5.460  0.00  0.00     0.180 C 
BRANCH  21  22
ATOM     22  C   UNL d   1       5.774   2.208  -6.247  0.00  0.00     0.010 C 
ATOM     23  C   UNL d   1       4.682   3.210  -6.610  0.00  0.00     0.007 C 
ATOM     24  C   UNL d   1       5.188   3.912  -7.871  0.00  0.00     0.000 C 
ATOM     25  C   UNL d   1       6.323   3.057  -8.429  0.00  0.00     0.000 C 
ATOM     26  C   UNL d   1       6.316   1.778  -7.610  0.00  0.00     0.007 C 
ENDBRANCH  21  22
ENDBRANCH  20  21
ENDBRANCH   3  20
TORSDOF 9
