REMARK  6 active torsions:
REMARK  status: ('A' for Active; 'I' for Inactive)
REMARK    1  A    between atoms: C_2  and  C_1 
REMARK    2  A    between atoms: C_5  and  C_1 
REMARK    3  A    between atoms: C_6  and  C_1 
REMARK    4  A    between atoms: O_12  and  C_2 
REMARK    5  A    between atoms: C_7  and  C_5 
REMARK    6  A    between atoms: C_8  and  C_6 
ROOT
ATOM      1  C   UNL d   1       1.024   0.064   0.155  0.00  0.00     0.140 C 
ATOM      2  C   UNL d   1       0.553   1.444  -0.077  0.00  0.00     0.081 C 
ATOM      3  N   UNL d   1       0.239   2.548  -0.261  0.00  0.00    -0.196 NA
ENDROOT
BRANCH   1   4
ATOM      4  C   UNL d   1       0.520  -0.369   1.539  0.00  0.00     0.164 C 
ATOM      5  O   UNL d   1      -0.522  -0.985   1.730  0.00  0.00    -0.649 OA
BRANCH   4   6
ATOM      6  O   UNL d   1       1.269  -0.006   2.606  0.00  0.00    -0.775 OA
ATOM      7  H   UNL d   1       2.082   0.512   2.467  0.00  0.00     0.167 HD
ENDBRANCH   4   6
ENDBRANCH   1   4
BRANCH   1   8
ATOM      8  C   UNL d   1       0.482  -0.879  -0.965  0.00  0.00     0.063 C 
BRANCH   8   9
ATOM      9  C   UNL d   1      -1.016  -0.941  -1.163  0.00  0.00    -0.022 C 
ATOM     10  C   UNL d   1      -1.660  -1.727  -2.043  0.00  0.00    -0.091 C 
ATOM     11  C   UNL d   1      -0.989  -2.647  -3.027  0.00  0.00     0.042 C 
ATOM     12  C   UNL d   1      -3.167  -1.750  -2.086  0.00  0.00     0.042 C 
ENDBRANCH   8   9
ENDBRANCH   1   8
BRANCH   1  13
ATOM     13  C   UNL d   1       2.579   0.077   0.066  0.00  0.00     0.063 C 
BRANCH  13  14
ATOM     14  C   UNL d   1       3.256  -1.242   0.353  0.00  0.00    -0.022 C 
ATOM     15  C   UNL d   1       4.429  -1.667  -0.154  0.00  0.00    -0.091 C 
ATOM     16  C   UNL d   1       5.319  -0.870  -1.070  0.00  0.00     0.042 C 
ATOM     17  C   UNL d   1       4.965  -3.033   0.192  0.00  0.00     0.042 C 
ENDBRANCH  13  14
ENDBRANCH   1  13
TORSDOF 6
