REMARK  5 active torsions:
REMARK  status: ('A' for Active; 'I' for Inactive)
REMARK    1  A    between atoms: S_11  and  C_2 
REMARK    2  A    between atoms: N_13  and  C_3 
REMARK    3  A    between atoms: C_14  and  C_8 
REMARK    4  A    between atoms: S_12  and  C_14 
REMARK    5  A    between atoms: C_15  and  S_12 
ROOT
ATOM      1  C   UNL d   1      -0.502  -0.307   0.066  0.00  0.00     0.116 A 
ATOM      2  C   UNL d   1       0.309  -1.428   0.019  0.00  0.00     0.095 A 
ATOM      3  C   UNL d   1       0.153   0.911   0.051  0.00  0.00     0.103 A 
ATOM      4  N   UNL d   1       1.657  -1.350  -0.017  0.00  0.00    -0.339 N 
ATOM      5  HN  UNL d   1       2.235  -2.189  -0.056  1.00  0.00     0.168 HD
ATOM      6  N   UNL d   1       1.489   1.011  -0.002  0.00  0.00    -0.335 N 
ATOM      7  HN  UNL d   1       1.946   1.922  -0.043  1.00  0.00     0.168 HD
ATOM      8  C   UNL d   1       2.208  -0.125   0.001  0.00  0.00     0.093 A 
ATOM      9  C   UNL d   1      -1.925  -0.373   0.108  0.00  0.00     0.105 C 
ATOM     10  N   UNL d   1      -3.088  -0.390   0.108  0.00  0.00    -0.191 NA
ENDROOT
BRANCH   2  11
ATOM     11  S   UNL d   1      -0.378  -3.087   0.006  0.00  0.00    -0.115 SA
ATOM     12  C   UNL d   1       1.133  -4.090  -0.028  0.00  0.00     0.097 C 
ENDBRANCH   2  11
BRANCH   3  13
ATOM     13  N   UNL d   1      -0.507   2.131   0.183  0.00  0.00    -0.287 NA
ATOM     14  H   UNL d   1      -1.302   2.259  -0.434  0.00  0.00     0.125 HD
ATOM     15  H   UNL d   1       0.176   2.881   0.101  0.00  0.00     0.125 HD
ENDBRANCH   3  13
BRANCH   8  16
ATOM     16  C   UNL d   1       3.722  -0.051  -0.033  0.00  0.00     0.156 C 
BRANCH  16  17
ATOM     17  S   UNL d   1       4.403   1.368   0.895  0.00  0.00    -0.122 SA
BRANCH  17  18
ATOM     18  C   UNL d   1       6.170   1.213   0.695  0.00  0.00     0.001 A 
ATOM     19  C   UNL d   1       6.826   0.160   0.051  0.00  0.00     0.018 A 
ATOM     20  C   UNL d   1       8.224   0.134  -0.024  0.00  0.00     0.001 A 
ATOM     21  C   UNL d   1       8.978   1.159   0.541  0.00  0.00     0.000 A 
ATOM     22  C   UNL d   1       8.338   2.216   1.180  0.00  0.00     0.001 A 
ATOM     23  C   UNL d   1       6.944   2.240   1.254  0.00  0.00     0.018 A 
ENDBRANCH  17  18
ENDBRANCH  16  17
ENDBRANCH   8  16
TORSDOF 5
