REMARK  4 active torsions:
REMARK  status: ('A' for Active; 'I' for Inactive)
REMARK    1  A    between atoms: N_6  and  C_2 
REMARK    2  A    between atoms: C_8  and  C_3 
REMARK    3  A    between atoms: O_13  and  C_8 
REMARK    4  A    between atoms: C_17  and  O_13 
ROOT
ATOM      1  C   UNL d   1       0.998  -0.041  -0.082  0.00  0.00     0.104 A 
ATOM      2  C   UNL d   1       0.265   1.157  -0.073  0.00  0.00     0.125 A 
ATOM      3  C   UNL d   1       0.305  -1.260  -0.104  0.00  0.00     0.065 A 
ATOM      4  N   UNL d   1      -1.090   1.141  -0.052  0.00  0.00    -0.345 N 
ATOM      5  HN  UNL d   1      -1.611   2.017  -0.036  1.00  0.00     0.167 HD
ATOM      6  C   UNL d   1       2.424   0.003   0.059  0.00  0.00     0.104 C 
ATOM      7  N   UNL d   1       3.579   0.034   0.159  0.00  0.00    -0.191 NA
ATOM      8  C   UNL d   1      -1.091  -1.257  -0.086  0.00  0.00     0.044 A 
ATOM      9  C   UNL d   1      -1.750  -0.041  -0.054  0.00  0.00     0.008 A 
ATOM     10  C   UNL d   1      -3.247   0.025   0.005  0.00  0.00     0.068 C 
ENDROOT
BRANCH   2  11
ATOM     11  N   UNL d   1       0.903   2.389   0.027  0.00  0.00    -0.366 N 
ATOM     12  C   UNL d   1       0.165   3.504   0.625  0.00  0.00     0.124 C 
ATOM     13  C   UNL d   1       1.197   4.444   1.264  0.00  0.00     0.020 C 
ATOM     14  C   UNL d   1       2.293   4.863   0.276  0.00  0.00     0.003 C 
ATOM     15  C   UNL d   1       2.882   3.664  -0.472  0.00  0.00     0.020 C 
ATOM     16  C   UNL d   1       1.772   2.806  -1.079  0.00  0.00     0.124 C 
ENDBRANCH   2  11
BRANCH   3  17
ATOM     17  C   UNL d   1       0.969  -2.587  -0.015  0.00  0.00     0.295 C 
ATOM     18  O   UNL d   1       0.447  -3.542   0.536  0.00  0.00    -0.259 OA
BRANCH  17  19
ATOM     19  O   UNL d   1       2.189  -2.566  -0.593  0.00  0.00    -0.318 OA
BRANCH  19  20
ATOM     20  C   UNL d   1       3.104  -3.605  -0.199  0.00  0.00     0.174 C 
ATOM     21  C   UNL d   1       3.426  -4.503  -1.373  0.00  0.00     0.034 C 
ENDBRANCH  19  20
ENDBRANCH  17  19
ENDBRANCH   3  17
TORSDOF 4
