REMARK  5 active torsions:
REMARK  status: ('A' for Active; 'I' for Inactive)
REMARK    1  A    between atoms: C_9  and  C_1 
REMARK    2  A    between atoms: C_8  and  S_15 
REMARK    3  A    between atoms: C_17  and  C_9 
REMARK    4  A    between atoms: C_10  and  C_11 
REMARK    5  A    between atoms: S_15  and  C_17 
ROOT
ATOM      1  S   UNL d   1       4.249  -2.642   1.310  0.00  0.00    -0.086 SA
ENDROOT
BRANCH   1   2
ATOM      2  C   UNL d   1       5.621  -3.766   1.166  0.00  0.00     0.144 A 
ATOM      3  N   UNL d   1       6.594  -3.464   0.299  0.00  0.00    -0.336 N 
ATOM      4  C   UNL d   1       7.641  -4.312   0.225  0.00  0.00     0.052 A 
ATOM      5  HN  UNL d   1       6.547  -2.627  -0.283  1.00  0.00     0.168 HD
ATOM      6  C   UNL d   1       7.732  -5.453   0.995  0.00  0.00     0.048 A 
ATOM      7  C   UNL d   1       6.683  -5.668   1.855  0.00  0.00     0.092 A 
ATOM      8  N   UNL d   1       5.620  -4.848   1.958  0.00  0.00    -0.347 N 
ATOM      9  HN  UNL d   1       4.855  -5.040   2.604  1.00  0.00     0.167 HD
BRANCH   4  10
ATOM     10  C   UNL d   1       8.691  -3.849  -0.693  0.00  0.00     0.031 A 
ATOM     11  S   UNL d   1       9.742  -4.937  -1.505  0.00  0.00    -0.100 SA
ATOM     12  C   UNL d   1      10.566  -3.664  -2.298  0.00  0.00     0.050 A 
ATOM     13  C   UNL d   1      10.055  -2.432  -1.964  0.00  0.00     0.008 A 
ATOM     14  C   UNL d   1       8.970  -2.543  -1.052  0.00  0.00     0.021 A 
ENDBRANCH   4  10
ENDBRANCH   1   2
BRANCH   1  15
ATOM     15  C   UNL d   1       4.818  -1.331   0.182  0.00  0.00     0.166 C 
BRANCH  15  16
ATOM     16  C   UNL d   1       3.876  -0.135   0.204  0.00  0.00     0.176 C 
ATOM     17  O   UNL d   1       4.147   0.800   0.968  0.00  0.00    -0.291 OA
BRANCH  16  18
ATOM     18  C   UNL d   1       2.722  -0.084  -0.709  0.00  0.00     0.059 A 
ATOM     19  S   UNL d   1       2.254  -1.472  -1.593  0.00  0.00    -0.085 SA
ATOM     20  C   UNL d   1       0.987  -0.663  -2.408  0.00  0.00     0.016 A 
ATOM     21  C   UNL d   1       0.112  -1.218  -3.364  0.00  0.00     0.021 A 
ATOM     22  C   UNL d   1       0.904   0.671  -2.016  0.00  0.00    -0.010 A 
ATOM     23  C   UNL d   1      -0.853  -0.400  -3.954  0.00  0.00     0.025 A 
ATOM     24  C   UNL d   1      -0.938   0.938  -3.605  0.00  0.00     0.035 A 
ATOM     25  C   UNL d   1      -0.079   1.481  -2.646  0.00  0.00     0.037 A 
ATOM     26 CL   UNL d   1      -2.116   1.943  -4.358  0.00  0.00    -0.084 Cl
ATOM     27  C   UNL d   1       1.878   0.992  -0.984  0.00  0.00    -0.029 A 
ATOM     28  C   UNL d   1       1.943   2.353  -0.353  0.00  0.00     0.050 C 
ENDBRANCH  16  18
ENDBRANCH  15  16
ENDBRANCH   1  15
TORSDOF 5
