REMARK  5 active torsions:
REMARK  status: ('A' for Active; 'I' for Inactive)
REMARK       I    between atoms: N_2  and  C_1 
REMARK       I    between atoms: N_3  and  C_1 
REMARK    1  A    between atoms: C_12  and  N_3 
REMARK    2  A    between atoms: C_17  and  N_4 
REMARK    3  A    between atoms: N_5  and  C_18 
REMARK    4  A    between atoms: C_7  and  C_8 
REMARK    5  A    between atoms: C_18  and  C_17 
ROOT
ATOM      1  C   UNL d   1       1.019   0.120   0.132  0.00  0.00     0.323 C 
ATOM      2  N   UNL d   1       0.504  -0.760   1.075  0.00  0.00    -0.331 N 
ATOM      3  N   UNL d   1       0.599  -0.076  -1.163  0.00  0.00    -0.309 N 
ATOM      4  N   UNL d   1       0.150  -2.941   3.046  0.00  0.00     0.093 N 
ATOM      5  O   UNL d   1       1.829   0.984   0.466  0.00  0.00    -0.247 OA
ATOM      6  C   UNL d   1       0.949  -0.591   2.466  0.00  0.00     0.158 C 
ATOM      7  C   UNL d   1      -0.531  -1.784   0.882  0.00  0.00     0.158 C 
ATOM      8  C   UNL d   1      -0.185  -3.096   1.616  0.00  0.00     0.292 C 
ATOM      9  C   UNL d   1       1.248  -1.944   3.148  0.00  0.00     0.292 C 
ATOM     10  H   UNL d   1      -0.213  -0.647  -1.310  0.00  0.00     0.170 HD
ENDROOT
BRANCH   3  11
ATOM     11  C   UNL d   1       1.162   0.478  -2.334  0.00  0.00     0.036 A 
ATOM     12  C   UNL d   1       2.269   1.319  -2.342  0.00  0.00     0.030 A 
ATOM     13  C   UNL d   1       2.825   1.756  -3.547  0.00  0.00     0.010 A 
ATOM     14  C   UNL d   1       2.303   1.359  -4.790  0.00  0.00    -0.051 A 
ATOM     15  C   UNL d   1       1.163   0.542  -4.770  0.00  0.00     0.010 A 
ATOM     16  C   UNL d   1       0.600   0.109  -3.560  0.00  0.00     0.030 A 
BRANCH  14  17
ATOM     17  C   UNL d   1       3.008   1.792  -6.085  0.00  0.00    -0.024 C 
ATOM     18  C   UNL d   1       2.343   1.244  -7.367  0.00  0.00     0.019 C 
ATOM     19  C   UNL d   1       3.014   3.333  -6.189  0.00  0.00     0.019 C 
ATOM     20  C   UNL d   1       4.463   1.276  -6.067  0.00  0.00     0.019 C 
ENDBRANCH  14  17
ENDBRANCH   3  11
BRANCH   4  21
ATOM     21  C   UNL d   1      -0.987  -2.510   3.887  0.00  0.00     0.302 C 
BRANCH  21  22
ATOM     22  C   UNL d   1      -2.226  -3.438   3.892  0.00  0.00     0.302 C 
BRANCH  22  23
ATOM     23  N   UNL d   1      -3.269  -2.966   4.826  0.00  0.00     0.094 N 
ATOM     24  C   UNL d   1      -3.908  -1.692   4.420  0.00  0.00     0.298 C 
ATOM     25  C   UNL d   1      -4.883  -1.825   3.240  0.00  0.00     0.198 C 
ATOM     26  O   UNL d   1      -5.903  -2.789   3.519  0.00  0.00    -0.388 OA
ATOM     27  C   UNL d   1      -5.327  -4.064   3.830  0.00  0.00     0.198 C 
ATOM     28  C   UNL d   1      -4.338  -3.974   5.005  0.00  0.00     0.298 C 
ENDBRANCH  22  23
ENDBRANCH  21  22
ENDBRANCH   4  21
TORSDOF 5
