REMARK  6 active torsions:
REMARK  status: ('A' for Active; 'I' for Inactive)
REMARK       I    between atoms: N_3  and  C_1 
REMARK       I    between atoms: N_4  and  C_1 
REMARK    1  A    between atoms: N_2  and  C_5 
REMARK    2  A    between atoms: C_9  and  N_3 
REMARK    3  A    between atoms: C_10  and  N_4 
REMARK    4  A    between atoms: C_20  and  C_13 
REMARK    5  A    between atoms: C_21  and  C_20 
REMARK    6  A    between atoms: C_22  and  C_21 
ROOT
ATOM      1  C   UNL d   1       1.122   0.076  -0.112  0.00  0.00     0.325 C 
ATOM      2  N   UNL d   1       0.524  -0.912  -0.879  0.00  0.00    -0.309 N 
ATOM      3  N   UNL d   1       0.315   1.194   0.021  0.00  0.00    -0.309 N 
ATOM      4  O   UNL d   1       2.244  -0.016   0.369  0.00  0.00    -0.247 OA
ATOM      5  H   UNL d   1      -0.303  -0.657  -1.395  0.00  0.00     0.170 HD
ATOM      6  H   UNL d   1      -0.644   1.109  -0.278  0.00  0.00     0.170 HD
ENDROOT
BRANCH   2   7
ATOM      7  C   UNL d   1       1.141  -2.134  -1.238  0.00  0.00     0.036 A 
ATOM      8  C   UNL d   1       2.280  -2.631  -0.606  0.00  0.00     0.032 A 
ATOM      9  C   UNL d   1       2.909  -3.792  -1.064  0.00  0.00     0.031 A 
ATOM     10  C   UNL d   1       2.423  -4.512  -2.157  0.00  0.00     0.030 A 
ATOM     11  C   UNL d   1       1.248  -4.030  -2.753  0.00  0.00     0.031 A 
ATOM     12  C   UNL d   1       0.605  -2.866  -2.297  0.00  0.00     0.032 A 
BRANCH  10  13
ATOM     13  N   UNL d   1       3.090  -5.624  -2.626  0.00  0.00    -0.381 N 
ATOM     14  C   UNL d   1       3.152  -5.944  -4.049  0.00  0.00     0.123 C 
ATOM     15  C   UNL d   1       4.616  -6.134  -4.453  0.00  0.00     0.020 C 
ATOM     16  C   UNL d   1       5.318  -7.159  -3.563  0.00  0.00     0.003 C 
ATOM     17  C   UNL d   1       5.163  -6.807  -2.084  0.00  0.00     0.020 C 
ATOM     18  C   UNL d   1       3.697  -6.593  -1.713  0.00  0.00     0.123 C 
ENDBRANCH  10  13
ENDBRANCH   2   7
BRANCH   3  19
ATOM     19  C   UNL d   1       0.677   2.404   0.658  0.00  0.00     0.036 A 
ATOM     20  C   UNL d   1       1.956   2.661   1.164  0.00  0.00     0.030 A 
ATOM     21  C   UNL d   1       2.246   3.859   1.817  0.00  0.00     0.009 A 
ATOM     22  C   UNL d   1       1.262   4.837   1.974  0.00  0.00    -0.058 A 
ATOM     23  C   UNL d   1      -0.005   4.606   1.427  0.00  0.00     0.009 A 
ATOM     24  C   UNL d   1      -0.298   3.397   0.782  0.00  0.00     0.030 A 
BRANCH  22  25
ATOM     25  C   UNL d   1       1.579   6.098   2.736  0.00  0.00     0.038 C 
BRANCH  25  26
ATOM     26  C   UNL d   1       0.687   6.318   3.963  0.00  0.00     0.004 C 
BRANCH  26  27
ATOM     27  C   UNL d   1       0.811   5.207   5.011  0.00  0.00    -0.004 C 
ATOM     28  C   UNL d   1      -0.099   5.476   6.200  0.00  0.00     0.005 C 
ENDBRANCH  26  27
ENDBRANCH  25  26
ENDBRANCH  22  25
ENDBRANCH   3  19
TORSDOF 6
