REMARK  3 active torsions:
REMARK  status: ('A' for Active; 'I' for Inactive)
REMARK    1  A    between atoms: C_2  and  N_1 
REMARK    2  A    between atoms: N_3  and  C_9 
REMARK       I    between atoms: C_4  and  N_7 
REMARK       I    between atoms: N_15  and  C_4 
REMARK    3  A    between atoms: N_8  and  C_5 
ROOT
ATOM      1  C   UNL d   1       2.017  -1.287   0.022  0.00  0.00     0.063 A 
ATOM      2  C   UNL d   1       2.127  -2.113  -1.150  0.00  0.00     0.038 A 
ATOM      3  C   UNL d   1       3.163  -1.209   0.846  0.00  0.00     0.068 A 
ATOM      4  C   UNL d   1       4.352  -1.909   0.596  0.00  0.00     0.105 A 
ATOM      5  C   UNL d   1       3.385  -2.751  -1.401  0.00  0.00     0.028 A 
ATOM      6  C   UNL d   1       4.476  -2.682  -0.539  0.00  0.00     0.038 A 
ENDROOT
BRANCH   2   7
ATOM      7  N   UNL d   1       1.084  -2.400  -2.056  0.00  0.00    -0.278 NA
ATOM      8  C   UNL d   1       1.066  -3.776  -2.602  0.00  0.00     0.115 C 
ATOM      9  C   UNL d   1      -0.337  -4.129  -3.097  0.00  0.00     0.142 C 
ATOM     10  N   UNL d   1      -0.945  -3.161  -4.012  0.00  0.00    -0.332 N 
ATOM     11  C   UNL d   1      -2.252  -3.278  -4.495  0.00  0.00     0.319 C 
ATOM     12  C   UNL d   1      -0.460  -1.751  -3.920  0.00  0.00     0.142 C 
ATOM     13  N   UNL d   1      -2.881  -4.515  -4.590  0.00  0.00    -0.343 N 
ATOM     14  O   UNL d   1      -2.860  -2.259  -4.847  0.00  0.00    -0.247 OA
ATOM     15  C   UNL d   1      -4.228  -4.514  -5.156  0.00  0.00     0.154 C 
ATOM     16  C   UNL d   1      -2.254  -5.826  -4.591  0.00  0.00     0.154 C 
ATOM     17  C   UNL d   1       0.872  -1.446  -3.166  0.00  0.00     0.115 C 
ENDBRANCH   2   7
BRANCH   1  18
ATOM     18  N   UNL d   1       0.833  -0.523   0.462  0.00  0.00    -0.318 N 
ATOM     19  C   UNL d   1      -0.506  -0.704   0.082  0.00  0.00     0.013 C 
ATOM     20  C   UNL d   1      -1.219   0.449   0.345  0.00  0.00     0.027 C 
ATOM     21  C   UNL d   1      -1.139  -1.953  -0.413  0.00  0.00     0.068 C 
ATOM     22  C   UNL d   1      -0.437   1.226   1.183  0.00  0.00     0.027 C 
ATOM     23  C   UNL d   1       0.760   0.559   1.401  0.00  0.00     0.013 C 
ATOM     24  C   UNL d   1       1.711   1.042   2.455  0.00  0.00     0.068 C 
ENDBRANCH   1  18
BRANCH   4  25
ATOM     25  N   UNL d   1       5.454  -1.830   1.566  0.00  0.00    -0.116 N 
ATOM     26  O   UNL d   1       5.332  -1.071   2.530  0.00  0.00    -0.532 OA
ATOM     27  O   UNL d   1       6.446  -2.554   1.361  0.00  0.00    -0.532 OA
ENDBRANCH   4  25
TORSDOF 3
