REMARK  3 active torsions:
REMARK  status: ('A' for Active; 'I' for Inactive)
REMARK    1  A    between atoms: C_8  and  C_3 
REMARK    2  A    between atoms: C_4  and  C_7 
REMARK    3  A    between atoms: C_7  and  C_8 
ROOT
ATOM      1  C   UNL d   1       4.474   1.441   0.072  0.00  0.00     0.043 C 
ENDROOT
BRANCH   1   2
ATOM      2  C   UNL d   1       5.985   1.414   0.075  0.00  0.00    -0.058 A 
ATOM      3  C   UNL d   1       6.694   1.387  -1.135  0.00  0.00     0.009 A 
ATOM      4  C   UNL d   1       8.091   1.363  -1.137  0.00  0.00     0.024 A 
ATOM      5  C   UNL d   1       8.784   1.359   0.071  0.00  0.00     0.034 A 
ATOM      6  C   UNL d   1       8.093   1.373   1.280  0.00  0.00     0.024 A 
ATOM      7 CL   UNL d   1      10.505   1.338   0.069  0.00  0.00    -0.084 Cl
ATOM      8  C   UNL d   1       6.696   1.397   1.283  0.00  0.00     0.009 A 
ENDBRANCH   1   2
BRANCH   1   9
ATOM      9  C   UNL d   1       3.877   0.032   0.059  0.00  0.00     0.043 C 
BRANCH   9  10
ATOM     10  C   UNL d   1       2.369   0.058  -0.032  0.00  0.00    -0.058 A 
ATOM     11  C   UNL d   1       1.736   0.076  -1.284  0.00  0.00     0.009 A 
ATOM     12  C   UNL d   1       0.342   0.098  -1.373  0.00  0.00     0.024 A 
ATOM     13  C   UNL d   1      -0.425   0.107  -0.211  0.00  0.00     0.034 A 
ATOM     14 CL   UNL d   1      -2.142   0.124  -0.321  0.00  0.00    -0.084 Cl
ATOM     15  C   UNL d   1       0.189   0.102   1.039  0.00  0.00     0.024 A 
ATOM     16  C   UNL d   1       1.583   0.080   1.129  0.00  0.00     0.009 A 
ENDBRANCH   9  10
ENDBRANCH   1   9
TORSDOF 3
