REMARK  5 active torsions:
REMARK  status: ('A' for Active; 'I' for Inactive)
REMARK    1  A    between atoms: C_6  and  C_1 
REMARK    2  A    between atoms: C_2  and  C_5 
REMARK       I    between atoms: N_10  and  C_6 
REMARK    3  A    between atoms: C_8  and  O_13 
REMARK       I    between atoms: N_12  and  C_8 
REMARK    4  A    between atoms: O_13  and  N_10 
REMARK    5  A    between atoms: C_20  and  N_12 
ROOT
ATOM      1  C   UNL d   1       0.150   2.364   0.214  0.00  0.00     0.293 C 
ATOM      2  N   UNL d   1      -0.580   3.466   0.596  0.00  0.00    -0.219 N 
ATOM      3  O   UNL d   1      -0.217   1.565  -0.639  0.00  0.00    -0.264 OA
ATOM      4  H   UNL d   1      -0.102   4.270   1.008  0.00  0.00     0.198 HD
ENDROOT
BRANCH   1   5
ATOM      5  C   UNL d   1       1.471   2.244   0.922  0.00  0.00     0.124 A 
ATOM      6  N   UNL d   1       1.925   3.420   1.468  0.00  0.00    -0.359 N 
ATOM      7  C   UNL d   1       3.120   3.391   2.103  0.00  0.00     0.105 A 
ATOM      8  HN  UNL d   1       1.382   4.281   1.397  1.00  0.00     0.165 HD
ATOM      9  C   UNL d   1       3.894   2.248   2.247  0.00  0.00     0.065 A 
ATOM     10  C   UNL d   1       3.397   1.059   1.700  0.00  0.00     0.044 A 
ATOM     11  C   UNL d   1       2.171   1.045   1.026  0.00  0.00     0.067 A 
ATOM     12 CL   UNL d   1       1.618  -0.479   0.443  0.00  0.00    -0.082 Cl
BRANCH   9  13
ATOM     13  C   UNL d   1       5.206   2.316   2.970  0.00  0.00     0.418 C 
ATOM     14  F   UNL d   1       5.839   1.115   3.053  0.00  0.00    -0.166 F 
ATOM     15  F   UNL d   1       6.085   3.163   2.369  0.00  0.00    -0.166 F 
ATOM     16  F   UNL d   1       5.071   2.758   4.249  0.00  0.00    -0.166 F 
ENDBRANCH   9  13
ENDBRANCH   1   5
BRANCH   2  17
ATOM     17  O   UNL d   1      -1.705   3.748  -0.222  0.00  0.00    -0.178 OA
BRANCH  17  18
ATOM     18  C   UNL d   1      -1.891   5.095  -0.394  0.00  0.00     0.387 C 
ATOM     19  N   UNL d   1      -2.983   5.304  -1.193  0.00  0.00    -0.301 N 
ATOM     20  H   UNL d   1      -3.454   4.455  -1.473  0.00  0.00     0.171 HD
ATOM     21  O   UNL d   1      -1.159   5.929   0.127  0.00  0.00    -0.236 OA
BRANCH  19  22
ATOM     22  C   UNL d   1      -3.491   6.530  -1.660  0.00  0.00     0.037 A 
ATOM     23  C   UNL d   1      -2.883   7.764  -1.409  0.00  0.00     0.031 A 
ATOM     24  C   UNL d   1      -3.424   8.944  -1.933  0.00  0.00     0.026 A 
ATOM     25  C   UNL d   1      -4.580   8.895  -2.705  0.00  0.00     0.034 A 
ATOM     26  C   UNL d   1      -5.204   7.677  -2.954  0.00  0.00     0.026 A 
ATOM     27 CL   UNL d   1      -5.234  10.346  -3.359  0.00  0.00    -0.084 Cl
ATOM     28  C   UNL d   1      -4.658   6.497  -2.435  0.00  0.00     0.031 A 
ENDBRANCH  19  22
ENDBRANCH  17  18
ENDBRANCH   2  17
TORSDOF 5
