REMARK  4 active torsions:
REMARK  status: ('A' for Active; 'I' for Inactive)
REMARK    1  A    between atoms: C_3  and  N_1 
REMARK       I    between atoms: C_2  and  N_5 
REMARK       I    between atoms: N_8  and  C_2 
REMARK    2  A    between atoms: N_5  and  C_9 
REMARK    3  A    between atoms: C_11  and  N_8 
REMARK    4  A    between atoms: C_12  and  C_11 
ROOT
ATOM      1  C   UNL d   1       1.378  -0.006  -5.140  0.00  0.00     0.320 C 
ATOM      2  N   UNL d   1       0.377   0.704  -4.580  0.00  0.00    -0.309 N 
ATOM      3  N   UNL d   1       2.173  -0.820  -4.389  0.00  0.00    -0.339 N 
ATOM      4  O   UNL d   1       1.516   0.106  -6.361  0.00  0.00    -0.247 OA
ATOM      5  H   UNL d   1      -0.131   1.157  -5.333  0.00  0.00     0.170 HD
ATOM      6  H   UNL d   1       1.686  -1.316  -3.663  0.00  0.00     0.164 HD
ENDROOT
BRANCH   2   7
ATOM      7  C   UNL d   1      -0.068   1.021  -3.290  0.00  0.00     0.038 A 
ATOM      8  C   UNL d   1       0.538   0.632  -2.101  0.00  0.00     0.065 A 
ATOM      9  C   UNL d   1      -0.048   1.024  -0.883  0.00  0.00     0.105 A 
ATOM     10  C   UNL d   1      -1.199   1.821  -0.829  0.00  0.00     0.036 A 
ATOM     11  C   UNL d   1      -1.778   2.238  -2.019  0.00  0.00     0.005 A 
ATOM     12  C   UNL d   1      -1.218   1.834  -3.233  0.00  0.00     0.030 A 
BRANCH   9  13
ATOM     13  N   UNL d   1       0.547   0.580   0.370  0.00  0.00    -0.116 N 
ATOM     14  O   UNL d   1       1.785   0.547   0.433  0.00  0.00    -0.532 OA
ATOM     15  O   UNL d   1      -0.226   0.257   1.282  0.00  0.00    -0.532 OA
ENDBRANCH   9  13
ENDBRANCH   2   7
BRANCH   3  16
ATOM     16  C   UNL d   1       3.155  -1.576  -5.150  0.00  0.00     0.162 C 
BRANCH  16  17
ATOM     17  C   UNL d   1       3.980  -2.630  -4.451  0.00  0.00    -0.040 A 
ATOM     18  C   UNL d   1       3.760  -3.106  -3.159  0.00  0.00     0.009 A 
ATOM     19  C   UNL d   1       4.519  -4.175  -2.661  0.00  0.00     0.001 A 
ATOM     20  C   UNL d   1       5.503  -4.776  -3.447  0.00  0.00     0.000 A 
ATOM     21  C   UNL d   1       5.747  -4.301  -4.730  0.00  0.00     0.001 A 
ATOM     22  C   UNL d   1       4.994  -3.238  -5.224  0.00  0.00     0.009 A 
ENDBRANCH  16  17
ENDBRANCH   3  16
TORSDOF 4
