REMARK  4 active torsions:
REMARK  status: ('A' for Active; 'I' for Inactive)
REMARK    1  A    between atoms: N_2  and  C_1 
REMARK    2  A    between atoms: C_3  and  C_6 
REMARK    3  A    between atoms: N_7  and  C_4 
REMARK    4  A    between atoms: C_15  and  N_7 
ROOT
ATOM      1  C   UNL d   1       1.383  -0.087  -0.075  0.00  0.00     0.130 A 
ATOM      2  C   UNL d   1       0.584  -1.248  -0.011  0.00  0.00     0.061 A 
ATOM      3  C   UNL d   1       0.843   1.213  -0.008  0.00  0.00     0.054 A 
ATOM      4  C   UNL d   1      -0.539   1.391   0.120  0.00  0.00     0.050 A 
ATOM      5  C   UNL d   1      -0.797  -1.033   0.114  0.00  0.00     0.032 A 
ATOM      6  C   UNL d   1      -1.352   0.254   0.168  0.00  0.00     0.018 A 
ENDROOT
BRANCH   2   7
ATOM      7  N   UNL d   1       1.120  -2.526   0.022  0.00  0.00    -0.384 N 
ATOM      8  H   UNL d   1       2.069  -2.656  -0.332  0.00  0.00     0.160 HD
BRANCH   7   9
ATOM      9  C   UNL d   1       0.459  -3.694   0.593  0.00  0.00     0.073 C 
ATOM     10  C   UNL d   1      -0.286  -4.475  -0.485  0.00  0.00     0.031 C 
ATOM     11  C   UNL d   1       1.514  -4.580   1.255  0.00  0.00     0.031 C 
ENDBRANCH   7   9
ENDBRANCH   2   7
BRANCH   1  12
ATOM     12  N   UNL d   1       2.832  -0.198  -0.172  0.00  0.00    -0.113 N 
ATOM     13  O   UNL d   1       3.299  -0.998  -0.995  0.00  0.00    -0.532 OA
ATOM     14  O   UNL d   1       3.508   0.537   0.568  0.00  0.00    -0.532 OA
ENDBRANCH   1  12
BRANCH   4  15
ATOM     15  C   UNL d   1      -1.159   2.764   0.213  0.00  0.00     0.417 C 
ATOM     16  F   UNL d   1      -0.245   3.772   0.215  0.00  0.00    -0.166 F 
ATOM     17  F   UNL d   1      -2.002   3.021  -0.823  0.00  0.00    -0.166 F 
ATOM     18  F   UNL d   1      -1.897   2.922   1.346  0.00  0.00    -0.166 F 
ENDBRANCH   4  15
TORSDOF 4
