REMARK  1 active torsions:
REMARK  status: ('A' for Active; 'I' for Inactive)
REMARK    1  A    between atoms: C_4  and  C_1 
ROOT
ATOM      1  C   UNL d   1       3.092  -0.027   0.982  0.00  0.00     0.076 A 
ATOM      2  O   UNL d   1       3.526   1.904   3.159  0.00  0.00    -0.310 OA
ATOM      3  C   UNL d   1       2.455  -0.143   2.363  0.00  0.00    -0.014 A 
ATOM      4  C   UNL d   1       4.058   1.149   0.896  0.00  0.00    -0.014 A 
ATOM      5  C   UNL d   1       4.193   2.034   1.969  0.00  0.00     0.083 A 
ATOM      6  C   UNL d   1       2.684   0.837   3.331  0.00  0.00     0.083 A 
ATOM      7  C   UNL d   1       4.789   1.416  -0.277  0.00  0.00     0.011 A 
ATOM      8  C   UNL d   1       1.639  -1.232   2.721  0.00  0.00     0.011 A 
ATOM      9  C   UNL d   1       5.019   3.160   1.874  0.00  0.00     0.038 A 
ATOM     10  C   UNL d   1       2.055   0.778   4.580  0.00  0.00     0.038 A 
ATOM     11  C   UNL d   1       0.978  -1.272   3.952  0.00  0.00     0.001 A 
ATOM     12  C   UNL d   1       5.589   2.558  -0.383  0.00  0.00     0.001 A 
ATOM     13  C   UNL d   1       1.180  -0.261   4.881  0.00  0.00     0.003 A 
ATOM     14  C   UNL d   1       5.705   3.430   0.694  0.00  0.00     0.003 A 
ENDROOT
BRANCH   1  15
ATOM     15  C   UNL d   1       2.077   0.042  -0.186  0.00  0.00     0.148 A 
ATOM     16  C   UNL d   1       1.123   1.217  -0.107  0.00  0.00     0.173 A 
ATOM     17  C   UNL d   1      -0.245   0.714  -0.079  0.00  0.00     0.024 A 
ATOM     18  O   UNL d   1       1.390   2.406  -0.122  0.00  0.00    -0.291 OA
ATOM     19  C   UNL d   1      -1.419   1.438   0.008  0.00  0.00     0.016 A 
ATOM     20  C   UNL d   1      -0.240  -0.670  -0.159  0.00  0.00     0.024 A 
ATOM     21  C   UNL d   1      -2.616   0.721   0.040  0.00  0.00     0.001 A 
ATOM     22  C   UNL d   1      -2.612  -0.687  -0.010  0.00  0.00     0.001 A 
ATOM     23  C   UNL d   1      -1.412  -1.400  -0.113  0.00  0.00     0.016 A 
ATOM     24  C   UNL d   1       1.139  -1.151  -0.274  0.00  0.00     0.173 A 
ATOM     25  O   UNL d   1       1.449  -2.321  -0.423  0.00  0.00    -0.291 OA
ENDBRANCH   1  15
TORSDOF 1
