REMARK  6 active torsions:
REMARK  status: ('A' for Active; 'I' for Inactive)
REMARK    1  A    between atoms: N_2  and  C_1 
REMARK    2  A    between atoms: N_4  and  C_1 
REMARK    3  A    between atoms: C_3  and  N_2 
REMARK    4  A    between atoms: C_7  and  N_2 
REMARK    5  A    between atoms: C_9  and  N_4 
REMARK    6  A    between atoms: C_10  and  C_7 
ROOT
ATOM      1  N   UNL d   1       0.225  -1.156   0.825  0.00  0.00    -0.319 N 
ENDROOT
BRANCH   1   2
ATOM      2  C   UNL d   1       0.956  -0.200   0.118  0.00  0.00     0.179 C 
ATOM      3  S   UNL d   1       2.456   0.398   0.613  0.00  0.00    -0.040 SA
BRANCH   2   4
ATOM      4  N   UNL d   1       0.432   0.382  -1.005  0.00  0.00    -0.333 N 
ATOM      5  H   UNL d   1       0.837   1.286  -1.217  0.00  0.00     0.168 HD
BRANCH   4   6
ATOM      6  C   UNL d   1      -0.533  -0.079  -1.917  0.00  0.00     0.034 A 
ATOM      7  C   UNL d   1      -1.272   0.882  -2.614  0.00  0.00     0.029 A 
ATOM      8  C   UNL d   1      -2.290   0.491  -3.485  0.00  0.00     0.002 A 
ATOM      9  C   UNL d   1      -2.537  -0.863  -3.703  0.00  0.00     0.000 A 
ATOM     10  C   UNL d   1      -1.758  -1.824  -3.060  0.00  0.00     0.002 A 
ATOM     11  C   UNL d   1      -0.757  -1.433  -2.169  0.00  0.00     0.029 A 
ENDBRANCH   4   6
ENDBRANCH   2   4
ENDBRANCH   1   2
BRANCH   1  12
ATOM     12  C   UNL d   1      -1.234  -1.118   0.959  0.00  0.00     0.048 A 
ATOM     13  C   UNL d   1      -1.994   0.113   1.070  0.00  0.00     0.001 A 
ATOM     14  C   UNL d   1      -3.414   0.025   1.142  0.00  0.00    -0.024 A 
ATOM     15  C   UNL d   1      -1.461   1.428   1.161  0.00  0.00     0.014 A 
ATOM     16  C   UNL d   1      -4.207   1.183   1.232  0.00  0.00     0.012 A 
ATOM     17  C   UNL d   1      -4.053  -1.216   1.148  0.00  0.00     0.012 A 
ATOM     18  C   UNL d   1      -3.639   2.450   1.258  0.00  0.00     0.001 A 
ATOM     19  C   UNL d   1      -2.263   2.574   1.223  0.00  0.00     0.001 A 
ATOM     20  C   UNL d   1      -3.321  -2.391   1.094  0.00  0.00     0.003 A 
ATOM     21  C   UNL d   1      -1.936  -2.340   1.005  0.00  0.00     0.030 A 
ENDBRANCH   1  12
BRANCH   1  22
ATOM     22  C   UNL d   1       0.954  -2.359   1.292  0.00  0.00     0.170 C 
BRANCH  22  23
ATOM     23  C   UNL d   1       0.807  -2.796   2.739  0.00  0.00    -0.040 A 
ATOM     24  C   UNL d   1       0.231  -2.015   3.748  0.00  0.00     0.009 A 
ATOM     25  C   UNL d   1       0.121  -2.503   5.055  0.00  0.00     0.001 A 
ATOM     26  C   UNL d   1       0.613  -3.766   5.380  0.00  0.00     0.000 A 
ATOM     27  C   UNL d   1       1.224  -4.541   4.399  0.00  0.00     0.001 A 
ATOM     28  C   UNL d   1       1.320  -4.060   3.092  0.00  0.00     0.009 A 
ENDBRANCH  22  23
ENDBRANCH   1  22
TORSDOF 6
