REMARK  3 active torsions:
REMARK  status: ('A' for Active; 'I' for Inactive)
REMARK    1  A    between atoms: C_4  and  C_1 
REMARK       I    between atoms: N_7  and  C_4 
REMARK    2  A    between atoms: N_9  and  N_7 
REMARK    3  A    between atoms: C_10  and  N_9 
ROOT
ATOM      1  C   UNL d   1      -2.629  -1.427   0.177  0.00  0.00     0.284 C 
ATOM      2  N   UNL d   1      -3.883  -0.843   0.287  0.00  0.00    -0.281 N 
ATOM      3  O   UNL d   1      -1.665  -0.820  -0.296  0.00  0.00    -0.265 OA
ATOM      4  H   UNL d   1      -4.708  -1.403   0.499  0.00  0.00     0.184 HD
ENDROOT
BRANCH   2   5
ATOM      5  N   UNL d   1      -4.070   0.410  -0.333  0.00  0.00    -0.200 NA
ATOM      6  H   UNL d   1      -3.161   0.847  -0.527  0.00  0.00     0.153 HD
BRANCH   5   7
ATOM      7  C   UNL d   1      -4.933   1.294   0.366  0.00  0.00     0.066 A 
ATOM      8  C   UNL d   1      -6.079   0.875   1.065  0.00  0.00     0.139 A 
ATOM      9  F   UNL d   1      -6.361  -0.432   1.183  0.00  0.00    -0.204 F 
ATOM     10  C   UNL d   1      -6.967   1.790   1.632  0.00  0.00     0.044 A 
ATOM     11  C   UNL d   1      -6.738   3.159   1.495  0.00  0.00     0.003 A 
ATOM     12  C   UNL d   1      -5.626   3.602   0.786  0.00  0.00     0.002 A 
ATOM     13  C   UNL d   1      -4.740   2.678   0.216  0.00  0.00     0.028 A 
ENDBRANCH   5   7
ENDBRANCH   2   5
BRANCH   1  14
ATOM     14  C   UNL d   1      -2.526  -2.803   0.658  0.00  0.00     0.126 A 
ATOM     15  N   UNL d   1      -3.549  -3.452   1.241  0.00  0.00    -0.256 N 
ATOM     16  O   UNL d   1      -3.059  -4.704   1.582  0.00  0.00    -0.242 OA
ATOM     17  HN  UNL d   1      -4.492  -3.096   1.399  1.00  0.00     0.195 HD
ATOM     18  C   UNL d   1      -1.760  -4.807   1.194  0.00  0.00     0.075 A 
ATOM     19  C   UNL d   1      -1.376  -3.634   0.599  0.00  0.00     0.071 A 
ATOM     20  C   UNL d   1      -1.080  -6.084   1.480  0.00  0.00     0.079 C 
ENDBRANCH   1  14
TORSDOF 3
