REMARK  5 active torsions:
REMARK  status: ('A' for Active; 'I' for Inactive)
REMARK    1  A    between atoms: S_9  and  C_3 
REMARK       I    between atoms: N_4  and  C_5 
REMARK    2  A    between atoms: C_5  and  C_11 
REMARK    3  A    between atoms: C_10  and  C_6 
REMARK    4  A    between atoms: C_11  and  S_9 
REMARK    5  A    between atoms: O_23  and  C_18 
ROOT
ATOM      1  N   UNL d   1       1.172   0.463   0.267  0.00  0.00    -0.336 N 
ATOM      2  HN  UNL d   1       2.095   0.888   0.350  1.00  0.00     0.168 HD
ATOM      3  C   UNL d   1       0.057   1.201   0.356  0.00  0.00     0.145 A 
ATOM      4  C   UNL d   1       1.029  -0.865   0.065  0.00  0.00     0.045 A 
ATOM      5  N   UNL d   1      -1.189   0.718   0.245  0.00  0.00    -0.347 N 
ATOM      6  HN  UNL d   1      -2.008   1.320   0.319  1.00  0.00     0.167 HD
ATOM      7  C   UNL d   1      -0.217  -1.448  -0.059  0.00  0.00     0.047 A 
ATOM      8  C   UNL d   1      -1.297  -0.603   0.033  0.00  0.00     0.092 A 
ENDROOT
BRANCH   3   9
ATOM      9  S   UNL d   1       0.210   2.927   0.725  0.00  0.00    -0.085 SA
BRANCH   9  10
ATOM     10  C   UNL d   1       2.021   3.055   0.843  0.00  0.00     0.185 C 
BRANCH  10  11
ATOM     11  C   UNL d   1       2.388   4.499   1.140  0.00  0.00     0.229 C 
ATOM     12  N   UNL d   1       2.480   4.918   2.454  0.00  0.00    -0.347 N 
ATOM     13  C   UNL d   1       2.221   4.125   3.661  0.00  0.00     0.152 C 
ATOM     14  C   UNL d   1       2.685   6.342   2.735  0.00  0.00     0.152 C 
ATOM     15  C   UNL d   1       1.085   4.752   4.484  0.00  0.00     0.187 C 
ATOM     16  O   UNL d   1       1.336   6.140   4.759  0.00  0.00    -0.388 OA
ATOM     17  C   UNL d   1       1.496   6.882   3.536  0.00  0.00     0.187 C 
ATOM     18  O   UNL d   1       2.576   5.278   0.199  0.00  0.00    -0.273 OA
ENDBRANCH  10  11
ENDBRANCH   9  10
ENDBRANCH   3   9
BRANCH   4  19
ATOM     19  C   UNL d   1       2.290  -1.630   0.010  0.00  0.00    -0.009 A 
ATOM     20  C   UNL d   1       2.398  -2.928   0.538  0.00  0.00     0.016 A 
ATOM     21  C   UNL d   1       3.610  -3.630   0.509  0.00  0.00     0.037 A 
ATOM     22  C   UNL d   1       4.745  -3.046  -0.048  0.00  0.00     0.068 A 
ATOM     23  C   UNL d   1       4.654  -1.770  -0.598  0.00  0.00     0.037 A 
ATOM     24  C   UNL d   1       3.446  -1.067  -0.560  0.00  0.00     0.016 A 
BRANCH  22  25
ATOM     25  O   UNL d   1       5.974  -3.639  -0.140  0.00  0.00    -0.356 OA
ATOM     26  C   UNL d   1       6.273  -4.592   0.874  0.00  0.00     0.210 C 
ENDBRANCH  22  25
ENDBRANCH   4  19
TORSDOF 5
