REMARK  4 active torsions:
REMARK  status: ('A' for Active; 'I' for Inactive)
REMARK    1  A    between atoms: C_7  and  C_6 
REMARK       I    between atoms: N_10  and  C_7 
REMARK    2  A    between atoms: C_15  and  N_10 
REMARK    3  A    between atoms: C_17  and  C_15 
REMARK    4  A    between atoms: C_18  and  C_17 
ROOT
ATOM      1  C   UNL d   1      -0.667   0.826   0.049  0.00  0.00     0.005 A 
ATOM      2  C   UNL d   1      -1.149  -0.504  -0.002  0.00  0.00     0.027 A 
ATOM      3  C   UNL d   1      -0.002  -1.430  -0.039  0.00  0.00     0.194 A 
ATOM      4  C   UNL d   1       0.801   0.758   0.041  0.00  0.00    -0.010 A 
ATOM      5  C   UNL d   1       1.203  -0.591  -0.018  0.00  0.00     0.026 A 
ATOM      6  C   UNL d   1      -1.623   1.848   0.084  0.00  0.00     0.044 A 
ATOM      7  O   UNL d   1      -0.046  -2.638  -0.076  0.00  0.00    -0.287 OA
ATOM      8  C   UNL d   1      -2.484  -0.871  -0.032  0.00  0.00     0.016 A 
ATOM      9  C   UNL d   1       1.806   1.711   0.070  0.00  0.00     0.013 A 
ATOM     10  C   UNL d   1       2.519  -1.024  -0.065  0.00  0.00     0.016 A 
ATOM     11  C   UNL d   1      -2.997   1.493   0.037  0.00  0.00     0.018 A 
ATOM     12  C   UNL d   1      -3.419   0.151  -0.018  0.00  0.00     0.002 A 
ATOM     13  C   UNL d   1       3.153   1.308   0.008  0.00  0.00     0.001 A 
ATOM     14  C   UNL d   1       3.509  -0.048  -0.057  0.00  0.00     0.001 A 
ENDROOT
BRANCH   6  15
ATOM     15  C   UNL d   1      -1.276   3.297   0.094  0.00  0.00     0.252 C 
ATOM     16  O   UNL d   1      -0.293   3.711  -0.506  0.00  0.00    -0.268 OA
ATOM     17  N   UNL d   1      -2.119   4.149   0.788  0.00  0.00    -0.357 N 
ATOM     18  H   UNL d   1      -2.921   3.793   1.290  0.00  0.00     0.162 HD
BRANCH  17  19
ATOM     19  C   UNL d   1      -1.752   5.545   0.938  0.00  0.00     0.123 C 
BRANCH  19  20
ATOM     20  C   UNL d   1      -2.775   6.381   1.704  0.00  0.00     0.023 C 
BRANCH  20  21
ATOM     21  C   UNL d   1      -3.037   5.931   3.154  0.00  0.00    -0.021 C 
ATOM     22  C   UNL d   1      -1.772   5.949   4.013  0.00  0.00     0.009 C 
ATOM     23  C   UNL d   1      -4.106   6.826   3.786  0.00  0.00     0.009 C 
ENDBRANCH  20  21
ENDBRANCH  19  20
ENDBRANCH  17  19
ENDBRANCH   6  15
TORSDOF 4
