REMARK  4 active torsions:
REMARK  status: ('A' for Active; 'I' for Inactive)
REMARK    1  A    between atoms: C_4  and  C_1 
REMARK    2  A    between atoms: S_3  and  C_2 
REMARK    3  A    between atoms: C_5  and  S_3 
REMARK    4  A    between atoms: O_8  and  C_4 
ROOT
ATOM      1  C   UNL d   1       0.607  -0.300  -1.054  0.00  0.00     0.054 A 
ATOM      2  C   UNL d   1       0.644  -1.255  -0.022  0.00  0.00     0.022 A 
ATOM      3  C   UNL d   1       0.206   1.020  -0.768  0.00  0.00     0.020 A 
ATOM      4  C   UNL d   1       0.243  -0.867   1.269  0.00  0.00     0.020 A 
ATOM      5  C   UNL d   1      -0.183   1.386   0.520  0.00  0.00     0.001 A 
ATOM      6  C   UNL d   1      -0.165   0.441   1.538  0.00  0.00     0.001 A 
ENDROOT
BRANCH   2   7
ATOM      7  S   UNL d   1       1.080  -2.982  -0.237  0.00  0.00    -0.089 SA
BRANCH   7   8
ATOM      8  C   UNL d   1       2.845  -2.959   0.070  0.00  0.00     0.011 A 
ATOM      9  C   UNL d   1       3.424  -3.156   1.341  0.00  0.00    -0.045 A 
ATOM     10  C   UNL d   1       2.643  -3.391   2.606  0.00  0.00     0.049 C 
ATOM     11  C   UNL d   1       4.827  -3.137   1.460  0.00  0.00     0.008 A 
ATOM     12  C   UNL d   1       5.645  -2.969   0.345  0.00  0.00     0.001 A 
ATOM     13  C   UNL d   1       5.073  -2.818  -0.912  0.00  0.00     0.001 A 
ATOM     14  C   UNL d   1       3.683  -2.812  -1.047  0.00  0.00     0.019 A 
ENDBRANCH   7   8
ENDBRANCH   2   7
BRANCH   1  15
ATOM     15  C   UNL d   1       0.969  -0.558  -2.474  0.00  0.00     0.177 C 
ATOM     16  O   UNL d   1       1.491   0.287  -3.180  0.00  0.00    -0.646 OA
BRANCH  15  17
ATOM     17  O   UNL d   1       0.571  -1.755  -2.950  0.00  0.00    -0.773 OA
ATOM     18  H   UNL d   1       0.183  -2.347  -2.276  0.00  0.00     0.167 HD
ENDBRANCH  15  17
ENDBRANCH   1  15
TORSDOF 4
