REMARK  5 active torsions:
REMARK  status: ('A' for Active; 'I' for Inactive)
REMARK    1  A    between atoms: N_2  and  C_1 
REMARK    2  A    between atoms: N_4  and  C_1 
REMARK    3  A    between atoms: C_6  and  N_4 
REMARK    4  A    between atoms: C_12  and  C_6 
REMARK    5  A    between atoms: C_9  and  C_12 
ROOT
ATOM      1  N   UNL d   1       2.277   0.144   0.129  0.00  0.00    -0.367 N 
ATOM      2  H   UNL d   1       2.686   0.218  -0.790  0.00  0.00     0.161 HD
ENDROOT
BRANCH   1   3
ATOM      3  C   UNL d   1       0.895   0.016   0.121  0.00  0.00     0.169 C 
ATOM      4  S   UNL d   1       0.067  -0.822   1.325  0.00  0.00    -0.041 SA
BRANCH   3   5
ATOM      5  N   UNL d   1       0.266   0.656  -0.953  0.00  0.00    -0.354 N 
ATOM      6  C   UNL d   1      -1.179   0.513  -1.244  0.00  0.00     0.151 C 
ATOM      7  C   UNL d   1      -1.871   1.880  -1.232  0.00  0.00     0.187 C 
ATOM      8  O   UNL d   1      -1.255   2.767  -2.180  0.00  0.00    -0.388 OA
ATOM      9  C   UNL d   1       0.129   2.961  -1.858  0.00  0.00     0.187 C 
ATOM     10  C   UNL d   1       0.902   1.633  -1.859  0.00  0.00     0.151 C 
ENDBRANCH   3   5
ENDBRANCH   1   3
BRANCH   1  11
ATOM     11  C   UNL d   1       3.154  -0.476   1.130  0.00  0.00     0.126 C 
BRANCH  11  12
ATOM     12  C   UNL d   1       4.622  -0.073   0.975  0.00  0.00     0.058 C 
BRANCH  12  13
ATOM     13  C   UNL d   1       5.492  -0.772   1.992  0.00  0.00    -0.057 A 
ATOM     14  C   UNL d   1       5.980  -2.066   1.744  0.00  0.00     0.007 A 
ATOM     15  C   UNL d   1       6.758  -2.727   2.698  0.00  0.00     0.001 A 
ATOM     16  C   UNL d   1       7.053  -2.105   3.908  0.00  0.00     0.000 A 
ATOM     17  C   UNL d   1       6.564  -0.828   4.169  0.00  0.00     0.001 A 
ATOM     18  C   UNL d   1       5.786  -0.163   3.217  0.00  0.00     0.007 A 
ENDBRANCH  12  13
ENDBRANCH  11  12
ENDBRANCH   1  11
TORSDOF 5
