REMARK  7 active torsions:
REMARK  status: ('A' for Active; 'I' for Inactive)
REMARK    1  A    between atoms: N_3  and  S_1 
REMARK    2  A    between atoms: C_2  and  N_6 
REMARK    3  A    between atoms: N_7  and  C_2 
REMARK    4  A    between atoms: C_4  and  N_3 
REMARK    5  A    between atoms: N_6  and  C_11 
REMARK    6  A    between atoms: C_14  and  N_7 
REMARK    7  A    between atoms: O_22  and  C_17 
ROOT
ATOM      1  N   UNL d   1      -0.865  -1.352   5.686  0.00  0.00    -0.333 N 
ATOM      2  H   UNL d   1      -1.715  -1.315   5.138  0.00  0.00     0.168 HD
ENDROOT
BRANCH   1   3
ATOM      3  C   UNL d   1      -1.091  -1.336   7.038  0.00  0.00     0.176 C 
ATOM      4  S   UNL d   1      -0.162  -0.596   8.220  0.00  0.00    -0.041 SA
BRANCH   3   5
ATOM      5  N   UNL d   1      -2.275  -1.890   7.461  0.00  0.00    -0.333 N 
ATOM      6  H   UNL d   1      -2.494  -1.649   8.423  0.00  0.00     0.168 HD
BRANCH   5   7
ATOM      7  C   UNL d   1      -3.244  -2.646   6.771  0.00  0.00     0.034 C 
ATOM      8  C   UNL d   1      -2.996  -3.329   5.578  0.00  0.00     0.032 C 
ATOM      9  C   UNL d   1      -4.048  -3.893   4.853  0.00  0.00     0.039 C 
ATOM     10  C   UNL d   1      -5.349  -3.802   5.338  0.00  0.00     0.068 C 
ATOM     11  C   UNL d   1      -5.580  -3.263   6.601  0.00  0.00     0.039 C 
ATOM     12  C   UNL d   1      -4.528  -2.688   7.319  0.00  0.00     0.032 C 
BRANCH  10  13
ATOM     13  O   UNL d   1      -6.448  -4.234   4.647  0.00  0.00    -0.356 OA
ATOM     14  C   UNL d   1      -6.395  -3.917   3.256  0.00  0.00     0.210 C 
ENDBRANCH  10  13
ENDBRANCH   5   7
ENDBRANCH   3   5
ENDBRANCH   1   3
BRANCH   1  15
ATOM     15  C   UNL d   1       0.326  -1.303   4.936  0.00  0.00     0.036 C 
ATOM     16  C   UNL d   1       0.199  -1.203   3.545  0.00  0.00     0.054 C 
ATOM     17  C   UNL d   1       1.333  -1.189   2.719  0.00  0.00     0.030 C 
ATOM     18  C   UNL d   1       2.611  -1.147   3.292  0.00  0.00    -0.040 C 
ATOM     19  C   UNL d   1       2.728  -1.339   4.675  0.00  0.00     0.011 C 
ATOM     20  C   UNL d   1       3.864  -0.924   2.497  0.00  0.00     0.050 C 
ATOM     21  C   UNL d   1       1.596  -1.450   5.481  0.00  0.00     0.030 C 
BRANCH  17  22
ATOM     22  N   UNL d   1       1.158  -1.345   1.287  0.00  0.00    -0.185 NA
ATOM     23  H   UNL d   1       2.036  -1.188   0.796  0.00  0.00     0.146 HD
BRANCH  22  24
ATOM     24  S   UNL d   1       0.555  -2.895   0.858  0.00  0.00     0.210 S 
ATOM     25  O   UNL d   1      -0.836  -2.991   1.247  0.00  0.00    -0.211 OA
ATOM     26  O   UNL d   1       1.537  -3.872   1.282  0.00  0.00    -0.211 OA
ATOM     27  C   UNL d   1       0.625  -2.819  -0.918  0.00  0.00     0.180 C 
ENDBRANCH  22  24
ENDBRANCH  17  22
ENDBRANCH   1  15
TORSDOF 7
