REMARK  4 active torsions:
REMARK  status: ('A' for Active; 'I' for Inactive)
REMARK    1  A    between atoms: C_7  and  N_1 
REMARK    2  A    between atoms: C_5  and  C_2 
REMARK    3  A    between atoms: O_11  and  C_5 
REMARK    4  A    between atoms: C_10  and  C_7 
ROOT
ATOM      1  N   UNL d   1      -0.063  -1.004   0.012  0.00  0.00    -0.347 N 
ATOM      2  C   UNL d   1      -1.588   0.732  -0.299  0.00  0.00     0.110 C 
ATOM      3  C   UNL d   1       0.696   0.149   0.013  0.00  0.00     0.221 C 
ATOM      4  C   UNL d   1      -1.477  -0.737   0.092  0.00  0.00     0.141 C 
ATOM      5  C   UNL d   1      -0.244   1.323   0.120  0.00  0.00     0.119 C 
ATOM      6  O   UNL d   1       1.913   0.235  -0.024  0.00  0.00    -0.273 OA
ENDROOT
BRANCH   1   7
ATOM      7  C   UNL d   1       0.483  -2.346  -0.070  0.00  0.00     0.164 C 
BRANCH   7   8
ATOM      8  C   UNL d   1       0.820  -2.960   1.271  0.00  0.00    -0.040 A 
ATOM      9  C   UNL d   1       0.140  -4.101   1.728  0.00  0.00     0.012 A 
ATOM     10  C   UNL d   1       0.531  -4.731   2.913  0.00  0.00     0.043 A 
ATOM     11  C   UNL d   1       1.594  -4.219   3.646  0.00  0.00     0.116 A 
ATOM     12  C   UNL d   1       2.268  -3.081   3.225  0.00  0.00     0.043 A 
ATOM     13  F   UNL d   1       1.983  -4.841   4.767  0.00  0.00    -0.206 F 
ATOM     14  C   UNL d   1       1.881  -2.453   2.040  0.00  0.00     0.012 A 
ENDBRANCH   7   8
ENDBRANCH   1   7
BRANCH   2  15
ATOM     15  C   UNL d   1      -1.815   0.907  -1.788  0.00  0.00     0.145 C 
ATOM     16  O   UNL d   1      -1.888  -0.003  -2.599  0.00  0.00    -0.650 OA
BRANCH  15  17
ATOM     17  O   UNL d   1      -1.980   2.200  -2.156  0.00  0.00    -0.776 OA
ATOM     18  H   UNL d   1      -1.928   2.853  -1.433  0.00  0.00     0.167 HD
ENDBRANCH  15  17
ENDBRANCH   2  15
TORSDOF 4
