REMARK  5 active torsions:
REMARK  status: ('A' for Active; 'I' for Inactive)
REMARK    1  A    between atoms: O_10  and  C_3 
REMARK    2  A    between atoms: C_11  and  C_8 
REMARK    3  A    between atoms: O_12  and  C_11 
REMARK    4  A    between atoms: C_13  and  O_12 
REMARK    5  A    between atoms: O_19  and  C_14 
ROOT
ATOM      1  N   UNL d   1      -0.256   0.881  -0.998  0.00  0.00    -0.323 N 
ATOM      2  HN  UNL d   1      -0.409   1.533  -1.767  1.00  0.00     0.169 HD
ATOM      3  C   UNL d   1      -0.877  -0.306  -0.930  0.00  0.00     0.165 A 
ATOM      4  C   UNL d   1      -0.710  -1.247   0.064  0.00  0.00     0.106 A 
ATOM      5  N   UNL d   1       0.841   0.301   1.038  0.00  0.00    -0.346 N 
ATOM      6  HN  UNL d   1       1.506   0.544   1.772  1.00  0.00     0.167 HD
ATOM      7  C   UNL d   1       0.187  -0.889   1.052  0.00  0.00     0.033 A 
ATOM      8  C   UNL d   1       0.584   1.153   0.020  0.00  0.00     0.108 A 
ATOM      9 CL   UNL d   1      -1.549  -2.748   0.058  0.00  0.00    -0.078 Cl
ATOM     10  C   UNL d   1       0.499  -1.794   2.207  0.00  0.00     0.070 C 
ENDROOT
BRANCH   8  11
ATOM     11  C   UNL d   1       1.359   2.453  -0.006  0.00  0.00     0.252 C 
BRANCH  11  12
ATOM     12  O   UNL d   1       0.483   3.585   0.043  0.00  0.00    -0.344 OA
BRANCH  12  13
ATOM     13  C   UNL d   1       1.094   4.810  -0.008  0.00  0.00     0.069 A 
ATOM     14  C   UNL d   1       2.473   5.028  -0.045  0.00  0.00     0.039 A 
ATOM     15  C   UNL d   1       2.989   6.328  -0.126  0.00  0.00     0.039 A 
ATOM     16  C   UNL d   1       2.131   7.423  -0.161  0.00  0.00     0.068 A 
ATOM     17  C   UNL d   1       0.752   7.208  -0.113  0.00  0.00     0.039 A 
ATOM     18  C   UNL d   1       0.236   5.909  -0.036  0.00  0.00     0.039 A 
BRANCH  16  19
ATOM     19  O   UNL d   1       2.507   8.734  -0.251  0.00  0.00    -0.356 OA
ATOM     20  C   UNL d   1       3.903   9.001  -0.320  0.00  0.00     0.210 C 
ENDBRANCH  16  19
ENDBRANCH  12  13
ENDBRANCH  11  12
ENDBRANCH   8  11
BRANCH   3  21
ATOM     21  O   UNL d   1      -1.720  -0.516  -1.979  0.00  0.00    -0.345 OA
ATOM     22  H   UNL d   1      -1.610   0.318  -2.469  0.00  0.00     0.219 HD
ENDBRANCH   3  21
TORSDOF 5
