REMARK  4 active torsions:
REMARK  status: ('A' for Active; 'I' for Inactive)
REMARK    1  A    between atoms: C_2  and  N_1 
REMARK       I    between atoms: C_4  and  N_1 
REMARK    2  A    between atoms: C_10  and  C_4 
REMARK    3  A    between atoms: S_6  and  C_10 
REMARK    4  A    between atoms: C_11  and  S_6 
ROOT
ATOM      1  N   UNL d   1       3.039   0.925  -0.846  0.00  0.00    -0.324 N 
ATOM      2  C   UNL d   1       2.545   0.089   0.142  0.00  0.00     0.231 C 
ATOM      3  O   UNL d   1       1.407   0.144   0.606  0.00  0.00    -0.272 OA
ATOM      4  H   UNL d   1       3.873   0.598  -1.319  0.00  0.00     0.169 HD
ENDROOT
BRANCH   2   5
ATOM      5  C   UNL d   1       3.448  -1.078   0.531  0.00  0.00     0.182 C 
BRANCH   5   6
ATOM      6  S   UNL d   1       5.225  -0.724   0.325  0.00  0.00    -0.121 SA
BRANCH   6   7
ATOM      7  C   UNL d   1       5.925  -2.235   0.972  0.00  0.00     0.001 A 
ATOM      8  C   UNL d   1       5.657  -3.477   0.388  0.00  0.00     0.019 A 
ATOM      9  C   UNL d   1       6.277  -4.635   0.870  0.00  0.00     0.008 A 
ATOM     10  C   UNL d   1       7.180  -4.568   1.939  0.00  0.00    -0.062 A 
ATOM     11  C   UNL d   1       7.440  -3.326   2.527  0.00  0.00     0.008 A 
ATOM     12  C   UNL d   1       7.871  -5.812   2.417  0.00  0.00     0.048 C 
ATOM     13  C   UNL d   1       6.819  -2.169   2.044  0.00  0.00     0.019 A 
ENDBRANCH   6   7
ENDBRANCH   5   6
ENDBRANCH   2   5
BRANCH   1  14
ATOM     14  C   UNL d   1       2.422   2.092  -1.351  0.00  0.00     0.073 A 
ATOM     15  C   UNL d   1       1.463   2.852  -0.660  0.00  0.00     0.145 A 
ATOM     16  C   UNL d   1       0.878   3.978  -1.237  0.00  0.00     0.086 A 
ATOM     17  F   UNL d   1       1.144   2.590   0.614  0.00  0.00    -0.204 F 
ATOM     18  C   UNL d   1       1.264   4.364  -2.510  0.00  0.00     0.119 A 
ATOM     19  C   UNL d   1       2.241   3.658  -3.204  0.00  0.00     0.044 A 
ATOM     20  F   UNL d   1       0.705   5.444  -3.072  0.00  0.00    -0.206 F 
ATOM     21  C   UNL d   1       2.827   2.531  -2.621  0.00  0.00     0.036 A 
ENDBRANCH   1  14
TORSDOF 4
