REMARK  2 active torsions:
REMARK  status: ('A' for Active; 'I' for Inactive)
REMARK    1  A    between atoms: C_6  and  C_1 
REMARK       I    between atoms: N_8  and  C_6 
REMARK    2  A    between atoms: C_13  and  N_8 
ROOT
ATOM      1  C   UNL d   1      -2.407  -0.084  -0.332  0.00  0.00     0.102 A 
ATOM      2  N   UNL d   1      -1.593   1.018  -0.167  0.00  0.00    -0.351 N 
ATOM      3  C   UNL d   1      -1.581  -1.189  -0.254  0.00  0.00     0.049 A 
ATOM      4  C   UNL d   1      -0.269   0.654  -0.115  0.00  0.00     0.044 A 
ATOM      5  C   UNL d   1      -0.232  -0.738  -0.129  0.00  0.00    -0.001 A 
ATOM      6  C   UNL d   1       1.016  -1.396  -0.065  0.00  0.00    -0.049 A 
ATOM      7  C   UNL d   1       0.883   1.450  -0.081  0.00  0.00     0.037 A 
ATOM      8  C   UNL d   1       2.180  -0.599  -0.063  0.00  0.00     0.014 A 
ATOM      9  C   UNL d   1       2.124   0.800  -0.088  0.00  0.00    -0.059 A 
ATOM     10  C   UNL d   1       1.163  -2.891  -0.052  0.00  0.00     0.049 C 
ATOM     11  C   UNL d   1       3.403   1.584  -0.163  0.00  0.00     0.048 C 
ATOM     12  H   UNL d   1      -1.938   1.969  -0.173  0.00  0.00     0.166 HD
ENDROOT
BRANCH   1  13
ATOM     13  C   UNL d   1      -3.825   0.073  -0.576  0.00  0.00     0.272 C 
ATOM     14  N   UNL d   1      -4.556  -1.102  -0.620  0.00  0.00    -0.322 N 
ATOM     15  H   UNL d   1      -4.102  -1.935  -0.273  0.00  0.00     0.169 HD
ATOM     16  O   UNL d   1      -4.297   1.201  -0.703  0.00  0.00    -0.266 OA
BRANCH  14  17
ATOM     17  C   UNL d   1      -5.935  -1.200  -0.910  0.00  0.00     0.035 A 
ATOM     18  C   UNL d   1      -6.648  -0.182  -1.549  0.00  0.00     0.029 A 
ATOM     19  C   UNL d   1      -8.029  -0.280  -1.725  0.00  0.00     0.002 A 
ATOM     20  C   UNL d   1      -8.710  -1.408  -1.279  0.00  0.00     0.000 A 
ATOM     21  C   UNL d   1      -8.000  -2.459  -0.701  0.00  0.00     0.002 A 
ATOM     22  C   UNL d   1      -6.614  -2.364  -0.532  0.00  0.00     0.029 A 
ENDBRANCH  14  17
ENDBRANCH   1  13
TORSDOF 2
