REMARK  3 active torsions:
REMARK  status: ('A' for Active; 'I' for Inactive)
REMARK    1  A    between atoms: C_9  and  C_4 
REMARK    2  A    between atoms: C_12  and  C_5 
REMARK    3  A    between atoms: C_13  and  C_10 
ROOT
ATOM      1  N   UNL d   1      -0.658   1.336   0.124  0.00  0.00    -0.306 N 
ATOM      2  HN  UNL d   1      -1.114   2.242   0.226  1.00  0.00     0.170 HD
ATOM      3  C   UNL d   1      -1.360   0.154   0.084  0.00  0.00     0.275 A 
ATOM      4  C   UNL d   1      -0.630  -1.201   0.027  0.00  0.00     0.116 A 
ATOM      5  C   UNL d   1       0.630   1.209   0.021  0.00  0.00     0.133 A 
ATOM      6  N   UNL d   1       0.671  -1.238  -0.050  0.00  0.00    -0.294 N 
ATOM      7  HN  UNL d   1       1.196  -2.111  -0.083  1.00  0.00     0.187 HD
ATOM      8  N   UNL d   1       1.276  -0.011  -0.085  0.00  0.00    -0.284 N 
ATOM      9  O   UNL d   1      -2.588   0.132   0.087  0.00  0.00    -0.266 OA
ATOM     10  H   UNL d   1       2.293  -0.021  -0.032  0.00  0.00     0.188 HD
ENDROOT
BRANCH   4  11
ATOM     11  C   UNL d   1      -1.489  -2.418   0.082  0.00  0.00     0.037 C 
ATOM     12  C   UNL d   1      -0.981  -3.657   0.007  0.00  0.00     0.014 C 
BRANCH  12  13
ATOM     13  C   UNL d   1      -1.812  -4.870   0.092  0.00  0.00    -0.036 A 
ATOM     14  C   UNL d   1      -3.132  -4.913  -0.379  0.00  0.00     0.011 A 
ATOM     15  C   UNL d   1      -3.895  -6.078  -0.263  0.00  0.00     0.001 A 
ATOM     16  C   UNL d   1      -3.341  -7.220   0.308  0.00  0.00     0.000 A 
ATOM     17  C   UNL d   1      -2.021  -7.202   0.752  0.00  0.00     0.001 A 
ATOM     18  C   UNL d   1      -1.258  -6.036   0.639  0.00  0.00     0.011 A 
ENDBRANCH  12  13
ENDBRANCH   4  11
BRANCH   5  19
ATOM     19  C   UNL d   1       1.438   2.466   0.004  0.00  0.00     0.009 A 
ATOM     20  C   UNL d   1       0.989   3.581   0.723  0.00  0.00     0.015 A 
ATOM     21  C   UNL d   1       1.694   4.783   0.663  0.00  0.00     0.001 A 
ATOM     22  C   UNL d   1       2.845   4.876  -0.118  0.00  0.00     0.000 A 
ATOM     23  C   UNL d   1       3.298   3.767  -0.834  0.00  0.00     0.001 A 
ATOM     24  C   UNL d   1       2.598   2.559  -0.773  0.00  0.00     0.015 A 
ENDBRANCH   5  19
TORSDOF 3
