REMARK  5 active torsions:
REMARK  status: ('A' for Active; 'I' for Inactive)
REMARK    1  A    between atoms: C_5  and  C_1 
REMARK    2  A    between atoms: S_9  and  C_4 
REMARK    3  A    between atoms: C_8  and  C_11 
REMARK    4  A    between atoms: C_10  and  C_8 
REMARK    5  A    between atoms: C_11  and  S_9 
ROOT
ATOM      1  N   UNL d   1      -0.884  -1.857   0.568  0.00  0.00    -0.333 N 
ATOM      2  HN  UNL d   1      -1.514  -1.061   0.665  1.00  0.00     0.168 HD
ATOM      3  C   UNL d   1      -1.336  -3.052   0.158  0.00  0.00     0.144 A 
ATOM      4  C   UNL d   1       0.439  -1.743   0.849  0.00  0.00     0.119 A 
ATOM      5  N   UNL d   1      -0.564  -4.137  -0.011  0.00  0.00    -0.347 N 
ATOM      6  HN  UNL d   1      -0.947  -5.022  -0.343  1.00  0.00     0.167 HD
ATOM      7  C   UNL d   1       1.302  -2.817   0.716  0.00  0.00     0.051 A 
ATOM      8  C   UNL d   1       0.742  -3.995   0.280  0.00  0.00     0.092 A 
ENDROOT
BRANCH   3   9
ATOM      9  S   UNL d   1      -3.073  -3.149  -0.182  0.00  0.00    -0.086 SA
BRANCH   9  10
ATOM     10  C   UNL d   1      -3.240  -4.914  -0.574  0.00  0.00     0.166 C 
BRANCH  10  11
ATOM     11  C   UNL d   1      -4.707  -5.260  -0.721  0.00  0.00     0.170 C 
ATOM     12  O   UNL d   1      -5.337  -5.765   0.210  0.00  0.00    -0.291 OA
BRANCH  11  13
ATOM     13  C   UNL d   1      -5.418  -4.997  -2.005  0.00  0.00     0.026 A 
ATOM     14  C   UNL d   1      -6.763  -5.342  -2.102  0.00  0.00     0.102 A 
ATOM     15  N   UNL d   1      -7.524  -5.141  -3.209  0.00  0.00    -0.374 N 
ATOM     16  C   UNL d   1      -6.919  -4.563  -4.266  0.00  0.00     0.087 A 
ATOM     17  HN  UNL d   1      -8.506  -5.415  -3.239  1.00  0.00     0.164 HD
ATOM     18  C   UNL d   1      -5.585  -4.188  -4.272  0.00  0.00     0.018 A 
ATOM     19  C   UNL d   1      -4.822  -4.411  -3.124  0.00  0.00     0.018 A 
ENDBRANCH  11  13
ENDBRANCH  10  11
ENDBRANCH   9  10
ENDBRANCH   3   9
BRANCH   4  20
ATOM     20  C   UNL d   1       0.991  -0.410   1.327  0.00  0.00     0.432 C 
ATOM     21  F   UNL d   1       0.070   0.591   1.396  0.00  0.00    -0.165 F 
ATOM     22  F   UNL d   1       1.988   0.056   0.520  0.00  0.00    -0.165 F 
ATOM     23  F   UNL d   1       1.543  -0.497   2.572  0.00  0.00    -0.165 F 
ENDBRANCH   4  20
TORSDOF 5
