REMARK  2 active torsions:
REMARK  status: ('A' for Active; 'I' for Inactive)
REMARK    1  A    between atoms: C_6  and  C_1 
REMARK    2  A    between atoms: C_10  and  N_8 
ROOT
ATOM      1  C   UNL d   1       0.821   0.783   0.132  0.00  0.00     0.085 C 
ATOM      2  C   UNL d   1       1.047  -0.711   0.184  0.00  0.00     0.111 C 
ATOM      3  N   UNL d   1      -0.386   1.266   0.215  0.00  0.00    -0.318 N 
ATOM      4  HN  UNL d   1      -0.596   2.264   0.187  1.00  0.00     0.175 HD
ATOM      5  S   UNL d   1      -1.551   0.084   0.370  0.00  0.00     0.027 SA
ATOM      6  S   UNL d   1      -0.254  -1.245   1.176  0.00  0.00    -0.015 SA
ATOM      7  N   UNL d   1       2.029  -1.326  -0.389  0.00  0.00    -0.348 N 
ATOM      8  HN  UNL d   1       2.707  -0.801  -0.941  1.00  0.00     0.166 HD
ENDROOT
BRANCH   1   9
ATOM      9  C   UNL d   1       1.996   1.690   0.071  0.00  0.00     0.016 A 
ATOM     10  C   UNL d   1       2.002   2.866  -0.694  0.00  0.00     0.046 A 
ATOM     11 CL   UNL d   1       0.731   3.300  -1.781  0.00  0.00    -0.083 Cl
ATOM     12  C   UNL d   1       3.102   3.731  -0.632  0.00  0.00     0.025 A 
ATOM     13  C   UNL d   1       4.198   3.428   0.176  0.00  0.00     0.002 A 
ATOM     14  C   UNL d   1       4.205   2.254   0.923  0.00  0.00     0.001 A 
ATOM     15  C   UNL d   1       3.108   1.390   0.876  0.00  0.00     0.015 A 
ENDBRANCH   1   9
BRANCH   7  16
ATOM     16  C   UNL d   1       2.161  -2.716  -0.252  0.00  0.00     0.036 A 
ATOM     17  C   UNL d   1       1.217  -3.610  -0.770  0.00  0.00     0.053 A 
ATOM     18  C   UNL d   1       1.392  -4.985  -0.610  0.00  0.00     0.037 A 
ATOM     19 CL   UNL d   1       0.195  -6.069  -1.204  0.00  0.00    -0.084 Cl
ATOM     20  C   UNL d   1       2.521  -5.490   0.028  0.00  0.00     0.048 A 
ATOM     21  C   UNL d   1       3.481  -4.603   0.503  0.00  0.00     0.037 A 
ATOM     22  C   UNL d   1       3.307  -3.224   0.366  0.00  0.00     0.053 A 
ATOM     23 CL   UNL d   1       4.898  -5.208   1.269  0.00  0.00    -0.084 Cl
ENDBRANCH   7  16
TORSDOF 2
