REMARK  5 active torsions:
REMARK  status: ('A' for Active; 'I' for Inactive)
REMARK    1  A    between atoms: N_2  and  C_1 
REMARK    2  A    between atoms: C_5  and  N_2 
REMARK    3  A    between atoms: C_10  and  N_4 
REMARK    4  A    between atoms: O_12  and  C_9 
REMARK    5  A    between atoms: C_11  and  C_10 
ROOT
ATOM      1  C   UNL d   1       1.199   0.104   0.181  0.00  0.00     0.172 C 
ATOM      2  S   UNL d   1       2.817  -0.087  -0.195  0.00  0.00    -0.041 SA
ATOM      3  N   UNL d   1       0.507   1.046  -0.525  0.00  0.00    -0.363 N 
ATOM      4  H   UNL d   1       1.084   1.550  -1.189  0.00  0.00     0.162 HD
ENDROOT
BRANCH   1   5
ATOM      5  N   UNL d   1       0.458  -0.627   1.079  0.00  0.00    -0.333 N 
ATOM      6  H   UNL d   1      -0.424  -0.959   0.706  0.00  0.00     0.168 HD
BRANCH   5   7
ATOM      7  C   UNL d   1       0.950  -1.300   2.218  0.00  0.00     0.036 A 
ATOM      8  C   UNL d   1       1.956  -0.735   3.007  0.00  0.00     0.066 A 
ATOM      9  C   UNL d   1       2.459  -1.413   4.116  0.00  0.00     0.070 A 
ATOM     10  C   UNL d   1       1.926  -2.659   4.449  0.00  0.00     0.037 A 
ATOM     11  C   UNL d   1       0.884  -3.208   3.697  0.00  0.00     0.005 A 
ATOM     12  C   UNL d   1       0.381  -2.520   2.591  0.00  0.00     0.029 A 
BRANCH   9  13
ATOM     13  O   UNL d   1       3.456  -0.963   4.938  0.00  0.00    -0.356 OA
ATOM     14  C   UNL d   1       4.063   0.274   4.576  0.00  0.00     0.210 C 
ENDBRANCH   9  13
ENDBRANCH   5   7
ENDBRANCH   1   5
BRANCH   3  15
ATOM     15  C   UNL d   1      -0.698   1.728  -0.093  0.00  0.00     0.160 C 
BRANCH  15  16
ATOM     16  C   UNL d   1      -1.763   1.784  -1.153  0.00  0.00    -0.038 A 
ATOM     17  C   UNL d   1      -1.774   0.934  -2.264  0.00  0.00     0.025 A 
ATOM     18  C   UNL d   1      -2.812   1.039  -3.176  0.00  0.00     0.088 A 
ATOM     19  N   UNL d   1      -3.834   1.912  -3.051  0.00  0.00    -0.375 N 
ATOM     20  C   UNL d   1      -3.814   2.716  -1.972  0.00  0.00     0.088 A 
ATOM     21  HN  UNL d   1      -4.583   1.961  -3.741  1.00  0.00     0.164 HD
ATOM     22  C   UNL d   1      -2.820   2.690  -1.007  0.00  0.00     0.025 A 
ENDBRANCH  15  16
ENDBRANCH   3  15
TORSDOF 5
