REMARK  3 active torsions:
REMARK  status: ('A' for Active; 'I' for Inactive)
REMARK    1  A    between atoms: N_2  and  S_1 
REMARK    2  A    between atoms: C_3  and  S_1 
REMARK    3  A    between atoms: C_6  and  N_5 
ROOT
ATOM      1  N   UNL d   1       0.076  -1.270  -0.139  0.00  0.00    -0.203 NA
ATOM      2  N   UNL d   1       0.324  -3.212  -2.328  0.00  0.00    -0.378 N 
ATOM      3  C   UNL d   1       0.286  -2.721   0.189  0.00  0.00     0.127 C 
ATOM      4  C   UNL d   1      -0.584  -1.101  -1.459  0.00  0.00     0.127 C 
ATOM      5  C   UNL d   1       0.269  -1.754  -2.556  0.00  0.00     0.138 C 
ATOM      6  C   UNL d   1       0.848  -3.581  -0.987  0.00  0.00     0.138 C 
ENDROOT
BRANCH   1   7
ATOM      7  S   UNL d   1       1.359  -0.197   0.176  0.00  0.00     0.243 S 
ATOM      8  O   UNL d   1       1.208   0.961  -0.682  0.00  0.00    -0.206 OA
ATOM      9  O   UNL d   1       2.584  -0.962   0.200  0.00  0.00    -0.206 OA
BRANCH   7  10
ATOM     10  C   UNL d   1       1.007   0.370   1.825  0.00  0.00     0.075 A 
ATOM     11  C   UNL d   1       1.971   0.243   2.829  0.00  0.00     0.037 A 
ATOM     12  C   UNL d   1       1.749   0.811   4.096  0.00  0.00    -0.025 A 
ATOM     13  C   UNL d   1       2.714   0.726   5.112  0.00  0.00     0.012 A 
ATOM     14  C   UNL d   1       0.541   1.507   4.348  0.00  0.00    -0.026 A 
ATOM     15  C   UNL d   1       2.498   1.320   6.356  0.00  0.00     0.001 A 
ATOM     16  C   UNL d   1       1.314   2.007   6.604  0.00  0.00     0.001 A 
ATOM     17  C   UNL d   1       0.340   2.098   5.607  0.00  0.00     0.012 A 
ATOM     18  C   UNL d   1      -0.422   1.607   3.330  0.00  0.00     0.014 A 
ATOM     19  C   UNL d   1      -0.190   1.048   2.070  0.00  0.00     0.026 A 
ENDBRANCH   7  10
ENDBRANCH   1   7
BRANCH   2  20
ATOM     20  C   UNL d   1      -0.485  -4.066  -3.089  0.00  0.00     0.044 A 
ATOM     21  C   UNL d   1      -0.139  -5.419  -3.412  0.00  0.00     0.017 A 
ATOM     22  C   UNL d   1      -1.036  -6.158  -4.237  0.00  0.00     0.046 A 
ATOM     23  C   UNL d   1       1.057  -6.075  -3.022  0.00  0.00     0.018 A 
ATOM     24  C   UNL d   1      -0.755  -7.469  -4.584  0.00  0.00     0.054 A 
ATOM     25  N   UNL d   1      -2.166  -5.656  -4.740  0.00  0.00    -0.365 N 
ATOM     26  C   UNL d   1       0.403  -8.098  -4.146  0.00  0.00     0.036 A 
ATOM     27  C   UNL d   1       1.317  -7.405  -3.368  0.00  0.00     0.025 A 
ATOM     28 CL   UNL d   1       0.709  -9.732  -4.587  0.00  0.00    -0.084 Cl
ATOM     29  C   UNL d   1      -2.464  -4.384  -4.449  0.00  0.00     0.090 A 
ATOM     30  HN  UNL d   1      -2.782  -6.222  -5.324  1.00  0.00     0.165 HD
ATOM     31  C   UNL d   1      -1.681  -3.579  -3.646  0.00  0.00     0.047 A 
ENDBRANCH   2  20
TORSDOF 3
