REMARK  5 active torsions:
REMARK  status: ('A' for Active; 'I' for Inactive)
REMARK    1  A    between atoms: C_5  and  C_1 
REMARK    2  A    between atoms: C_11  and  C_3 
REMARK    3  A    between atoms: C_7  and  C_5 
REMARK    4  A    between atoms: N_12  and  C_8 
REMARK    5  A    between atoms: C_14  and  N_12 
ROOT
ATOM      1  C   UNL d   1      -5.155   1.438   0.670  0.00  0.00     0.110 C 
ATOM      2  C   UNL d   1      -6.381   1.063   0.247  0.00  0.00     0.115 C 
ATOM      3  C   UNL d   1      -5.016   2.275   1.812  0.00  0.00     0.105 C 
ATOM      4  N   UNL d   1      -4.951   2.971   2.733  0.00  0.00    -0.191 NA
ENDROOT
BRANCH   1   5
ATOM      5  C   UNL d   1      -3.936   0.912  -0.027  0.00  0.00     0.206 C 
ATOM      6  O   UNL d   1      -3.946  -0.184  -0.579  0.00  0.00    -0.286 OA
BRANCH   5   7
ATOM      7  C   UNL d   1      -2.749   1.771  -0.005  0.00  0.00     0.047 A 
ATOM      8  C   UNL d   1      -2.648   3.201   0.092  0.00  0.00     0.051 A 
ATOM      9  C   UNL d   1      -1.308   3.526   0.065  0.00  0.00     0.061 A 
ATOM     10  O   UNL d   1      -0.578   2.389  -0.057  0.00  0.00    -0.318 OA
ATOM     11  C   UNL d   1      -1.435   1.340  -0.146  0.00  0.00     0.063 A 
ATOM     12  C   UNL d   1      -0.762   0.040  -0.360  0.00  0.00     0.077 C 
BRANCH   9  13
ATOM     13  C   UNL d   1      -0.512   4.804   0.103  0.00  0.00    -0.002 C 
ATOM     14  C   UNL d   1      -1.429   6.036   0.030  0.00  0.00     0.021 C 
ATOM     15  C   UNL d   1       0.304   4.864   1.407  0.00  0.00     0.021 C 
ATOM     16  C   UNL d   1       0.451   4.835  -1.101  0.00  0.00     0.021 C 
ENDBRANCH   9  13
ENDBRANCH   5   7
ENDBRANCH   1   5
BRANCH   2  17
ATOM     17  N   UNL d   1      -7.607   1.449   0.757  0.00  0.00    -0.364 N 
ATOM     18  H   UNL d   1      -7.588   2.088   1.550  0.00  0.00     0.165 HD
BRANCH  17  19
ATOM     19  C   UNL d   1      -8.916   1.074   0.383  0.00  0.00     0.031 A 
ATOM     20  C   UNL d   1      -9.210   0.121  -0.597  0.00  0.00     0.029 A 
ATOM     21  C   UNL d   1     -10.537  -0.190  -0.925  0.00  0.00     0.002 A 
ATOM     22  C   UNL d   1     -11.593   0.453  -0.282  0.00  0.00     0.000 A 
ATOM     23  C   UNL d   1     -11.324   1.410   0.688  0.00  0.00     0.002 A 
ATOM     24  C   UNL d   1      -9.998   1.716   1.015  0.00  0.00     0.029 A 
ENDBRANCH  17  19
ENDBRANCH   2  17
TORSDOF 5
