REMARK  3 active torsions:
REMARK  status: ('A' for Active; 'I' for Inactive)
REMARK    1  A    between atoms: C_9  and  C_3 
REMARK    2  A    between atoms: C_8  and  C_7 
REMARK    3  A    between atoms: C_13  and  C_9 
ROOT
ATOM      1  N   UNL d   1       1.230  -1.138  -0.040  0.00  0.00    -0.297 N 
ATOM      2  HN  UNL d   1       1.752  -2.014  -0.017  1.00  0.00     0.187 HD
ATOM      3  C   UNL d   1      -0.222   1.300  -0.044  0.00  0.00     0.018 A 
ATOM      4  N   UNL d   1      -0.133  -1.120  -0.103  0.00  0.00    -0.266 N 
ATOM      5  C   UNL d   1      -0.927  -0.003  -0.147  0.00  0.00     0.266 A 
ATOM      6  C   UNL d   1       1.115   1.310   0.001  0.00  0.00     0.045 A 
ATOM      7  C   UNL d   1       1.831   0.012  -0.009  0.00  0.00     0.059 A 
ATOM      8  O   UNL d   1      -2.147  -0.075  -0.271  0.00  0.00    -0.266 OA
ATOM      9  H   UNL d   1      -0.595  -2.021  -0.158  0.00  0.00     0.190 HD
ENDROOT
BRANCH   3  10
ATOM     10  C   UNL d   1      -1.050   2.551  -0.001  0.00  0.00     0.083 C 
BRANCH  10  11
ATOM     11  C   UNL d   1      -1.453   2.930   1.406  0.00  0.00    -0.054 A 
ATOM     12  C   UNL d   1      -0.630   3.748   2.193  0.00  0.00     0.008 A 
ATOM     13  C   UNL d   1      -0.987   4.055   3.508  0.00  0.00     0.007 A 
ATOM     14  C   UNL d   1      -2.170   3.551   4.060  0.00  0.00    -0.062 A 
ATOM     15  C   UNL d   1      -2.990   2.732   3.277  0.00  0.00     0.007 A 
ATOM     16  C   UNL d   1      -2.537   3.881   5.476  0.00  0.00     0.048 C 
ATOM     17  C   UNL d   1      -2.633   2.422   1.963  0.00  0.00     0.008 A 
ENDBRANCH  10  11
ENDBRANCH   3  10
BRANCH   7  18
ATOM     18  C   UNL d   1       3.320   0.066   0.053  0.00  0.00    -0.008 A 
ATOM     19  C   UNL d   1       4.006  -0.973   0.691  0.00  0.00     0.014 A 
ATOM     20  C   UNL d   1       5.401  -0.947   0.776  0.00  0.00     0.007 A 
ATOM     21  C   UNL d   1       6.126   0.115   0.220  0.00  0.00    -0.062 A 
ATOM     22  C   UNL d   1       5.439   1.145  -0.428  0.00  0.00     0.007 A 
ATOM     23  C   UNL d   1       7.623   0.127   0.307  0.00  0.00     0.048 C 
ATOM     24  C   UNL d   1       4.044   1.119  -0.519  0.00  0.00     0.014 A 
ENDBRANCH   7  18
TORSDOF 3
