REMARK  1 active torsions:
REMARK  status: ('A' for Active; 'I' for Inactive)
REMARK    1  A    between atoms: C_9  and  C_7 
ROOT
ATOM      1  C   UNL d   1       0.639  -0.867   0.013  0.00  0.00     0.111 A 
ATOM      2  N   UNL d   1      -0.684  -1.220   0.002  0.00  0.00    -0.335 N 
ATOM      3  HN  UNL d   1      -1.097  -2.153  -0.005  1.00  0.00     0.168 HD
ATOM      4  C   UNL d   1       0.780   0.613   0.016  0.00  0.00     0.316 A 
ATOM      5  O   UNL d   1      -0.513   1.040   0.011  0.00  0.00    -0.261 OA
ATOM      6  C   UNL d   1      -1.278  -0.072   0.004  0.00  0.00     0.124 A 
ATOM      7  C   UNL d   1       1.702  -1.679   0.024  0.00  0.00     0.047 C 
ATOM      8  O   UNL d   1       1.785   1.294   0.022  0.00  0.00    -0.257 OA
ATOM      9  C   UNL d   1      -2.745   0.151   0.006  0.00  0.00     0.098 C 
ENDROOT
BRANCH   7  10
ATOM     10  C   UNL d   1       1.592  -3.137   0.021  0.00  0.00    -0.034 A 
ATOM     11  C   UNL d   1       1.583  -3.838  -1.190  0.00  0.00     0.013 A 
ATOM     12  C   UNL d   1       1.469  -5.230  -1.197  0.00  0.00     0.020 A 
ATOM     13  C   UNL d   1       1.362  -5.920   0.009  0.00  0.00     0.011 A 
ATOM     14  C   UNL d   1       1.370  -5.232   1.222  0.00  0.00     0.020 A 
ATOM     15 BR   UNL d   1       1.202  -7.804   0.001  0.00  0.00    -0.051 Br
ATOM     16  C   UNL d   1       1.483  -3.840   1.227  0.00  0.00     0.013 A 
ENDBRANCH   7  10
TORSDOF 1
