REMARK  4 active torsions:
REMARK  status: ('A' for Active; 'I' for Inactive)
REMARK    1  A    between atoms: C_2  and  C_1 
REMARK       I    between atoms: N_6  and  C_1 
REMARK    2  A    between atoms: C_11  and  C_4 
REMARK    3  A    between atoms: C_14  and  N_6 
REMARK    4  A    between atoms: C_13  and  C_14 
ROOT
ATOM      1  C   UNL d   1       1.075   0.014  -0.058  0.00  0.00     0.241 C 
ATOM      2  N   UNL d   1       0.271  -0.394   0.975  0.00  0.00    -0.353 N 
ATOM      3  O   UNL d   1       2.298   0.006  -0.038  0.00  0.00    -0.269 OA
ATOM      4  H   UNL d   1      -0.735  -0.372   0.879  0.00  0.00     0.163 HD
ENDROOT
BRANCH   1   5
ATOM      5  C   UNL d   1       0.295   0.472  -1.236  0.00  0.00     0.075 C 
ATOM      6  C   UNL d   1       0.909   0.913  -2.345  0.00  0.00     0.017 C 
BRANCH   6   7
ATOM      7  C   UNL d   1       0.182   1.346  -3.548  0.00  0.00    -0.034 A 
ATOM      8  C   UNL d   1      -1.069   1.975  -3.476  0.00  0.00     0.037 A 
ATOM      9  C   UNL d   1      -1.758   2.340  -4.638  0.00  0.00     0.056 A 
ATOM     10 CL   UNL d   1      -3.313   3.072  -4.449  0.00  0.00    -0.083 Cl
ATOM     11  C   UNL d   1      -1.189   2.100  -5.891  0.00  0.00     0.055 A 
ATOM     12  C   UNL d   1       0.076   1.514  -5.972  0.00  0.00     0.026 A 
ATOM     13 CL   UNL d   1      -1.994   2.496  -7.366  0.00  0.00    -0.083 Cl
ATOM     14  C   UNL d   1       0.760   1.145  -4.808  0.00  0.00     0.013 A 
ENDBRANCH   6   7
ENDBRANCH   1   5
BRANCH   2  15
ATOM     15  C   UNL d   1       0.805  -0.888   2.225  0.00  0.00     0.162 C 
BRANCH  15  16
ATOM     16  C   UNL d   1       0.332  -2.285   2.504  0.00  0.00    -0.025 A 
ATOM     17  C   UNL d   1      -0.444  -2.578   3.621  0.00  0.00     0.096 A 
ATOM     18  N   UNL d   1      -0.882  -3.818   3.940  0.00  0.00    -0.375 N 
ATOM     19  C   UNL d   1      -0.524  -4.821   3.110  0.00  0.00     0.087 A 
ATOM     20  HN  UNL d   1      -1.455  -3.987   4.766  1.00  0.00     0.164 HD
ATOM     21  C   UNL d   1       0.244  -4.639   1.972  0.00  0.00     0.018 A 
ATOM     22  C   UNL d   1       0.676  -3.352   1.668  0.00  0.00     0.011 A 
ENDBRANCH  15  16
ENDBRANCH   2  15
TORSDOF 4
