REMARK  4 active torsions:
REMARK  status: ('A' for Active; 'I' for Inactive)
REMARK       I    between atoms: N_2  and  C_1 
REMARK    1  A    between atoms: C_5  and  C_1 
REMARK    2  A    between atoms: C_7  and  N_2 
REMARK    3  A    between atoms: C_3  and  C_7 
REMARK    4  A    between atoms: O_8  and  C_3 
ROOT
ATOM      1  C   UNL d   1       1.081  -0.084   0.010  0.00  0.00     0.252 C 
ATOM      2  N   UNL d   1       0.467  -1.315   0.095  0.00  0.00    -0.348 N 
ATOM      3  O   UNL d   1       0.442   0.956  -0.125  0.00  0.00    -0.268 OA
ATOM      4  H   UNL d   1       0.996  -2.179   0.040  0.00  0.00     0.163 HD
ENDROOT
BRANCH   1   5
ATOM      5  C   UNL d   1       2.567  -0.036   0.058  0.00  0.00     0.032 A 
ATOM      6  C   UNL d   1       3.205   1.057  -0.548  0.00  0.00     0.017 A 
ATOM      7  C   UNL d   1       4.593   1.189  -0.491  0.00  0.00     0.001 A 
ATOM      8  C   UNL d   1       5.353   0.236   0.183  0.00  0.00     0.000 A 
ATOM      9  C   UNL d   1       4.727  -0.853   0.793  0.00  0.00     0.001 A 
ATOM     10  C   UNL d   1       3.335  -0.993   0.732  0.00  0.00     0.017 A 
ENDBRANCH   1   5
BRANCH   2  11
ATOM     11  C   UNL d   1      -0.984  -1.389  -0.011  0.00  0.00     0.233 C 
BRANCH  11  12
ATOM     12  C   UNL d   1      -1.523  -2.811  -0.002  0.00  0.00     0.276 C 
ATOM     13  O   UNL d   1      -0.832  -3.823   0.035  0.00  0.00    -0.263 OA
BRANCH  12  14
ATOM     14  O   UNL d   1      -2.885  -2.783  -0.054  0.00  0.00    -0.325 OA
ATOM     15  C   UNL d   1      -3.514  -4.066  -0.060  0.00  0.00     0.213 C 
ENDBRANCH  12  14
ENDBRANCH  11  12
ENDBRANCH   2  11
TORSDOF 4
