REMARK  5 active torsions:
REMARK  status: ('A' for Active; 'I' for Inactive)
REMARK    1  A    between atoms: S_6  and  C_1 
REMARK    2  A    between atoms: C_10  and  S_6 
REMARK    3  A    between atoms: C_8  and  C_10 
REMARK       I    between atoms: N_9  and  C_8 
REMARK    4  A    between atoms: C_16  and  N_9 
REMARK    5  A    between atoms: O_22  and  C_17 
ROOT
ATOM      1  C   UNL d   1       1.643   5.377   0.009  0.00  0.00     0.231 C 
ATOM      2  N   UNL d   1       0.382   5.929   0.201  0.00  0.00    -0.327 N 
ATOM      3  O   UNL d   1       2.660   6.044  -0.190  0.00  0.00    -0.272 OA
ATOM      4  H   UNL d   1      -0.370   5.314   0.489  0.00  0.00     0.169 HD
ENDROOT
BRANCH   1   5
ATOM      5  C   UNL d   1       1.687   3.838   0.090  0.00  0.00     0.182 C 
BRANCH   5   6
ATOM      6  S   UNL d   1       3.437   3.268  -0.035  0.00  0.00    -0.117 SA
BRANCH   6   7
ATOM      7  C   UNL d   1       3.296   1.467  -0.102  0.00  0.00     0.048 A 
ATOM      8  C   UNL d   1       3.139   0.800  -1.342  0.00  0.00     0.074 A 
ATOM      9  C   UNL d   1       3.207  -0.604  -1.403  0.00  0.00     0.058 A 
ATOM     10 CL   UNL d   1       2.894   1.700  -2.814  0.00  0.00    -0.081 Cl
ATOM     11 CL   UNL d   1       3.016  -1.489  -2.879  0.00  0.00    -0.082 Cl
ATOM     12  C   UNL d   1       3.454  -1.351  -0.252  0.00  0.00     0.051 A 
ATOM     13  C   UNL d   1       3.624  -0.708   0.972  0.00  0.00     0.058 A 
ATOM     14  C   UNL d   1       3.537   0.693   1.061  0.00  0.00     0.074 A 
ATOM     15 CL   UNL d   1       3.969  -1.714   2.338  0.00  0.00    -0.082 Cl
ATOM     16 CL   UNL d   1       3.740   1.457   2.614  0.00  0.00    -0.081 Cl
ENDBRANCH   6   7
ENDBRANCH   5   6
ENDBRANCH   1   5
BRANCH   2  17
ATOM     17  C   UNL d   1       0.093   7.323   0.233  0.00  0.00     0.034 A 
ATOM     18  C   UNL d   1       0.975   8.305  -0.229  0.00  0.00     0.032 A 
ATOM     19  C   UNL d   1       0.693   9.671  -0.078  0.00  0.00     0.039 A 
ATOM     20  C   UNL d   1      -0.485  10.081   0.533  0.00  0.00     0.068 A 
ATOM     21  C   UNL d   1      -1.404   9.109   0.935  0.00  0.00     0.039 A 
ATOM     22  C   UNL d   1      -1.126   7.741   0.776  0.00  0.00     0.032 A 
BRANCH  20  23
ATOM     23  O   UNL d   1      -0.847  11.374   0.792  0.00  0.00    -0.356 OA
ATOM     24  C   UNL d   1       0.116  12.381   0.497  0.00  0.00     0.210 C 
ENDBRANCH  20  23
ENDBRANCH   2  17
TORSDOF 5
