REMARK  3 active torsions:
REMARK  status: ('A' for Active; 'I' for Inactive)
REMARK       I    between atoms: N_2  and  C_1 
REMARK       I    between atoms: N_3  and  C_1 
REMARK    1  A    between atoms: C_5  and  N_2 
REMARK    2  A    between atoms: C_6  and  N_3 
REMARK    3  A    between atoms: C_13  and  C_6 
ROOT
ATOM      1  C   UNL d   1       0.964  -0.091  -0.062  0.00  0.00     0.320 C 
ATOM      2  N   UNL d   1       2.329  -0.219   0.094  0.00  0.00    -0.309 N 
ATOM      3  N   UNL d   1       0.307  -0.201   1.142  0.00  0.00    -0.339 N 
ATOM      4  O   UNL d   1       0.369   0.062  -1.120  0.00  0.00    -0.247 OA
ATOM      5  H   UNL d   1       2.635  -0.560   0.993  0.00  0.00     0.170 HD
ATOM      6  H   UNL d   1       0.813   0.009   1.988  0.00  0.00     0.164 HD
ENDROOT
BRANCH   2   7
ATOM      7  C   UNL d   1       3.306  -0.136  -0.920  0.00  0.00     0.036 A 
ATOM      8  C   UNL d   1       3.037   0.317  -2.216  0.00  0.00     0.031 A 
ATOM      9  C   UNL d   1       4.046   0.357  -3.184  0.00  0.00     0.026 A 
ATOM     10  C   UNL d   1       5.335  -0.051  -2.857  0.00  0.00     0.034 A 
ATOM     11  C   UNL d   1       5.625  -0.489  -1.568  0.00  0.00     0.026 A 
ATOM     12 CL   UNL d   1       6.572  -0.016  -4.052  0.00  0.00    -0.084 Cl
ATOM     13  C   UNL d   1       4.614  -0.526  -0.601  0.00  0.00     0.031 A 
ENDBRANCH   2   7
BRANCH   3  14
ATOM     14  C   UNL d   1      -1.139  -0.136   1.210  0.00  0.00     0.162 C 
BRANCH  14  15
ATOM     15  C   UNL d   1      -1.619   1.101   1.925  0.00  0.00    -0.040 A 
ATOM     16  C   UNL d   1      -1.326   2.378   1.423  0.00  0.00     0.009 A 
ATOM     17  C   UNL d   1      -1.810   3.521   2.065  0.00  0.00     0.001 A 
ATOM     18  C   UNL d   1      -2.595   3.399   3.209  0.00  0.00     0.000 A 
ATOM     19  C   UNL d   1      -2.897   2.136   3.715  0.00  0.00     0.001 A 
ATOM     20  C   UNL d   1      -2.412   0.993   3.077  0.00  0.00     0.009 A 
ENDBRANCH  14  15
ENDBRANCH   3  14
TORSDOF 3
