REMARK  5 active torsions:
REMARK  status: ('A' for Active; 'I' for Inactive)
REMARK    1  A    between atoms: C_14  and  N_1 
REMARK    2  A    between atoms: C_7  and  C_2 
REMARK    3  A    between atoms: C_8  and  C_12 
REMARK    4  A    between atoms: C_13  and  N_9 
REMARK    5  A    between atoms: N_11  and  C_10 
ROOT
ATOM      1  N   UNL d   1       6.535  -3.693  -0.637  0.00  0.00    -0.378 N 
ATOM      2  N   UNL d   1       3.759  -3.362   0.059  0.00  0.00    -0.387 N 
ATOM      3  C   UNL d   1       6.113  -2.535   0.174  0.00  0.00     0.143 C 
ATOM      4  C   UNL d   1       5.493  -4.232  -1.527  0.00  0.00     0.143 C 
ATOM      5  C   UNL d   1       4.199  -4.540  -0.726  0.00  0.00     0.142 C 
ATOM      6  C   UNL d   1       4.824  -2.853   0.958  0.00  0.00     0.142 C 
ENDROOT
BRANCH   2   7
ATOM      7  C   UNL d   1       2.567  -2.684  -0.141  0.00  0.00     0.089 C 
ATOM      8  C   UNL d   1       1.420  -3.177  -0.629  0.00  0.00     0.068 C 
BRANCH   8   9
ATOM      9  C   UNL d   1       0.310  -2.341  -0.880  0.00  0.00     0.139 A 
ATOM     10  N   UNL d   1       0.007  -1.835  -2.149  0.00  0.00    -0.225 N 
ATOM     11  N   UNL d   1      -1.122  -1.087  -2.020  0.00  0.00     0.001 NA
ATOM     12  N   UNL d   1      -1.482  -1.157  -0.750  0.00  0.00    -0.007 NA
ATOM     13  N   UNL d   1      -0.608  -1.919  -0.033  0.00  0.00    -0.270 N 
ATOM     14  HN  UNL d   1      -0.656  -2.123   0.965  1.00  0.00     0.185 HD
BRANCH  10  15
ATOM     15  C   UNL d   1       0.647  -1.945  -3.425  0.00  0.00     0.056 A 
ATOM     16  C   UNL d   1       1.757  -2.770  -3.652  0.00  0.00     0.033 A 
ATOM     17  C   UNL d   1       2.384  -2.800  -4.902  0.00  0.00     0.026 A 
ATOM     18  C   UNL d   1       1.903  -2.013  -5.944  0.00  0.00     0.034 A 
ATOM     19  C   UNL d   1       0.785  -1.211  -5.750  0.00  0.00     0.026 A 
ATOM     20 CL   UNL d   1       2.703  -2.032  -7.464  0.00  0.00    -0.084 Cl
ATOM     21  C   UNL d   1       0.155  -1.180  -4.500  0.00  0.00     0.033 A 
ENDBRANCH  10  15
ENDBRANCH   8   9
ENDBRANCH   2   7
BRANCH   1  22
ATOM     22  C   UNL d   1       7.777  -4.276  -0.520  0.00  0.00     0.030 A 
ATOM     23  C   UNL d   1       8.448  -4.338   0.710  0.00  0.00     0.045 A 
ATOM     24  C   UNL d   1       9.723  -4.918   0.846  0.00  0.00     0.050 A 
ATOM     25  C   UNL d   1      10.348  -5.452  -0.285  0.00  0.00     0.016 A 
ATOM     26  C   UNL d   1       9.705  -5.410  -1.518  0.00  0.00     0.003 A 
ATOM     27  C   UNL d   1       8.435  -4.832  -1.626  0.00  0.00     0.029 A 
BRANCH  24  28
ATOM     28  C   UNL d   1      10.409  -4.967   2.187  0.00  0.00     0.417 C 
ATOM     29  F   UNL d   1       9.681  -4.409   3.195  0.00  0.00    -0.166 F 
ATOM     30  F   UNL d   1      10.681  -6.240   2.588  0.00  0.00    -0.166 F 
ATOM     31  F   UNL d   1      11.603  -4.313   2.187  0.00  0.00    -0.166 F 
ENDBRANCH  24  28
ENDBRANCH   1  22
TORSDOF 5
