REMARK  7 active torsions:
REMARK  status: ('A' for Active; 'I' for Inactive)
REMARK    1  A    between atoms: N_4  and  C_8 
REMARK    2  A    between atoms: S_20  and  C_7 
REMARK    3  A    between atoms: C_11  and  O_22 
REMARK    4  A    between atoms: C_15  and  C_11 
REMARK    5  A    between atoms: C_26  and  S_20 
REMARK    6  A    between atoms: O_22  and  C_27 
REMARK    7  A    between atoms: C_27  and  C_26 
ROOT
ATOM      1  S   UNL d   1      -3.368   0.607  -2.192  0.00  0.00     0.177 S 
ATOM      2  C   UNL d   1      -3.439  -0.722  -1.064  0.00  0.00     0.069 A 
ATOM      3  C   UNL d   1      -2.252   1.618  -1.230  0.00  0.00     0.165 A 
ATOM      4  C   UNL d   1      -2.664  -0.475   0.066  0.00  0.00    -0.022 A 
ATOM      5  C   UNL d   1      -4.165  -1.886  -1.267  0.00  0.00     0.060 A 
ATOM      6  C   UNL d   1      -1.957   0.859   0.073  0.00  0.00     0.096 A 
ATOM      7  C   UNL d   1      -4.093  -2.858  -0.265  0.00  0.00     0.104 A 
ATOM      8  O   UNL d   1      -2.688   0.133  -3.376  0.00  0.00    -0.223 OA
ATOM      9  O   UNL d   1      -4.675   1.225  -2.213  0.00  0.00    -0.223 OA
ATOM     10  C   UNL d   1      -2.584  -1.459   1.048  0.00  0.00     0.012 A 
ATOM     11  C   UNL d   1      -3.303  -2.652   0.885  0.00  0.00     0.037 A 
ENDROOT
BRANCH   6  12
ATOM     12  S   UNL d   1      -2.304   1.872   1.559  0.00  0.00    -0.156 SA
BRANCH  12  13
ATOM     13  C   UNL d   1      -4.126   2.067   1.441  0.00  0.00     0.101 C 
BRANCH  13  14
ATOM     14  C   UNL d   1      -4.680   2.804   2.666  0.00  0.00     0.189 C 
BRANCH  14  15
ATOM     15  O   UNL d   1      -4.346   2.175   3.917  0.00  0.00    -0.317 OA
BRANCH  15  16
ATOM     16  C   UNL d   1      -4.944   0.987   4.165  0.00  0.00     0.293 C 
ATOM     17  O   UNL d   1      -5.715   0.406   3.416  0.00  0.00    -0.259 OA
BRANCH  16  18
ATOM     18  C   UNL d   1      -4.551   0.462   5.500  0.00  0.00     0.039 A 
ATOM     19  C   UNL d   1      -5.079  -0.774   5.900  0.00  0.00     0.019 A 
ATOM     20  C   UNL d   1      -4.791  -1.289   7.167  0.00  0.00     0.025 A 
ATOM     21  C   UNL d   1      -3.970  -0.571   8.034  0.00  0.00     0.034 A 
ATOM     22  C   UNL d   1      -3.419   0.647   7.639  0.00  0.00     0.025 A 
ATOM     23 CL   UNL d   1      -3.645  -1.187   9.607  0.00  0.00    -0.084 Cl
ATOM     24  C   UNL d   1      -3.706   1.165   6.371  0.00  0.00     0.019 A 
ENDBRANCH  16  18
ENDBRANCH  15  16
ENDBRANCH  14  15
ENDBRANCH  13  14
ENDBRANCH  12  13
ENDBRANCH   6  12
BRANCH   7  25
ATOM     25  N   UNL d   1      -4.843  -4.111  -0.415  0.00  0.00    -0.116 N 
ATOM     26  O   UNL d   1      -5.534  -4.248  -1.434  0.00  0.00    -0.532 OA
ATOM     27  O   UNL d   1      -4.737  -4.957   0.484  0.00  0.00    -0.532 OA
ENDBRANCH   7  25
TORSDOF 7
