REMARK  4 active torsions:
REMARK  status: ('A' for Active; 'I' for Inactive)
REMARK    1  A    between atoms: C_11  and  N_4 
REMARK    2  A    between atoms: C_7  and  C_15 
REMARK    3  A    between atoms: C_8  and  C_11 
REMARK       I    between atoms: N_16  and  C_8 
REMARK    4  A    between atoms: N_9  and  N_16 
ROOT
ATOM      1  C   UNL d   1       3.328  -1.656  -0.159  0.00  0.00     0.254 C 
ATOM      2  N   UNL d   1       2.390  -2.654  -0.399  0.00  0.00    -0.269 N 
ATOM      3  O   UNL d   1       4.537  -1.846  -0.023  0.00  0.00    -0.270 OA
ATOM      4  H   UNL d   1       1.415  -2.436  -0.569  0.00  0.00     0.190 HD
ENDROOT
BRANCH   2   5
ATOM      5  N   UNL d   1       2.827  -3.937  -0.517  0.00  0.00    -0.308 N 
ATOM      6  C   UNL d   1       1.934  -4.859  -0.677  0.00  0.00     0.122 C 
ATOM      7  HN  UNL d   1       3.821  -4.164  -0.481  1.00  0.00     0.186 HD
BRANCH   6   8
ATOM      8  C   UNL d   1       2.319  -6.277  -0.863  0.00  0.00     0.024 A 
ATOM      9  C   UNL d   1       3.434  -6.843  -0.221  0.00  0.00     0.047 A 
ATOM     10 CL   UNL d   1       4.362  -6.030   0.992  0.00  0.00    -0.083 Cl
ATOM     11  C   UNL d   1       3.809  -8.165  -0.495  0.00  0.00     0.025 A 
ATOM     12  C   UNL d   1       3.075  -8.939  -1.389  0.00  0.00     0.003 A 
ATOM     13  C   UNL d   1       1.948  -8.398  -2.002  0.00  0.00     0.025 A 
ATOM     14  C   UNL d   1       1.568  -7.075  -1.741  0.00  0.00     0.047 A 
ATOM     15 CL   UNL d   1       0.166  -6.490  -2.572  0.00  0.00    -0.083 Cl
ENDBRANCH   6   8
ENDBRANCH   2   5
BRANCH   1  16
ATOM     16  C   UNL d   1       2.742  -0.250  -0.088  0.00  0.00     0.232 C 
BRANCH  16  17
ATOM     17  N   UNL d   1       2.664   0.443  -1.402  0.00  0.00    -0.354 N 
ATOM     18  C   UNL d   1       3.555   0.192  -2.448  0.00  0.00     0.119 A 
ATOM     19  C   UNL d   1       3.572   0.855  -3.615  0.00  0.00     0.101 A 
ATOM     20  C   UNL d   1       2.591   1.962  -3.827  0.00  0.00     0.217 A 
ATOM     21 CL   UNL d   1       4.689   0.480  -4.863  0.00  0.00    -0.079 Cl
ATOM     22  C   UNL d   1       1.744   2.312  -2.646  0.00  0.00     0.101 A 
ATOM     23  O   UNL d   1       2.489   2.551  -4.900  0.00  0.00    -0.285 OA
ATOM     24 CL   UNL d   1       0.703   3.674  -2.736  0.00  0.00    -0.079 Cl
ATOM     25  C   UNL d   1       1.831   1.553  -1.544  0.00  0.00     0.119 A 
ENDBRANCH  16  17
ENDBRANCH   1  16
TORSDOF 4
