REMARK  8 active torsions:
REMARK  status: ('A' for Active; 'I' for Inactive)
REMARK    1  A    between atoms: N_2  and  C_1 
REMARK    2  A    between atoms: C_3  and  C_1 
REMARK    3  A    between atoms: N_4  and  C_1 
REMARK    4  A    between atoms: C_6  and  C_1 
REMARK       I    between atoms: C_5  and  N_2 
REMARK    5  A    between atoms: C_7  and  N_4 
REMARK    6  A    between atoms: C_8  and  C_5 
REMARK    7  A    between atoms: O_17  and  C_6 
REMARK    8  A    between atoms: C_25  and  O_17 
ROOT
ATOM      1  C   UNL d   1       0.958   0.230  -0.148  0.00  0.00     0.297 C 
ENDROOT
BRANCH   1   2
ATOM      2  N   UNL d   1       0.780   1.130   1.003  0.00  0.00    -0.315 N 
ATOM      3  C   UNL d   1       0.333   2.418   0.981  0.00  0.00     0.254 C 
ATOM      4  O   UNL d   1       0.091   3.038  -0.044  0.00  0.00    -0.268 OA
ATOM      5  H   UNL d   1       1.178   0.777   1.861  0.00  0.00     0.166 HD
BRANCH   3   6
ATOM      6  C   UNL d   1       0.139   3.073   2.304  0.00  0.00     0.033 A 
ATOM      7  C   UNL d   1       0.267   4.462   2.376  0.00  0.00     0.041 A 
ATOM      8  C   UNL d   1       0.068   5.119   3.586  0.00  0.00     0.035 A 
ATOM      9 CL   UNL d   1       0.229   6.830   3.671  0.00  0.00    -0.084 Cl
ATOM     10  C   UNL d   1      -0.247   4.404   4.739  0.00  0.00     0.024 A 
ATOM     11  C   UNL d   1      -0.388   3.013   4.668  0.00  0.00     0.003 A 
ATOM     12  C   UNL d   1      -0.197   2.344   3.457  0.00  0.00     0.017 A 
ENDBRANCH   3   6
ENDBRANCH   1   2
BRANCH   1  13
ATOM     13  C   UNL d   1       0.662   0.651  -1.640  0.00  0.00     0.442 C 
ATOM     14  F   UNL d   1      -0.409   1.455  -1.813  0.00  0.00    -0.166 F 
ATOM     15  F   UNL d   1       1.722   1.270  -2.223  0.00  0.00    -0.166 F 
ATOM     16  F   UNL d   1       0.408  -0.450  -2.408  0.00  0.00    -0.166 F 
ENDBRANCH   1  13
BRANCH   1  17
ATOM     17  N   UNL d   1       0.265  -1.003   0.316  0.00  0.00    -0.348 N 
ATOM     18  H   UNL d   1       0.878  -1.717   0.685  0.00  0.00     0.163 HD
BRANCH  17  19
ATOM     19  C   UNL d   1      -1.098  -1.206   0.440  0.00  0.00     0.036 A 
ATOM     20  C   UNL d   1      -1.607  -2.482   0.770  0.00  0.00    -0.036 A 
ATOM     21  C   UNL d   1      -0.746  -3.702   0.986  0.00  0.00     0.050 C 
ATOM     22  C   UNL d   1      -3.003  -2.684   0.836  0.00  0.00     0.009 A 
ATOM     23  C   UNL d   1      -3.897  -1.652   0.607  0.00  0.00     0.001 A 
ATOM     24  C   UNL d   1      -3.409  -0.398   0.280  0.00  0.00     0.002 A 
ATOM     25  C   UNL d   1      -2.035  -0.187   0.187  0.00  0.00     0.030 A 
ENDBRANCH  17  19
ENDBRANCH   1  17
BRANCH   1  26
ATOM     26  C   UNL d   1       2.486  -0.094  -0.194  0.00  0.00     0.318 C 
ATOM     27  O   UNL d   1       3.326   0.397   0.558  0.00  0.00    -0.260 OA
BRANCH  26  28
ATOM     28  O   UNL d   1       2.767  -1.087  -1.090  0.00  0.00    -0.318 OA
BRANCH  28  29
ATOM     29  C   UNL d   1       4.148  -1.460  -1.230  0.00  0.00     0.174 C 
ATOM     30  C   UNL d   1       4.874  -0.482  -2.136  0.00  0.00     0.034 C 
ENDBRANCH  28  29
ENDBRANCH  26  28
ENDBRANCH   1  26
TORSDOF 8
