REMARK  6 active torsions:
REMARK  status: ('A' for Active; 'I' for Inactive)
REMARK    1  A    between atoms: C_17  and  N_1 
REMARK    2  A    between atoms: S_13  and  C_2 
REMARK    3  A    between atoms: O_22  and  C_3 
REMARK    4  A    between atoms: C_8  and  C_9 
REMARK    5  A    between atoms: C_12  and  C_18 
REMARK    6  A    between atoms: C_18  and  S_13 
ROOT
ATOM      1  N   UNL d   1      -0.281  -1.338   0.015  0.00  0.00    -0.255 N 
ATOM      2  C   UNL d   1       0.962  -0.719   0.113  0.00  0.00     0.169 A 
ATOM      3  C   UNL d   1      -1.164  -0.258  -0.029  0.00  0.00     0.245 A 
ATOM      4  N   UNL d   1       0.829   0.588   0.151  0.00  0.00    -0.276 N 
ATOM      5  HN  UNL d   1       1.585   1.267   0.240  1.00  0.00     0.189 HD
ATOM      6  N   UNL d   1      -0.511   0.876   0.050  0.00  0.00    -0.263 N 
ATOM      7  HN  UNL d   1      -0.925   1.808   0.039  1.00  0.00     0.190 HD
ENDROOT
BRANCH   2   8
ATOM      8  S   UNL d   1       2.494  -1.514  -0.098  0.00  0.00    -0.086 SA
BRANCH   8   9
ATOM      9  C   UNL d   1       3.402  -0.980   1.389  0.00  0.00     0.141 C 
BRANCH   9  10
ATOM     10  C   UNL d   1       2.942  -1.614   2.690  0.00  0.00     0.040 A 
ATOM     11  N   UNL d   1       1.595  -1.667   2.909  0.00  0.00    -0.366 N 
ATOM     12  C   UNL d   1       1.139  -2.216   4.058  0.00  0.00     0.104 A 
ATOM     13  HN  UNL d   1       0.943  -1.299   2.216  1.00  0.00     0.165 HD
ATOM     14  C   UNL d   1       1.962  -2.716   5.049  0.00  0.00     0.064 A 
ATOM     15  C   UNL d   1       3.341  -2.628   4.841  0.00  0.00     0.043 A 
ATOM     16  C   UNL d   1       3.841  -2.068   3.660  0.00  0.00     0.058 A 
ATOM     17 CL   UNL d   1       5.553  -1.970   3.486  0.00  0.00    -0.082 Cl
BRANCH  14  18
ATOM     18  C   UNL d   1       1.351  -3.319   6.274  0.00  0.00     0.418 C 
ATOM     19  F   UNL d   1       2.267  -3.715   7.199  0.00  0.00    -0.166 F 
ATOM     20  F   UNL d   1       0.514  -2.460   6.917  0.00  0.00    -0.166 F 
ATOM     21  F   UNL d   1       0.607  -4.422   5.989  0.00  0.00    -0.166 F 
ENDBRANCH  14  18
ENDBRANCH   9  10
ENDBRANCH   8   9
ENDBRANCH   2   8
BRANCH   1  22
ATOM     22  C   UNL d   1      -0.608  -2.727  -0.032  0.00  0.00     0.045 A 
ATOM     23  C   UNL d   1       0.168  -3.665   0.659  0.00  0.00     0.030 A 
ATOM     24  C   UNL d   1      -0.148  -5.024   0.632  0.00  0.00     0.002 A 
ATOM     25  C   UNL d   1      -1.246  -5.464  -0.093  0.00  0.00     0.000 A 
ATOM     26  C   UNL d   1      -2.028  -4.544  -0.789  0.00  0.00     0.002 A 
ATOM     27  C   UNL d   1      -1.715  -3.180  -0.762  0.00  0.00     0.030 A 
ENDBRANCH   1  22
BRANCH   3  28
ATOM     28  O   UNL d   1      -2.489  -0.309  -0.048  0.00  0.00    -0.331 OA
ATOM     29  H   UNL d   1      -2.772  -1.163   0.312  0.00  0.00     0.221 HD
ENDBRANCH   3  28
TORSDOF 6
