REMARK  2 active torsions:
REMARK  status: ('A' for Active; 'I' for Inactive)
REMARK    1  A    between atoms: C_2  and  C_1 
REMARK    2  A    between atoms: N_11  and  C_6 
ROOT
ATOM      1  C   UNL d   1       2.077  -2.432  -0.023  0.00  0.00     0.071 C 
ATOM      2  C   UNL d   1       1.137  -3.397   0.095  0.00  0.00     0.108 C 
ATOM      3  C   UNL d   1       1.695  -1.062  -0.158  0.00  0.00     0.101 C 
ATOM      4  N   UNL d   1       1.391   0.057  -0.244  0.00  0.00    -0.191 NA
ENDROOT
BRANCH   1   5
ATOM      5  C   UNL d   1       3.499  -2.728  -0.028  0.00  0.00     0.004 A 
ATOM      6  C   UNL d   1       4.569  -1.936   0.566  0.00  0.00    -0.005 A 
ATOM      7  C   UNL d   1       5.822  -2.518   0.321  0.00  0.00     0.016 A 
ATOM      8  C   UNL d   1       4.560  -0.726   1.316  0.00  0.00     0.037 A 
ATOM      9  C   UNL d   1       7.024  -1.936   0.775  0.00  0.00     0.021 A 
ATOM     10  S   UNL d   1       5.686  -3.978  -0.575  0.00  0.00    -0.100 SA
ATOM     11  C   UNL d   1       6.975  -0.740   1.489  0.00  0.00     0.025 A 
ATOM     12  C   UNL d   1       5.754  -0.144   1.756  0.00  0.00     0.035 A 
ATOM     13 CL   UNL d   1       5.706   1.334   2.638  0.00  0.00    -0.084 Cl
ATOM     14  C   UNL d   1       3.995  -3.845  -0.672  0.00  0.00     0.064 A 
ENDBRANCH   1   5
BRANCH   2  15
ATOM     15  N   UNL d   1      -0.256  -3.411   0.036  0.00  0.00    -0.397 N 
ATOM     16  C   UNL d   1      -1.083  -2.349  -0.542  0.00  0.00     0.148 C 
ATOM     17  C   UNL d   1      -1.032  -4.521   0.598  0.00  0.00     0.148 C 
ENDBRANCH   2  15
TORSDOF 2
