REMARK  5 active torsions:
REMARK  status: ('A' for Active; 'I' for Inactive)
REMARK    1  A    between atoms: C_9  and  C_1 
REMARK    2  A    between atoms: N_6  and  C_2 
REMARK       I    between atoms: C_7  and  N_6 
REMARK       I    between atoms: N_12  and  C_7 
REMARK    3  A    between atoms: C_10  and  O_13 
REMARK    4  A    between atoms: C_21  and  N_12 
REMARK    5  A    between atoms: O_13  and  C_22 
ROOT
ATOM      1  N   UNL d   1       2.302  -1.204  -0.061  0.00  0.00    -0.293 N 
ATOM      2  C   UNL d   1       3.604  -0.610   0.026  0.00  0.00     0.326 C 
ATOM      3  N   UNL d   1       3.510   0.756   0.070  0.00  0.00    -0.309 N 
ATOM      4  O   UNL d   1       4.603  -1.297   0.053  0.00  0.00    -0.247 OA
ATOM      5  H   UNL d   1       1.485  -0.617  -0.006  0.00  0.00     0.172 HD
ATOM      6  H   UNL d   1       2.599   1.185   0.045  0.00  0.00     0.170 HD
ENDROOT
BRANCH   1   7
ATOM      7  C   UNL d   1       2.113  -2.571  -0.265  0.00  0.00     0.126 A 
ATOM      8  C   UNL d   1       3.054  -3.557  -0.431  0.00  0.00     0.082 A 
ATOM      9  C   UNL d   1       2.335  -4.741  -0.703  0.00  0.00     0.068 A 
ATOM     10  N   UNL d   1       1.014  -4.527  -0.662  0.00  0.00    -0.298 N 
ATOM     11  N   UNL d   1       0.906  -3.219  -0.371  0.00  0.00    -0.285 N 
ATOM     12  HN  UNL d   1       0.263  -5.200  -0.816  1.00  0.00     0.187 HD
ATOM     13  H   UNL d   1      -0.026  -2.834  -0.279  0.00  0.00     0.188 HD
BRANCH   9  14
ATOM     14  C   UNL d   1       2.950  -6.071  -1.029  0.00  0.00     0.033 A 
ATOM     15  S   UNL d   1       4.639  -6.354  -1.057  0.00  0.00    -0.100 SA
ATOM     16  C   UNL d   1       4.426  -7.983  -1.516  0.00  0.00     0.050 A 
ATOM     17  C   UNL d   1       3.093  -8.311  -1.646  0.00  0.00     0.008 A 
ATOM     18  C   UNL d   1       2.238  -7.204  -1.359  0.00  0.00     0.021 A 
ENDBRANCH   9  14
ENDBRANCH   1   7
BRANCH   3  19
ATOM     19  C   UNL d   1       4.603   1.653   0.124  0.00  0.00     0.036 A 
ATOM     20  C   UNL d   1       5.947   1.264   0.119  0.00  0.00     0.032 A 
ATOM     21  C   UNL d   1       6.979   2.215   0.182  0.00  0.00     0.039 A 
ATOM     22  C   UNL d   1       6.680   3.572   0.221  0.00  0.00     0.078 A 
ATOM     23  C   UNL d   1       5.339   3.962   0.243  0.00  0.00     0.039 A 
ATOM     24  C   UNL d   1       4.308   3.017   0.190  0.00  0.00     0.032 A 
BRANCH  22  25
ATOM     25  O   UNL d   1       7.560   4.610   0.232  0.00  0.00    -0.255 OA
BRANCH  25  26
ATOM     26  C   UNL d   1       8.935   4.373  -0.025  0.00  0.00     0.530 C 
ATOM     27  F   UNL d   1       9.134   3.424  -0.963  0.00  0.00    -0.144 F 
ATOM     28  F   UNL d   1       9.484   5.521  -0.480  0.00  0.00    -0.144 F 
ATOM     29  F   UNL d   1       9.568   4.020   1.113  0.00  0.00    -0.144 F 
ENDBRANCH  25  26
ENDBRANCH  22  25
ENDBRANCH   3  19
TORSDOF 5
