REMARK  8 active torsions:
REMARK  status: ('A' for Active; 'I' for Inactive)
REMARK    1  A    between atoms: C_2  and  C_1 
REMARK       I    between atoms: C_3  and  N_7 
REMARK       I    between atoms: N_12  and  C_3 
REMARK    2  A    between atoms: C_4  and  O_16 
REMARK    3  A    between atoms: N_7  and  C_11 
REMARK    4  A    between atoms: C_18  and  C_8 
REMARK    5  A    between atoms: C_25  and  N_12 
REMARK    6  A    between atoms: S_14  and  C_18 
REMARK    7  A    between atoms: C_15  and  S_14 
REMARK    8  A    between atoms: O_16  and  C_26 
ROOT
ATOM      1  C   UNL d   1       0.718   9.764  -0.799  0.00  0.00     0.053 C 
ATOM      2  C   UNL d   1       1.157   8.667  -1.558  0.00  0.00     0.027 C 
ATOM      3  C   UNL d   1       0.577  11.010  -1.423  0.00  0.00     0.031 C 
ATOM      4  C   UNL d   1       1.172   8.774  -2.956  0.00  0.00     0.021 C 
ATOM      5  C   UNL d   1       0.610  11.115  -2.811  0.00  0.00     0.002 C 
ATOM      6  C   UNL d   1       0.857   9.983  -3.580  0.00  0.00     0.002 C 
ENDROOT
BRANCH   1   7
ATOM      7  N   UNL d   1       0.370   9.570   0.558  0.00  0.00    -0.307 N 
ATOM      8  C   UNL d   1      -0.793   9.953   1.216  0.00  0.00     0.325 C 
ATOM      9  N   UNL d   1      -1.633  10.762   0.506  0.00  0.00    -0.309 N 
ATOM     10  O   UNL d   1      -1.005   9.534   2.352  0.00  0.00    -0.247 OA
ATOM     11  H   UNL d   1      -1.333  10.996  -0.420  0.00  0.00     0.170 HD
ATOM     12  H   UNL d   1       0.817   8.771   1.010  0.00  0.00     0.170 HD
BRANCH   9  13
ATOM     13  C   UNL d   1      -2.913  11.246   0.796  0.00  0.00     0.036 A 
ATOM     14  C   UNL d   1      -3.740  10.749   1.794  0.00  0.00     0.032 A 
ATOM     15  C   UNL d   1      -5.061  11.213   1.881  0.00  0.00     0.039 A 
ATOM     16  C   UNL d   1      -5.549  12.181   0.992  0.00  0.00     0.078 A 
ATOM     17  C   UNL d   1      -4.686  12.747   0.063  0.00  0.00     0.039 A 
ATOM     18  C   UNL d   1      -3.385  12.258  -0.051  0.00  0.00     0.032 A 
BRANCH  16  19
ATOM     19  O   UNL d   1      -6.876  12.478   1.120  0.00  0.00    -0.255 OA
BRANCH  19  20
ATOM     20  C   UNL d   1      -7.524  13.006  -0.030  0.00  0.00     0.530 C 
ATOM     21  F   UNL d   1      -7.089  12.440  -1.178  0.00  0.00    -0.144 F 
ATOM     22  F   UNL d   1      -8.850  12.761   0.071  0.00  0.00    -0.144 F 
ATOM     23  F   UNL d   1      -7.344  14.342  -0.098  0.00  0.00    -0.144 F 
ENDBRANCH  19  20
ENDBRANCH  16  19
ENDBRANCH   9  13
ENDBRANCH   1   7
BRANCH   2  24
ATOM     24  S   UNL d   1       1.609   7.099  -0.819  0.00  0.00    -0.122 SA
BRANCH  24  25
ATOM     25  C   UNL d   1       3.409   7.382  -0.598  0.00  0.00     0.138 C 
BRANCH  25  26
ATOM     26  C   UNL d   1       3.838   7.998   0.724  0.00  0.00     0.040 A 
ATOM     27  N   UNL d   1       2.883   8.545   1.526  0.00  0.00    -0.366 N 
ATOM     28  C   UNL d   1       3.265   9.124   2.690  0.00  0.00     0.104 A 
ATOM     29  HN  UNL d   1       1.899   8.518   1.257  1.00  0.00     0.165 HD
ATOM     30  C   UNL d   1       4.578   9.189   3.124  0.00  0.00     0.064 A 
ATOM     31  C   UNL d   1       5.557   8.634   2.296  0.00  0.00     0.043 A 
ATOM     32  C   UNL d   1       5.191   8.039   1.084  0.00  0.00     0.058 A 
ATOM     33 CL   UNL d   1       6.441   7.386   0.091  0.00  0.00    -0.082 Cl
BRANCH  30  34
ATOM     34  C   UNL d   1       4.900   9.855   4.425  0.00  0.00     0.418 C 
ATOM     35  F   UNL d   1       6.184   9.651   4.830  0.00  0.00    -0.166 F 
ATOM     36  F   UNL d   1       4.115   9.420   5.447  0.00  0.00    -0.166 F 
ATOM     37  F   UNL d   1       4.736  11.204   4.372  0.00  0.00    -0.166 F 
ENDBRANCH  30  34
ENDBRANCH  25  26
ENDBRANCH  24  25
ENDBRANCH   2  24
TORSDOF 8
