REMARK  3 active torsions:
REMARK  status: ('A' for Active; 'I' for Inactive)
REMARK    1  A    between atoms: C_14  and  C_4 
REMARK    2  A    between atoms: C_9  and  C_15 
REMARK    3  A    between atoms: C_17  and  C_10 
ROOT
ATOM      1  N   UNL d   1      -0.175  -0.341  -0.780  0.00  0.00    -0.318 N 
ATOM      2  HN  UNL d   1      -0.641  -0.691  -1.617  1.00  0.00     0.169 HD
ATOM      3  C   UNL d   1       0.631  -0.975   0.038  0.00  0.00     0.183 A 
ATOM      4  C   UNL d   1      -0.232   0.917  -0.221  0.00  0.00     0.138 A 
ATOM      5  N   UNL d   1       0.520   1.060   0.882  0.00  0.00    -0.242 N 
ATOM      6  HN  UNL d   1       0.647   1.895   1.454  1.00  0.00     0.196 HD
ATOM      7  O   UNL d   1       1.083  -0.194   1.060  0.00  0.00    -0.217 OA
ATOM      8  C   UNL d   1       1.103  -2.342   0.012  0.00  0.00     0.034 A 
ATOM      9  N   UNL d   1       1.134  -4.483  -1.128  0.00  0.00    -0.373 N 
ATOM     10  HN  UNL d   1       0.828  -5.081  -1.895  1.00  0.00     0.164 HD
ATOM     11  C   UNL d   1       1.969  -2.848   0.991  0.00  0.00     0.039 A 
ATOM     12  C   UNL d   1       2.420  -4.162   0.902  0.00  0.00     0.034 A 
ATOM     13  C   UNL d   1       0.720  -3.198  -1.017  0.00  0.00     0.103 A 
ATOM     14  C   UNL d   1       1.976  -4.931  -0.166  0.00  0.00     0.108 A 
ENDROOT
BRANCH  12  15
ATOM     15  C   UNL d   1       3.322  -4.716   1.864  0.00  0.00    -0.060 C 
ATOM     16  C   UNL d   1       4.083  -5.247   2.623  0.00  0.00    -0.061 C 
BRANCH  16  17
ATOM     17  C   UNL d   1       4.986  -5.948   3.486  0.00  0.00     0.018 A 
ATOM     18  C   UNL d   1       5.974  -6.770   2.937  0.00  0.00     0.020 A 
ATOM     19  C   UNL d   1       6.830  -7.489   3.773  0.00  0.00     0.001 A 
ATOM     20  C   UNL d   1       6.702  -7.383   5.158  0.00  0.00     0.000 A 
ATOM     21  C   UNL d   1       5.724  -6.554   5.707  0.00  0.00     0.001 A 
ATOM     22  C   UNL d   1       4.865  -5.837   4.872  0.00  0.00     0.020 A 
ENDBRANCH  16  17
ENDBRANCH  12  15
BRANCH   4  23
ATOM     23  C   UNL d   1      -1.072   1.970  -0.761  0.00  0.00     0.010 A 
ATOM     24  C   UNL d   1      -1.865   1.733  -1.892  0.00  0.00     0.015 A 
ATOM     25  C   UNL d   1      -2.714   2.728  -2.377  0.00  0.00     0.001 A 
ATOM     26  C   UNL d   1      -2.782   3.961  -1.730  0.00  0.00     0.000 A 
ATOM     27  C   UNL d   1      -1.994   4.208  -0.607  0.00  0.00     0.001 A 
ATOM     28  C   UNL d   1      -1.128   3.223  -0.135  0.00  0.00     0.015 A 
ENDBRANCH   4  23
TORSDOF 3
