REMARK  4 active torsions:
REMARK  status: ('A' for Active; 'I' for Inactive)
REMARK    1  A    between atoms: C_13  and  O_18 
REMARK    2  A    between atoms: C_20  and  N_14 
REMARK    3  A    between atoms: O_18  and  C_21 
REMARK    4  A    between atoms: C_21  and  C_20 
ROOT
ATOM      1  C   UNL d   1      -1.018   0.664   0.016  0.00  0.00     0.160 A 
ATOM      2  C   UNL d   1      -0.962  -0.693   0.037  0.00  0.00     0.162 A 
ATOM      3  N   UNL d   1       0.130   1.421   0.009  0.00  0.00    -0.287 N 
ATOM      4  N   UNL d   1       1.379  -0.626   0.033  0.00  0.00    -0.269 N 
ATOM      5  C   UNL d   1       1.376   0.782   0.019  0.00  0.00     0.332 A 
ATOM      6  C   UNL d   1       0.241  -1.437   0.041  0.00  0.00     0.282 A 
ATOM      7  N   UNL d   1      -2.308   1.106  -0.019  0.00  0.00    -0.174 N 
ATOM      8  HN  UNL d   1      -2.633   2.072  -0.044  1.00  0.00     0.186 HD
ATOM      9  N   UNL d   1      -2.255  -1.111   0.034  0.00  0.00    -0.182 N 
ATOM     10  C   UNL d   1      -3.042   0.013  -0.012  0.00  0.00     0.680 A 
ATOM     11  O   UNL d   1       2.425   1.432   0.015  0.00  0.00    -0.246 OA
ATOM     12  O   UNL d   1       0.259  -2.665   0.050  0.00  0.00    -0.265 OA
ATOM     13  N   UNL d   1      -4.382  -0.060  -0.140  0.00  0.00    -0.224 N 
ATOM     14  C   UNL d   1       0.095   2.868  -0.000  0.00  0.00     0.163 C 
ATOM     15  C   UNL d   1       2.652  -1.319   0.053  0.00  0.00     0.164 C 
ATOM     16  H   UNL d   1      -2.572  -2.068  -0.001  0.00  0.00     0.184 HD
ATOM     17  H   UNL d   1      -4.836   0.852  -0.180  0.00  0.00     0.177 HD
ENDROOT
BRANCH  13  18
ATOM     18  C   UNL d   1      -5.179  -1.044   0.593  0.00  0.00     0.165 C 
BRANCH  18  19
ATOM     19  C   UNL d   1      -6.551  -1.189  -0.079  0.00  0.00     0.198 C 
BRANCH  19  20
ATOM     20  O   UNL d   1      -7.300   0.037  -0.003  0.00  0.00    -0.320 OA
BRANCH  20  21
ATOM     21  C   UNL d   1      -7.936   0.254   1.179  0.00  0.00     0.254 C 
ATOM     22  O   UNL d   1      -7.908  -0.502   2.141  0.00  0.00    -0.266 OA
ATOM     23  C   UNL d   1      -8.672   1.558   1.158  0.00  0.00     0.126 C 
ENDBRANCH  20  21
ENDBRANCH  19  20
ENDBRANCH  18  19
ENDBRANCH  13  18
TORSDOF 4
