REMARK  3 active torsions:
REMARK  status: ('A' for Active; 'I' for Inactive)
REMARK    1  A    between atoms: N_2  and  S_1 
REMARK    2  A    between atoms: C_7  and  S_1 
REMARK    3  A    between atoms: C_4  and  N_3 
ROOT
ATOM      1  C   UNL d   1       2.835  -3.297   3.515  0.00  0.00     0.103 A 
ATOM      2  N   UNL d   1       3.228  -4.433   2.904  0.00  0.00    -0.351 N 
ATOM      3  HN  UNL d   1       3.059  -4.579   1.909  1.00  0.00     0.166 HD
ATOM      4  N   UNL d   1       5.199  -7.177   6.347  0.00  0.00    -0.191 NA
ATOM      5  C   UNL d   1       4.703  -6.318   5.744  0.00  0.00     0.101 C 
ATOM      6  C   UNL d   1       4.085  -5.261   5.012  0.00  0.00     0.060 A 
ATOM      7  C   UNL d   1       3.056  -3.102   4.879  0.00  0.00     0.050 A 
ATOM      8  C   UNL d   1       3.856  -5.377   3.651  0.00  0.00     0.112 A 
ATOM      9  C   UNL d   1       3.672  -4.095   5.639  0.00  0.00     0.028 A 
ENDROOT
BRANCH   1  10
ATOM     10  N   UNL d   1       2.079  -2.364   2.831  0.00  0.00    -0.365 N 
ATOM     11  C   UNL d   1       1.332  -2.821   1.654  0.00  0.00     0.140 C 
ATOM     12  C   UNL d   1       0.095  -1.913   1.546  0.00  0.00     0.127 C 
ATOM     13  N   UNL d   1       0.488  -0.473   1.386  0.00  0.00    -0.203 NA
ATOM     14  C   UNL d   1       1.401  -0.025   2.497  0.00  0.00     0.127 C 
ATOM     15  C   UNL d   1       2.596  -0.991   2.708  0.00  0.00     0.140 C 
BRANCH  13  16
ATOM     16  S   UNL d   1       0.946  -0.024  -0.187  0.00  0.00     0.243 S 
ATOM     17  O   UNL d   1       0.176  -0.797  -1.140  0.00  0.00    -0.206 OA
ATOM     18  O   UNL d   1       2.389   0.033  -0.243  0.00  0.00    -0.206 OA
BRANCH  16  19
ATOM     19  C   UNL d   1       0.318   1.636  -0.270  0.00  0.00     0.074 A 
ATOM     20  C   UNL d   1       1.175   2.699  -0.576  0.00  0.00     0.026 A 
ATOM     21  C   UNL d   1       0.659   3.994  -0.634  0.00  0.00     0.025 A 
ATOM     22  C   UNL d   1      -0.700   4.214  -0.389  0.00  0.00     0.034 A 
ATOM     23  C   UNL d   1      -1.553   3.151  -0.100  0.00  0.00     0.025 A 
ATOM     24 CL   UNL d   1      -1.325   5.816  -0.449  0.00  0.00    -0.084 Cl
ATOM     25  C   UNL d   1      -1.045   1.853  -0.041  0.00  0.00     0.026 A 
ENDBRANCH  16  19
ENDBRANCH  13  16
ENDBRANCH   1  10
TORSDOF 3
