REMARK  8 active torsions:
REMARK  status: ('A' for Active; 'I' for Inactive)
REMARK    1  A    between atoms: S_4  and  C_1 
REMARK    2  A    between atoms: S_5  and  C_1 
REMARK    3  A    between atoms: C_2  and  C_8 
REMARK    4  A    between atoms: O_11  and  C_2 
REMARK    5  A    between atoms: C_3  and  C_9 
REMARK    6  A    between atoms: O_10  and  C_3 
REMARK    7  A    between atoms: C_8  and  S_4 
REMARK    8  A    between atoms: C_9  and  S_5 
ROOT
ATOM      1  C   UNL d   1       1.795   0.096  -0.036  0.00  0.00     0.057 C 
ATOM      2  C   UNL d   1       1.026  -1.198  -0.427  0.00  0.00     0.032 C 
ATOM      3  C   UNL d   1       0.869   1.211   0.504  0.00  0.00     0.032 C 
ATOM      4  C   UNL d   1      -0.253  -1.502   0.377  0.00  0.00     0.002 C 
ATOM      5  C   UNL d   1      -0.371   1.492  -0.354  0.00  0.00     0.002 C 
ATOM      6  C   UNL d   1      -1.500  -0.810  -0.181  0.00  0.00     0.000 C 
ATOM      7  C   UNL d   1      -1.589   0.689   0.084  0.00  0.00     0.000 C 
ENDROOT
BRANCH   1   8
ATOM      8  S   UNL d   1       3.075  -0.321   1.255  0.00  0.00    -0.138 SA
BRANCH   8   9
ATOM      9  C   UNL d   1       3.856   1.319   1.581  0.00  0.00     0.185 C 
BRANCH   9  10
ATOM     10  C   UNL d   1       4.999   1.220   2.576  0.00  0.00     0.149 C 
ATOM     11  O   UNL d   1       5.635   2.197   2.955  0.00  0.00    -0.649 OA
BRANCH  10  12
ATOM     12  O   UNL d   1       5.277  -0.026   3.018  0.00  0.00    -0.776 OA
ATOM     13  H   UNL d   1       4.663  -0.678   2.614  0.00  0.00     0.167 HD
ENDBRANCH  10  12
ENDBRANCH   9  10
ENDBRANCH   8   9
ENDBRANCH   1   8
BRANCH   1  14
ATOM     14  S   UNL d   1       2.627   0.830  -1.526  0.00  0.00    -0.138 SA
BRANCH  14  15
ATOM     15  C   UNL d   1       3.804  -0.468  -2.066  0.00  0.00     0.185 C 
BRANCH  15  16
ATOM     16  C   UNL d   1       4.590   0.023  -3.276  0.00  0.00     0.149 C 
ATOM     17  O   UNL d   1       5.437  -0.657  -3.843  0.00  0.00    -0.649 OA
BRANCH  16  18
ATOM     18  O   UNL d   1       4.298   1.279  -3.688  0.00  0.00    -0.776 OA
ATOM     19  H   UNL d   1       3.598   1.670  -3.118  0.00  0.00     0.167 HD
ENDBRANCH  16  18
ENDBRANCH  15  16
ENDBRANCH  14  15
ENDBRANCH   1  14
TORSDOF 8
