REMARK  8 active torsions:
REMARK  status: ('A' for Active; 'I' for Inactive)
REMARK    1  A    between atoms: C_2  and  C_1 
REMARK       I    between atoms: N_4  and  C_2 
REMARK    2  A    between atoms: N_3  and  C_7 
REMARK    3  A    between atoms: O_9  and  C_6 
REMARK    4  A    between atoms: C_8  and  C_15 
REMARK    5  A    between atoms: O_22  and  C_8 
REMARK    6  A    between atoms: C_21  and  O_9 
REMARK    7  A    between atoms: C_29  and  O_22 
REMARK    8  A    between atoms: O_28  and  C_23 
ROOT
ATOM      1  C   UNL d   1       1.403  -0.420   0.044  0.00  0.00     0.068 A 
ATOM      2  C   UNL d   1       0.438  -1.405   0.293  0.00  0.00     0.056 A 
ATOM      3  C   UNL d   1       0.918   0.861  -0.340  0.00  0.00     0.091 A 
ATOM      4  C   UNL d   1      -0.940  -1.157   0.132  0.00  0.00     0.104 A 
ATOM      5  C   UNL d   1      -0.471   1.115  -0.409  0.00  0.00     0.041 A 
ATOM      6  C   UNL d   1      -1.406   0.115  -0.186  0.00  0.00     0.039 A 
ENDROOT
BRANCH   1   7
ATOM      7  C   UNL d   1       2.856  -0.670   0.405  0.00  0.00     0.256 C 
ATOM      8  N   UNL d   1       3.563  -1.893   0.136  0.00  0.00    -0.348 N 
ATOM      9  C   UNL d   1       4.892  -1.978   0.756  0.00  0.00     0.127 C 
ATOM     10  C   UNL d   1       2.933  -3.179  -0.150  0.00  0.00     0.127 C 
ATOM     11  C   UNL d   1       5.829  -3.040   0.170  0.00  0.00     0.034 C 
ATOM     12  C   UNL d   1       5.210  -4.420  -0.059  0.00  0.00     0.088 C 
ATOM     13  C   UNL d   1       3.845  -4.257  -0.742  0.00  0.00     0.034 C 
ATOM     14  O   UNL d   1       3.418   0.250   1.002  0.00  0.00    -0.267 OA
BRANCH  12  15
ATOM     15  C   UNL d   1       5.178  -5.422   1.108  0.00  0.00     0.263 C 
ATOM     16  O   UNL d   1       4.280  -6.240   1.257  0.00  0.00    -0.265 OA
BRANCH  15  17
ATOM     17  O   UNL d   1       6.321  -5.408   1.856  0.00  0.00    -0.322 OA
BRANCH  17  18
ATOM     18  C   UNL d   1       6.399  -6.378   2.929  0.00  0.00     0.174 C 
ATOM     19  C   UNL d   1       7.218  -7.600   2.533  0.00  0.00     0.034 C 
ENDBRANCH  17  18
ENDBRANCH  15  17
ENDBRANCH  12  15
ENDBRANCH   1   7
BRANCH   3  20
ATOM     20  O   UNL d   1       1.608   2.031  -0.539  0.00  0.00    -0.310 OA
BRANCH  20  21
ATOM     21  C   UNL d   1       2.776   2.106  -1.243  0.00  0.00     0.076 C 
ATOM     22  C   UNL d   1       3.258   1.177  -2.160  0.00  0.00     0.040 C 
ATOM     23  C   UNL d   1       4.558   1.319  -2.664  0.00  0.00     0.039 C 
ATOM     24  C   UNL d   1       5.348   2.404  -2.274  0.00  0.00     0.068 C 
ATOM     25  C   UNL d   1       4.795   3.407  -1.482  0.00  0.00     0.039 C 
ATOM     26  C   UNL d   1       3.511   3.261  -0.973  0.00  0.00     0.040 C 
BRANCH  24  27
ATOM     27  O   UNL d   1       6.654   2.611  -2.611  0.00  0.00    -0.356 OA
ATOM     28  C   UNL d   1       7.423   1.465  -2.953  0.00  0.00     0.210 C 
ENDBRANCH  24  27
ENDBRANCH  20  21
ENDBRANCH   3  20
BRANCH   4  29
ATOM     29  N   UNL d   1      -1.908  -2.248   0.296  0.00  0.00    -0.116 N 
ATOM     30  O   UNL d   1      -1.444  -3.397   0.455  0.00  0.00    -0.532 OA
ATOM     31  O   UNL d   1      -3.108  -1.978   0.248  0.00  0.00    -0.532 OA
ENDBRANCH   4  29
TORSDOF 8
