REMARK  4 active torsions:
REMARK  status: ('A' for Active; 'I' for Inactive)
REMARK    1  A    between atoms: S_11  and  C_1 
REMARK    2  A    between atoms: C_6  and  C_3 
REMARK    3  A    between atoms: C_9  and  C_7 
REMARK    4  A    between atoms: C_20  and  S_11 
ROOT
ATOM      1  C   UNL d   1      -0.200  -1.068  -0.138  0.00  0.00     0.092 A 
ATOM      2  C   UNL d   1       0.559   0.106  -0.165  0.00  0.00     0.093 A 
ATOM      3  C   UNL d   1      -0.114   1.335  -0.072  0.00  0.00     0.073 A 
ATOM      4  N   UNL d   1      -1.558  -1.065  -0.092  0.00  0.00    -0.348 N 
ATOM      5  HN  UNL d   1      -2.078  -1.942  -0.061  1.00  0.00     0.166 HD
ATOM      6  C   UNL d   1      -2.205   0.121  -0.087  0.00  0.00     0.051 A 
ATOM      7  C   UNL d   1      -1.521   1.325  -0.031  0.00  0.00     0.048 A 
ATOM      8  C   UNL d   1       1.983   0.046  -0.336  0.00  0.00     0.103 C 
ATOM      9  N   UNL d   1       3.129   0.011  -0.514  0.00  0.00    -0.191 NA
ENDROOT
BRANCH   1  10
ATOM     10  S   UNL d   1       0.591  -2.683  -0.117  0.00  0.00    -0.107 SA
BRANCH  10  11
ATOM     11  C   UNL d   1      -0.753  -3.799  -0.676  0.00  0.00     0.045 C 
ATOM     12  C   UNL d   1      -1.065  -3.575  -2.153  0.00  0.00     0.021 C 
ATOM     13  C   UNL d   1      -0.286  -5.239  -0.453  0.00  0.00     0.021 C 
ENDBRANCH  10  11
ENDBRANCH   1  10
BRANCH   3  14
ATOM     14  C   UNL d   1       0.565   2.679  -0.038  0.00  0.00     0.419 C 
ATOM     15  F   UNL d   1       1.920   2.650  -0.043  0.00  0.00    -0.166 F 
ATOM     16  F   UNL d   1       0.202   3.453  -1.096  0.00  0.00    -0.166 F 
ATOM     17  F   UNL d   1       0.217   3.385   1.075  0.00  0.00    -0.166 F 
ENDBRANCH   3  14
BRANCH   6  18
ATOM     18  C   UNL d   1      -3.667   0.024  -0.214  0.00  0.00     0.031 A 
ATOM     19  S   UNL d   1      -4.574   1.292  -0.948  0.00  0.00    -0.100 SA
ATOM     20  C   UNL d   1      -6.041   0.432  -0.814  0.00  0.00     0.050 A 
ATOM     21  C   UNL d   1      -5.865  -0.793  -0.215  0.00  0.00     0.008 A 
ATOM     22  C   UNL d   1      -4.500  -1.028   0.128  0.00  0.00     0.021 A 
ENDBRANCH   6  18
TORSDOF 4
