REMARK  9 active torsions:
REMARK  status: ('A' for Active; 'I' for Inactive)
REMARK    1  A    between atoms: C_11  and  N_1 
REMARK    2  A    between atoms: C_16  and  C_2 
REMARK    3  A    between atoms: S_10  and  C_5 
REMARK    4  A    between atoms: C_8  and  N_12 
REMARK    5  A    between atoms: N_13  and  C_8 
REMARK    6  A    between atoms: C_9  and  C_18 
REMARK       I    between atoms: N_14  and  C_9 
REMARK    7  A    between atoms: C_18  and  S_10 
REMARK    8  A    between atoms: N_12  and  N_14 
REMARK    9  A    between atoms: C_19  and  N_13 
ROOT
ATOM      1  N   UNL d   1      -0.227  -1.345   0.018  0.00  0.00    -0.275 N 
ATOM      2  C   UNL d   1       1.037  -0.742   0.121  0.00  0.00     0.139 C 
ATOM      3  N   UNL d   1       0.868   0.550   0.346  0.00  0.00    -0.282 N 
ATOM      4  HN  UNL d   1       1.609   1.217   0.563  1.00  0.00     0.188 HD
ATOM      5  C   UNL d   1      -1.097  -0.265  -0.022  0.00  0.00     0.168 C 
ATOM      6  N   UNL d   1      -0.451   0.842   0.241  0.00  0.00    -0.278 N 
ATOM      7  HN  UNL d   1      -0.868   1.766   0.349  1.00  0.00     0.189 HD
ENDROOT
BRANCH   5   8
ATOM      8  S   UNL d   1      -2.796  -0.255  -0.353  0.00  0.00    -0.083 SA
BRANCH   8   9
ATOM      9  C   UNL d   1      -3.497   0.633   1.057  0.00  0.00     0.186 C 
BRANCH   9  10
ATOM     10  C   UNL d   1      -3.135   2.094   1.264  0.00  0.00     0.245 C 
ATOM     11  N   UNL d   1      -2.391   2.730   0.297  0.00  0.00    -0.267 N 
ATOM     12  H   UNL d   1      -1.773   2.197  -0.318  0.00  0.00     0.190 HD
ATOM     13  O   UNL d   1      -3.557   2.706   2.251  0.00  0.00    -0.271 OA
BRANCH  11  14
ATOM     14  N   UNL d   1      -2.046   4.068   0.516  0.00  0.00    -0.274 N 
ATOM     15  H   UNL d   1      -2.204   4.406   1.463  0.00  0.00     0.189 HD
BRANCH  14  16
ATOM     16  C   UNL d   1      -1.137   4.722  -0.262  0.00  0.00     0.191 C 
ATOM     17  S   UNL d   1       0.075   3.989  -1.156  0.00  0.00    -0.039 SA
BRANCH  16  18
ATOM     18  N   UNL d   1      -1.258   6.076  -0.384  0.00  0.00    -0.332 N 
ATOM     19  H   UNL d   1      -0.522   6.457  -0.972  0.00  0.00     0.168 HD
BRANCH  18  20
ATOM     20  C   UNL d   1      -2.365   6.926  -0.167  0.00  0.00     0.034 A 
ATOM     21  C   UNL d   1      -3.526   6.596   0.530  0.00  0.00     0.029 A 
ATOM     22  C   UNL d   1      -4.592   7.490   0.614  0.00  0.00     0.002 A 
ATOM     23  C   UNL d   1      -4.520   8.732  -0.019  0.00  0.00     0.000 A 
ATOM     24  C   UNL d   1      -3.366   9.080  -0.714  0.00  0.00     0.002 A 
ATOM     25  C   UNL d   1      -2.293   8.190  -0.778  0.00  0.00     0.029 A 
ENDBRANCH  18  20
ENDBRANCH  16  18
ENDBRANCH  14  16
ENDBRANCH  11  14
ENDBRANCH   9  10
ENDBRANCH   8   9
ENDBRANCH   5   8
BRANCH   1  26
ATOM     26  C   UNL d   1      -0.519  -2.742   0.045  0.00  0.00     0.043 A 
ATOM     27  C   UNL d   1       0.270  -3.593   0.838  0.00  0.00     0.030 A 
ATOM     28  C   UNL d   1       0.059  -4.972   0.827  0.00  0.00     0.002 A 
ATOM     29  C   UNL d   1      -0.965  -5.511   0.057  0.00  0.00     0.000 A 
ATOM     30  C   UNL d   1      -1.776  -4.672  -0.704  0.00  0.00     0.002 A 
ATOM     31  C   UNL d   1      -1.554  -3.291  -0.717  0.00  0.00     0.030 A 
ENDBRANCH   1  26
BRANCH   2  32
ATOM     32  C   UNL d   1       2.368  -1.354  -0.023  0.00  0.00     0.010 A 
ATOM     33  C   UNL d   1       2.619  -2.455  -0.855  0.00  0.00     0.015 A 
ATOM     34  C   UNL d   1       3.889  -3.038  -0.905  0.00  0.00     0.001 A 
ATOM     35  C   UNL d   1       4.939  -2.492  -0.172  0.00  0.00     0.000 A 
ATOM     36  C   UNL d   1       4.725  -1.355   0.602  0.00  0.00     0.001 A 
ATOM     37  C   UNL d   1       3.449  -0.792   0.675  0.00  0.00     0.015 A 
ENDBRANCH   2  32
TORSDOF 9
