REMARK  4 active torsions:
REMARK  status: ('A' for Active; 'I' for Inactive)
REMARK    1  A    between atoms: C_11  and  C_1 
REMARK       I    between atoms: C_6  and  N_13 
REMARK    2  A    between atoms: C_10  and  C_6 
REMARK    3  A    between atoms: N_13  and  N_8 
REMARK    4  A    between atoms: O_21  and  C_17 
ROOT
ATOM      1  N   UNL d   1      -4.317   1.193   0.062  0.00  0.00    -0.308 N 
ATOM      2  HN  UNL d   1      -3.984   0.303   0.434  1.00  0.00     0.186 HD
ATOM      3  C   UNL d   1      -3.487   2.094  -0.372  0.00  0.00     0.124 C 
ENDROOT
BRANCH   1   4
ATOM      4  N   UNL d   1      -5.657   1.483   0.002  0.00  0.00    -0.266 N 
ATOM      5  C   UNL d   1      -6.205   2.742   0.224  0.00  0.00     0.270 C 
ATOM      6  O   UNL d   1      -5.571   3.761   0.479  0.00  0.00    -0.266 OA
ATOM      7  H   UNL d   1      -6.250   0.674   0.162  0.00  0.00     0.190 HD
BRANCH   5   8
ATOM      8  C   UNL d   1      -7.692   2.812   0.187  0.00  0.00     0.033 A 
ATOM      9  C   UNL d   1      -8.322   3.839   0.902  0.00  0.00     0.020 A 
ATOM     10  C   UNL d   1      -9.713   3.963   0.887  0.00  0.00     0.038 A 
ATOM     11  C   UNL d   1     -10.485   3.063   0.155  0.00  0.00     0.068 A 
ATOM     12  C   UNL d   1      -9.857   2.059  -0.587  0.00  0.00     0.038 A 
ATOM     13  C   UNL d   1      -8.465   1.926  -0.571  0.00  0.00     0.020 A 
BRANCH  11  14
ATOM     14  O   UNL d   1     -11.848   3.099   0.052  0.00  0.00    -0.356 OA
ATOM     15  C   UNL d   1     -12.531   3.637   1.180  0.00  0.00     0.210 C 
ENDBRANCH  11  14
ENDBRANCH   5   8
ENDBRANCH   1   4
BRANCH   3  16
ATOM     16  C   UNL d   1      -2.015   1.938  -0.320  0.00  0.00     0.054 A 
ATOM     17  C   UNL d   1      -1.106   2.980  -0.839  0.00  0.00     0.198 A 
ATOM     18  C   UNL d   1       0.338   2.713  -0.697  0.00  0.00     0.049 A 
ATOM     19  O   UNL d   1      -1.516   4.004  -1.368  0.00  0.00    -0.286 OA
ATOM     20  C   UNL d   1       1.280   3.651  -1.129  0.00  0.00     0.018 A 
ATOM     21  C   UNL d   1       0.749   1.509  -0.129  0.00  0.00     0.089 A 
ATOM     22  C   UNL d   1       2.641   3.372  -0.994  0.00  0.00     0.001 A 
ATOM     23  C   UNL d   1       3.054   2.163  -0.430  0.00  0.00     0.003 A 
ATOM     24  C   UNL d   1       2.109   1.231   0.003  0.00  0.00     0.038 A 
ATOM     25  O   UNL d   1      -0.132   0.556   0.318  0.00  0.00    -0.321 OA
ATOM     26  C   UNL d   1      -1.475   0.831   0.206  0.00  0.00     0.159 A 
ENDBRANCH   3  16
TORSDOF 4
