REMARK  3 active torsions:
REMARK  status: ('A' for Active; 'I' for Inactive)
REMARK    1  A    between atoms: N_6  and  C_4 
REMARK    2  A    between atoms: C_7  and  N_6 
REMARK    3  A    between atoms: C_13  and  C_8 
ROOT
ATOM      1  N   UNL d   1      -0.200   2.369  -0.318  0.00  0.00    -0.195 NA
ATOM      2  C   UNL d   1      -0.195   1.314   0.170  0.00  0.00     0.090 C 
ATOM      3  C   UNL d   1      -0.208  -0.064   0.746  0.00  0.00     0.120 C 
ATOM      4  C   UNL d   1       1.174  -0.709   0.479  0.00  0.00     0.046 C 
ATOM      5  C   UNL d   1      -1.197  -0.968  -0.024  0.00  0.00     0.046 C 
ATOM      6  C   UNL d   1       1.039  -1.329  -0.901  0.00  0.00     0.004 C 
ATOM      7  C   UNL d   1      -0.354  -1.929  -0.868  0.00  0.00     0.004 C 
ENDROOT
BRANCH   3   8
ATOM      8  N   UNL d   1      -0.449  -0.108   2.195  0.00  0.00    -0.368 N 
ATOM      9  H   UNL d   1      -0.184  -0.972   2.659  0.00  0.00     0.161 HD
BRANCH   8  10
ATOM     10  C   UNL d   1      -1.386   0.629   2.897  0.00  0.00     0.029 A 
ATOM     11  C   UNL d   1      -2.472   1.288   2.319  0.00  0.00     0.029 A 
ATOM     12  C   UNL d   1      -3.307   2.119   3.077  0.00  0.00     0.010 A 
ATOM     13  C   UNL d   1      -3.068   2.318   4.441  0.00  0.00    -0.045 A 
ATOM     14  C   UNL d   1      -1.993   1.651   5.035  0.00  0.00     0.010 A 
ATOM     15  C   UNL d   1      -1.171   0.817   4.270  0.00  0.00     0.029 A 
BRANCH  13  16
ATOM     16  C   UNL d   1      -3.912   3.285   5.235  0.00  0.00     0.162 C 
ATOM     17  C   UNL d   1      -3.387   4.660   5.193  0.00  0.00     0.063 C 
ATOM     18  N   UNL d   1      -2.994   5.752   5.179  0.00  0.00    -0.197 NA
ENDBRANCH  13  16
ENDBRANCH   8  10
ENDBRANCH   3   8
TORSDOF 3
