REMARK  2 active torsions:
REMARK  status: ('A' for Active; 'I' for Inactive)
REMARK    1  A    between atoms: C_7  and  C_1 
REMARK    2  A    between atoms: N_6  and  C_7 
ROOT
ATOM      1  C   UNL d   1       3.360   0.317  -0.066  0.00  0.00     0.164 C 
ENDROOT
BRANCH   1   2
ATOM      2  N   UNL d   1       3.546   1.756  -0.035  0.00  0.00    -0.404 N 
ATOM      3  C   UNL d   1       4.302   2.334  -1.134  0.00  0.00     0.156 C 
ATOM      4  C   UNL d   1       4.437   3.842  -1.064  0.00  0.00    -0.034 A 
ATOM      5  C   UNL d   1       5.064   4.526  -2.115  0.00  0.00     0.009 A 
ATOM      6  C   UNL d   1       3.929   4.567   0.027  0.00  0.00    -0.049 A 
ATOM      7  C   UNL d   1       5.149   5.919  -2.096  0.00  0.00     0.001 A 
ATOM      8  C   UNL d   1       4.605   6.635  -1.033  0.00  0.00     0.001 A 
ATOM      9  C   UNL d   1       3.997   5.966   0.027  0.00  0.00     0.008 A 
ATOM     10  C   UNL d   1       3.251   3.833   1.157  0.00  0.00     0.058 C 
ATOM     11  C   UNL d   1       3.730   2.380   1.259  0.00  0.00     0.122 C 
ENDBRANCH   1   2
BRANCH   1  12
ATOM     12  C   UNL d   1       2.055   0.059  -0.773  0.00  0.00     0.007 A 
ATOM     13  S   UNL d   1       0.606   0.191   0.127  0.00  0.00    -0.092 SA
ATOM     14  C   UNL d   1      -0.374   0.094  -1.276  0.00  0.00     0.016 A 
ATOM     15  C   UNL d   1      -1.775   0.204  -1.331  0.00  0.00     0.019 A 
ATOM     16  C   UNL d   1       0.398  -0.115  -2.420  0.00  0.00    -0.012 A 
ATOM     17  C   UNL d   1      -2.414   0.111  -2.569  0.00  0.00     0.001 A 
ATOM     18  C   UNL d   1      -1.675  -0.087  -3.726  0.00  0.00     0.001 A 
ATOM     19  C   UNL d   1      -0.282  -0.201  -3.662  0.00  0.00     0.013 A 
ATOM     20  C   UNL d   1       1.814  -0.181  -2.117  0.00  0.00    -0.036 A 
ATOM     21  C   UNL d   1       2.861  -0.388  -3.166  0.00  0.00     0.050 C 
ENDBRANCH   1  12
TORSDOF 2
