REMARK  3 active torsions:
REMARK  status: ('A' for Active; 'I' for Inactive)
REMARK    1  A    between atoms: C_6  and  C_1 
REMARK    2  A    between atoms: S_16  and  C_9 
REMARK    3  A    between atoms: C_23  and  S_16 
ROOT
ATOM      1  C   UNL d   1       6.576  -3.789  -3.502  0.00  0.00    -0.107 C 
ATOM      2  C   UNL d   1       7.151  -4.632  -4.144  0.00  0.00     0.013 C 
ATOM      3  C   UNL d   1       5.901  -2.756  -2.693  0.00  0.00     0.175 C 
ENDROOT
BRANCH   3   4
ATOM      4  S   UNL d   1       6.871  -2.405  -1.198  0.00  0.00    -0.082 SA
BRANCH   4   5
ATOM      5  C   UNL d   1       5.973  -1.037  -0.515  0.00  0.00     0.145 A 
ATOM      6  N   UNL d   1       4.633  -1.007  -0.597  0.00  0.00    -0.336 N 
ATOM      7  C   UNL d   1       4.010  -0.001   0.063  0.00  0.00     0.053 A 
ATOM      8  HN  UNL d   1       4.111  -1.704  -1.128  1.00  0.00     0.168 HD
ATOM      9  C   UNL d   1       4.702   0.970   0.762  0.00  0.00     0.048 A 
ATOM     10  C   UNL d   1       6.066   0.850   0.776  0.00  0.00     0.092 A 
ATOM     11  N   UNL d   1       6.719  -0.143   0.155  0.00  0.00    -0.347 N 
ATOM     12  HN  UNL d   1       7.736  -0.217   0.191  1.00  0.00     0.167 HD
BRANCH   7  13
ATOM     13  C   UNL d   1       2.531  -0.031   0.030  0.00  0.00     0.039 A 
ATOM     14  S   UNL d   1       1.682   1.463   0.004  0.00  0.00    -0.087 SA
ATOM     15  C   UNL d   1       0.146   0.719   0.013  0.00  0.00     0.016 A 
ATOM     16  C   UNL d   1      -1.103   1.374   0.012  0.00  0.00     0.021 A 
ATOM     17  C   UNL d   1       0.255  -0.671   0.014  0.00  0.00    -0.010 A 
ATOM     18  C   UNL d   1      -2.269   0.608  -0.001  0.00  0.00     0.025 A 
ATOM     19  C   UNL d   1      -2.190  -0.775  -0.003  0.00  0.00     0.035 A 
ATOM     20  C   UNL d   1      -0.951  -1.423   0.009  0.00  0.00     0.037 A 
ATOM     21 CL   UNL d   1      -3.637  -1.709  -0.025  0.00  0.00    -0.084 Cl
ATOM     22  C   UNL d   1       1.646  -1.107   0.022  0.00  0.00    -0.031 A 
ATOM     23  C   UNL d   1       2.022  -2.559   0.040  0.00  0.00     0.050 C 
ENDBRANCH   7  13
ENDBRANCH   4   5
ENDBRANCH   3   4
TORSDOF 3
