REMARK  1 active torsions:
REMARK  status: ('A' for Active; 'I' for Inactive)
REMARK    1  A    between atoms: N_2  and  C_1 
ROOT
ATOM      1  C   UNL d   1      -0.659   1.268   0.010  0.00  0.00     0.131 A 
ATOM      2  C   UNL d   1      -1.354   0.058  -0.009  0.00  0.00     0.039 A 
ATOM      3  C   UNL d   1       0.745   1.288   0.018  0.00  0.00    -0.025 A 
ATOM      4  N   UNL d   1      -0.691  -1.131  -0.012  0.00  0.00    -0.362 N 
ATOM      5  HN  UNL d   1      -1.206  -2.012  -0.020  1.00  0.00     0.165 HD
ATOM      6  C   UNL d   1       1.404   0.052   0.008  0.00  0.00     0.034 A 
ATOM      7  C   UNL d   1       0.662  -1.126  -0.003  0.00  0.00     0.006 A 
ATOM      8  C   UNL d   1      -2.849  -0.073  -0.030  0.00  0.00     0.071 C 
ATOM      9  C   UNL d   1       1.586   2.533   0.035  0.00  0.00     0.051 C 
ATOM     10  C   UNL d   1       1.337  -2.464  -0.003  0.00  0.00     0.068 C 
ENDROOT
BRANCH   1  11
ATOM     11  N   UNL d   1      -1.403   2.507   0.021  0.00  0.00    -0.113 N 
ATOM     12  O   UNL d   1      -2.036   2.777   1.050  0.00  0.00    -0.532 OA
ATOM     13  O   UNL d   1      -1.348   3.206  -0.999  0.00  0.00    -0.532 OA
ENDBRANCH   1  11
TORSDOF 1
