REMARK  4 active torsions:
REMARK  status: ('A' for Active; 'I' for Inactive)
REMARK    1  A    between atoms: C_8  and  C_2 
REMARK    2  A    between atoms: S_20  and  C_5 
REMARK    3  A    between atoms: C_12  and  C_21 
REMARK    4  A    between atoms: C_21  and  S_20 
ROOT
ATOM      1  N   UNL d   1       0.827   0.022  -0.047  0.00  0.00    -0.315 N 
ATOM      2  C   UNL d   1       0.011   1.137  -0.110  0.00  0.00     0.134 A 
ATOM      3  N   UNL d   1      -1.243   0.715  -0.153  0.00  0.00    -0.283 N 
ATOM      4  HN  UNL d   1      -2.070   1.312  -0.143  1.00  0.00     0.188 HD
ATOM      5  C   UNL d   1      -0.005  -1.061  -0.169  0.00  0.00     0.162 A 
ATOM      6  N   UNL d   1      -1.250  -0.657  -0.212  0.00  0.00    -0.278 N 
ATOM      7  HN  UNL d   1      -2.075  -1.254  -0.279  1.00  0.00     0.189 HD
ATOM      8  C   UNL d   1       2.253  -0.029   0.153  0.00  0.00     0.160 C 
ENDROOT
BRANCH   2   9
ATOM      9  C   UNL d   1       0.410   2.554  -0.105  0.00  0.00     0.012 A 
ATOM     10  C   UNL d   1      -0.398   3.470   0.611  0.00  0.00     0.049 A 
ATOM     11  C   UNL d   1       0.025   4.814   0.575  0.00  0.00     0.086 A 
ATOM     12  N   UNL d   1      -0.515   5.894   1.153  0.00  0.00    -0.240 N 
ATOM     13  C   UNL d   1       1.210   5.239  -0.156  0.00  0.00     0.085 A 
ATOM     14  O   UNL d   1       0.300   6.958   0.800  0.00  0.00    -0.156 OA
ATOM     15  HN  UNL d   1      -1.353   5.927   1.732  1.00  0.00     0.197 HD
ATOM     16  N   UNL d   1       1.360   6.556   0.005  0.00  0.00    -0.240 N 
ATOM     17  HN  UNL d   1       2.100   7.144  -0.379  1.00  0.00     0.197 HD
ATOM     18  C   UNL d   1       2.000   4.334  -0.887  0.00  0.00     0.035 A 
ATOM     19  C   UNL d   1       1.549   2.996  -0.850  0.00  0.00     0.018 A 
ENDBRANCH   2   9
BRANCH   5  20
ATOM     20  S   UNL d   1       0.552  -2.698  -0.260  0.00  0.00    -0.088 SA
BRANCH  20  21
ATOM     21  C   UNL d   1      -0.900  -3.499  -1.012  0.00  0.00     0.124 C 
BRANCH  21  22
ATOM     22  C   UNL d   1      -0.640  -4.950  -1.363  0.00  0.00    -0.005 A 
ATOM     23  C   UNL d   1      -1.003  -5.997  -0.493  0.00  0.00     0.042 A 
ATOM     24 CL   UNL d   1      -1.724  -5.704   1.052  0.00  0.00    -0.084 Cl
ATOM     25  C   UNL d   1      -0.798  -7.339  -0.843  0.00  0.00     0.024 A 
ATOM     26  C   UNL d   1      -0.210  -7.668  -2.060  0.00  0.00     0.003 A 
ATOM     27  C   UNL d   1       0.181  -6.652  -2.925  0.00  0.00     0.024 A 
ATOM     28  C   UNL d   1      -0.027  -5.309  -2.581  0.00  0.00     0.042 A 
ATOM     29 CL   UNL d   1       0.506  -4.125  -3.728  0.00  0.00    -0.084 Cl
ENDBRANCH  21  22
ENDBRANCH  20  21
ENDBRANCH   5  20
TORSDOF 4
