REMARK  6 active torsions:
REMARK  status: ('A' for Active; 'I' for Inactive)
REMARK    1  A    between atoms: N_4  and  C_1 
REMARK    2  A    between atoms: N_6  and  C_1 
REMARK    3  A    between atoms: N_2  and  N_6 
REMARK    4  A    between atoms: C_8  and  N_4 
REMARK    5  A    between atoms: C_9  and  C_7 
REMARK    6  A    between atoms: O_20  and  C_10 
ROOT
ATOM      1  C   UNL d   1       1.183  -0.006   0.022  0.00  0.00     0.191 C 
ATOM      2  S   UNL d   1       0.321   0.748  -1.194  0.00  0.00    -0.039 SA
ENDROOT
BRANCH   1   3
ATOM      3  N   UNL d   1       0.527  -0.746   0.965  0.00  0.00    -0.332 N 
ATOM      4  H   UNL d   1      -0.375  -1.102   0.677  0.00  0.00     0.168 HD
BRANCH   3   5
ATOM      5  C   UNL d   1       0.926  -1.019   2.287  0.00  0.00     0.034 A 
ATOM      6  C   UNL d   1       1.760  -0.156   3.003  0.00  0.00     0.032 A 
ATOM      7  C   UNL d   1       2.193  -0.487   4.288  0.00  0.00     0.039 A 
ATOM      8  C   UNL d   1       1.798  -1.692   4.863  0.00  0.00     0.068 A 
ATOM      9  C   UNL d   1       0.892  -2.511   4.191  0.00  0.00     0.039 A 
ATOM     10  C   UNL d   1       0.441  -2.170   2.908  0.00  0.00     0.032 A 
BRANCH   8  11
ATOM     11  O   UNL d   1       2.212  -2.140   6.089  0.00  0.00    -0.356 OA
ATOM     12  C   UNL d   1       3.538  -1.755   6.446  0.00  0.00     0.210 C 
ENDBRANCH   8  11
ENDBRANCH   3   5
ENDBRANCH   1   3
BRANCH   1  13
ATOM     13  N   UNL d   1       2.553   0.045   0.002  0.00  0.00    -0.276 N 
ATOM     14  H   UNL d   1       2.970   0.599  -0.741  0.00  0.00     0.189 HD
BRANCH  13  15
ATOM     15  N   UNL d   1       3.313  -0.928   0.590  0.00  0.00    -0.309 N 
ATOM     16  C   UNL d   1       4.590  -0.850   0.399  0.00  0.00     0.118 C 
ATOM     17  HN  UNL d   1       2.897  -1.673   1.149  1.00  0.00     0.186 HD
BRANCH  16  18
ATOM     18  C   UNL d   1       5.523  -1.810   1.026  0.00  0.00    -0.019 A 
ATOM     19  C   UNL d   1       5.048  -2.910   1.745  0.00  0.00     0.013 A 
ATOM     20  C   UNL d   1       5.949  -3.765   2.386  0.00  0.00     0.007 A 
ATOM     21  C   UNL d   1       7.328  -3.525   2.317  0.00  0.00    -0.062 A 
ATOM     22  C   UNL d   1       7.795  -2.429   1.580  0.00  0.00     0.007 A 
ATOM     23  C   UNL d   1       8.281  -4.425   3.049  0.00  0.00     0.048 C 
ATOM     24  C   UNL d   1       6.897  -1.578   0.929  0.00  0.00     0.013 A 
ENDBRANCH  16  18
ENDBRANCH  13  15
ENDBRANCH   1  13
TORSDOF 6
