REMARK  12 active torsions:
REMARK  status: ('A' for Active; 'I' for Inactive)
REMARK       I    between atoms: N_2  and  C_1 
REMARK    1  A    between atoms: O_8  and  C_1 
REMARK    2  A    between atoms: CA_4  and  N_2 
REMARK    3  A    between atoms: C_3  and  CA_4 
REMARK    4  A    between atoms: OXT_13  and  C_3 
REMARK    5  A    between atoms: C_11  and  CA_4 
REMARK    6  A    between atoms: C_5  and  C_12 
REMARK    7  A    between atoms: O_10  and  C_5 
REMARK    8  A    between atoms: C_14  and  O_8 
REMARK    9  A    between atoms: C_15  and  O_10 
REMARK   10  A    between atoms: C_12  and  C_11 
REMARK   11  A    between atoms: C_16  and  C_14 
REMARK   12  A    between atoms: C_17  and  C_15 
ROOT
ATOM      1  CA  UNL d   1       0.906  -0.648  -2.433  0.00  0.00     0.185 C 
ENDROOT
BRANCH   1   2
ATOM      2  C   UNL d   1       1.427  -2.097  -2.321  0.00  0.00     0.163 C 
ATOM      3  O   UNL d   1       0.951  -3.058  -2.913  0.00  0.00    -0.648 OA
BRANCH   2   4
ATOM      4  OXT UNL d   1       2.508  -2.227  -1.514  0.00  0.00    -0.775 OA
ATOM      5  HXT UNL d   1       2.756  -1.391  -1.049  0.00  0.00     0.167 HD
ENDBRANCH   2   4
ENDBRANCH   1   2
BRANCH   1   6
ATOM      6  N   UNL d   1       0.343  -0.193  -1.165  0.00  0.00    -0.322 N 
ATOM      7  C   UNL d   1       1.088   0.070  -0.058  0.00  0.00     0.361 C 
ATOM      8  O   UNL d   1       2.301  -0.073  -0.014  0.00  0.00    -0.238 OA
ATOM      9  H   UNL d   1      -0.660  -0.186  -1.026  0.00  0.00     0.165 HD
BRANCH   7  10
ATOM     10  O   UNL d   1       0.267   0.401   0.960  0.00  0.00    -0.299 OA
BRANCH  10  11
ATOM     11  C   UNL d   1       0.843   0.427   2.275  0.00  0.00     0.219 C 
BRANCH  11  12
ATOM     12  C   UNL d   1       0.867   1.828   2.833  0.00  0.00    -0.034 A 
ATOM     13  C   UNL d   1      -0.319   2.560   2.990  0.00  0.00     0.009 A 
ATOM     14  C   UNL d   1      -0.294   3.844   3.541  0.00  0.00     0.001 A 
ATOM     15  C   UNL d   1       0.915   4.408   3.944  0.00  0.00     0.000 A 
ATOM     16  C   UNL d   1       2.098   3.687   3.804  0.00  0.00     0.001 A 
ATOM     17  C   UNL d   1       2.075   2.404   3.252  0.00  0.00     0.009 A 
ENDBRANCH  11  12
ENDBRANCH  10  11
ENDBRANCH   7  10
ENDBRANCH   1   6
BRANCH   1  18
ATOM     18  C   UNL d   1      -0.133  -0.561  -3.564  0.00  0.00     0.046 C 
BRANCH  18  19
ATOM     19  C   UNL d   1      -0.648   0.855  -3.786  0.00  0.00     0.113 C 
BRANCH  19  20
ATOM     20  C   UNL d   1      -1.601   0.892  -4.952  0.00  0.00     0.259 C 
ATOM     21  O   UNL d   1      -1.250   1.104  -6.103  0.00  0.00    -0.265 OA
BRANCH  20  22
ATOM     22  O   UNL d   1      -2.868   0.639  -4.535  0.00  0.00    -0.317 OA
BRANCH  22  23
ATOM     23  C   UNL d   1      -3.882   0.673  -5.547  0.00  0.00     0.217 C 
BRANCH  23  24
ATOM     24  C   UNL d   1      -4.556  -0.671  -5.626  0.00  0.00    -0.034 A 
ATOM     25  C   UNL d   1      -5.696  -0.949  -4.859  0.00  0.00     0.009 A 
ATOM     26  C   UNL d   1      -6.328  -2.191  -4.955  0.00  0.00     0.001 A 
ATOM     27  C   UNL d   1      -5.822  -3.168  -5.809  0.00  0.00     0.000 A 
ATOM     28  C   UNL d   1      -4.677  -2.910  -6.561  0.00  0.00     0.001 A 
ATOM     29  C   UNL d   1      -4.043  -1.669  -6.467  0.00  0.00     0.009 A 
ENDBRANCH  23  24
ENDBRANCH  22  23
ENDBRANCH  20  22
ENDBRANCH  19  20
ENDBRANCH  18  19
ENDBRANCH   1  18
TORSDOF 12
