REMARK  2 active torsions:
REMARK  status: ('A' for Active; 'I' for Inactive)
REMARK    1  A    between atoms: C_8  and  C_3 
REMARK    2  A    between atoms: O_19  and  C_16 
ROOT
ATOM      1  C   UNL d   1      -0.024   0.715   0.096  0.00  0.00     0.024 C 
ATOM      2  C   UNL d   1      -0.060  -0.634   0.110  0.00  0.00     0.021 C 
ATOM      3  C   UNL d   1      -1.292   1.546  -0.020  0.00  0.00     0.103 C 
ATOM      4  C   UNL d   1      -2.571   0.715   0.111  0.00  0.00     0.057 C 
ATOM      5  N   UNL d   1      -1.282  -1.285   0.084  0.00  0.00    -0.362 N 
ATOM      6  C   UNL d   1      -2.511  -0.640   0.118  0.00  0.00     0.023 C 
ATOM      7  C   UNL d   1       1.281   1.431   0.171  0.00  0.00     0.159 C 
ATOM      8  C   UNL d   1      -3.807   1.421   0.167  0.00  0.00     0.098 C 
ATOM      9  N   UNL d   1      -4.818   1.995   0.216  0.00  0.00    -0.192 NA
ATOM     10  C   UNL d   1       1.190  -1.490   0.100  0.00  0.00     0.067 C 
ATOM     11  C   UNL d   1       2.449  -0.729  -0.383  0.00  0.00    -0.036 C 
ATOM     12  C   UNL d   1       2.529   0.605   0.373  0.00  0.00     0.092 C 
ATOM     13  O   UNL d   1       1.335   2.659   0.144  0.00  0.00    -0.293 OA
ATOM     14  C   UNL d   1      -3.727  -1.534   0.121  0.00  0.00     0.069 C 
ATOM     15  C   UNL d   1       2.397  -0.490  -1.908  0.00  0.00     0.015 C 
ATOM     16  C   UNL d   1       3.713  -1.549  -0.077  0.00  0.00     0.015 C 
ATOM     17  H   UNL d   1      -1.282  -2.301   0.128  0.00  0.00     0.165 HD
ENDROOT
BRANCH   3  18
ATOM     18  C   UNL d   1      -1.316   2.305  -1.347  0.00  0.00    -0.042 A 
ATOM     19  C   UNL d   1      -1.386   3.708  -1.353  0.00  0.00     0.044 A 
ATOM     20  C   UNL d   1      -1.362   4.418  -2.553  0.00  0.00     0.068 A 
ATOM     21  C   UNL d   1      -1.279   3.715  -3.757  0.00  0.00     0.037 A 
ATOM     22  C   UNL d   1      -1.229   2.320  -3.766  0.00  0.00     0.003 A 
ATOM     23  C   UNL d   1      -1.256   1.616  -2.569  0.00  0.00     0.008 A 
BRANCH  20  24
ATOM     24  O   UNL d   1      -1.407   5.781  -2.669  0.00  0.00    -0.356 OA
ATOM     25  C   UNL d   1      -1.481   6.517  -1.451  0.00  0.00     0.210 C 
ENDBRANCH  20  24
ENDBRANCH   3  18
TORSDOF 2
