REMARK  6 active torsions:
REMARK  status: ('A' for Active; 'I' for Inactive)
REMARK    1  A    between atoms: C_17  and  N_3 
REMARK    2  A    between atoms: C_6  and  C_4 
REMARK    3  A    between atoms: C_9  and  C_11 
REMARK    4  A    between atoms: C_10  and  C_12 
REMARK    5  A    between atoms: C_27  and  C_17 
REMARK    6  A    between atoms: O_26  and  C_27 
ROOT
ATOM      1  N   UNL d   1       2.314  -0.715  -0.016  0.00  0.00    -0.294 N 
ATOM      2  HN  UNL d   1       3.195  -1.229  -0.021  1.00  0.00     0.187 HD
ATOM      3  N   UNL d   1       2.321   0.657  -0.028  0.00  0.00    -0.254 N 
ATOM      4  C   UNL d   1       1.185  -1.362   0.003  0.00  0.00     0.070 C 
ATOM      5  C   UNL d   1       1.177   1.438  -0.133  0.00  0.00     0.273 C 
ATOM      6  C   UNL d   1      -0.108   0.726  -0.068  0.00  0.00     0.046 A 
ATOM      7  C   UNL d   1      -0.127  -0.657   0.077  0.00  0.00     0.009 A 
ATOM      8  O   UNL d   1       1.186   2.663  -0.239  0.00  0.00    -0.266 OA
ATOM      9  C   UNL d   1      -1.308   1.460  -0.100  0.00  0.00     0.018 A 
ATOM     10  C   UNL d   1      -1.357  -1.291   0.301  0.00  0.00     0.015 A 
ATOM     11  C   UNL d   1      -2.530   0.806   0.033  0.00  0.00     0.001 A 
ATOM     12  C   UNL d   1      -2.553  -0.568   0.249  0.00  0.00     0.001 A 
ENDROOT
BRANCH   4  13
ATOM     13  C   UNL d   1       1.279  -2.861  -0.078  0.00  0.00    -0.006 A 
ATOM     14  C   UNL d   1       2.359  -3.506   0.543  0.00  0.00     0.030 A 
ATOM     15  C   UNL d   1       2.486  -4.904   0.500  0.00  0.00     0.049 A 
ATOM     16  C   UNL d   1       1.489  -5.657  -0.142  0.00  0.00     0.032 A 
ATOM     17  C   UNL d   1       0.413  -5.030  -0.786  0.00  0.00     0.049 A 
ATOM     18  C   UNL d   1       0.354  -3.627  -0.798  0.00  0.00     0.030 A 
BRANCH  15  19
ATOM     19  C   UNL d   1       3.664  -5.606   1.136  0.00  0.00     0.417 C 
ATOM     20  F   UNL d   1       4.589  -4.761   1.665  0.00  0.00    -0.166 F 
ATOM     21  F   UNL d   1       3.283  -6.431   2.149  0.00  0.00    -0.166 F 
ATOM     22  F   UNL d   1       4.336  -6.391   0.248  0.00  0.00    -0.166 F 
ENDBRANCH  15  19
BRANCH  17  23
ATOM     23  C   UNL d   1      -0.675  -5.858  -1.431  0.00  0.00     0.417 C 
ATOM     24  F   UNL d   1      -1.697  -5.108  -1.931  0.00  0.00    -0.166 F 
ATOM     25  F   UNL d   1      -0.222  -6.618  -2.460  0.00  0.00    -0.166 F 
ATOM     26  F   UNL d   1      -1.251  -6.719  -0.546  0.00  0.00    -0.166 F 
ENDBRANCH  17  23
ENDBRANCH   4  13
BRANCH   3  27
ATOM     27  C   UNL d   1       3.633   1.298  -0.113  0.00  0.00     0.178 C 
BRANCH  27  28
ATOM     28  C   UNL d   1       3.972   2.147   1.112  0.00  0.00     0.186 C 
BRANCH  28  29
ATOM     29  O   UNL d   1       5.276   2.710   0.967  0.00  0.00    -0.399 OA
ATOM     30  H   UNL d   1       5.390   3.346   1.695  0.00  0.00     0.209 HD
ENDBRANCH  28  29
ENDBRANCH  27  28
ENDBRANCH   3  27
TORSDOF 6
