REMARK  6 active torsions:
REMARK  status: ('A' for Active; 'I' for Inactive)
REMARK    1  A    between atoms: C_2  and  CA_1 
REMARK    2  A    between atoms: N_3  and  CA_1 
REMARK    3  A    between atoms: OXT_14  and  C_2 
REMARK       I    between atoms: C_5  and  N_3 
REMARK    4  A    between atoms: C_10  and  C_4 
REMARK    5  A    between atoms: C_6  and  O_8 
REMARK    6  A    between atoms: O_8  and  C_11 
ROOT
ATOM      1  CA  UNL d   1       0.880  -0.108  -0.048  0.00  0.00     0.110 C 
ATOM      2  C   UNL d   1       2.227   0.005  -0.027  0.00  0.00     0.048 C 
ENDROOT
BRANCH   2   3
ATOM      3  C   UNL d   1       3.009   1.220  -0.281  0.00  0.00    -0.034 A 
ATOM      4  C   UNL d   1       3.366   2.054   0.784  0.00  0.00     0.014 A 
ATOM      5  C   UNL d   1       4.125   3.208   0.559  0.00  0.00     0.038 A 
ATOM      6  C   UNL d   1       4.517   3.543  -0.738  0.00  0.00     0.074 A 
ATOM      7  C   UNL d   1       4.186   2.694  -1.796  0.00  0.00     0.038 A 
ATOM      8  C   UNL d   1       3.427   1.541  -1.575  0.00  0.00     0.014 A 
BRANCH   6   9
ATOM      9  O   UNL d   1       5.253   4.641  -1.082  0.00  0.00    -0.290 OA
BRANCH   9  10
ATOM     10  C   UNL d   1       5.094   5.771  -0.239  0.00  0.00     0.505 C 
ATOM     11  F   UNL d   1       5.936   5.655   0.816  0.00  0.00    -0.184 F 
ATOM     12  F   UNL d   1       5.493   6.860  -0.943  0.00  0.00    -0.184 F 
ENDBRANCH   9  10
ENDBRANCH   6   9
ENDBRANCH   2   3
BRANCH   1  13
ATOM     13  C   UNL d   1       0.403  -1.496   0.310  0.00  0.00     0.193 C 
ATOM     14  O   UNL d   1       1.118  -2.301   0.897  0.00  0.00    -0.645 OA
BRANCH  13  15
ATOM     15  OXT UNL d   1      -0.808  -1.867  -0.136  0.00  0.00    -0.772 OA
ATOM     16  HXT UNL d   1      -1.409  -1.116  -0.340  0.00  0.00     0.167 HD
ENDBRANCH  13  15
ENDBRANCH   1  13
BRANCH   1  17
ATOM     17  N   UNL d   1       0.099   0.996  -0.366  0.00  0.00    -0.322 N 
ATOM     18  C   UNL d   1      -1.267   1.132  -0.408  0.00  0.00     0.218 C 
ATOM     19  O   UNL d   1      -2.059   0.216  -0.221  0.00  0.00    -0.274 OA
ATOM     20  C   UNL d   1      -1.748   2.520  -0.746  0.00  0.00     0.117 C 
ATOM     21  H   UNL d   1       0.628   1.838  -0.570  0.00  0.00     0.169 HD
ENDBRANCH   1  17
TORSDOF 6
