REMARK  6 active torsions:
REMARK  status: ('A' for Active; 'I' for Inactive)
REMARK    1  A    between atoms: N_5  and  S_1 
REMARK    2  A    between atoms: C_9  and  S_1 
REMARK    3  A    between atoms: N_2  and  C_7 
REMARK    4  A    between atoms: C_12  and  C_3 
REMARK    5  A    between atoms: N_10  and  N_5 
REMARK    6  A    between atoms: C_8  and  C_19 
ROOT
ATOM      1  N   UNL d   1       1.012  -0.211   2.844  0.00  0.00    -0.300 N 
ATOM      2  HN  UNL d   1       1.952  -0.606   2.830  1.00  0.00     0.186 HD
ATOM      3  C   UNL d   1       0.273  -0.277   3.903  0.00  0.00     0.145 C 
ENDROOT
BRANCH   3   4
ATOM      4  C   UNL d   1       0.801  -0.960   5.049  0.00  0.00     0.093 A 
ATOM      5  O   UNL d   1      -0.025  -1.300   6.082  0.00  0.00    -0.309 OA
ATOM      6  C   UNL d   1       0.729  -1.997   6.992  0.00  0.00     0.086 A 
ATOM      7  C   UNL d   1       2.036  -2.072   6.546  0.00  0.00     0.041 A 
ATOM      8  C   UNL d   1       2.081  -1.408   5.304  0.00  0.00     0.041 A 
BRANCH   6   9
ATOM      9  C   UNL d   1       0.052  -2.495   8.189  0.00  0.00     0.000 A 
ATOM     10  C   UNL d   1      -1.337  -2.393   8.351  0.00  0.00     0.050 A 
ATOM     11  C   UNL d   1      -1.945  -2.871   9.524  0.00  0.00     0.103 A 
ATOM     12  C   UNL d   1      -1.182  -3.459  10.541  0.00  0.00     0.036 A 
ATOM     13  C   UNL d   1       0.195  -3.575  10.379  0.00  0.00     0.003 A 
ATOM     14  C   UNL d   1       0.802  -3.099   9.215  0.00  0.00     0.014 A 
BRANCH  11  15
ATOM     15  N   UNL d   1      -3.399  -2.752   9.692  0.00  0.00    -0.116 N 
ATOM     16  O   UNL d   1      -4.049  -2.259   8.760  0.00  0.00    -0.532 OA
ATOM     17  O   UNL d   1      -3.890  -3.150  10.758  0.00  0.00    -0.532 OA
ENDBRANCH  11  15
ENDBRANCH   6   9
ENDBRANCH   3   4
BRANCH   1  18
ATOM     18  N   UNL d   1       0.465   0.434   1.694  0.00  0.00    -0.223 N 
ATOM     19  H   UNL d   1      -0.479   0.820   1.641  0.00  0.00     0.200 HD
BRANCH  18  20
ATOM     20  S   UNL d   1       1.198   0.169   0.178  0.00  0.00     0.276 S 
ATOM     21  O   UNL d   1       2.612   0.470   0.262  0.00  0.00    -0.199 OA
ATOM     22  O   UNL d   1       0.345   0.810  -0.801  0.00  0.00    -0.199 OA
BRANCH  20  23
ATOM     23  C   UNL d   1       1.015  -1.593  -0.003  0.00  0.00     0.081 A 
ATOM     24  C   UNL d   1      -0.032  -2.107  -0.772  0.00  0.00     0.026 A 
ATOM     25  C   UNL d   1      -0.186  -3.490  -0.885  0.00  0.00     0.008 A 
ATOM     26  C   UNL d   1       0.704  -4.362  -0.242  0.00  0.00    -0.062 A 
ATOM     27  C   UNL d   1       1.766  -3.832   0.503  0.00  0.00     0.008 A 
ATOM     28  C   UNL d   1       0.500  -5.846  -0.348  0.00  0.00     0.048 C 
ATOM     29  C   UNL d   1       1.927  -2.449   0.618  0.00  0.00     0.026 A 
ENDBRANCH  20  23
ENDBRANCH  18  20
ENDBRANCH   1  18
TORSDOF 6
