REMARK  4 active torsions:
REMARK  status: ('A' for Active; 'I' for Inactive)
REMARK    1  A    between atoms: C_7  and  N_1 
REMARK    2  A    between atoms: S_8  and  C_2 
REMARK    3  A    between atoms: C_13  and  S_8 
REMARK    4  A    between atoms: C_11  and  C_13 
ROOT
ATOM      1  N   UNL d   1      -0.054  -1.330   0.115  0.00  0.00    -0.218 N 
ATOM      2  C   UNL d   1       1.049  -0.587   0.527  0.00  0.00     0.177 A 
ATOM      3  N   UNL d   1       0.825   0.685   0.274  0.00  0.00    -0.264 N 
ATOM      4  HN  UNL d   1       1.447   1.467   0.475  1.00  0.00     0.186 HD
ATOM      5  N   UNL d   1      -0.944  -0.452  -0.420  0.00  0.00     0.001 NA
ATOM      6  N   UNL d   1      -0.405   0.750  -0.311  0.00  0.00    -0.006 NA
ENDROOT
BRANCH   1   7
ATOM      7  C   UNL d   1      -0.355  -2.722   0.149  0.00  0.00     0.068 A 
ATOM      8  C   UNL d   1      -0.113  -3.502   1.308  0.00  0.00    -0.033 A 
ATOM      9  C   UNL d   1      -0.327  -4.894   1.254  0.00  0.00     0.009 A 
ATOM     10  C   UNL d   1       0.255  -2.963   2.666  0.00  0.00     0.050 C 
ATOM     11  C   UNL d   1      -0.853  -5.500   0.121  0.00  0.00     0.001 A 
ATOM     12  C   UNL d   1      -1.181  -4.724  -0.982  0.00  0.00     0.009 A 
ATOM     13  C   UNL d   1      -0.931  -3.339  -1.000  0.00  0.00    -0.033 A 
ATOM     14  C   UNL d   1      -1.342  -2.627  -2.268  0.00  0.00     0.050 C 
ENDBRANCH   1   7
BRANCH   2  15
ATOM     15  S   UNL d   1       2.525  -1.124   1.255  0.00  0.00    -0.087 SA
BRANCH  15  16
ATOM     16  C   UNL d   1       3.193  -2.320   0.076  0.00  0.00     0.108 C 
BRANCH  16  17
ATOM     17  C   UNL d   1       4.433  -2.912   0.681  0.00  0.00    -0.026 C 
ATOM     18  C   UNL d   1       5.679  -2.735   0.212  0.00  0.00     0.007 C 
ENDBRANCH  16  17
ENDBRANCH  15  16
ENDBRANCH   2  15
TORSDOF 4
