REMARK  12 active torsions:
REMARK  status: ('A' for Active; 'I' for Inactive)
REMARK    1  A    between atoms: O_16  and  C_1 
REMARK    2  A    between atoms: C_5  and  C_2 
REMARK    3  A    between atoms: O_17  and  C_3 
REMARK    4  A    between atoms: O_18  and  C_4 
REMARK    5  A    between atoms: S_8  and  C_5 
REMARK    6  A    between atoms: S_9  and  C_5 
REMARK    7  A    between atoms: C_14  and  S_8 
REMARK    8  A    between atoms: C_15  and  S_9 
REMARK    9  A    between atoms: C_10  and  C_15 
REMARK   10  A    between atoms: O_20  and  C_10 
REMARK   11  A    between atoms: C_11  and  C_14 
REMARK   12  A    between atoms: O_19  and  C_11 
ROOT
ATOM      1  C   UNL d   1      -2.892   0.399  -0.176  0.00  0.00     0.142 C 
ENDROOT
BRANCH   1   2
ATOM      2  C   UNL d   1      -1.400   0.101  -0.084  0.00  0.00    -0.029 C 
ATOM      3  C   UNL d   1      -0.478   1.154   0.011  0.00  0.00     0.049 C 
ATOM      4  C   UNL d   1       0.909   0.925  -0.011  0.00  0.00     0.104 C 
ATOM      5  C   UNL d   1       1.398  -0.391  -0.056  0.00  0.00     0.135 C 
ATOM      6  C   UNL d   1       0.483  -1.458  -0.047  0.00  0.00     0.104 C 
ATOM      7  C   UNL d   1      -0.888  -1.204  -0.156  0.00  0.00     0.049 C 
BRANCH   4   8
ATOM      8  O   UNL d   1       1.646   2.079   0.067  0.00  0.00    -0.353 OA
ATOM      9  C   UNL d   1       2.881   2.094  -0.640  0.00  0.00     0.210 C 
ENDBRANCH   4   8
BRANCH   5  10
ATOM     10  O   UNL d   1       2.753  -0.600   0.027  0.00  0.00    -0.351 OA
ATOM     11  C   UNL d   1       3.286  -1.466  -0.977  0.00  0.00     0.210 C 
ENDBRANCH   5  10
BRANCH   6  12
ATOM     12  O   UNL d   1       0.978  -2.736   0.074  0.00  0.00    -0.353 OA
ATOM     13  C   UNL d   1       0.103  -3.682   0.687  0.00  0.00     0.210 C 
ENDBRANCH   6  12
ENDBRANCH   1   2
BRANCH   1  14
ATOM     14  S   UNL d   1      -3.295   0.626  -1.979  0.00  0.00    -0.138 SA
BRANCH  14  15
ATOM     15  C   UNL d   1      -5.080   0.991  -1.917  0.00  0.00     0.185 C 
BRANCH  15  16
ATOM     16  C   UNL d   1      -5.392   2.209  -1.084  0.00  0.00     0.149 C 
ATOM     17  O   UNL d   1      -6.384   2.304  -0.376  0.00  0.00    -0.649 OA
BRANCH  16  18
ATOM     18  O   UNL d   1      -4.499   3.217  -1.222  0.00  0.00    -0.776 OA
ATOM     19  H   UNL d   1      -3.766   2.980  -1.829  0.00  0.00     0.167 HD
ENDBRANCH  16  18
ENDBRANCH  15  16
ENDBRANCH  14  15
ENDBRANCH   1  14
BRANCH   1  20
ATOM     20  S   UNL d   1      -3.978  -0.909   0.545  0.00  0.00    -0.138 SA
BRANCH  20  21
ATOM     21  C   UNL d   1      -3.421  -0.877   2.279  0.00  0.00     0.185 C 
BRANCH  21  22
ATOM     22  C   UNL d   1      -3.804   0.409   2.959  0.00  0.00     0.149 C 
ATOM     23  O   UNL d   1      -3.025   1.100   3.596  0.00  0.00    -0.649 OA
BRANCH  22  24
ATOM     24  O   UNL d   1      -5.116   0.730   2.833  0.00  0.00    -0.776 OA
ATOM     25  H   UNL d   1      -5.614   0.118   2.256  0.00  0.00     0.167 HD
ENDBRANCH  22  24
ENDBRANCH  21  22
ENDBRANCH  20  21
ENDBRANCH   1  20
TORSDOF 12
