REMARK  5 active torsions:
REMARK  status: ('A' for Active; 'I' for Inactive)
REMARK    1  A    between atoms: C_2  and  C_1 
REMARK    2  A    between atoms: O_3  and  C_1 
REMARK    3  A    between atoms: C_7  and  O_3 
REMARK    4  A    between atoms: C_4  and  C_7 
REMARK    5  A    between atoms: C_9  and  C_4 
ROOT
ATOM      1  O   UNL d   1       0.254   0.335  -1.178  0.00  0.00    -0.310 OA
ENDROOT
BRANCH   1   2
ATOM      2  C   UNL d   1       1.072   1.373  -0.879  0.00  0.00     0.293 C 
ATOM      3  O   UNL d   1       0.708   2.485  -0.534  0.00  0.00    -0.259 OA
BRANCH   2   4
ATOM      4  C   UNL d   1       2.507   0.976  -0.975  0.00  0.00     0.040 A 
ATOM      5  C   UNL d   1       3.479   1.944  -0.684  0.00  0.00     0.035 A 
ATOM      6  C   UNL d   1       4.834   1.610  -0.746  0.00  0.00     0.007 A 
ATOM      7  I   UNL d   1       6.272   3.053  -0.329  0.00  0.00    -0.045 I 
ATOM      8  C   UNL d   1       5.231   0.319  -1.089  0.00  0.00     0.018 A 
ATOM      9  C   UNL d   1       4.267  -0.646  -1.381  0.00  0.00     0.002 A 
ATOM     10  C   UNL d   1       2.908  -0.320  -1.329  0.00  0.00     0.017 A 
ENDBRANCH   2   4
ENDBRANCH   1   2
BRANCH   1  11
ATOM     11  C   UNL d   1      -1.144   0.639  -1.140  0.00  0.00     0.263 C 
BRANCH  11  12
ATOM     12  C   UNL d   1      -1.648   1.304  -2.421  0.00  0.00     0.183 C 
ATOM     13  O   UNL d   1      -0.898   1.568  -3.361  0.00  0.00    -0.290 OA
BRANCH  12  14
ATOM     14  C   UNL d   1      -3.111   1.604  -2.546  0.00  0.00     0.012 A 
ATOM     15  C   UNL d   1      -4.042   1.255  -1.558  0.00  0.00     0.015 A 
ATOM     16  C   UNL d   1      -5.401   1.535  -1.742  0.00  0.00     0.001 A 
ATOM     17  C   UNL d   1      -5.839   2.164  -2.906  0.00  0.00     0.000 A 
ATOM     18  C   UNL d   1      -4.921   2.518  -3.891  0.00  0.00     0.001 A 
ATOM     19  C   UNL d   1      -3.563   2.239  -3.712  0.00  0.00     0.015 A 
ENDBRANCH  12  14
ENDBRANCH  11  12
ENDBRANCH   1  11
TORSDOF 5
