REMARK  4 active torsions:
REMARK  status: ('A' for Active; 'I' for Inactive)
REMARK    1  A    between atoms: C_6  and  C_1 
REMARK       I    between atoms: N_9  and  C_6 
REMARK    2  A    between atoms: C_7  and  O_12 
REMARK    3  A    between atoms: C_15  and  N_9 
REMARK    4  A    between atoms: O_12  and  C_19 
ROOT
ATOM      1  C   UNL d   1      -3.804   0.099  -0.593  0.00  0.00     0.272 C 
ATOM      2  N   UNL d   1      -4.564  -1.051  -0.605  0.00  0.00    -0.322 N 
ATOM      3  O   UNL d   1      -4.247   1.236  -0.731  0.00  0.00    -0.266 OA
ATOM      4  H   UNL d   1      -4.110  -1.902  -0.303  0.00  0.00     0.169 HD
ENDROOT
BRANCH   1   5
ATOM      5  C   UNL d   1      -2.385  -0.092  -0.374  0.00  0.00     0.102 A 
ATOM      6  N   UNL d   1      -1.556   1.002  -0.255  0.00  0.00    -0.351 N 
ATOM      7  C   UNL d   1      -0.239   0.626  -0.179  0.00  0.00     0.044 A 
ATOM      8  H   UNL d   1      -1.892   1.956  -0.286  0.00  0.00     0.166 HD
ATOM      9  C   UNL d   1       0.907   1.422  -0.135  0.00  0.00     0.037 A 
ATOM     10  C   UNL d   1      -0.210  -0.765  -0.169  0.00  0.00    -0.001 A 
ATOM     11  C   UNL d   1       2.148   0.777  -0.097  0.00  0.00    -0.059 A 
ATOM     12  C   UNL d   1       3.418   1.577  -0.126  0.00  0.00     0.048 C 
ATOM     13  C   UNL d   1       2.204  -0.621  -0.069  0.00  0.00     0.014 A 
ATOM     14  C   UNL d   1       1.041  -1.423  -0.090  0.00  0.00    -0.049 A 
ATOM     15  C   UNL d   1       1.203  -2.918  -0.072  0.00  0.00     0.049 C 
ATOM     16  C   UNL d   1      -1.568  -1.206  -0.276  0.00  0.00     0.049 A 
ENDBRANCH   1   5
BRANCH   2  17
ATOM     17  C   UNL d   1      -5.944  -1.139  -0.895  0.00  0.00     0.035 A 
ATOM     18  C   UNL d   1      -6.677  -0.102  -1.478  0.00  0.00     0.032 A 
ATOM     19  C   UNL d   1      -8.049  -0.239  -1.736  0.00  0.00     0.039 A 
ATOM     20  C   UNL d   1      -8.703  -1.429  -1.433  0.00  0.00     0.078 A 
ATOM     21  C   UNL d   1      -7.972  -2.469  -0.850  0.00  0.00     0.039 A 
ATOM     22  C   UNL d   1      -6.602  -2.332  -0.594  0.00  0.00     0.032 A 
BRANCH  20  23
ATOM     23  O   UNL d   1     -10.016  -1.720  -1.659  0.00  0.00    -0.255 OA
BRANCH  23  24
ATOM     24  C   UNL d   1     -10.805  -0.777  -2.365  0.00  0.00     0.530 C 
ATOM     25  F   UNL d   1     -10.199  -0.350  -3.493  0.00  0.00    -0.144 F 
ATOM     26  F   UNL d   1     -11.965  -1.373  -2.723  0.00  0.00    -0.144 F 
ATOM     27  F   UNL d   1     -11.100   0.281  -1.581  0.00  0.00    -0.144 F 
ENDBRANCH  23  24
ENDBRANCH  20  23
ENDBRANCH   2  17
TORSDOF 4
