REMARK  3 active torsions:
REMARK  status: ('A' for Active; 'I' for Inactive)
REMARK    1  A    between atoms: C_6  and  C_1 
REMARK    2  A    between atoms: C_8  and  N_2 
REMARK    3  A    between atoms: O_16  and  C_5 
ROOT
ATOM      1  N   UNL d   1       0.710   4.298   0.025  0.00  0.00    -0.365 N 
ATOM      2  HN  UNL d   1       1.674   3.978   0.123  1.00  0.00     0.165 HD
ATOM      3  C   UNL d   1      -0.266   3.447  -0.050  0.00  0.00     0.102 C 
ENDROOT
BRANCH   3   4
ATOM      4  C   UNL d   1      -0.042   1.986  -0.030  0.00  0.00     0.016 A 
ATOM      5  C   UNL d   1      -1.102   1.112  -0.290  0.00  0.00     0.099 A 
ATOM      6  C   UNL d   1      -0.887  -0.270  -0.264  0.00  0.00     0.069 A 
ATOM      7 CL   UNL d   1      -2.185  -1.360  -0.584  0.00  0.00    -0.081 Cl
ATOM      8  C   UNL d   1       0.378  -0.785   0.019  0.00  0.00     0.050 A 
ATOM      9  C   UNL d   1       1.430   0.096   0.272  0.00  0.00     0.036 A 
ATOM     10  C   UNL d   1       1.232   1.474   0.245  0.00  0.00     0.039 A 
ATOM     11 CL   UNL d   1       2.992  -0.537   0.623  0.00  0.00    -0.084 Cl
BRANCH   5  12
ATOM     12  O   UNL d   1      -2.345   1.616  -0.579  0.00  0.00    -0.358 OA
ATOM     13  H   UNL d   1      -2.943   0.861  -0.741  0.00  0.00     0.217 HD
ENDBRANCH   5  12
ENDBRANCH   3   4
BRANCH   1  14
ATOM     14  C   UNL d   1       0.410   5.676  -0.032  0.00  0.00     0.037 A 
ATOM     15  C   UNL d   1       1.114   6.590   0.777  0.00  0.00    -0.034 A 
ATOM     16  C   UNL d   1       0.814   7.964   0.705  0.00  0.00     0.028 A 
ATOM     17  C   UNL d   1       2.192   6.159   1.736  0.00  0.00     0.050 C 
ATOM     18  C   UNL d   1      -0.160   8.431  -0.175  0.00  0.00     0.011 A 
ATOM     19  C   UNL d   1      -0.837   7.544  -1.002  0.00  0.00     0.021 A 
ATOM     20 BR   UNL d   1      -0.548  10.278  -0.262  0.00  0.00    -0.051 Br
ATOM     21  C   UNL d   1      -0.542   6.181  -0.936  0.00  0.00     0.031 A 
ENDBRANCH   1  14
TORSDOF 3
