REMARK  3 active torsions:
REMARK  status: ('A' for Active; 'I' for Inactive)
REMARK    1  A    between atoms: C_6  and  CA_2 
REMARK    2  A    between atoms: C_7  and  C_4 
REMARK    3  A    between atoms: OXT_11  and  C_6 
ROOT
ATOM      1  N   UNL d   1      -1.339   1.218   0.016  0.00  0.00     0.118 N 
ATOM      2  CA  UNL d   1      -0.028   1.309  -0.674  0.00  0.00     0.336 C 
ATOM      3  S   UNL d   1      -0.246  -1.222   0.083  0.00  0.00    -0.117 SA
ATOM      4  C   UNL d   1      -1.750  -0.198   0.044  0.00  0.00     0.317 C 
ATOM      5  C   UNL d   1       0.877   0.201  -0.092  0.00  0.00     0.044 C 
ATOM      6  C   UNL d   1       1.373   0.574   1.317  0.00  0.00     0.029 C 
ATOM      7  C   UNL d   1       2.081  -0.171  -0.958  0.00  0.00     0.029 C 
ATOM      8  H   UNL d   1      -2.053   1.733  -0.499  0.00  0.00     0.319 HD
ENDROOT
BRANCH   4   9
ATOM      9  C   UNL d   1      -2.665  -0.501   1.212  0.00  0.00    -0.015 A 
ATOM     10  C   UNL d   1      -2.537   0.155   2.447  0.00  0.00     0.011 A 
ATOM     11  C   UNL d   1      -3.391  -0.140   3.512  0.00  0.00     0.007 A 
ATOM     12  C   UNL d   1      -4.388  -1.107   3.372  0.00  0.00    -0.062 A 
ATOM     13  C   UNL d   1      -4.515  -1.782   2.153  0.00  0.00     0.007 A 
ATOM     14  C   UNL d   1      -5.302  -1.405   4.522  0.00  0.00     0.048 C 
ATOM     15  C   UNL d   1      -3.660  -1.484   1.086  0.00  0.00     0.011 A 
ENDBRANCH   4   9
BRANCH   2  16
ATOM     16  C   UNL d   1      -0.219   1.280  -2.207  0.00  0.00     0.175 C 
ATOM     17  O   UNL d   1      -1.123   0.697  -2.791  0.00  0.00    -0.648 OA
BRANCH  16  18
ATOM     18  OXT UNL d   1       0.688   2.027  -2.882  0.00  0.00    -0.775 OA
ATOM     19  HXT UNL d   1       1.323   2.517  -2.328  0.00  0.00     0.167 HD
ENDBRANCH  16  18
ENDBRANCH   2  16
TORSDOF 3
