REMARK  4 active torsions:
REMARK  status: ('A' for Active; 'I' for Inactive)
REMARK    1  A    between atoms: C_3  and  C_1 
REMARK       I    between atoms: C_2  and  N_7 
REMARK    2  A    between atoms: O_9  and  C_2 
REMARK    3  A    between atoms: N_4  and  O_9 
REMARK    4  A    between atoms: N_7  and  C_12 
ROOT
ATOM      1  C   UNL d   1       2.654  -3.055  -2.994  0.00  0.00     0.387 C 
ATOM      2  N   UNL d   1       1.997  -3.888  -3.873  0.00  0.00    -0.301 N 
ATOM      3  O   UNL d   1       3.307  -2.105  -3.427  0.00  0.00    -0.236 OA
ATOM      4  H   UNL d   1       2.198  -3.618  -4.827  0.00  0.00     0.171 HD
ENDROOT
BRANCH   1   5
ATOM      5  O   UNL d   1       2.570  -3.384  -1.664  0.00  0.00    -0.181 OA
BRANCH   5   6
ATOM      6  N   UNL d   1       2.382  -2.214  -0.908  0.00  0.00    -0.264 N 
ATOM      7  C   UNL d   1       2.726  -2.346   0.335  0.00  0.00     0.014 C 
ATOM      8  C   UNL d   1       2.408  -1.222   1.281  0.00  0.00     0.084 C 
ATOM      9  C   UNL d   1       3.393  -3.542   0.969  0.00  0.00     0.084 C 
ATOM     10  C   UNL d   1       1.506  -1.802   2.367  0.00  0.00     0.277 C 
ATOM     11  N   UNL d   1       2.145  -2.940   3.055  0.00  0.00     0.084 N 
ATOM     12  C   UNL d   1       2.507  -4.021   2.117  0.00  0.00     0.277 C 
ATOM     13  C   UNL d   1       1.247  -3.463   4.090  0.00  0.00     0.309 C 
ATOM     14  HN  UNL d   1       2.013  -1.348  -1.299  1.00  0.00     0.194 HD
ENDBRANCH   5   6
ENDBRANCH   1   5
BRANCH   2  15
ATOM     15  C   UNL d   1       1.119  -4.961  -3.669  0.00  0.00     0.037 A 
ATOM     16  C   UNL d   1       0.669  -5.383  -2.419  0.00  0.00     0.045 A 
ATOM     17  C   UNL d   1      -0.114  -6.542  -2.284  0.00  0.00     0.050 A 
ATOM     18  C   UNL d   1      -0.522  -7.230  -3.434  0.00  0.00     0.016 A 
ATOM     19  C   UNL d   1      -0.139  -6.773  -4.693  0.00  0.00     0.003 A 
ATOM     20  C   UNL d   1       0.684  -5.650  -4.807  0.00  0.00     0.029 A 
BRANCH  17  21
ATOM     21  C   UNL d   1      -0.450  -7.072  -0.912  0.00  0.00     0.417 C 
ATOM     22  F   UNL d   1       0.040  -6.304   0.103  0.00  0.00    -0.166 F 
ATOM     23  F   UNL d   1       0.062  -8.318  -0.707  0.00  0.00    -0.166 F 
ATOM     24  F   UNL d   1      -1.788  -7.173  -0.692  0.00  0.00    -0.166 F 
ENDBRANCH  17  21
ENDBRANCH   2  15
TORSDOF 4
