REMARK  4 active torsions:
REMARK  status: ('A' for Active; 'I' for Inactive)
REMARK    1  A    between atoms: C_10  and  C_4 
REMARK    2  A    between atoms: O_13  and  C_9 
REMARK    3  A    between atoms: C_20  and  O_13 
REMARK    4  A    between atoms: O_21  and  C_14 
ROOT
ATOM      1  C   UNL d   1       1.711   4.292  -1.039  0.00  0.00     0.103 A 
ATOM      2  C   UNL d   1       0.481   2.507   0.108  0.00  0.00     0.013 A 
ATOM      3  C   UNL d   1       1.254   2.973  -0.969  0.00  0.00     0.055 A 
ATOM      4  C   UNL d   1       1.323   5.194  -0.034  0.00  0.00     0.101 A 
ATOM      5  C   UNL d   1       0.139   3.403   1.125  0.00  0.00     0.018 A 
ATOM      6  C   UNL d   1       0.558   4.734   1.048  0.00  0.00     0.040 A 
ENDROOT
BRANCH   2   7
ATOM      7  C   UNL d   1       0.082   1.106   0.135  0.00  0.00     0.138 A 
ATOM      8  N   UNL d   1       0.531   0.223  -0.822  0.00  0.00    -0.318 N 
ATOM      9  C   UNL d   1      -0.031  -0.914  -0.478  0.00  0.00     0.189 A 
ATOM     10  HN  UNL d   1       1.153   0.408  -1.609  1.00  0.00     0.169 HD
ATOM     11  O   UNL d   1      -0.804  -0.786   0.647  0.00  0.00    -0.217 OA
ATOM     12  C   UNL d   1       0.163  -2.131  -1.213  0.00  0.00     0.058 A 
ATOM     13  N   UNL d   1      -0.722   0.548   1.052  0.00  0.00    -0.242 N 
ATOM     14  HN  UNL d   1      -1.168   0.993   1.855  1.00  0.00     0.196 HD
ATOM     15  S   UNL d   1      -0.648  -3.582  -0.805  0.00  0.00    -0.098 SA
ATOM     16  C   UNL d   1       0.992  -2.309  -2.307  0.00  0.00     0.024 A 
ATOM     17  C   UNL d   1       0.110  -4.441  -2.078  0.00  0.00     0.050 A 
ATOM     18  C   UNL d   1       0.965  -3.644  -2.804  0.00  0.00     0.009 A 
ENDBRANCH   2   7
BRANCH   1  19
ATOM     19  O   UNL d   1       2.520   4.723  -2.058  0.00  0.00    -0.343 OA
BRANCH  19  20
ATOM     20  C   UNL d   1       3.421   3.774  -2.641  0.00  0.00     0.129 C 
ATOM     21  C   UNL d   1       4.485   3.285  -1.654  0.00  0.00     0.032 C 
ATOM     22  C   UNL d   1       5.759   3.070  -2.460  0.00  0.00     0.002 C 
ATOM     23  C   UNL d   1       5.534   3.700  -3.828  0.00  0.00     0.002 C 
ATOM     24  C   UNL d   1       4.229   4.473  -3.732  0.00  0.00     0.032 C 
ENDBRANCH  19  20
ENDBRANCH   1  19
BRANCH   4  25
ATOM     25  O   UNL d   1       1.662   6.519   0.068  0.00  0.00    -0.353 OA
ATOM     26  C   UNL d   1       1.809   7.232  -1.153  0.00  0.00     0.210 C 
ENDBRANCH   4  25
TORSDOF 4
