REMARK  2 active torsions:
REMARK  status: ('A' for Active; 'I' for Inactive)
REMARK    1  A    between atoms: N_2  and  S_1 
REMARK    2  A    between atoms: C_8  and  S_1 
ROOT
ATOM      1  N   UNL d   1       0.507  -0.731  -1.432  0.00  0.00    -0.306 N 
ATOM      2  C   UNL d   1       0.602  -1.998  -4.037  0.00  0.00     0.167 C 
ATOM      3  C   UNL d   1       0.215  -2.784  -2.790  0.00  0.00     0.089 C 
ATOM      4  C   UNL d   1       0.208  -0.536  -3.876  0.00  0.00     0.089 C 
ATOM      5  C   UNL d   1       0.839  -2.174  -1.547  0.00  0.00     0.140 C 
ATOM      6  C   UNL d   1       0.859   0.065  -2.633  0.00  0.00     0.140 C 
ATOM      7  O   UNL d   1      -0.084  -2.573  -5.161  0.00  0.00    -0.353 OA
ATOM      8  O   UNL d   1       2.022  -2.073  -4.256  0.00  0.00    -0.353 OA
ATOM      9  C   UNL d   1       2.184  -2.976  -5.347  0.00  0.00     0.197 C 
ATOM     10  C   UNL d   1       0.922  -2.803  -6.146  0.00  0.00     0.197 C 
ENDROOT
BRANCH   1  11
ATOM     11  S   UNL d   1       0.883  -0.014   0.081  0.00  0.00     0.260 S 
ATOM     12  O   UNL d   1       0.113  -0.712   1.091  0.00  0.00    -0.200 OA
ATOM     13  O   UNL d   1       0.801   1.424  -0.055  0.00  0.00    -0.200 OA
BRANCH  11  14
ATOM     14  C   UNL d   1       2.596  -0.437   0.357  0.00  0.00     0.079 A 
ATOM     15  C   UNL d   1       3.615   0.393  -0.118  0.00  0.00     0.025 A 
ATOM     16  C   UNL d   1       4.948   0.073   0.157  0.00  0.00     0.002 A 
ATOM     17  C   UNL d   1       5.258  -1.062   0.913  0.00  0.00     0.000 A 
ATOM     18  C   UNL d   1       4.237  -1.879   1.401  0.00  0.00     0.002 A 
ATOM     19  C   UNL d   1       2.905  -1.561   1.135  0.00  0.00     0.025 A 
ENDBRANCH  11  14
ENDBRANCH   1  11
TORSDOF 2
