REMARK  2 active torsions:
REMARK  status: ('A' for Active; 'I' for Inactive)
REMARK    1  A    between atoms: C_6  and  C_1 
REMARK       I    between atoms: N_11  and  C_6 
REMARK    2  A    between atoms: N_12  and  N_11 
ROOT
ATOM      1  C   UNL d   1       1.728   1.649  -0.033  0.00  0.00     0.179 A 
ATOM      2  N   UNL d   1       2.199   0.361  -0.035  0.00  0.00    -0.304 N 
ATOM      3  N   UNL d   1       0.471   1.970  -0.032  0.00  0.00    -0.337 N 
ATOM      4  HN  UNL d   1       0.168   2.944  -0.036  1.00  0.00     0.167 HD
ATOM      5  C   UNL d   1       1.378  -0.732  -0.025  0.00  0.00     0.259 A 
ATOM      6  C   UNL d   1      -0.067  -0.437  -0.021  0.00  0.00     0.059 A 
ATOM      7  C   UNL d   1      -0.455   0.909  -0.023  0.00  0.00     0.049 A 
ATOM      8  O   UNL d   1       1.809  -1.878  -0.017  0.00  0.00    -0.267 OA
ATOM      9  C   UNL d   1      -1.012  -1.468  -0.011  0.00  0.00     0.019 A 
ATOM     10  C   UNL d   1      -1.819   1.208  -0.010  0.00  0.00     0.030 A 
ATOM     11  C   UNL d   1      -2.369  -1.152  -0.001  0.00  0.00     0.001 A 
ATOM     12  C   UNL d   1      -2.772   0.184   0.001  0.00  0.00     0.002 A 
ATOM     13  H   UNL d   1       3.200   0.204  -0.033  0.00  0.00     0.171 HD
ENDROOT
BRANCH   1  14
ATOM     14  C   UNL d   1       2.809   2.721  -0.029  0.00  0.00     0.299 C 
ATOM     15  O   UNL d   1       3.988   2.394   0.012  0.00  0.00    -0.263 OA
ATOM     16  N   UNL d   1       2.317   4.014  -0.063  0.00  0.00    -0.287 N 
ATOM     17  H   UNL d   1       1.310   4.143  -0.182  0.00  0.00     0.183 HD
BRANCH  16  18
ATOM     18  N   UNL d   1       3.196   5.116  -0.120  0.00  0.00    -0.247 NA
ATOM     19  H   UNL d   1       4.152   4.747  -0.217  0.00  0.00     0.143 HD
ATOM     20  H   UNL d   1       3.192   5.576   0.794  0.00  0.00     0.143 HD
ENDBRANCH  16  18
ENDBRANCH   1  14
TORSDOF 2
