REMARK  8 active torsions:
REMARK  status: ('A' for Active; 'I' for Inactive)
REMARK    1  A    between atoms: C_11  and  C_1 
REMARK    2  A    between atoms: N_7  and  C_2 
REMARK    3  A    between atoms: C_6  and  C_3 
REMARK       I    between atoms: C_10  and  N_7 
REMARK    4  A    between atoms: C_9  and  C_12 
REMARK    5  A    between atoms: O_17  and  C_10 
REMARK    6  A    between atoms: O_23  and  C_11 
REMARK    7  A    between atoms: N_22  and  C_12 
REMARK    8  A    between atoms: N_13  and  O_17 
ROOT
ATOM      1  N   UNL d   1      -1.557   2.379   0.940  0.00  0.00    -0.279 N 
ATOM      2  C   UNL d   1      -0.881   2.902   2.022  0.00  0.00     0.388 C 
ATOM      3  O   UNL d   1       0.261   2.516   2.275  0.00  0.00    -0.236 OA
ATOM      4  H   UNL d   1      -1.042   1.671   0.425  0.00  0.00     0.173 HD
ENDROOT
BRANCH   1   5
ATOM      5  C   UNL d   1      -2.924   2.417   0.783  0.00  0.00     0.193 C 
ATOM      6  C   UNL d   1      -3.760   1.685  -0.038  0.00  0.00     0.122 C 
ATOM      7  C   UNL d   1      -5.068   1.996   0.448  0.00  0.00     0.089 C 
ATOM      8  N   UNL d   1      -5.009   2.981   1.358  0.00  0.00    -0.257 N 
ATOM      9  O   UNL d   1      -3.675   3.234   1.562  0.00  0.00    -0.218 OA
ATOM     10  HN  UNL d   1      -5.796   3.448   1.808  1.00  0.00     0.195 HD
BRANCH   6  11
ATOM     11  C   UNL d   1      -3.314   0.750  -1.042  0.00  0.00     0.299 C 
ATOM     12  O   UNL d   1      -2.142   0.419  -1.164  0.00  0.00    -0.259 OA
BRANCH  11  13
ATOM     13  O   UNL d   1      -4.326   0.317  -1.851  0.00  0.00    -0.322 OA
ATOM     14  C   UNL d   1      -3.919  -0.593  -2.874  0.00  0.00     0.213 C 
ENDBRANCH  11  13
ENDBRANCH   6  11
BRANCH   7  15
ATOM     15  C   UNL d   1      -6.351   1.332   0.219  0.00  0.00     0.037 A 
ATOM     16  C   UNL d   1      -6.538  -0.008   0.616  0.00  0.00     0.048 A 
ATOM     17 CL   UNL d   1      -5.256  -0.989   1.253  0.00  0.00    -0.083 Cl
ATOM     18  C   UNL d   1      -7.801  -0.608   0.553  0.00  0.00     0.025 A 
ATOM     19  C   UNL d   1      -8.901   0.119   0.109  0.00  0.00     0.003 A 
ATOM     20  C   UNL d   1      -8.734   1.439  -0.301  0.00  0.00     0.025 A 
ATOM     21  C   UNL d   1      -7.468   2.042  -0.257  0.00  0.00     0.048 A 
ATOM     22 CL   UNL d   1      -7.364   3.676  -0.824  0.00  0.00    -0.083 Cl
ENDBRANCH   7  15
ENDBRANCH   1   5
BRANCH   2  23
ATOM     23  O   UNL d   1      -1.571   3.852   2.731  0.00  0.00    -0.179 OA
BRANCH  23  24
ATOM     24  N   UNL d   1      -1.194   3.834   4.089  0.00  0.00    -0.244 N 
ATOM     25  C   UNL d   1      -1.879   4.714   4.759  0.00  0.00     0.112 C 
ATOM     26  HN  UNL d   1      -0.486   3.219   4.489  1.00  0.00     0.196 HD
BRANCH  25  27
ATOM     27  C   UNL d   1      -1.751   4.708   6.242  0.00  0.00     0.047 A 
ATOM     28  C   UNL d   1      -1.342   5.855   6.939  0.00  0.00     0.049 A 
ATOM     29 CL   UNL d   1      -0.920   7.332   6.143  0.00  0.00    -0.083 Cl
ATOM     30  C   UNL d   1      -1.256   5.840   8.337  0.00  0.00     0.025 A 
ATOM     31  C   UNL d   1      -1.573   4.685   9.050  0.00  0.00     0.003 A 
ATOM     32  C   UNL d   1      -1.988   3.544   8.366  0.00  0.00     0.025 A 
ATOM     33  C   UNL d   1      -2.084   3.552   6.969  0.00  0.00     0.049 A 
ATOM     34 CL   UNL d   1      -2.699   2.111   6.230  0.00  0.00    -0.083 Cl
ENDBRANCH  25  27
BRANCH  25  35
ATOM     35  N   UNL d   1      -2.726   5.630   4.176  0.00  0.00    -0.286 NA
ATOM     36  H   UNL d   1      -2.748   6.550   4.604  0.00  0.00     0.125 HD
ATOM     37  H   UNL d   1      -2.602   5.683   3.170  0.00  0.00     0.125 HD
ENDBRANCH  25  35
ENDBRANCH  23  24
ENDBRANCH   2  23
TORSDOF 8
