REMARK  2 active torsions:
REMARK  status: ('A' for Active; 'I' for Inactive)
REMARK    1  A    between atoms: N_9  and  C_1 
REMARK    2  A    between atoms: C_6  and  C_3 
ROOT
ATOM      1  C   UNL d   1      -1.265  -1.604   0.009  0.00  0.00     0.045 A 
ATOM      2  C   UNL d   1      -0.166  -0.694  -0.006  0.00  0.00     0.018 A 
ATOM      3  C   UNL d   1      -2.741   0.313  -0.030  0.00  0.00     0.119 A 
ATOM      4  N   UNL d   1      -1.695   1.180  -0.034  0.00  0.00    -0.352 N 
ATOM      5  HN  UNL d   1      -1.854   2.187  -0.047  1.00  0.00     0.166 HD
ATOM      6  C   UNL d   1      -2.557  -1.067  -0.006  0.00  0.00     0.064 A 
ATOM      7  C   UNL d   1      -0.448   0.686  -0.022  0.00  0.00     0.045 A 
ATOM      8  C   UNL d   1       1.194  -1.099   0.028  0.00  0.00     0.022 A 
ATOM      9  C   UNL d   1       0.604   1.592  -0.010  0.00  0.00     0.031 A 
ATOM     10  C   UNL d   1       2.246  -0.175  -0.002  0.00  0.00    -0.061 A 
ATOM     11  C   UNL d   1       1.939   1.180  -0.009  0.00  0.00     0.009 A 
ATOM     12  C   UNL d   1       3.674  -0.631  -0.031  0.00  0.00     0.048 C 
ENDROOT
BRANCH   1  13
ATOM     13  N   UNL d   1      -1.050  -2.987   0.089  0.00  0.00    -0.377 N 
ATOM     14  C   UNL d   1      -2.043  -3.833   0.781  0.00  0.00     0.153 C 
ATOM     15  C   UNL d   1      -1.381  -5.178   1.159  0.00  0.00     0.289 C 
ATOM     16  N   UNL d   1      -0.799  -5.895   0.005  0.00  0.00     0.086 N 
ATOM     17  C   UNL d   1       0.109  -4.995  -0.739  0.00  0.00     0.289 C 
ATOM     18  H   UNL d   1      -0.264  -6.691   0.350  0.00  0.00     0.316 HD
ATOM     19  C   UNL d   1      -0.543  -3.646  -1.136  0.00  0.00     0.153 C 
ENDBRANCH   1  13
BRANCH   3  20
ATOM     20  C   UNL d   1      -4.160   0.862  -0.047  0.00  0.00     0.432 C 
ATOM     21  F   UNL d   1      -4.244   2.223  -0.062  0.00  0.00    -0.165 F 
ATOM     22  F   UNL d   1      -4.869   0.437  -1.136  0.00  0.00    -0.165 F 
ATOM     23  F   UNL d   1      -4.888   0.459   1.036  0.00  0.00    -0.165 F 
ENDBRANCH   3  20
TORSDOF 2
