REMARK  2 active torsions:
REMARK  status: ('A' for Active; 'I' for Inactive)
REMARK    1  A    between atoms: N_4  and  C_2 
REMARK    2  A    between atoms: C_11  and  N_4 
ROOT
ATOM      1  C   UNL d   1      -1.026  -0.794  -0.069  0.00  0.00     0.017 A 
ATOM      2  C   UNL d   1      -2.393  -1.176  -0.057  0.00  0.00     0.046 A 
ATOM      3  C   UNL d   1      -0.732   0.586   0.038  0.00  0.00     0.046 A 
ATOM      4  C   UNL d   1       0.592   0.998   0.038  0.00  0.00     0.054 A 
ATOM      5  C   UNL d   1       0.044  -1.712  -0.195  0.00  0.00     0.018 A 
ATOM      6  N   UNL d   1      -1.679   1.528   0.139  0.00  0.00    -0.365 N 
ATOM      7  HN  UNL d   1      -1.432   2.515   0.212  1.00  0.00     0.165 HD
ATOM      8  C   UNL d   1       1.634   0.083  -0.071  0.00  0.00     0.036 A 
ATOM      9  C   UNL d   1      -3.367  -0.181   0.052  0.00  0.00     0.047 A 
ATOM     10  C   UNL d   1       1.368  -1.274  -0.194  0.00  0.00     0.025 A 
ATOM     11  C   UNL d   1      -2.968   1.135   0.140  0.00  0.00     0.090 A 
ATOM     12 CL   UNL d   1       3.264   0.637  -0.059  0.00  0.00    -0.084 Cl
ENDROOT
BRANCH   2  13
ATOM     13  N   UNL d   1      -2.760  -2.552  -0.108  0.00  0.00    -0.355 N 
ATOM     14  H   UNL d   1      -2.352  -3.048   0.682  0.00  0.00     0.166 HD
BRANCH  13  15
ATOM     15  C   UNL d   1      -4.021  -3.073  -0.473  0.00  0.00     0.032 A 
ATOM     16  C   UNL d   1      -4.674  -2.634  -1.633  0.00  0.00     0.029 A 
ATOM     17  C   UNL d   1      -5.948  -3.102  -1.960  0.00  0.00     0.002 A 
ATOM     18  C   UNL d   1      -6.583  -4.023  -1.130  0.00  0.00     0.000 A 
ATOM     19  C   UNL d   1      -5.937  -4.486   0.015  0.00  0.00     0.002 A 
ATOM     20  C   UNL d   1      -4.660  -4.018   0.339  0.00  0.00     0.029 A 
ENDBRANCH  13  15
ENDBRANCH   2  13
TORSDOF 2
