REMARK  3 active torsions:
REMARK  status: ('A' for Active; 'I' for Inactive)
REMARK    1  A    between atoms: N_2  and  C_1 
REMARK    2  A    between atoms: N_3  and  C_1 
REMARK    3  A    between atoms: C_4  and  N_3 
ROOT
ATOM      1  C   UNL d   1       0.728   0.003  -0.086  0.00  0.00     0.175 C 
ATOM      2  S   UNL d   1      -0.323  -1.206   0.406  0.00  0.00    -0.041 SA
ENDROOT
BRANCH   1   3
ATOM      3  N   UNL d   1       0.355   1.337  -0.421  0.00  0.00    -0.349 N 
ATOM      4  C   UNL d   1       0.792   1.804  -1.771  0.00  0.00     0.083 C 
ATOM      5  C   UNL d   1       0.993   3.320  -1.786  0.00  0.00     0.025 C 
ATOM      6  C   UNL d   1      -0.164   1.360  -2.894  0.00  0.00     0.032 C 
ATOM      7  C   UNL d   1      -0.269   4.049  -1.354  0.00  0.00     0.004 C 
ATOM      8  C   UNL d   1      -0.696   3.559   0.019  0.00  0.00     0.025 C 
ATOM      9  C   UNL d   1      -0.860   2.024   0.122  0.00  0.00     0.083 C 
ATOM     10  C   UNL d   1      -1.163   1.751   1.607  0.00  0.00     0.032 C 
ENDBRANCH   1   3
BRANCH   1  11
ATOM     11  N   UNL d   1       2.121  -0.128  -0.143  0.00  0.00    -0.333 N 
ATOM     12  H   UNL d   1       2.609   0.727   0.057  0.00  0.00     0.168 HD
BRANCH  11  13
ATOM     13  C   UNL d   1       2.923  -1.282  -0.333  0.00  0.00     0.040 A 
ATOM     14  C   UNL d   1       4.261  -1.302   0.094  0.00  0.00    -0.035 A 
ATOM     15  C   UNL d   1       5.095  -2.365  -0.310  0.00  0.00     0.015 A 
ATOM     16  C   UNL d   1       4.856  -0.293   1.038  0.00  0.00     0.050 C 
ATOM     17  C   UNL d   1       4.617  -3.411  -1.101  0.00  0.00    -0.061 A 
ATOM     18  C   UNL d   1       3.268  -3.422  -1.450  0.00  0.00     0.009 A 
ATOM     19  C   UNL d   1       5.547  -4.476  -1.605  0.00  0.00     0.048 C 
ATOM     20  C   UNL d   1       2.437  -2.365  -1.080  0.00  0.00     0.030 A 
ENDBRANCH  11  13
ENDBRANCH   1  11
TORSDOF 3
