REMARK  4 active torsions:
REMARK  status: ('A' for Active; 'I' for Inactive)
REMARK    1  A    between atoms: C_8  and  C_1 
REMARK    2  A    between atoms: C_12  and  C_4 
REMARK       I    between atoms: C_7  and  N_11 
REMARK       I    between atoms: N_9  and  C_7 
REMARK    3  A    between atoms: N_11  and  C_8 
REMARK    4  A    between atoms: C_10  and  N_9 
ROOT
ATOM      1  C   UNL d   1       0.262  -2.575   0.242  0.00  0.00     0.168 C 
ENDROOT
BRANCH   1   2
ATOM      2  C   UNL d   1      -0.475  -1.860  -0.836  0.00  0.00     0.020 A 
ATOM      3  C   UNL d   1      -1.805  -1.316  -0.739  0.00  0.00     0.075 A 
ATOM      4  N   UNL d   1      -2.188  -0.794  -1.913  0.00  0.00    -0.260 N 
ATOM      5  O   UNL d   1      -1.138  -0.967  -2.779  0.00  0.00    -0.242 OA
ATOM      6  HN  UNL d   1      -3.085  -0.354  -2.122  1.00  0.00     0.195 HD
ATOM      7  C   UNL d   1      -0.119  -1.603  -2.149  0.00  0.00     0.082 A 
ATOM      8  C   UNL d   1       1.066  -1.873  -2.990  0.00  0.00     0.079 C 
BRANCH   3   9
ATOM      9  C   UNL d   1      -2.723  -1.307   0.404  0.00  0.00    -0.007 A 
ATOM     10  C   UNL d   1      -4.088  -1.563   0.207  0.00  0.00     0.014 A 
ATOM     11  C   UNL d   1      -4.977  -1.567   1.286  0.00  0.00     0.001 A 
ATOM     12  C   UNL d   1      -4.509  -1.321   2.575  0.00  0.00     0.000 A 
ATOM     13  C   UNL d   1      -3.159  -1.051   2.784  0.00  0.00     0.001 A 
ATOM     14  C   UNL d   1      -2.274  -1.030   1.702  0.00  0.00     0.014 A 
ENDBRANCH   3   9
ENDBRANCH   1   2
BRANCH   1  15
ATOM     15  N   UNL d   1       1.615  -2.895  -0.143  0.00  0.00    -0.338 N 
ATOM     16  C   UNL d   1       2.324  -4.052  -0.075  0.00  0.00     0.320 C 
ATOM     17  N   UNL d   1       1.643  -5.180   0.274  0.00  0.00    -0.309 N 
ATOM     18  O   UNL d   1       3.519  -3.969  -0.353  0.00  0.00    -0.247 OA
ATOM     19  H   UNL d   1       0.669  -5.085   0.501  0.00  0.00     0.170 HD
ATOM     20  H   UNL d   1       2.222  -2.115  -0.360  0.00  0.00     0.164 HD
BRANCH  17  21
ATOM     21  C   UNL d   1       2.127  -6.508   0.282  0.00  0.00     0.037 A 
ATOM     22  C   UNL d   1       3.429  -6.862  -0.074  0.00  0.00     0.036 A 
ATOM     23  C   UNL d   1       3.816  -8.207  -0.142  0.00  0.00    -0.059 A 
ATOM     24  C   UNL d   1       5.205  -8.575  -0.574  0.00  0.00     0.048 C 
ATOM     25  C   UNL d   1       2.896  -9.204   0.197  0.00  0.00     0.013 A 
ATOM     26  C   UNL d   1       1.596  -8.871   0.591  0.00  0.00    -0.059 A 
ATOM     27  C   UNL d   1       1.219  -7.521   0.625  0.00  0.00     0.036 A 
ATOM     28  C   UNL d   1       0.613  -9.958   0.911  0.00  0.00     0.048 C 
ENDBRANCH  17  21
ENDBRANCH   1  15
TORSDOF 4
