REMARK  2 active torsions:
REMARK  status: ('A' for Active; 'I' for Inactive)
REMARK    1  A    between atoms: C_2  and  C_1 
REMARK       I    between atoms: N_7  and  C_2 
REMARK    2  A    between atoms: C_10  and  N_7 
ROOT
ATOM      1  C   UNL d   1      -2.505  -0.200  -0.144  0.00  0.00     0.102 C 
ATOM      2  N   UNL d   1      -1.590   0.790  -0.454  0.00  0.00    -0.351 N 
ATOM      3  C   UNL d   1      -1.796  -1.134   0.588  0.00  0.00     0.049 C 
ATOM      4  C   UNL d   1      -0.303   0.358  -0.212  0.00  0.00     0.044 A 
ATOM      5  C   UNL d   1      -0.406  -0.884   0.408  0.00  0.00    -0.001 A 
ATOM      6  C   UNL d   1       0.768  -1.621   0.686  0.00  0.00    -0.049 A 
ATOM      7  C   UNL d   1       0.927   0.959  -0.514  0.00  0.00     0.037 A 
ATOM      8  C   UNL d   1       2.006  -1.031   0.358  0.00  0.00     0.014 A 
ATOM      9  C   UNL d   1       2.094   0.242  -0.217  0.00  0.00    -0.059 A 
ATOM     10  C   UNL d   1       0.761  -3.025   1.223  0.00  0.00     0.049 C 
ATOM     11  C   UNL d   1       3.448   0.798  -0.556  0.00  0.00     0.048 C 
ATOM     12  H   UNL d   1      -1.838   1.649  -0.924  0.00  0.00     0.166 HD
ENDROOT
BRANCH   1  13
ATOM     13  C   UNL d   1      -3.900  -0.098  -0.547  0.00  0.00     0.270 C 
ATOM     14  N   UNL d   1      -4.649  -1.274  -0.765  0.00  0.00    -0.346 N 
ATOM     15  C   UNL d   1      -4.066  -2.613  -0.832  0.00  0.00     0.153 C 
ATOM     16  O   UNL d   1      -4.390   1.009  -0.761  0.00  0.00    -0.266 OA
BRANCH  14  17
ATOM     17  C   UNL d   1      -6.045  -1.130  -1.250  0.00  0.00     0.090 C 
ATOM     18  C   UNL d   1      -6.083  -1.133  -2.787  0.00  0.00     0.055 C 
ATOM     19  C   UNL d   1      -7.510  -1.081  -3.322  0.00  0.00     0.274 C 
ATOM     20  N   UNL d   1      -8.317  -2.175  -2.768  0.00  0.00     0.084 N 
ATOM     21  C   UNL d   1      -8.397  -2.075  -1.306  0.00  0.00     0.274 C 
ATOM     22  C   UNL d   1      -9.654  -2.174  -3.364  0.00  0.00     0.309 C 
ATOM     23  C   UNL d   1      -7.006  -2.188  -0.680  0.00  0.00     0.055 C 
ENDBRANCH  14  17
ENDBRANCH   1  13
TORSDOF 2
