REMARK  4 active torsions:
REMARK  status: ('A' for Active; 'I' for Inactive)
REMARK    1  A    between atoms: C_3  and  C_1 
REMARK    2  A    between atoms: C_5  and  C_1 
REMARK    3  A    between atoms: C_4  and  C_3 
REMARK    4  A    between atoms: N_6  and  C_5 
ROOT
ATOM      1  C   UNL d   1       0.985   0.095  -0.028  0.00  0.00     0.102 C 
ATOM      2  C   UNL d   1       0.311  -0.446   1.009  0.00  0.00     0.060 C 
ATOM      3  S   UNL d   1      -1.425  -0.642   1.079  0.00  0.00    -0.121 SA
ATOM      4  S   UNL d   1       1.139  -1.057   2.436  0.00  0.00    -0.121 SA
ATOM      5  C   UNL d   1      -0.161  -2.232   2.896  0.00  0.00     0.090 C 
ATOM      6  C   UNL d   1      -1.495  -1.553   2.654  0.00  0.00     0.090 C 
ENDROOT
BRANCH   1   7
ATOM      7  C   UNL d   1       0.371   0.579  -1.317  0.00  0.00     0.226 C 
ATOM      8  O   UNL d   1      -0.643   0.051  -1.765  0.00  0.00    -0.284 OA
BRANCH   7   9
ATOM      9  C   UNL d   1       1.078   1.605  -2.068  0.00  0.00     0.126 A 
ATOM     10  O   UNL d   1       2.005   2.399  -1.448  0.00  0.00    -0.319 OA
ATOM     11  C   UNL d   1       2.563   3.193  -2.397  0.00  0.00     0.142 A 
ATOM     12  C   UNL d   1       1.980   2.960  -3.620  0.00  0.00     0.027 A 
ATOM     13  C   UNL d   1       1.002   1.958  -3.404  0.00  0.00     0.043 A 
ENDBRANCH   7   9
ENDBRANCH   1   7
BRANCH   1  14
ATOM     14  C   UNL d   1       2.505   0.095  -0.028  0.00  0.00    -0.031 C 
BRANCH  14  15
ATOM     15  N   UNL d   1       3.766   0.095  -0.028  0.00  0.00    -0.365 N 
ATOM     16  HN2 UNL d   1       2.746   0.095  -0.028  1.00  0.00     0.165 HD
ATOM     17  HN1 UNL d   1       4.786   0.095  -0.028  1.00  0.00     0.165 HD
ENDBRANCH  14  15
ENDBRANCH   1  14
TORSDOF 4
