REMARK  9 active torsions:
REMARK  status: ('A' for Active; 'I' for Inactive)
REMARK    1  A    between atoms: C_8  and  N_1 
REMARK    2  A    between atoms: C_7  and  C_2 
REMARK    3  A    between atoms: N_10  and  C_9 
REMARK    4  A    between atoms: C_19  and  N_10 
REMARK    5  A    between atoms: C_20  and  N_10 
REMARK    6  A    between atoms: O_17  and  C_21 
REMARK    7  A    between atoms: O_18  and  C_22 
REMARK    8  A    between atoms: C_22  and  C_19 
REMARK    9  A    between atoms: C_21  and  C_20 
ROOT
ATOM      1  N   UNL d   1       0.307  -0.330  -0.968  0.00  0.00    -0.225 N 
ATOM      2  C   UNL d   1       0.948  -0.743   0.206  0.00  0.00     0.139 C 
ATOM      3  N   UNL d   1      -1.091  -0.202   0.664  0.00  0.00    -0.007 NA
ATOM      4  N   UNL d   1      -0.996  -0.086  -0.649  0.00  0.00     0.001 NA
ATOM      5  N   UNL d   1       0.095  -0.589   1.208  0.00  0.00    -0.270 N 
ATOM      6  HN  UNL d   1       0.290  -0.734   2.199  1.00  0.00     0.185 HD
ENDROOT
BRANCH   2   7
ATOM      7  C   UNL d   1       2.256  -1.262   0.292  0.00  0.00     0.068 C 
ATOM      8  C   UNL d   1       2.584  -2.446  -0.247  0.00  0.00     0.089 C 
BRANCH   8   9
ATOM      9  N   UNL d   1       3.796  -3.114  -0.164  0.00  0.00    -0.386 N 
BRANCH   9  10
ATOM     10  C   UNL d   1       4.645  -3.143   1.050  0.00  0.00     0.148 C 
BRANCH  10  11
ATOM     11  C   UNL d   1       4.331  -4.362   1.936  0.00  0.00     0.183 C 
BRANCH  11  12
ATOM     12  O   UNL d   1       4.780  -5.584   1.343  0.00  0.00    -0.399 OA
ATOM     13  H   UNL d   1       4.455  -6.306   1.907  0.00  0.00     0.209 HD
ENDBRANCH  11  12
ENDBRANCH  10  11
ENDBRANCH   9  10
BRANCH   9  14
ATOM     14  C   UNL d   1       4.334  -3.877  -1.311  0.00  0.00     0.148 C 
BRANCH  14  15
ATOM     15  C   UNL d   1       5.133  -2.951  -2.245  0.00  0.00     0.183 C 
BRANCH  15  16
ATOM     16  O   UNL d   1       6.354  -2.523  -1.637  0.00  0.00    -0.399 OA
ATOM     17  H   UNL d   1       6.761  -1.880  -2.240  0.00  0.00     0.209 HD
ENDBRANCH  15  16
ENDBRANCH  14  15
ENDBRANCH   9  14
ENDBRANCH   8   9
ENDBRANCH   2   7
BRANCH   1  18
ATOM     18  C   UNL d   1       0.752  -0.091  -2.303  0.00  0.00     0.056 A 
ATOM     19  C   UNL d   1      -0.212   0.123  -3.307  0.00  0.00     0.032 A 
ATOM     20  C   UNL d   1       0.168   0.393  -4.626  0.00  0.00     0.021 A 
ATOM     21  C   UNL d   1       1.518   0.467  -4.948  0.00  0.00     0.011 A 
ATOM     22  C   UNL d   1       2.487   0.272  -3.965  0.00  0.00     0.021 A 
ATOM     23 BR   UNL d   1       2.040   0.848  -6.724  0.00  0.00    -0.051 Br
ATOM     24  C   UNL d   1       2.108  -0.006  -2.643  0.00  0.00     0.032 A 
ENDBRANCH   1  18
TORSDOF 9
