REMARK  3 active torsions:
REMARK  status: ('A' for Active; 'I' for Inactive)
REMARK    1  A    between atoms: C_6  and  N_1 
REMARK    2  A    between atoms: C_7  and  C_6 
REMARK       I    between atoms: N_10  and  C_7 
REMARK    3  A    between atoms: C_12  and  N_10 
ROOT
ATOM      1  C   UNL d   1       2.143  -2.342  -0.127  0.00  0.00     0.239 C 
ENDROOT
BRANCH   1   2
ATOM      2  N   UNL d   1       1.402  -1.135  -0.385  0.00  0.00    -0.268 N 
ATOM      3  C   UNL d   1       0.185  -0.809   0.170  0.00  0.00     0.374 A 
ATOM      4  O   UNL d   1      -0.369   0.326  -0.441  0.00  0.00    -0.257 OA
ATOM      5  O   UNL d   1      -0.391  -1.422   1.061  0.00  0.00    -0.237 OA
ATOM      6  C   UNL d   1       0.575   0.620  -1.398  0.00  0.00     0.125 A 
ATOM      7  C   UNL d   1       1.655  -0.235  -1.383  0.00  0.00     0.146 A 
ATOM      8  C   UNL d   1       0.512   1.628  -2.329  0.00  0.00     0.043 A 
ATOM      9  N   UNL d   1       2.712  -0.178  -2.204  0.00  0.00    -0.350 N 
ATOM     10  C   UNL d   1       2.661   0.850  -3.092  0.00  0.00     0.090 A 
ATOM     11  HN  UNL d   1       3.483  -0.844  -2.167  1.00  0.00     0.166 HD
ATOM     12  C   UNL d   1       1.596   1.753  -3.198  0.00  0.00     0.020 A 
ENDBRANCH   1   2
BRANCH   1  13
ATOM     13  C   UNL d   1       3.600  -2.176   0.319  0.00  0.00     0.240 C 
ATOM     14  N   UNL d   1       4.444  -1.722  -0.681  0.00  0.00    -0.326 N 
ATOM     15  H   UNL d   1       3.984  -1.284  -1.482  0.00  0.00     0.169 HD
ATOM     16  O   UNL d   1       3.940  -2.470   1.462  0.00  0.00    -0.271 OA
BRANCH  14  17
ATOM     17  C   UNL d   1       5.838  -1.538  -0.580  0.00  0.00     0.036 A 
ATOM     18  C   UNL d   1       6.621  -2.126   0.415  0.00  0.00     0.053 A 
ATOM     19  C   UNL d   1       7.981  -1.826   0.500  0.00  0.00     0.036 A 
ATOM     20 CL   UNL d   1       8.936  -2.531   1.748  0.00  0.00    -0.084 Cl
ATOM     21  C   UNL d   1       8.575  -0.954  -0.408  0.00  0.00     0.024 A 
ATOM     22  C   UNL d   1       7.811  -0.406  -1.436  0.00  0.00     0.004 A 
ATOM     23  C   UNL d   1       6.450  -0.710  -1.530  0.00  0.00     0.029 A 
ENDBRANCH  14  17
ENDBRANCH   1  13
TORSDOF 3
