REMARK  6 active torsions:
REMARK  status: ('A' for Active; 'I' for Inactive)
REMARK    1  A    between atoms: C_3  and  N_1 
REMARK    2  A    between atoms: C_2  and  C_6 
REMARK    3  A    between atoms: O_4  and  C_2 
REMARK    4  A    between atoms: C_14  and  O_4 
REMARK    5  A    between atoms: O_13  and  C_15 
REMARK    6  A    between atoms: C_16  and  O_13 
ROOT
ATOM      1  C   UNL d   1      -3.694  -3.501   2.247  0.00  0.00     0.079 A 
ATOM      2  C   UNL d   1      -4.636  -3.466  -0.384  0.00  0.00     0.076 A 
ATOM      3  C   UNL d   1      -2.903  -4.013   1.218  0.00  0.00     0.040 A 
ATOM      4  C   UNL d   1      -5.005  -3.096   1.984  0.00  0.00     0.040 A 
ATOM      5  C   UNL d   1      -5.475  -3.079   0.664  0.00  0.00     0.040 A 
ATOM      6  C   UNL d   1      -3.378  -4.003  -0.097  0.00  0.00     0.040 A 
ENDROOT
BRANCH   1   7
ATOM      7  O   UNL d   1      -3.239  -3.375   3.580  0.00  0.00    -0.275 OA
BRANCH   7   8
ATOM      8  C   UNL d   1      -1.950  -2.891   3.781  0.00  0.00     0.298 C 
ATOM      9  O   UNL d   1      -1.114  -2.655   2.923  0.00  0.00    -0.259 OA
BRANCH   8  10
ATOM     10  C   UNL d   1      -1.662  -2.624   5.223  0.00  0.00     0.040 A 
ATOM     11  C   UNL d   1      -2.609  -2.759   6.247  0.00  0.00     0.020 A 
ATOM     12  C   UNL d   1      -2.274  -2.404   7.567  0.00  0.00     0.037 A 
ATOM     13  C   UNL d   1      -0.992  -1.919   7.862  0.00  0.00     0.102 A 
ATOM     14  C   UNL d   1      -0.032  -1.804   6.852  0.00  0.00     0.037 A 
ATOM     15  C   UNL d   1      -0.373  -2.156   5.541  0.00  0.00     0.020 A 
BRANCH  13  16
ATOM     16  N   UNL d   1      -0.651  -1.510   9.233  0.00  0.00    -0.116 N 
ATOM     17  O   UNL d   1       0.506  -1.123   9.449  0.00  0.00    -0.532 OA
ATOM     18  O   UNL d   1      -1.545  -1.571  10.088  0.00  0.00    -0.532 OA
ENDBRANCH  13  16
ENDBRANCH   8  10
ENDBRANCH   7   8
ENDBRANCH   1   7
BRANCH   2  19
ATOM     19  O   UNL d   1      -5.122  -3.323  -1.667  0.00  0.00    -0.311 OA
BRANCH  19  20
ATOM     20  C   UNL d   1      -4.275  -2.858  -2.656  0.00  0.00     0.076 A 
ATOM     21  C   UNL d   1      -4.571  -3.257  -3.962  0.00  0.00     0.037 A 
ATOM     22  C   UNL d   1      -3.744  -2.871  -5.022  0.00  0.00     0.003 A 
ATOM     23  C   UNL d   1      -2.621  -2.081  -4.779  0.00  0.00     0.000 A 
ATOM     24  C   UNL d   1      -2.350  -1.639  -3.486  0.00  0.00     0.003 A 
ATOM     25  C   UNL d   1      -3.191  -2.002  -2.432  0.00  0.00     0.037 A 
ENDBRANCH  19  20
ENDBRANCH   2  19
TORSDOF 6
