REMARK  5 active torsions:
REMARK  status: ('A' for Active; 'I' for Inactive)
REMARK    1  A    between atoms: C_7  and  C_1 
REMARK    2  A    between atoms: C_12  and  C_2 
REMARK    3  A    between atoms: N_6  and  C_7 
REMARK    4  A    between atoms: C_8  and  C_11 
REMARK    5  A    between atoms: C_10  and  C_8 
ROOT
ATOM      1  N   UNL d   1       3.544   0.966   0.083  0.00  0.00     0.092 N 
ATOM      2  C   UNL d   1       4.971  -1.657  -0.165  0.00  0.00     0.064 C 
ATOM      3  C   UNL d   1       4.949  -0.839   1.134  0.00  0.00     0.043 C 
ATOM      4  C   UNL d   1       4.797  -0.687  -1.334  0.00  0.00     0.043 C 
ATOM      5  C   UNL d   1       3.716   0.071   1.246  0.00  0.00     0.273 C 
ATOM      6  C   UNL d   1       3.558   0.194  -1.176  0.00  0.00     0.273 C 
ENDROOT
BRANCH   1   7
ATOM      7  C   UNL d   1       2.235   1.675   0.153  0.00  0.00     0.315 C 
BRANCH   7   8
ATOM      8  C   UNL d   1       2.143   2.725   1.220  0.00  0.00     0.016 A 
ATOM      9  C   UNL d   1       1.011   3.568   1.535  0.00  0.00     0.067 A 
ATOM     10  N   UNL d   1       1.302   4.375   2.573  0.00  0.00    -0.300 N 
ATOM     11  N   UNL d   1       2.567   4.094   2.887  0.00  0.00    -0.311 N 
ATOM     12  HN  UNL d   1       0.688   5.055   3.021  1.00  0.00     0.187 HD
ATOM     13  C   UNL d   1       3.131   3.161   2.083  0.00  0.00     0.118 A 
ATOM     14  H   UNL d   1       2.992   4.594   3.661  0.00  0.00     0.186 HD
BRANCH   9  15
ATOM     15  C   UNL d   1      -0.312   3.685   0.890  0.00  0.00    -0.007 A 
ATOM     16  C   UNL d   1      -0.953   2.612   0.262  0.00  0.00     0.014 A 
ATOM     17  C   UNL d   1      -2.200   2.782  -0.356  0.00  0.00     0.001 A 
ATOM     18  C   UNL d   1      -2.830   4.022  -0.336  0.00  0.00     0.000 A 
ATOM     19  C   UNL d   1      -2.222   5.096   0.303  0.00  0.00     0.001 A 
ATOM     20  C   UNL d   1      -0.971   4.928   0.909  0.00  0.00     0.014 A 
ENDBRANCH   9  15
ENDBRANCH   7   8
ENDBRANCH   1   7
BRANCH   2  21
ATOM     21  C   UNL d   1       3.906  -2.757  -0.114  0.00  0.00     0.163 C 
ATOM     22  O   UNL d   1       2.853  -2.629   0.510  0.00  0.00    -0.292 OA
BRANCH  21  23
ATOM     23  C   UNL d   1       4.104  -4.062  -0.805  0.00  0.00     0.010 A 
ATOM     24  C   UNL d   1       3.462  -5.181  -0.250  0.00  0.00     0.018 A 
ATOM     25  C   UNL d   1       3.467  -6.406  -0.916  0.00  0.00     0.043 A 
ATOM     26  C   UNL d   1       4.112  -6.504  -2.140  0.00  0.00     0.116 A 
ATOM     27  C   UNL d   1       4.783  -5.414  -2.687  0.00  0.00     0.043 A 
ATOM     28  F   UNL d   1       4.074  -7.662  -2.813  0.00  0.00    -0.206 F 
ATOM     29  C   UNL d   1       4.794  -4.186  -2.016  0.00  0.00     0.018 A 
ENDBRANCH  21  23
ENDBRANCH   2  21
TORSDOF 5
