REMARK  4 active torsions:
REMARK  status: ('A' for Active; 'I' for Inactive)
REMARK    1  A    between atoms: C_4  and  N_1 
REMARK    2  A    between atoms: S_10  and  C_2 
REMARK    3  A    between atoms: C_16  and  S_10 
REMARK    4  A    between atoms: C_17  and  C_16 
ROOT
ATOM      1  N   UNL d   1       1.162  -0.365  -0.516  0.00  0.00    -0.272 N 
ATOM      2  C   UNL d   1       1.288   0.890  -0.019  0.00  0.00     0.166 A 
ATOM      3  C   UNL d   1      -0.202  -0.591  -0.493  0.00  0.00     0.343 A 
ATOM      4  N   UNL d   1       0.161   1.498   0.221  0.00  0.00    -0.276 N 
ATOM      5  HN  UNL d   1       0.026   2.446   0.571  1.00  0.00     0.189 HD
ATOM      6  N   UNL d   1      -0.790   0.592  -0.099  0.00  0.00    -0.249 N 
ATOM      7  O   UNL d   1      -0.806  -1.627  -0.727  0.00  0.00    -0.245 OA
ATOM      8  H   UNL d   1      -1.774   0.729   0.089  0.00  0.00     0.192 HD
ENDROOT
BRANCH   2   9
ATOM      9  S   UNL d   1       2.797   1.667   0.316  0.00  0.00    -0.088 SA
BRANCH   9  10
ATOM     10  C   UNL d   1       2.153   3.140   1.161  0.00  0.00     0.121 C 
BRANCH  10  11
ATOM     11  C   UNL d   1       3.127   4.090   1.822  0.00  0.00    -0.049 A 
ATOM     12  C   UNL d   1       2.688   5.409   2.046  0.00  0.00     0.008 A 
ATOM     13  C   UNL d   1       3.423   6.297   2.833  0.00  0.00     0.007 A 
ATOM     14  C   UNL d   1       4.625   5.889   3.414  0.00  0.00    -0.062 A 
ATOM     15  C   UNL d   1       5.086   4.590   3.172  0.00  0.00     0.007 A 
ATOM     16  C   UNL d   1       5.348   6.793   4.368  0.00  0.00     0.048 C 
ATOM     17  C   UNL d   1       4.345   3.697   2.387  0.00  0.00     0.008 A 
ENDBRANCH  10  11
ENDBRANCH   9  10
ENDBRANCH   2   9
BRANCH   1  18
ATOM     18  C   UNL d   1       2.037  -1.491  -0.812  0.00  0.00     0.105 C 
ATOM     19  C   UNL d   1       3.320  -1.376  -1.678  0.00  0.00     0.032 C 
ATOM     20  C   UNL d   1       4.503  -0.801  -0.937  0.00  0.00    -0.024 C 
ATOM     21  C   UNL d   1       3.751  -2.859  -1.585  0.00  0.00     0.019 C 
ATOM     22  C   UNL d   1       4.841  -1.661   0.038  0.00  0.00    -0.026 C 
ATOM     23  C   UNL d   1       3.893  -2.828  -0.056  0.00  0.00     0.010 C 
ATOM     24  C   UNL d   1       2.505  -2.327   0.410  0.00  0.00     0.035 C 
ENDBRANCH   1  18
TORSDOF 4
