REMARK  3 active torsions:
REMARK  status: ('A' for Active; 'I' for Inactive)
REMARK       I    between atoms: N_2  and  C_1 
REMARK    1  A    between atoms: C_5  and  C_1 
REMARK    2  A    between atoms: C_3  and  N_2 
REMARK    3  A    between atoms: C_6  and  C_3 
ROOT
ATOM      1  C   UNL d   1       0.702  -0.556  -1.297  0.00  0.00     0.252 C 
ATOM      2  N   UNL d   1       0.268  -1.268  -0.201  0.00  0.00    -0.349 N 
ATOM      3  O   UNL d   1       1.576  -0.949  -2.062  0.00  0.00    -0.268 OA
ATOM      4  H   UNL d   1      -0.319  -0.817   0.485  0.00  0.00     0.163 HD
ENDROOT
BRANCH   2   5
ATOM      5  C   UNL d   1       0.773  -2.601   0.096  0.00  0.00     0.114 C 
ATOM      6  C   UNL d   1      -0.371  -3.615   0.063  0.00  0.00     0.037 C 
BRANCH   5   7
ATOM      7  C   UNL d   1       1.516  -2.627   1.420  0.00  0.00    -0.036 A 
ATOM      8  C   UNL d   1       0.890  -2.303   2.635  0.00  0.00     0.009 A 
ATOM      9  C   UNL d   1       1.599  -2.355   3.837  0.00  0.00     0.001 A 
ATOM     10  C   UNL d   1       2.940  -2.735   3.845  0.00  0.00     0.000 A 
ATOM     11  C   UNL d   1       3.575  -3.059   2.649  0.00  0.00     0.001 A 
ATOM     12  C   UNL d   1       2.870  -3.002   1.445  0.00  0.00     0.009 A 
ENDBRANCH   5   7
ENDBRANCH   2   5
BRANCH   1  13
ATOM     13  C   UNL d   1       0.051   0.756  -1.542  0.00  0.00     0.032 A 
ATOM     14  C   UNL d   1       0.791   1.756  -2.188  0.00  0.00     0.017 A 
ATOM     15  C   UNL d   1       0.197   2.979  -2.502  0.00  0.00     0.001 A 
ATOM     16  C   UNL d   1      -1.141   3.206  -2.182  0.00  0.00     0.000 A 
ATOM     17  C   UNL d   1      -1.885   2.213  -1.544  0.00  0.00     0.001 A 
ATOM     18  C   UNL d   1      -1.293   0.988  -1.223  0.00  0.00     0.017 A 
ENDBRANCH   1  13
TORSDOF 3
