REMARK  3 active torsions:
REMARK  status: ('A' for Active; 'I' for Inactive)
REMARK    1  A    between atoms: C_9  and  C_1 
REMARK       I    between atoms: C_6  and  N_8 
REMARK    2  A    between atoms: C_12  and  C_6 
REMARK    3  A    between atoms: N_8  and  C_16 
ROOT
ATOM      1  C   UNL d   1      -3.882  -0.772  -0.010  0.00  0.00    -0.002 A 
ATOM      2  C   UNL d   1      -4.647  -0.242  -1.059  0.00  0.00     0.016 A 
ATOM      3  C   UNL d   1      -4.549  -1.532   0.959  0.00  0.00     0.016 A 
ATOM      4  C   UNL d   1      -6.683  -1.258  -0.171  0.00  0.00     0.034 A 
ATOM      5  C   UNL d   1      -5.922  -1.773   0.875  0.00  0.00     0.030 A 
ATOM      6  C   UNL d   1      -6.031  -0.487  -1.143  0.00  0.00     0.030 A 
ENDROOT
BRANCH   1   7
ATOM      7  C   UNL d   1      -2.437  -0.512   0.084  0.00  0.00     0.085 A 
ATOM      8  N   UNL d   1      -1.826   0.553  -0.398  0.00  0.00    -0.349 N 
ATOM      9  C   UNL d   1      -0.477   0.528  -0.064  0.00  0.00     0.050 A 
ATOM     10  HN  UNL d   1      -2.279   1.290  -0.939  1.00  0.00     0.166 HD
ATOM     11  C   UNL d   1       0.474   1.525  -0.357  0.00  0.00     0.031 A 
ATOM     12  C   UNL d   1      -0.057  -0.601   0.636  0.00  0.00     0.034 A 
ATOM     13  C   UNL d   1       1.804   1.365   0.058  0.00  0.00     0.009 A 
ATOM     14  C   UNL d   1       2.207   0.226   0.760  0.00  0.00    -0.061 A 
ATOM     15  C   UNL d   1       1.272  -0.775   1.057  0.00  0.00     0.028 A 
ATOM     16  C   UNL d   1       3.637   0.077   1.192  0.00  0.00     0.048 C 
ATOM     17  S   UNL d   1      -1.393  -1.650   0.856  0.00  0.00    -0.070 SA
ENDBRANCH   1   7
BRANCH   4  18
ATOM     18  N   UNL d   1      -8.078  -1.474  -0.295  0.00  0.00    -0.327 N 
ATOM     19  C   UNL d   1      -8.879  -2.206   0.575  0.00  0.00     0.226 C 
ATOM     20  O   UNL d   1      -8.475  -2.755   1.607  0.00  0.00    -0.273 OA
ATOM     21  H   UNL d   1      -8.526  -1.048  -1.095  0.00  0.00     0.169 HD
BRANCH  19  22
ATOM     22  C   UNL d   1     -10.365  -2.325   0.211  0.00  0.00     0.078 C 
ATOM     23  C   UNL d   1     -10.874  -3.782  -0.004  0.00  0.00     0.014 C 
ATOM     24  C   UNL d   1     -11.899  -3.210  -0.993  0.00  0.00     0.002 C 
ATOM     25  C   UNL d   1     -10.932  -2.024  -1.198  0.00  0.00     0.014 C 
ENDBRANCH  19  22
ENDBRANCH   4  18
TORSDOF 3
