REMARK  1 active torsions:
REMARK  status: ('A' for Active; 'I' for Inactive)
REMARK    1  A    between atoms: C_9  and  C_5 
ROOT
ATOM      1  N   UNL d   1       0.778  -1.341  -0.009  0.00  0.00    -0.295 N 
ATOM      2  HN  UNL d   1       0.861  -2.357  -0.040  1.00  0.00     0.187 HD
ATOM      3  N   UNL d   1      -0.455  -0.729   0.019  0.00  0.00    -0.262 N 
ATOM      4  C   UNL d   1      -0.648   0.644   0.056  0.00  0.00     0.261 A 
ATOM      5  C   UNL d   1       1.833  -0.583   0.004  0.00  0.00     0.058 A 
ATOM      6  C   UNL d   1       0.578   1.465   0.044  0.00  0.00     0.078 A 
ATOM      7  C   UNL d   1       1.783   0.897   0.015  0.00  0.00     0.037 A 
ATOM      8  O   UNL d   1      -1.741   1.203   0.085  0.00  0.00    -0.267 OA
ATOM      9  C   UNL d   1      -1.614  -1.597   0.006  0.00  0.00     0.181 C 
ENDROOT
BRANCH   5  10
ATOM     10  C   UNL d   1       3.187  -1.213  -0.035  0.00  0.00    -0.008 A 
ATOM     11  C   UNL d   1       3.342  -2.429  -0.715  0.00  0.00     0.014 A 
ATOM     12  C   UNL d   1       4.598  -3.032  -0.802  0.00  0.00     0.001 A 
ATOM     13  C   UNL d   1       5.704  -2.431  -0.203  0.00  0.00     0.000 A 
ATOM     14  C   UNL d   1       5.553  -1.236   0.498  0.00  0.00     0.001 A 
ATOM     15  C   UNL d   1       4.297  -0.629   0.589  0.00  0.00     0.014 A 
ENDBRANCH   5  10
TORSDOF 1
