REMARK  8 active torsions:
REMARK  status: ('A' for Active; 'I' for Inactive)
REMARK    1  A    between atoms: C_4  and  C_1 
REMARK       I    between atoms: N_5  and  C_1 
REMARK    2  A    between atoms: N_2  and  N_5 
REMARK    3  A    between atoms: C_11  and  C_4 
REMARK    4  A    between atoms: C_7  and  C_9 
REMARK    5  A    between atoms: C_13  and  C_8 
REMARK    6  A    between atoms: C_10  and  O_18 
REMARK    7  A    between atoms: O_18  and  C_11 
REMARK    8  A    between atoms: O_19  and  C_12 
ROOT
ATOM      1  C   UNL d   1       0.909   0.070  -0.108  0.00  0.00     0.237 C 
ATOM      2  N   UNL d   1       2.292   0.086  -0.069  0.00  0.00    -0.270 N 
ATOM      3  O   UNL d   1       0.237   0.387  -1.092  0.00  0.00    -0.272 OA
ATOM      4  H   UNL d   1       2.812  -0.160   0.762  0.00  0.00     0.190 HD
ENDROOT
BRANCH   1   5
ATOM      5  C   UNL d   1       0.211  -0.375   1.172  0.00  0.00     0.131 C 
BRANCH   5   6
ATOM      6  C   UNL d   1       1.146  -0.746   2.314  0.00  0.00     0.185 C 
BRANCH   6   7
ATOM      7  O   UNL d   1       0.406  -1.158   3.458  0.00  0.00    -0.351 OA
BRANCH   7   8
ATOM      8  C   UNL d   1       1.155  -1.477   4.562  0.00  0.00     0.068 A 
ATOM      9  C   UNL d   1       2.552  -1.489   4.638  0.00  0.00     0.039 A 
ATOM     10  C   UNL d   1       3.198  -1.831   5.835  0.00  0.00     0.039 A 
ATOM     11  C   UNL d   1       2.449  -2.167   6.962  0.00  0.00     0.068 A 
ATOM     12  C   UNL d   1       1.057  -2.140   6.888  0.00  0.00     0.039 A 
ATOM     13  C   UNL d   1       0.414  -1.809   5.694  0.00  0.00     0.039 A 
BRANCH  11  14
ATOM     14  O   UNL d   1       2.966  -2.482   8.187  0.00  0.00    -0.356 OA
ATOM     15  C   UNL d   1       4.246  -3.103   8.179  0.00  0.00     0.210 C 
ENDBRANCH  11  14
ENDBRANCH   7   8
ENDBRANCH   6   7
ENDBRANCH   5   6
ENDBRANCH   1   5
BRANCH   2  16
ATOM     16  N   UNL d   1       3.017   0.470  -1.156  0.00  0.00    -0.309 N 
ATOM     17  C   UNL d   1       4.301   0.445  -0.999  0.00  0.00     0.107 C 
ATOM     18  HN  UNL d   1       2.579   0.757  -2.031  1.00  0.00     0.186 HD
BRANCH  17  19
ATOM     19  C   UNL d   1       5.194   0.862  -2.089  0.00  0.00     0.019 C 
ATOM     20  C   UNL d   1       6.526   0.871  -1.938  0.00  0.00     0.013 C 
BRANCH  20  21
ATOM     21  C   UNL d   1       7.434   1.343  -2.993  0.00  0.00    -0.036 A 
ATOM     22  C   UNL d   1       7.057   2.354  -3.891  0.00  0.00     0.011 A 
ATOM     23  C   UNL d   1       7.938   2.806  -4.873  0.00  0.00     0.001 A 
ATOM     24  C   UNL d   1       9.217   2.266  -4.961  0.00  0.00     0.000 A 
ATOM     25  C   UNL d   1       9.616   1.276  -4.063  0.00  0.00     0.001 A 
ATOM     26  C   UNL d   1       8.731   0.820  -3.081  0.00  0.00     0.011 A 
ENDBRANCH  20  21
ENDBRANCH  17  19
ENDBRANCH   2  16
TORSDOF 8
