REMARK  5 active torsions:
REMARK  status: ('A' for Active; 'I' for Inactive)
REMARK    1  A    between atoms: C_6  and  N_1 
REMARK    2  A    between atoms: S_10  and  C_2 
REMARK    3  A    between atoms: C_16  and  S_10 
REMARK    4  A    between atoms: C_12  and  C_16 
REMARK    5  A    between atoms: C_20  and  C_12 
ROOT
ATOM      1  N   UNL d   1       0.999  -0.662   0.090  0.00  0.00    -0.241 N 
ATOM      2  C   UNL d   1       0.971   0.713   0.138  0.00  0.00     0.170 A 
ATOM      3  C   UNL d   1      -0.341  -1.014   0.019  0.00  0.00     0.347 A 
ATOM      4  N   UNL d   1      -0.219   1.247   0.121  0.00  0.00    -0.275 N 
ATOM      5  HN  UNL d   1      -0.463   2.237   0.146  1.00  0.00     0.189 HD
ATOM      6  N   UNL d   1      -1.055   0.180   0.061  0.00  0.00    -0.249 N 
ATOM      7  O   UNL d   1      -0.882  -2.104  -0.058  0.00  0.00    -0.245 OA
ATOM      8  H   UNL d   1      -2.060   0.261  -0.006  0.00  0.00     0.192 HD
ENDROOT
BRANCH   1   9
ATOM      9  C   UNL d   1       2.086  -1.589   0.058  0.00  0.00     0.049 A 
ATOM     10  C   UNL d   1       1.907  -2.901  -0.423  0.00  0.00     0.069 A 
ATOM     11  C   UNL d   1       2.976  -3.803  -0.512  0.00  0.00     0.104 A 
ATOM     12  O   UNL d   1       2.689  -5.064  -0.974  0.00  0.00    -0.346 OA
ATOM     13  C   UNL d   1       4.262  -3.405  -0.156  0.00  0.00     0.102 A 
ATOM     14  C   UNL d   1       3.765  -5.972  -0.705  0.00  0.00     0.202 C 
ATOM     15  C   UNL d   1       5.091  -5.346  -1.105  0.00  0.00     0.202 C 
ATOM     16  O   UNL d   1       5.368  -4.204  -0.286  0.00  0.00    -0.346 OA
ATOM     17  C   UNL d   1       4.457  -2.142   0.379  0.00  0.00     0.042 A 
ATOM     18  C   UNL d   1       3.376  -1.259   0.505  0.00  0.00     0.033 A 
ENDBRANCH   1   9
BRANCH   2  19
ATOM     19  S   UNL d   1       2.378   1.725   0.045  0.00  0.00    -0.084 SA
BRANCH  19  20
ATOM     20  C   UNL d   1       1.851   3.196   0.956  0.00  0.00     0.166 C 
BRANCH  20  21
ATOM     21  C   UNL d   1       1.543   2.948   2.425  0.00  0.00     0.169 C 
ATOM     22  O   UNL d   1       1.558   1.832   2.942  0.00  0.00    -0.291 OA
BRANCH  21  23
ATOM     23  C   UNL d   1       1.214   4.143   3.277  0.00  0.00     0.010 A 
ATOM     24  C   UNL d   1       1.260   5.455   2.782  0.00  0.00     0.015 A 
ATOM     25  C   UNL d   1       0.936   6.537   3.608  0.00  0.00     0.001 A 
ATOM     26  C   UNL d   1       0.565   6.320   4.933  0.00  0.00     0.000 A 
ATOM     27  C   UNL d   1       0.526   5.023   5.439  0.00  0.00     0.001 A 
ATOM     28  C   UNL d   1       0.852   3.939   4.617  0.00  0.00     0.015 A 
ENDBRANCH  21  23
ENDBRANCH  20  21
ENDBRANCH  19  20
ENDBRANCH   2  19
TORSDOF 5
