REMARK  4 active torsions:
REMARK  status: ('A' for Active; 'I' for Inactive)
REMARK       I    between atoms: N_6  and  C_1 
REMARK       I    between atoms: N_7  and  C_1 
REMARK    1  A    between atoms: N_2  and  N_7 
REMARK    2  A    between atoms: N_4  and  N_6 
REMARK    3  A    between atoms: C_10  and  C_8 
REMARK    4  A    between atoms: C_11  and  C_9 
ROOT
ATOM      1  C   UNL d   1       1.159  -0.065   0.038  0.00  0.00     0.353 C 
ATOM      2  N   UNL d   1       0.422  -0.690   1.057  0.00  0.00    -0.250 N 
ATOM      3  N   UNL d   1       0.297   0.509  -0.908  0.00  0.00    -0.250 N 
ATOM      4  O   UNL d   1       2.385  -0.025  -0.015  0.00  0.00    -0.244 OA
ATOM      5  H   UNL d   1      -0.579  -0.649   1.012  0.00  0.00     0.192 HD
ATOM      6  H   UNL d   1      -0.692   0.399  -0.782  0.00  0.00     0.192 HD
ENDROOT
BRANCH   2   7
ATOM      7  N   UNL d   1       1.037  -1.317   2.108  0.00  0.00    -0.300 N 
ATOM      8  C   UNL d   1       0.334  -1.878   3.054  0.00  0.00     0.032 C 
ATOM      9  C   UNL d   1      -1.185  -1.911   3.109  0.00  0.00     0.070 C 
ATOM     10  HN  UNL d   1       2.055  -1.345   2.152  1.00  0.00     0.186 HD
BRANCH   8  11
ATOM     11  C   UNL d   1       1.056  -2.555   4.202  0.00  0.00    -0.013 A 
ATOM     12  C   UNL d   1       2.456  -2.567   4.245  0.00  0.00     0.014 A 
ATOM     13  C   UNL d   1       3.135  -3.175   5.311  0.00  0.00     0.007 A 
ATOM     14  C   UNL d   1       2.429  -3.786   6.356  0.00  0.00    -0.062 A 
ATOM     15  C   UNL d   1       1.034  -3.784   6.312  0.00  0.00     0.007 A 
ATOM     16  C   UNL d   1       3.160  -4.423   7.503  0.00  0.00     0.048 C 
ATOM     17  C   UNL d   1       0.355  -3.177   5.247  0.00  0.00     0.014 A 
ENDBRANCH   8  11
ENDBRANCH   2   7
BRANCH   3  18
ATOM     18  N   UNL d   1       0.774   1.173  -2.006  0.00  0.00    -0.300 N 
ATOM     19  C   UNL d   1      -0.042   1.697  -2.880  0.00  0.00     0.032 C 
ATOM     20  C   UNL d   1      -1.558   1.647  -2.797  0.00  0.00     0.070 C 
ATOM     21  HN  UNL d   1       1.782   1.260  -2.143  1.00  0.00     0.186 HD
BRANCH  19  22
ATOM     22  C   UNL d   1       0.539   2.412  -4.083  0.00  0.00    -0.013 A 
ATOM     23  C   UNL d   1       1.928   2.499  -4.236  0.00  0.00     0.014 A 
ATOM     24  C   UNL d   1       2.486   3.143  -5.350  0.00  0.00     0.007 A 
ATOM     25  C   UNL d   1       1.668   3.711  -6.333  0.00  0.00    -0.062 A 
ATOM     26  C   UNL d   1       0.283   3.634  -6.181  0.00  0.00     0.007 A 
ATOM     27  C   UNL d   1       2.280   4.384  -7.528  0.00  0.00     0.048 C 
ATOM     28  C   UNL d   1      -0.278   2.992  -5.068  0.00  0.00     0.014 A 
ENDBRANCH  19  22
ENDBRANCH   3  18
TORSDOF 4
