REMARK  5 active torsions:
REMARK  status: ('A' for Active; 'I' for Inactive)
REMARK    1  A    between atoms: C_4  and  C_1 
REMARK    2  A    between atoms: C_16  and  N_2 
REMARK    3  A    between atoms: C_8  and  C_3 
REMARK    4  A    between atoms: O_15  and  C_8 
REMARK    5  A    between atoms: C_18  and  O_15 
ROOT
ATOM      1  C   UNL d   1      -0.177  -1.245   0.104  0.00  0.00     0.095 C 
ATOM      2  N   UNL d   1       1.105  -0.694   0.191  0.00  0.00    -0.254 N 
ATOM      3  C   UNL d   1      -1.058  -0.158   0.196  0.00  0.00     0.093 C 
ATOM      4  N   UNL d   1       1.055   0.589   0.625  0.00  0.00    -0.297 N 
ATOM      5  HN  UNL d   1       1.832   1.160   0.954  1.00  0.00     0.187 HD
ATOM      6  C   UNL d   1      -0.226   0.945   0.531  0.00  0.00     0.041 C 
ATOM      7  C   UNL d   1      -0.571   2.376   0.742  0.00  0.00     0.071 C 
ENDROOT
BRANCH   3   8
ATOM      8  C   UNL d   1      -2.501  -0.158  -0.003  0.00  0.00     0.303 C 
ATOM      9  O   UNL d   1      -3.041  -0.791  -0.901  0.00  0.00    -0.259 OA
BRANCH   8  10
ATOM     10  O   UNL d   1      -3.177   0.678   0.899  0.00  0.00    -0.275 OA
BRANCH  10  11
ATOM     11  C   UNL d   1      -4.576   0.920   0.888  0.00  0.00     0.079 A 
ATOM     12  C   UNL d   1      -5.513   0.086   0.278  0.00  0.00     0.037 A 
ATOM     13  C   UNL d   1      -6.871   0.424   0.323  0.00  0.00     0.003 A 
ATOM     14  C   UNL d   1      -7.288   1.575   0.987  0.00  0.00     0.000 A 
ATOM     15  C   UNL d   1      -6.351   2.394   1.616  0.00  0.00     0.003 A 
ATOM     16  C   UNL d   1      -4.994   2.067   1.569  0.00  0.00     0.037 A 
ENDBRANCH  10  11
ENDBRANCH   8  10
ENDBRANCH   3   8
BRANCH   1  17
ATOM     17  C   UNL d   1      -0.443  -2.665   0.048  0.00  0.00     0.076 A 
ATOM     18  C   UNL d   1       0.089  -3.715   0.803  0.00  0.00     0.043 A 
ATOM     19  N   UNL d   1      -0.382  -4.980   0.461  0.00  0.00    -0.298 N 
ATOM     20  C   UNL d   1       1.107  -3.674   1.889  0.00  0.00     0.071 C 
ATOM     21  N   UNL d   1      -1.252  -4.936  -0.528  0.00  0.00    -0.269 N 
ATOM     22  HN  UNL d   1      -0.088  -5.841   0.922  1.00  0.00     0.187 HD
ATOM     23  S   UNL d   1      -1.517  -3.391  -1.087  0.00  0.00     0.006 SA
ATOM     24  HN  UNL d   1      -1.714  -5.761  -0.910  1.00  0.00     0.195 HD
ENDBRANCH   1  17
BRANCH   2  25
ATOM     25  C   UNL d   1       2.382  -1.283  -0.061  0.00  0.00     0.057 A 
ATOM     26  C   UNL d   1       2.538  -2.380  -0.917  0.00  0.00     0.031 A 
ATOM     27  C   UNL d   1       3.791  -2.985  -1.059  0.00  0.00     0.002 A 
ATOM     28  C   UNL d   1       4.894  -2.487  -0.368  0.00  0.00     0.000 A 
ATOM     29  C   UNL d   1       4.757  -1.363   0.443  0.00  0.00     0.002 A 
ATOM     30  C   UNL d   1       3.510  -0.751   0.586  0.00  0.00     0.031 A 
ENDBRANCH   2  25
TORSDOF 5
