REMARK  10 active torsions:
REMARK  status: ('A' for Active; 'I' for Inactive)
REMARK    1  A    between atoms: C_3  and  C_1 
REMARK    2  A    between atoms: C_4  and  CA_2 
REMARK       I    between atoms: N_9  and  C_3 
REMARK    3  A    between atoms: OXT_15  and  C_4 
REMARK    4  A    between atoms: C_13  and  N_9 
REMARK    5  A    between atoms: O_12  and  C_17 
REMARK    6  A    between atoms: C_16  and  O_12 
REMARK    7  A    between atoms: C_14  and  C_13 
REMARK    8  A    between atoms: C_17  and  C_14 
REMARK    9  A    between atoms: O_23  and  C_14 
REMARK   10  A    between atoms: O_24  and  C_18 
ROOT
ATOM      1  C   UNL d   1       2.938  -0.997   2.482  0.00  0.00     0.270 C 
ATOM      2  N   UNL d   1       3.330  -0.504   1.253  0.00  0.00    -0.353 N 
ATOM      3  O   UNL d   1       2.881  -2.188   2.736  0.00  0.00    -0.266 OA
ATOM      4  H   UNL d   1       3.653   0.460   1.238  0.00  0.00     0.162 HD
ENDROOT
BRANCH   2   5
ATOM      5  C   UNL d   1       3.656  -1.367   0.132  0.00  0.00     0.156 C 
BRANCH   5   6
ATOM      6  C   UNL d   1       5.141  -1.758   0.074  0.00  0.00     0.160 C 
BRANCH   6   7
ATOM      7  C   UNL d   1       5.396  -2.647  -1.161  0.00  0.00     0.209 C 
BRANCH   7   8
ATOM      8  O   UNL d   1       6.767  -3.052  -1.202  0.00  0.00    -0.349 OA
BRANCH   8   9
ATOM      9  C   UNL d   1       7.166  -3.785  -2.291  0.00  0.00     0.069 A 
ATOM     10  C   UNL d   1       6.338  -4.268  -3.305  0.00  0.00     0.039 A 
ATOM     11  C   UNL d   1       6.871  -5.009  -4.370  0.00  0.00     0.039 A 
ATOM     12  C   UNL d   1       8.236  -5.279  -4.422  0.00  0.00     0.068 A 
ATOM     13  C   UNL d   1       9.068  -4.785  -3.420  0.00  0.00     0.039 A 
ATOM     14  C   UNL d   1       8.534  -4.052  -2.357  0.00  0.00     0.039 A 
BRANCH  12  15
ATOM     15  O   UNL d   1       8.866  -5.975  -5.420  0.00  0.00    -0.356 OA
ATOM     16  C   UNL d   1       8.067  -6.933  -6.105  0.00  0.00     0.210 C 
ENDBRANCH  12  15
ENDBRANCH   8   9
ENDBRANCH   7   8
ENDBRANCH   6   7
BRANCH   6  17
ATOM     17  O   UNL d   1       5.929  -0.554   0.012  0.00  0.00    -0.392 OA
ATOM     18  H   UNL d   1       5.865  -0.195  -0.888  0.00  0.00     0.210 HD
ENDBRANCH   6  17
ENDBRANCH   5   6
ENDBRANCH   2   5
BRANCH   1  19
ATOM     19  C   UNL d   1       2.663   0.061   3.500  0.00  0.00     0.134 A 
ATOM     20  CA  UNL d   1       1.779  -0.059   4.561  0.00  0.00     0.139 A 
ATOM     21  N   UNL d   1       1.626   0.947   5.501  0.00  0.00    -0.357 N 
ATOM     22  C   UNL d   1       2.373   2.057   5.309  0.00  0.00     0.105 A 
ATOM     23  HN  UNL d   1       0.987   0.855   6.291  1.00  0.00     0.165 HD
ATOM     24  C   UNL d   1       3.229   2.193   4.233  0.00  0.00     0.105 A 
ATOM     25  N   UNL d   1       3.390   1.218   3.308  0.00  0.00    -0.358 N 
ATOM     26  HN  UNL d   1       4.016   1.333   2.510  1.00  0.00     0.165 HD
BRANCH  20  27
ATOM     27  C   UNL d   1       0.803  -1.174   4.754  0.00  0.00     0.196 C 
ATOM     28  O   UNL d   1       0.552  -2.094   4.005  0.00  0.00    -0.645 OA
BRANCH  27  29
ATOM     29  OXT UNL d   1       0.112  -0.969   5.913  0.00  0.00    -0.772 OA
ATOM     30  HXT UNL d   1       0.401  -0.117   6.320  0.00  0.00     0.167 HD
ENDBRANCH  27  29
ENDBRANCH  20  27
ENDBRANCH   1  19
TORSDOF 10
