REMARK  2 active torsions:
REMARK  status: ('A' for Active; 'I' for Inactive)
REMARK    1  A    between atoms: C_2  and  C_4 
REMARK    2  A    between atoms: C_11  and  C_5 
ROOT
ATOM      1  C   UNL d   1      -3.282  -1.970   0.052  0.00  0.00     0.011 A 
ATOM      2  C   UNL d   1      -4.202  -1.959   1.141  0.00  0.00     0.076 A 
ATOM      3  N   UNL d   1      -5.461  -2.129   0.698  0.00  0.00    -0.299 N 
ATOM      4  HN  UNL d   1      -6.313  -2.215   1.253  1.00  0.00     0.187 HD
ATOM      5  N   UNL d   1      -5.342  -2.158  -0.638  0.00  0.00    -0.311 N 
ATOM      6  C   UNL d   1      -4.054  -2.124  -1.076  0.00  0.00     0.120 A 
ATOM      7  H   UNL d   1      -6.189  -2.209  -1.193  0.00  0.00     0.186 HD
ENDROOT
BRANCH   1   8
ATOM      8  C   UNL d   1      -1.867  -1.847   0.025  0.00  0.00     0.033 C 
ATOM      9  C   UNL d   1      -1.185  -0.692   0.001  0.00  0.00     0.045 A 
ATOM     10  C   UNL d   1      -1.784   0.693  -0.001  0.00  0.00     0.257 A 
ATOM     11  C   UNL d   1       0.273  -0.530   0.004  0.00  0.00     0.006 A 
ATOM     12  N   UNL d   1      -0.696   1.550   0.027  0.00  0.00    -0.322 N 
ATOM     13  O   UNL d   1      -2.954   1.019  -0.035  0.00  0.00    -0.267 OA
ATOM     14  C   UNL d   1       0.505   0.849   0.025  0.00  0.00     0.046 A 
ATOM     15  H   UNL d   1      -0.800   2.551   0.035  0.00  0.00     0.169 HD
ATOM     16  C   UNL d   1       1.774   1.391   0.034  0.00  0.00     0.030 A 
ATOM     17  C   UNL d   1       2.849   0.502   0.015  0.00  0.00     0.002 A 
ATOM     18  C   UNL d   1       2.632  -0.889  -0.009  0.00  0.00     0.001 A 
ATOM     19  C   UNL d   1       1.335  -1.416  -0.012  0.00  0.00     0.015 A 
ENDBRANCH   1   8
BRANCH   2  20
ATOM     20  C   UNL d   1      -3.925  -1.789   2.614  0.00  0.00     0.033 A 
ATOM     21  S   UNL d   1      -2.390  -1.508   3.313  0.00  0.00    -0.100 SA
ATOM     22  C   UNL d   1      -3.044  -1.405   4.889  0.00  0.00     0.050 A 
ATOM     23  C   UNL d   1      -4.404  -1.611   4.895  0.00  0.00     0.008 A 
ATOM     24  C   UNL d   1      -4.912  -1.832   3.581  0.00  0.00     0.021 A 
ENDBRANCH   2  20
TORSDOF 2
