REMARK  8 active torsions:
REMARK  status: ('A' for Active; 'I' for Inactive)
REMARK    1  A    between atoms: S_7  and  C_1 
REMARK    2  A    between atoms: C_5  and  C_13 
REMARK       I    between atoms: N_14  and  C_5 
REMARK    3  A    between atoms: C_6  and  C_17 
REMARK    4  A    between atoms: C_13  and  S_7 
REMARK    5  A    between atoms: C_19  and  N_14 
REMARK    6  A    between atoms: S_15  and  C_20 
REMARK    7  A    between atoms: C_17  and  S_15 
REMARK    8  A    between atoms: C_20  and  C_19 
ROOT
ATOM      1  C   UNL d   1       1.850  -4.929   0.503  0.00  0.00     0.227 C 
ATOM      2  O   UNL d   1       0.876  -5.672   0.560  0.00  0.00    -0.273 OA
ATOM      3  N   UNL d   1       3.150  -5.406   0.509  0.00  0.00    -0.360 N 
ATOM      4  H   UNL d   1       3.867  -4.768   0.843  0.00  0.00     0.162 HD
ENDROOT
BRANCH   3   5
ATOM      5  C   UNL d   1       3.385  -6.824   0.730  0.00  0.00     0.132 C 
BRANCH   5   6
ATOM      6  C   UNL d   1       4.868  -7.195   0.783  0.00  0.00     0.094 C 
BRANCH   6   7
ATOM      7  S   UNL d   1       5.687  -6.351   2.180  0.00  0.00    -0.161 SA
BRANCH   7   8
ATOM      8  C   UNL d   1       7.343  -7.093   2.028  0.00  0.00     0.139 C 
BRANCH   8   9
ATOM      9  C   UNL d   1       8.243  -6.584   3.096  0.00  0.00     0.061 A 
ATOM     10  O   UNL d   1       9.362  -5.918   2.685  0.00  0.00    -0.326 OA
ATOM     11  C   UNL d   1      10.034  -5.542   3.803  0.00  0.00     0.142 A 
ATOM     12  C   UNL d   1       9.369  -5.962   4.930  0.00  0.00     0.027 A 
ATOM     13  C   UNL d   1       8.215  -6.643   4.476  0.00  0.00     0.035 A 
ENDBRANCH   8   9
ENDBRANCH   7   8
ENDBRANCH   6   7
ENDBRANCH   5   6
ENDBRANCH   3   5
BRANCH   1  14
ATOM     14  C   UNL d   1       1.733  -3.417   0.382  0.00  0.00     0.184 C 
BRANCH  14  15
ATOM     15  S   UNL d   1       0.742  -2.721   1.729  0.00  0.00    -0.096 SA
BRANCH  15  16
ATOM     16  C   UNL d   1       1.765  -3.088   3.074  0.00  0.00     0.104 C 
ATOM     17  N   UNL d   1       3.050  -3.159   2.985  0.00  0.00    -0.378 N 
ATOM     18  C   UNL d   1       3.601  -3.510   4.313  0.00  0.00     0.131 C 
ATOM     19  HN  UNL d   1       3.597  -3.000   2.138  1.00  0.00     0.160 HD
ATOM     20  C   UNL d   1       2.632  -3.105   5.415  0.00  0.00     0.101 C 
ATOM     21  S   UNL d   1       1.025  -3.297   4.632  0.00  0.00    -0.104 SA
ENDBRANCH  15  16
ENDBRANCH  14  15
ENDBRANCH   1  14
TORSDOF 8
