REMARK  4 active torsions:
REMARK  status: ('A' for Active; 'I' for Inactive)
REMARK    1  A    between atoms: N_2  and  C_1 
REMARK    2  A    between atoms: C_15  and  C_3 
REMARK    3  A    between atoms: C_16  and  C_8 
REMARK    4  A    between atoms: C_17  and  C_12 
ROOT
ATOM      1  C   UNL d   1      -0.027  -1.385  -0.018  0.00  0.00     0.153 A 
ATOM      2  C   UNL d   1       1.291  -0.852  -0.053  0.00  0.00     0.035 A 
ATOM      3  N   UNL d   1      -1.108  -0.582   0.056  0.00  0.00    -0.283 N 
ATOM      4  HN  UNL d   1      -2.038  -1.002   0.077  1.00  0.00     0.188 HD
ATOM      5  C   UNL d   1       1.411   0.596   0.018  0.00  0.00     0.018 A 
ATOM      6  N   UNL d   1      -0.993   0.769   0.104  0.00  0.00    -0.297 N 
ATOM      7  HN  UNL d   1      -1.834   1.344   0.147  1.00  0.00     0.187 HD
ATOM      8  C   UNL d   1       0.218   1.365   0.097  0.00  0.00     0.070 A 
ENDROOT
BRANCH   1   9
ATOM      9  N   UNL d   1      -0.338  -2.793  -0.000  0.00  0.00    -0.242 N 
ATOM     10  N   UNL d   1       0.498  -3.721  -0.541  0.00  0.00    -0.297 N 
ATOM     11  C   UNL d   1       0.093  -4.895  -0.066  0.00  0.00     0.024 C 
ATOM     12  HN  UNL d   1       1.276  -3.551  -1.178  1.00  0.00     0.187 HD
ATOM     13  C   UNL d   1       0.923  -6.110  -0.235  0.00  0.00     0.070 C 
ATOM     14  C   UNL d   1      -1.137  -4.780   0.601  0.00  0.00     0.052 C 
ATOM     15  C   UNL d   1      -1.452  -3.433   0.567  0.00  0.00     0.034 C 
ATOM     16  C   UNL d   1      -2.660  -2.804   1.166  0.00  0.00     0.070 C 
ENDBRANCH   1   9
BRANCH   2  17
ATOM     17  C   UNL d   1       2.522  -1.716  -0.064  0.00  0.00    -0.021 A 
ATOM     18  C   UNL d   1       3.565  -1.518  -0.991  0.00  0.00     0.012 A 
ATOM     19  C   UNL d   1       4.745  -2.271  -0.941  0.00  0.00     0.001 A 
ATOM     20  C   UNL d   1       4.878  -3.306  -0.022  0.00  0.00     0.000 A 
ATOM     21  C   UNL d   1       3.852  -3.553   0.882  0.00  0.00     0.001 A 
ATOM     22  C   UNL d   1       2.718  -2.733   0.893  0.00  0.00     0.012 A 
ENDBRANCH   2  17
BRANCH   5  23
ATOM     23  C   UNL d   1       2.744   1.281   0.037  0.00  0.00    -0.023 A 
ATOM     24  C   UNL d   1       3.054   2.319  -0.866  0.00  0.00     0.012 A 
ATOM     25  C   UNL d   1       4.266   3.014  -0.792  0.00  0.00     0.001 A 
ATOM     26  C   UNL d   1       5.232   2.636   0.135  0.00  0.00     0.000 A 
ATOM     27  C   UNL d   1       4.973   1.586   1.008  0.00  0.00     0.001 A 
ATOM     28  C   UNL d   1       3.731   0.944   0.984  0.00  0.00     0.012 A 
ENDBRANCH   5  23
BRANCH   8  29
ATOM     29  C   UNL d   1       0.097   2.849   0.163  0.00  0.00    -0.007 A 
ATOM     30  C   UNL d   1       0.920   3.659   0.966  0.00  0.00     0.014 A 
ATOM     31  C   UNL d   1       0.834   5.054   0.926  0.00  0.00     0.001 A 
ATOM     32  C   UNL d   1      -0.129   5.679   0.137  0.00  0.00     0.000 A 
ATOM     33  C   UNL d   1      -1.012   4.900  -0.608  0.00  0.00     0.001 A 
ATOM     34  C   UNL d   1      -0.894   3.510  -0.598  0.00  0.00     0.014 A 
ENDBRANCH   8  29
TORSDOF 4
