REMARK  4 active torsions:
REMARK  status: ('A' for Active; 'I' for Inactive)
REMARK    1  A    between atoms: C_6  and  S_1 
REMARK    2  A    between atoms: C_10  and  S_1 
REMARK    3  A    between atoms: C_4  and  C_6 
REMARK    4  A    between atoms: C_13  and  C_5 
ROOT
ATOM      1  N   UNL d   1       0.463  -1.794  -2.608  0.00  0.00    -0.322 N 
ATOM      2  HN  UNL d   1      -0.133  -0.999  -2.836  1.00  0.00     0.169 HD
ATOM      3  C   UNL d   1       0.902  -2.211  -1.380  0.00  0.00     0.118 A 
ATOM      4  C   UNL d   1       1.004  -2.677  -3.420  0.00  0.00     0.182 A 
ATOM      5  N   UNL d   1       1.628  -3.337  -1.398  0.00  0.00    -0.246 N 
ATOM      6  HN  UNL d   1       2.023  -3.848  -0.608  1.00  0.00     0.196 HD
ATOM      7  O   UNL d   1       1.715  -3.640  -2.760  0.00  0.00    -0.217 OA
ENDROOT
BRANCH   3   8
ATOM      8  C   UNL d   1       0.496  -1.545  -0.135  0.00  0.00     0.224 C 
BRANCH   8   9
ATOM      9  S   UNL d   1       1.103   0.116  -0.015  0.00  0.00     0.182 S 
ATOM     10  O   UNL d   1       2.552   0.090  -0.122  0.00  0.00    -0.222 OA
ATOM     11  O   UNL d   1       0.477   0.729   1.143  0.00  0.00    -0.222 OA
BRANCH   9  12
ATOM     12  C   UNL d   1       0.475   1.009  -1.426  0.00  0.00     0.059 A 
ATOM     13  C   UNL d   1      -0.907   1.179  -1.580  0.00  0.00     0.026 A 
ATOM     14  C   UNL d   1      -1.389   1.914  -2.666  0.00  0.00     0.044 A 
ATOM     15  C   UNL d   1      -0.492   2.478  -3.570  0.00  0.00     0.116 A 
ATOM     16  C   UNL d   1       0.882   2.320  -3.413  0.00  0.00     0.044 A 
ATOM     17  F   UNL d   1      -0.959   3.192  -4.602  0.00  0.00    -0.206 F 
ATOM     18  C   UNL d   1       1.372   1.582  -2.336  0.00  0.00     0.026 A 
ENDBRANCH   9  12
ENDBRANCH   8   9
ENDBRANCH   3   8
BRANCH   4  19
ATOM     19  C   UNL d   1       0.935  -2.756  -4.872  0.00  0.00     0.017 A 
ATOM     20  C   UNL d   1       0.304  -1.723  -5.584  0.00  0.00     0.016 A 
ATOM     21  C   UNL d   1       0.203  -1.771  -6.975  0.00  0.00     0.001 A 
ATOM     22  C   UNL d   1       0.730  -2.854  -7.672  0.00  0.00     0.000 A 
ATOM     23  C   UNL d   1       1.364  -3.886  -6.982  0.00  0.00     0.001 A 
ATOM     24  C   UNL d   1       1.468  -3.838  -5.589  0.00  0.00     0.016 A 
ENDBRANCH   4  19
TORSDOF 4
