REMARK  4 active torsions:
REMARK  status: ('A' for Active; 'I' for Inactive)
REMARK    1  A    between atoms: C_6  and  N_1 
REMARK    2  A    between atoms: N_4  and  C_9 
REMARK    3  A    between atoms: C_8  and  C_6 
REMARK    4  A    between atoms: C_12  and  C_8 
ROOT
ATOM      1  C   UNL d   1       2.147  -2.197  -0.021  0.00  0.00     0.220 C 
ENDROOT
BRANCH   1   2
ATOM      2  N   UNL d   1       1.640  -0.867   0.167  0.00  0.00    -0.269 N 
ATOM      3  C   UNL d   1       0.399  -0.536   0.647  0.00  0.00     0.374 A 
ATOM      4  O   UNL d   1       0.193   0.852   0.622  0.00  0.00    -0.257 OA
ATOM      5  O   UNL d   1      -0.454  -1.324   1.037  0.00  0.00    -0.237 OA
ATOM      6  C   UNL d   1       1.389   1.304   0.106  0.00  0.00     0.125 A 
ATOM      7  C   UNL d   1       2.271   0.294  -0.193  0.00  0.00     0.146 A 
ATOM      8  C   UNL d   1       1.752   2.615  -0.097  0.00  0.00     0.043 A 
ATOM      9  N   UNL d   1       3.498   0.455  -0.698  0.00  0.00    -0.350 N 
ATOM     10  C   UNL d   1       3.868   1.749  -0.856  0.00  0.00     0.090 A 
ATOM     11  HN  UNL d   1       4.104  -0.329  -0.944  1.00  0.00     0.166 HD
ATOM     12  C   UNL d   1       3.042   2.843  -0.577  0.00  0.00     0.020 A 
ENDBRANCH   1   2
BRANCH   1  13
ATOM     13  C   UNL d   1       3.643  -2.340   0.234  0.00  0.00     0.177 C 
ATOM     14  O   UNL d   1       4.106  -2.277   1.375  0.00  0.00    -0.291 OA
BRANCH  13  15
ATOM     15  C   UNL d   1       4.575  -2.545  -0.921  0.00  0.00     0.014 A 
ATOM     16  C   UNL d   1       4.170  -2.393  -2.253  0.00  0.00     0.051 A 
ATOM     17  C   UNL d   1       5.079  -2.656  -3.290  0.00  0.00     0.103 A 
ATOM     18  C   UNL d   1       6.398  -3.026  -3.010  0.00  0.00     0.036 A 
ATOM     19  C   UNL d   1       6.813  -3.129  -1.684  0.00  0.00     0.003 A 
ATOM     20  C   UNL d   1       5.907  -2.893  -0.646  0.00  0.00     0.015 A 
BRANCH  17  21
ATOM     21  N   UNL d   1       4.626  -2.550  -4.684  0.00  0.00    -0.116 N 
ATOM     22  O   UNL d   1       3.449  -2.229  -4.885  0.00  0.00    -0.532 OA
ATOM     23  O   UNL d   1       5.449  -2.807  -5.577  0.00  0.00    -0.532 OA
ENDBRANCH  17  21
ENDBRANCH  13  15
ENDBRANCH   1  13
TORSDOF 4
