REMARK  5 active torsions:
REMARK  status: ('A' for Active; 'I' for Inactive)
REMARK    1  A    between atoms: C_8  and  C_1 
REMARK    2  A    between atoms: N_4  and  C_2 
REMARK       I    between atoms: C_7  and  N_4 
REMARK    3  A    between atoms: C_6  and  C_10 
REMARK    4  A    between atoms: C_11  and  C_7 
REMARK    5  A    between atoms: O_21  and  C_8 
ROOT
ATOM      1  N   UNL d   1       1.383   2.244   0.083  0.00  0.00    -0.321 N 
ATOM      2  C   UNL d   1       2.741   2.193  -0.157  0.00  0.00     0.256 C 
ATOM      3  O   UNL d   1       3.421   1.176  -0.214  0.00  0.00    -0.267 OA
ATOM      4  H   UNL d   1       1.080   3.035   0.648  0.00  0.00     0.169 HD
ENDROOT
BRANCH   1   5
ATOM      5  C   UNL d   1       0.564   1.108   0.145  0.00  0.00     0.064 A 
ATOM      6  C   UNL d   1      -0.343   0.951   1.188  0.00  0.00     0.107 A 
ATOM      7  S   UNL d   1      -1.350  -0.412   0.968  0.00  0.00    -0.093 SA
ATOM      8  C   UNL d   1      -0.517  -0.873  -0.438  0.00  0.00     0.059 A 
ATOM      9  C   UNL d   1       0.512  -0.008  -0.776  0.00  0.00    -0.027 A 
ATOM     10  C   UNL d   1       1.345  -0.257  -1.993  0.00  0.00     0.051 C 
BRANCH   6  11
ATOM     11  C   UNL d   1      -0.443   1.769   2.379  0.00  0.00     0.302 C 
ATOM     12  O   UNL d   1      -0.028   2.924   2.468  0.00  0.00    -0.259 OA
BRANCH  11  13
ATOM     13  O   UNL d   1      -0.942   1.050   3.428  0.00  0.00    -0.322 OA
ATOM     14  C   UNL d   1      -0.815   1.675   4.702  0.00  0.00     0.213 C 
ENDBRANCH  11  13
ENDBRANCH   6  11
ENDBRANCH   1   5
BRANCH   2  15
ATOM     15  C   UNL d   1       3.425   3.513  -0.275  0.00  0.00     0.032 A 
ATOM     16  C   UNL d   1       4.745   3.620   0.177  0.00  0.00     0.018 A 
ATOM     17  C   UNL d   1       5.481   4.785  -0.057  0.00  0.00     0.017 A 
ATOM     18  C   UNL d   1       4.912   5.854  -0.764  0.00  0.00     0.048 A 
ATOM     19  C   UNL d   1       3.569   5.759  -1.171  0.00  0.00     0.017 A 
ATOM     20  C   UNL d   1       2.826   4.596  -0.930  0.00  0.00     0.018 A 
BRANCH  18  21
ATOM     21  C   UNL d   1       5.737   7.065  -1.137  0.00  0.00     0.417 C 
ATOM     22  F   UNL d   1       7.033   6.990  -0.725  0.00  0.00    -0.166 F 
ATOM     23  F   UNL d   1       5.787   7.256  -2.485  0.00  0.00    -0.166 F 
ATOM     24  F   UNL d   1       5.243   8.220  -0.614  0.00  0.00    -0.166 F 
ENDBRANCH  18  21
ENDBRANCH   2  15
TORSDOF 5
