REMARK  3 active torsions:
REMARK  status: ('A' for Active; 'I' for Inactive)
REMARK    1  A    between atoms: C_7  and  N_1 
REMARK    2  A    between atoms: C_8  and  C_7 
REMARK    3  A    between atoms: O_15  and  N_10 
ROOT
ATOM      1  N   UNL d   1      -0.051   0.105   1.396  0.00  0.00     0.103 N 
ATOM      2  C   UNL d   1      -0.050  -1.149   0.618  0.00  0.00     0.229 C 
ATOM      3  C   UNL d   1       0.007   1.250   0.472  0.00  0.00     0.229 C 
ATOM      4  C   UNL d   1      -1.757   0.015  -0.928  0.00  0.00     0.014 C 
ATOM      5  C   UNL d   1      -1.232  -1.282  -0.347  0.00  0.00     0.090 C 
ATOM      6  C   UNL d   1      -1.194   1.344  -0.470  0.00  0.00     0.090 C 
ATOM      7  N   UNL d   1      -2.765  -0.082  -1.748  0.00  0.00    -0.277 N 
ATOM      8  HN  UNL d   1      -3.160  -0.965  -2.069  1.00  0.00     0.193 HD
ATOM      9  C   UNL d   1       1.301  -1.292  -0.109  0.00  0.00     0.036 C 
ATOM     10  C   UNL d   1       1.353   1.218  -0.284  0.00  0.00     0.036 C 
ATOM     11  C   UNL d   1       1.631  -0.099  -0.997  0.00  0.00     0.004 C 
ENDROOT
BRANCH   1  12
ATOM     12  C   UNL d   1      -1.172   0.143   2.359  0.00  0.00     0.319 C 
BRANCH  12  13
ATOM     13  C   UNL d   1      -1.184   1.377   3.222  0.00  0.00     0.011 A 
ATOM     14  S   UNL d   1      -2.584   2.375   3.263  0.00  0.00    -0.105 SA
ATOM     15  C   UNL d   1      -1.858   3.462   4.363  0.00  0.00     0.050 A 
ATOM     16  C   UNL d   1      -0.582   3.072   4.709  0.00  0.00     0.008 A 
ATOM     17  C   UNL d   1      -0.197   1.868   4.053  0.00  0.00     0.017 A 
ENDBRANCH  12  13
ENDBRANCH   1  12
BRANCH   7  18
ATOM     18  O   UNL d   1      -3.239   1.176  -2.131  0.00  0.00    -0.290 OA
ATOM     19  H   UNL d   1      -4.061   0.956  -2.609  0.00  0.00     0.244 HD
ENDBRANCH   7  18
TORSDOF 3
