REMARK  5 active torsions:
REMARK  status: ('A' for Active; 'I' for Inactive)
REMARK    1  A    between atoms: C_7  and  C_1 
REMARK    2  A    between atoms: N_8  and  C_3 
REMARK       I    between atoms: C_6  and  N_8 
REMARK    3  A    between atoms: O_9  and  C_6 
REMARK    4  A    between atoms: O_13  and  C_7 
REMARK    5  A    between atoms: C_12  and  O_9 
ROOT
ATOM      1  C   UNL d   1       0.291   1.062  -0.012  0.00  0.00     0.110 A 
ATOM      2  N   UNL d   1       1.057  -0.089  -0.035  0.00  0.00    -0.354 N 
ATOM      3  C   UNL d   1      -1.073  -0.769  -0.049  0.00  0.00     0.054 A 
ATOM      4  C   UNL d   1      -1.041   0.641  -0.045  0.00  0.00     0.067 A 
ATOM      5  C   UNL d   1       0.236  -1.188  -0.025  0.00  0.00     0.120 A 
ATOM      6  C   UNL d   1       2.495  -0.219  -0.149  0.00  0.00     0.156 C 
ENDROOT
BRANCH   3   7
ATOM      7  N   UNL d   1      -2.098  -1.687  -0.075  0.00  0.00    -0.301 N 
ATOM      8  C   UNL d   1      -3.456  -1.558  -0.005  0.00  0.00     0.366 C 
ATOM      9  O   UNL d   1      -4.127  -2.584   0.026  0.00  0.00    -0.238 OA
ATOM     10  H   UNL d   1      -1.827  -2.660  -0.094  0.00  0.00     0.171 HD
BRANCH   8  11
ATOM     11  O   UNL d   1      -3.939  -0.296   0.061  0.00  0.00    -0.294 OA
BRANCH  11  12
ATOM     12  C   UNL d   1      -5.303  -0.001   0.491  0.00  0.00     0.061 C 
ATOM     13  C   UNL d   1      -5.183   0.510   1.930  0.00  0.00     0.046 C 
ATOM     14  C   UNL d   1      -5.819   1.125  -0.414  0.00  0.00     0.046 C 
ATOM     15  C   UNL d   1      -6.328  -1.146   0.444  0.00  0.00     0.046 C 
ENDBRANCH  11  12
ENDBRANCH   8  11
ENDBRANCH   3   7
BRANCH   1  16
ATOM     16  C   UNL d   1       0.748   2.432  -0.046  0.00  0.00     0.193 C 
ATOM     17  O   UNL d   1       0.233   3.337  -0.688  0.00  0.00    -0.645 OA
BRANCH  16  18
ATOM     18  O   UNL d   1       1.817   2.645   0.761  0.00  0.00    -0.772 OA
ATOM     19  H   UNL d   1       1.970   1.907   1.379  0.00  0.00     0.167 HD
ENDBRANCH  16  18
ENDBRANCH   1  16
TORSDOF 5
