REMARK  3 active torsions:
REMARK  status: ('A' for Active; 'I' for Inactive)
REMARK    1  A    between atoms: C_2  and  C_1 
REMARK    2  A    between atoms: C_3  and  C_2 
REMARK    3  A    between atoms: O_14  and  C_10 
ROOT
ATOM      1  C   UNL d   1       2.489   0.604   0.285  0.00  0.00     0.035 A 
ATOM      2  C   UNL d   1       2.421  -0.797   0.363  0.00  0.00     0.028 A 
ATOM      3  C   UNL d   1       1.293   1.334   0.144  0.00  0.00     0.056 A 
ATOM      4  C   UNL d   1       1.188  -1.449   0.220  0.00  0.00     0.059 A 
ATOM      5  C   UNL d   1       0.065   0.681   0.037  0.00  0.00     0.103 A 
ATOM      6  C   UNL d   1       0.016  -0.712   0.073  0.00  0.00     0.103 A 
ATOM      7  O   UNL d   1      -1.048   1.471  -0.080  0.00  0.00    -0.346 OA
ATOM      8  O   UNL d   1      -1.154  -1.423  -0.009  0.00  0.00    -0.346 OA
ATOM      9 BR   UNL d   1       3.901  -1.916   0.783  0.00  0.00    -0.050 Br
ATOM     10  C   UNL d   1      -2.213   0.719  -0.437  0.00  0.00     0.202 C 
ATOM     11  C   UNL d   1      -2.278  -0.598   0.318  0.00  0.00     0.202 C 
ENDROOT
BRANCH   1  12
ATOM     12  C   UNL d   1       3.742   1.415   0.344  0.00  0.00     0.196 C 
ATOM     13  O   UNL d   1       3.700   2.501   0.915  0.00  0.00    -0.286 OA
BRANCH  12  14
ATOM     14  C   UNL d   1       4.980   0.996  -0.373  0.00  0.00     0.048 A 
ATOM     15  C   UNL d   1       6.256   1.232   0.168  0.00  0.00     0.082 A 
ATOM     16  C   UNL d   1       7.387   0.747  -0.506  0.00  0.00     0.038 A 
ATOM     17  C   UNL d   1       7.256   0.076  -1.722  0.00  0.00     0.003 A 
ATOM     18  C   UNL d   1       5.998  -0.104  -2.288  0.00  0.00     0.001 A 
ATOM     19  C   UNL d   1       4.864   0.366  -1.626  0.00  0.00     0.018 A 
BRANCH  15  20
ATOM     20  O   UNL d   1       6.358   1.850   1.387  0.00  0.00    -0.355 OA
ATOM     21  C   UNL d   1       7.476   2.723   1.528  0.00  0.00     0.210 C 
ENDBRANCH  15  20
ENDBRANCH  12  14
ENDBRANCH   1  12
TORSDOF 3
