REMARK  4 active torsions:
REMARK  status: ('A' for Active; 'I' for Inactive)
REMARK    1  A    between atoms: C_7  and  N_1 
REMARK    2  A    between atoms: C_8  and  C_7 
REMARK       I    between atoms: N_14  and  C_8 
REMARK    3  A    between atoms: C_10  and  C_16 
REMARK    4  A    between atoms: N_11  and  N_14 
ROOT
ATOM      1  C   UNL d   1       0.375  -2.215   2.036  0.00  0.00     0.206 C 
ENDROOT
BRANCH   1   2
ATOM      2  N   UNL d   1       0.398  -1.779   0.598  0.00  0.00    -0.239 NA
ATOM      3  C   UNL d   1       1.599  -1.069   0.293  0.00  0.00     0.033 A 
ATOM      4  C   UNL d   1       1.715   0.327   0.450  0.00  0.00     0.027 A 
ATOM      5  C   UNL d   1       2.696  -1.788  -0.206  0.00  0.00     0.025 A 
ATOM      6  C   UNL d   1       2.937   0.960   0.192  0.00  0.00     0.021 A 
ATOM      7  S   UNL d   1       0.331   1.327   0.969  0.00  0.00    -0.087 SA
ATOM      8  C   UNL d   1       4.029   0.224  -0.268  0.00  0.00     0.001 A 
ATOM      9  C   UNL d   1       3.905  -1.147  -0.481  0.00  0.00     0.002 A 
ATOM     10  C   UNL d   1      -1.017   0.274   0.450  0.00  0.00     0.027 A 
ATOM     11  C   UNL d   1      -0.862  -1.127   0.351  0.00  0.00     0.033 A 
ATOM     12  C   UNL d   1      -2.252   0.862   0.158  0.00  0.00     0.021 A 
ATOM     13  C   UNL d   1      -1.960  -1.907  -0.041  0.00  0.00     0.025 A 
ATOM     14  C   UNL d   1      -3.186  -1.311  -0.340  0.00  0.00     0.002 A 
ATOM     15  C   UNL d   1      -3.332   0.072  -0.243  0.00  0.00     0.001 A 
ENDBRANCH   1   2
BRANCH   1  16
ATOM     16  C   UNL d   1       1.517  -3.152   2.458  0.00  0.00     0.249 C 
ATOM     17  N   UNL d   1       2.662  -2.464   2.851  0.00  0.00    -0.269 N 
ATOM     18  H   UNL d   1       2.761  -1.484   2.603  0.00  0.00     0.190 HD
ATOM     19  O   UNL d   1       1.386  -4.375   2.484  0.00  0.00    -0.270 OA
BRANCH  17  20
ATOM     20  N   UNL d   1       3.716  -3.101   3.443  0.00  0.00    -0.308 N 
ATOM     21  C   UNL d   1       4.838  -2.456   3.357  0.00  0.00     0.120 C 
ATOM     22  HN  UNL d   1       3.628  -4.003   3.911  1.00  0.00     0.186 HD
BRANCH  21  23
ATOM     23  C   UNL d   1       6.065  -2.895   4.055  0.00  0.00     0.003 A 
ATOM     24  C   UNL d   1       7.331  -2.453   3.648  0.00  0.00     0.047 A 
ATOM     25  C   UNL d   1       8.463  -2.785   4.399  0.00  0.00     0.048 A 
ATOM     26 CL   UNL d   1       7.573  -1.510   2.218  0.00  0.00    -0.083 Cl
ATOM     27  C   UNL d   1       8.329  -3.550   5.555  0.00  0.00     0.035 A 
ATOM     28  C   UNL d   1       7.076  -4.011   5.955  0.00  0.00     0.025 A 
ATOM     29 CL   UNL d   1       9.717  -3.915   6.502  0.00  0.00    -0.084 Cl
ATOM     30  C   UNL d   1       5.943  -3.691   5.202  0.00  0.00     0.016 A 
ENDBRANCH  21  23
ENDBRANCH  17  20
ENDBRANCH   1  16
TORSDOF 4
