REMARK  5 active torsions:
REMARK  status: ('A' for Active; 'I' for Inactive)
REMARK    1  A    between atoms: C_4  and  S_1 
REMARK    2  A    between atoms: N_10  and  S_1 
REMARK    3  A    between atoms: C_2  and  C_3 
REMARK       I    between atoms: C_3  and  N_5 
REMARK    4  A    between atoms: N_5  and  N_11 
REMARK    5  A    between atoms: N_11  and  C_15 
ROOT
ATOM      1  N   UNL d   1      -1.434  -0.380  -5.505  0.00  0.00    -0.203 NA
ATOM      2  H   UNL d   1      -1.335   0.479  -6.062  0.00  0.00     0.153 HD
ENDROOT
BRANCH   1   3
ATOM      3  N   UNL d   1      -1.158  -1.508  -6.306  0.00  0.00    -0.282 N 
ATOM      4  C   UNL d   1      -1.258  -1.326  -7.681  0.00  0.00     0.271 C 
ATOM      5  O   UNL d   1      -1.444  -0.213  -8.166  0.00  0.00    -0.266 OA
ATOM      6  H   UNL d   1      -1.379  -2.412  -5.899  0.00  0.00     0.184 HD
BRANCH   4   7
ATOM      7  C   UNL d   1      -1.120  -2.546  -8.532  0.00  0.00     0.093 A 
ATOM      8  C   UNL d   1      -1.418  -3.809  -8.001  0.00  0.00     0.133 A 
ATOM      9  F   UNL d   1      -1.843  -3.941  -6.734  0.00  0.00    -0.205 F 
ATOM     10  C   UNL d   1      -1.284  -4.978  -8.753  0.00  0.00     0.043 A 
ATOM     11  C   UNL d   1      -0.849  -4.905 -10.071  0.00  0.00     0.005 A 
ATOM     12  C   UNL d   1      -0.553  -3.661 -10.624  0.00  0.00     0.025 A 
ATOM     13  C   UNL d   1      -0.684  -2.485  -9.865  0.00  0.00     0.052 A 
ATOM     14 CL   UNL d   1      -0.217  -1.025 -10.668  0.00  0.00    -0.083 Cl
ENDBRANCH   4   7
ENDBRANCH   1   3
BRANCH   1  15
ATOM     15  C   UNL d   1      -0.710  -0.326  -4.288  0.00  0.00     0.027 A 
ATOM     16  C   UNL d   1      -0.398   0.925  -3.728  0.00  0.00     0.026 A 
ATOM     17  C   UNL d   1       0.184   1.031  -2.456  0.00  0.00     0.026 A 
ATOM     18  C   UNL d   1       0.440  -0.126  -1.722  0.00  0.00     0.074 A 
ATOM     19  C   UNL d   1       0.128  -1.379  -2.251  0.00  0.00     0.026 A 
ATOM     20  C   UNL d   1      -0.452  -1.472  -3.520  0.00  0.00     0.026 A 
BRANCH  18  21
ATOM     21  S   UNL d   1       1.086  -0.019  -0.082  0.00  0.00     0.239 S 
ATOM     22  O   UNL d   1       1.298  -1.348   0.439  0.00  0.00    -0.206 OA
ATOM     23  O   UNL d   1       0.352   0.991   0.646  0.00  0.00    -0.206 OA
BRANCH  21  24
ATOM     24  N   UNL d   1       2.628   0.604  -0.325  0.00  0.00    -0.225 NA
ATOM     25  H   UNL d   1       3.322  -0.132  -0.184  0.00  0.00     0.136 HD
ATOM     26  H   UNL d   1       2.762   1.407   0.290  0.00  0.00     0.136 HD
ENDBRANCH  21  24
ENDBRANCH  18  21
ENDBRANCH   1  15
TORSDOF 5
