REMARK  6 active torsions:
REMARK  status: ('A' for Active; 'I' for Inactive)
REMARK    1  A    between atoms: C_3  and  C_1 
REMARK    2  A    between atoms: N_4  and  C_2 
REMARK    3  A    between atoms: O_10  and  C_3 
REMARK       I    between atoms: C_5  and  N_4 
REMARK    4  A    between atoms: C_9  and  C_5 
REMARK    5  A    between atoms: O_8  and  C_9 
REMARK    6  A    between atoms: C_11  and  O_8 
ROOT
ATOM      1  N   UNL d   1       1.119  -2.709  -0.206  0.00  0.00    -0.324 N 
ATOM      2  C   UNL d   1       2.426  -3.009  -0.559  0.00  0.00     0.246 C 
ATOM      3  O   UNL d   1       3.171  -2.230  -1.152  0.00  0.00    -0.271 OA
ATOM      4  H   UNL d   1       0.482  -3.488  -0.058  0.00  0.00     0.169 HD
ENDROOT
BRANCH   1   5
ATOM      5  C   UNL d   1       0.548  -1.420  -0.345  0.00  0.00     0.051 A 
ATOM      6  C   UNL d   1      -0.783  -1.269  -0.766  0.00  0.00     0.064 A 
ATOM      7  C   UNL d   1      -1.369   0.003  -0.835  0.00  0.00     0.020 A 
ATOM      8  C   UNL d   1      -0.623   1.132  -0.498  0.00  0.00     0.001 A 
ATOM      9  C   UNL d   1       0.705   0.991  -0.100  0.00  0.00     0.002 A 
ATOM     10  C   UNL d   1       1.289  -0.276  -0.025  0.00  0.00     0.030 A 
BRANCH   6  11
ATOM     11  C   UNL d   1      -1.589  -2.413  -1.249  0.00  0.00     0.178 C 
ATOM     12  O   UNL d   1      -2.775  -2.555  -1.004  0.00  0.00    -0.646 OA
BRANCH  11  13
ATOM     13  O   UNL d   1      -0.874  -3.267  -2.017  0.00  0.00    -0.773 OA
ATOM     14  H   UNL d   1      -0.004  -2.906  -2.288  0.00  0.00     0.167 HD
ENDBRANCH  11  13
ENDBRANCH   6  11
ENDBRANCH   1   5
BRANCH   2  15
ATOM     15  C   UNL d   1       2.861  -4.425  -0.212  0.00  0.00     0.278 C 
BRANCH  15  16
ATOM     16  O   UNL d   1       3.700  -4.324   0.929  0.00  0.00    -0.342 OA
BRANCH  16  17
ATOM     17  C   UNL d   1       4.306  -5.471   1.357  0.00  0.00     0.069 A 
ATOM     18  C   UNL d   1       4.102  -6.752   0.842  0.00  0.00     0.037 A 
ATOM     19  C   UNL d   1       4.780  -7.842   1.395  0.00  0.00     0.003 A 
ATOM     20  C   UNL d   1       5.662  -7.657   2.459  0.00  0.00     0.000 A 
ATOM     21  C   UNL d   1       5.870  -6.379   2.972  0.00  0.00     0.003 A 
ATOM     22  C   UNL d   1       5.194  -5.293   2.420  0.00  0.00     0.037 A 
ENDBRANCH  16  17
ENDBRANCH  15  16
ENDBRANCH   2  15
TORSDOF 6
