REMARK  8 active torsions:
REMARK  status: ('A' for Active; 'I' for Inactive)
REMARK    1  A    between atoms: C_2  and  N_1 
REMARK    2  A    between atoms: C_3  and  C_16 
REMARK       I    between atoms: N_9  and  C_3 
REMARK    3  A    between atoms: C_17  and  N_4 
REMARK    4  A    between atoms: N_13  and  N_9 
REMARK    5  A    between atoms: S_14  and  C_21 
REMARK    6  A    between atoms: C_16  and  S_14 
REMARK    7  A    between atoms: C_18  and  C_17 
REMARK    8  A    between atoms: C_21  and  C_18 
ROOT
ATOM      1  N   UNL d   1      -1.514   0.060   0.185  0.00  0.00    -0.377 N 
ATOM      2  N   UNL d   1       1.395  -0.021  -0.276  0.00  0.00     0.091 N 
ATOM      3  C   UNL d   1      -0.860  -1.216  -0.144  0.00  0.00     0.153 C 
ATOM      4  C   UNL d   1      -0.800   1.286  -0.203  0.00  0.00     0.153 C 
ATOM      5  C   UNL d   1       0.688   1.192   0.207  0.00  0.00     0.292 C 
ATOM      6  C   UNL d   1       0.639  -1.192   0.239  0.00  0.00     0.292 C 
ENDROOT
BRANCH   2   7
ATOM      7  C   UNL d   1       1.522  -0.072  -1.747  0.00  0.00     0.273 C 
BRANCH   7   8
ATOM      8  C   UNL d   1       2.379   1.081  -2.288  0.00  0.00     0.040 C 
BRANCH   8   9
ATOM      9  C   UNL d   1       2.524   1.045  -3.808  0.00  0.00     0.076 C 
BRANCH   9  10
ATOM     10  S   UNL d   1       3.486   2.526  -4.297  0.00  0.00    -0.160 SA
BRANCH  10  11
ATOM     11  C   UNL d   1       3.521   2.300  -6.099  0.00  0.00     0.177 C 
BRANCH  11  12
ATOM     12  C   UNL d   1       2.135   2.358  -6.708  0.00  0.00     0.240 C 
ATOM     13  O   UNL d   1       1.690   1.463  -7.430  0.00  0.00    -0.271 OA
ATOM     14  N   UNL d   1       1.434   3.527  -6.436  0.00  0.00    -0.293 N 
ATOM     15  H   UNL d   1       1.735   4.092  -5.640  0.00  0.00     0.183 HD
BRANCH  14  16
ATOM     16  N   UNL d   1       0.098   3.644  -6.884  0.00  0.00    -0.247 NA
ATOM     17  H   UNL d   1      -0.171   2.726  -7.268  0.00  0.00     0.143 HD
ATOM     18  H   UNL d   1       0.097   4.258  -7.704  0.00  0.00     0.143 HD
ENDBRANCH  14  16
ENDBRANCH  11  12
ENDBRANCH  10  11
ENDBRANCH   9  10
ENDBRANCH   8   9
ENDBRANCH   7   8
ENDBRANCH   2   7
BRANCH   1  19
ATOM     19  C   UNL d   1      -2.653   0.135   0.963  0.00  0.00     0.031 A 
ATOM     20  C   UNL d   1      -2.889  -0.754   2.019  0.00  0.00     0.053 A 
ATOM     21  C   UNL d   1      -4.041  -0.657   2.802  0.00  0.00     0.036 A 
ATOM     22 CL   UNL d   1      -4.281  -1.761   4.102  0.00  0.00    -0.084 Cl
ATOM     23  C   UNL d   1      -4.991   0.326   2.550  0.00  0.00     0.024 A 
ATOM     24  C   UNL d   1      -4.782   1.221   1.506  0.00  0.00     0.004 A 
ATOM     25  C   UNL d   1      -3.624   1.123   0.727  0.00  0.00     0.029 A 
ENDBRANCH   1  19
TORSDOF 8
