REMARK  7 active torsions:
REMARK  status: ('A' for Active; 'I' for Inactive)
REMARK    1  A    between atoms: C_6  and  C_1 
REMARK    2  A    between atoms: C_8  and  C_2 
REMARK    3  A    between atoms: N_11  and  C_4 
REMARK    4  A    between atoms: C_10  and  C_6 
REMARK    5  A    between atoms: C_9  and  N_7 
REMARK    6  A    between atoms: O_17  and  C_8 
REMARK    7  A    between atoms: C_25  and  O_17 
ROOT
ATOM      1  C   UNL d   1      -0.228   1.082  -0.009  0.00  0.00     0.085 A 
ATOM      2  C   UNL d   1      -0.581  -1.252  -0.039  0.00  0.00     0.101 A 
ATOM      3  C   UNL d   1       0.810  -1.186   0.011  0.00  0.00     0.094 A 
ATOM      4  C   UNL d   1      -1.162   0.067  -0.029  0.00  0.00     0.066 A 
ATOM      5  S   UNL d   1       1.345   0.448   0.071  0.00  0.00    -0.065 SA
ATOM      6  N   UNL d   1       1.683  -2.233  -0.067  0.00  0.00    -0.347 N 
ATOM      7  H   UNL d   1       1.327  -3.144  -0.374  0.00  0.00     0.167 HD
ENDROOT
BRANCH   1   8
ATOM      8  C   UNL d   1      -0.480   2.516   0.022  0.00  0.00     0.201 C 
ATOM      9  O   UNL d   1      -1.512   2.997   0.498  0.00  0.00    -0.286 OA
BRANCH   8  10
ATOM     10  C   UNL d   1       0.501   3.489  -0.544  0.00  0.00     0.015 A 
ATOM     11  C   UNL d   1       0.648   4.731   0.090  0.00  0.00     0.017 A 
ATOM     12  C   UNL d   1       1.546   5.676  -0.413  0.00  0.00     0.025 A 
ATOM     13  C   UNL d   1       2.293   5.383  -1.553  0.00  0.00     0.034 A 
ATOM     14  C   UNL d   1       2.138   4.160  -2.204  0.00  0.00     0.025 A 
ATOM     15 CL   UNL d   1       3.407   6.541  -2.166  0.00  0.00    -0.084 Cl
ATOM     16  C   UNL d   1       1.230   3.219  -1.711  0.00  0.00     0.017 A 
ENDBRANCH   8  10
ENDBRANCH   1   8
BRANCH   4  17
ATOM     17  N   UNL d   1      -2.494   0.319  -0.081  0.00  0.00    -0.397 N 
ATOM     18  H   UNL d   1      -3.176  -0.417   0.077  0.00  0.00     0.156 HD
ATOM     19  H   UNL d   1      -2.845   1.255   0.144  0.00  0.00     0.156 HD
ENDBRANCH   4  17
BRANCH   2  20
ATOM     20  C   UNL d   1      -1.290  -2.532  -0.127  0.00  0.00     0.298 C 
ATOM     21  O   UNL d   1      -0.722  -3.612  -0.251  0.00  0.00    -0.259 OA
BRANCH  20  22
ATOM     22  O   UNL d   1      -2.650  -2.384  -0.143  0.00  0.00    -0.318 OA
BRANCH  22  23
ATOM     23  C   UNL d   1      -3.380  -3.473  -0.720  0.00  0.00     0.174 C 
ATOM     24  C   UNL d   1      -3.385  -3.291  -2.229  0.00  0.00     0.034 C 
ENDBRANCH  22  23
ENDBRANCH  20  22
ENDBRANCH   2  20
BRANCH   6  25
ATOM     25  C   UNL d   1       2.947  -2.357   0.555  0.00  0.00     0.072 A 
ATOM     26  C   UNL d   1       3.929  -3.175  -0.023  0.00  0.00     0.142 A 
ATOM     27  F   UNL d   1       3.649  -3.866  -1.141  0.00  0.00    -0.204 F 
ATOM     28  C   UNL d   1       5.207  -3.285   0.523  0.00  0.00     0.044 A 
ATOM     29  C   UNL d   1       5.530  -2.569   1.674  0.00  0.00     0.003 A 
ATOM     30  C   UNL d   1       4.569  -1.754   2.273  0.00  0.00     0.002 A 
ATOM     31  C   UNL d   1       3.293  -1.651   1.715  0.00  0.00     0.033 A 
ENDBRANCH   6  25
TORSDOF 7
