REMARK  3 active torsions:
REMARK  status: ('A' for Active; 'I' for Inactive)
REMARK    1  A    between atoms: N_5  and  C_9 
REMARK    2  A    between atoms: C_14  and  C_6 
REMARK    3  A    between atoms: C_15  and  C_7 
ROOT
ATOM      1  N   UNL d   1       1.185   1.406  -0.125  0.00  0.00    -0.352 N 
ATOM      2  HN  UNL d   1       1.183   2.424  -0.200  1.00  0.00     0.166 HD
ATOM      3  N   UNL d   1       1.175  -1.390   0.071  0.00  0.00    -0.352 N 
ATOM      4  HN  UNL d   1       1.168  -2.408   0.126  1.00  0.00     0.166 HD
ATOM      5  C   UNL d   1       2.359   0.707  -0.064  0.00  0.00     0.071 A 
ATOM      6  C   UNL d   1       2.351  -0.695   0.061  0.00  0.00     0.071 A 
ATOM      7  C   UNL d   1       0.035   0.715  -0.084  0.00  0.00     0.062 A 
ATOM      8  C   UNL d   1      -2.386   0.706  -0.071  0.00  0.00     0.105 A 
ATOM      9  C   UNL d   1      -1.173   1.401  -0.122  0.00  0.00     0.068 A 
ATOM     10  C   UNL d   1       0.033  -0.694   0.006  0.00  0.00     0.059 A 
ATOM     11  C   UNL d   1      -2.398  -0.688   0.006  0.00  0.00     0.038 A 
ATOM     12  C   UNL d   1      -1.182  -1.372   0.043  0.00  0.00     0.034 A 
ENDROOT
BRANCH   5  13
ATOM     13  C   UNL d   1       3.568   1.563  -0.108  0.00  0.00    -0.007 A 
ATOM     14  C   UNL d   1       3.616   2.752   0.645  0.00  0.00     0.014 A 
ATOM     15  C   UNL d   1       4.778   3.526   0.710  0.00  0.00     0.001 A 
ATOM     16  C   UNL d   1       5.918   3.131   0.018  0.00  0.00     0.000 A 
ATOM     17  C   UNL d   1       5.882   1.988  -0.776  0.00  0.00     0.001 A 
ATOM     18  C   UNL d   1       4.709   1.230  -0.859  0.00  0.00     0.014 A 
ENDBRANCH   5  13
BRANCH   6  19
ATOM     19  C   UNL d   1       3.546  -1.557   0.202  0.00  0.00    -0.007 A 
ATOM     20  C   UNL d   1       4.597  -1.250   1.086  0.00  0.00     0.014 A 
ATOM     21  C   UNL d   1       5.759  -2.026   1.128  0.00  0.00     0.001 A 
ATOM     22  C   UNL d   1       5.874  -3.155   0.323  0.00  0.00     0.000 A 
ATOM     23  C   UNL d   1       4.821  -3.518  -0.512  0.00  0.00     0.001 A 
ATOM     24  C   UNL d   1       3.670  -2.727  -0.570  0.00  0.00     0.014 A 
ENDBRANCH   6  19
BRANCH   8  25
ATOM     25  N   UNL d   1      -3.653   1.446  -0.090  0.00  0.00    -0.116 N 
ATOM     26  O   UNL d   1      -3.597   2.683  -0.098  0.00  0.00    -0.532 OA
ATOM     27  O   UNL d   1      -4.702   0.788  -0.091  0.00  0.00    -0.532 OA
ENDBRANCH   8  25
TORSDOF 3
