REMARK  4 active torsions:
REMARK  status: ('A' for Active; 'I' for Inactive)
REMARK    1  A    between atoms: N_2  and  S_1 
REMARK    2  A    between atoms: C_4  and  S_1 
REMARK    3  A    between atoms: C_5  and  N_2 
REMARK    4  A    between atoms: N_3  and  C_7 
ROOT
ATOM      1  S   UNL d   1       1.055   0.266   0.033  0.00  0.00     0.246 S 
ATOM      2  O   UNL d   1       0.254   1.335  -0.531  0.00  0.00    -0.206 OA
ATOM      3  O   UNL d   1       2.494   0.374   0.092  0.00  0.00    -0.206 OA
ENDROOT
BRANCH   1   4
ATOM      4  N   UNL d   1       0.588  -1.186  -0.735  0.00  0.00    -0.180 NA
ATOM      5  H   UNL d   1      -0.400  -1.365  -0.561  0.00  0.00     0.146 HD
BRANCH   4   6
ATOM      6  C   UNL d   1       0.903  -1.277  -2.147  0.00  0.00     0.034 A 
ATOM      7  C   UNL d   1       2.153  -1.779  -2.559  0.00  0.00    -0.039 A 
ATOM      8  C   UNL d   1       2.438  -1.892  -3.934  0.00  0.00     0.015 A 
ATOM      9  C   UNL d   1       3.230  -2.234  -1.615  0.00  0.00     0.050 C 
ATOM     10  C   UNL d   1       1.506  -1.522  -4.904  0.00  0.00    -0.061 A 
ATOM     11  C   UNL d   1       0.279  -1.007  -4.486  0.00  0.00     0.015 A 
ATOM     12  C   UNL d   1       1.831  -1.676  -6.361  0.00  0.00     0.048 C 
ATOM     13  C   UNL d   1      -0.034  -0.861  -3.118  0.00  0.00    -0.039 A 
ATOM     14  C   UNL d   1      -1.402  -0.321  -2.801  0.00  0.00     0.050 C 
ENDBRANCH   4   6
ENDBRANCH   1   4
BRANCH   1  15
ATOM     15  C   UNL d   1       0.455   0.011   1.717  0.00  0.00     0.083 A 
ATOM     16  C   UNL d   1      -0.583   0.854   2.164  0.00  0.00     0.061 A 
ATOM     17  C   UNL d   1      -1.058   0.745   3.478  0.00  0.00     0.104 A 
ATOM     18  C   UNL d   1      -0.528  -0.208   4.349  0.00  0.00     0.037 A 
ATOM     19  C   UNL d   1       0.496  -1.044   3.903  0.00  0.00     0.011 A 
ATOM     20  C   UNL d   1       1.021  -0.937   2.596  0.00  0.00    -0.039 A 
ATOM     21  C   UNL d   1       2.122  -1.895   2.240  0.00  0.00     0.050 C 
BRANCH  17  22
ATOM     22  N   UNL d   1      -2.119   1.647   3.955  0.00  0.00    -0.116 N 
ATOM     23  O   UNL d   1      -2.571   2.474   3.154  0.00  0.00    -0.532 OA
ATOM     24  O   UNL d   1      -2.499   1.518   5.128  0.00  0.00    -0.532 OA
ENDBRANCH  17  22
ENDBRANCH   1  15
TORSDOF 4
