REMARK  3 active torsions:
REMARK  status: ('A' for Active; 'I' for Inactive)
REMARK    1  A    between atoms: C_2  and  N_1 
REMARK    2  A    between atoms: N_5  and  C_8 
REMARK    3  A    between atoms: C_9  and  N_5 
ROOT
ATOM      1  C   UNL d   1       0.231  -1.224   0.162  0.00  0.00     0.103 A 
ATOM      2  C   UNL d   1       0.149  -1.747   1.456  0.00  0.00     0.038 A 
ATOM      3  C   UNL d   1      -0.398  -1.875  -0.905  0.00  0.00     0.038 A 
ATOM      4  C   UNL d   1      -1.206  -3.598   0.621  0.00  0.00     0.032 A 
ATOM      5  C   UNL d   1      -0.563  -2.931   1.674  0.00  0.00     0.032 A 
ATOM      6  C   UNL d   1      -1.111  -3.057  -0.669  0.00  0.00     0.032 A 
ENDROOT
BRANCH   4   7
ATOM      7  N   UNL d   1      -1.881  -4.816   0.807  0.00  0.00    -0.356 N 
ATOM      8  H   UNL d   1      -2.611  -5.008   0.130  0.00  0.00     0.166 HD
BRANCH   7   9
ATOM      9  C   UNL d   1      -1.674  -5.847   1.739  0.00  0.00     0.032 A 
ATOM     10  C   UNL d   1      -2.769  -6.613   2.168  0.00  0.00     0.032 A 
ATOM     11  C   UNL d   1      -2.610  -7.613   3.132  0.00  0.00     0.044 A 
ATOM     12  C   UNL d   1      -1.353  -7.850   3.672  0.00  0.00     0.116 A 
ATOM     13  C   UNL d   1      -0.254  -7.104   3.269  0.00  0.00     0.044 A 
ATOM     14  F   UNL d   1      -1.198  -8.809   4.594  0.00  0.00    -0.206 F 
ATOM     15  C   UNL d   1      -0.418  -6.101   2.311  0.00  0.00     0.032 A 
ENDBRANCH   7   9
ENDBRANCH   4   7
BRANCH   1  16
ATOM     16  N   UNL d   1       0.983   0.013  -0.077  0.00  0.00    -0.116 N 
ATOM     17  O   UNL d   1       1.528   0.554   0.896  0.00  0.00    -0.532 OA
ATOM     18  O   UNL d   1       1.030   0.443  -1.238  0.00  0.00    -0.532 OA
ENDBRANCH   1  16
TORSDOF 3
