REMARK  10 active torsions:
REMARK  status: ('A' for Active; 'I' for Inactive)
REMARK    1  A    between atoms: N_2  and  S_1 
REMARK    2  A    between atoms: C_3  and  S_1 
REMARK    3  A    between atoms: C_5  and  N_2 
REMARK    4  A    between atoms: C_12  and  N_2 
REMARK    5  A    between atoms: C_8  and  C_5 
REMARK    6  A    between atoms: O_22  and  C_9 
REMARK    7  A    between atoms: C_10  and  C_12 
REMARK    8  A    between atoms: C_11  and  C_10 
REMARK    9  A    between atoms: O_21  and  C_11 
REMARK   10  A    between atoms: O_23  and  C_14 
ROOT
ATOM      1  S   UNL d   1       0.850  -0.078  -0.105  0.00  0.00     0.244 S 
ATOM      2  O   UNL d   1       0.075  -0.933  -0.981  0.00  0.00    -0.206 OA
ATOM      3  O   UNL d   1       2.296  -0.090  -0.149  0.00  0.00    -0.206 OA
ENDROOT
BRANCH   1   4
ATOM      4  N   UNL d   1       0.383  -0.462   1.532  0.00  0.00    -0.200 NA
BRANCH   4   5
ATOM      5  C   UNL d   1      -1.076  -0.209   1.786  0.00  0.00     0.172 C 
BRANCH   5   6
ATOM      6  C   UNL d   1      -1.508  -0.499   3.181  0.00  0.00     0.066 A 
ATOM      7  O   UNL d   1      -2.472  -1.456   3.323  0.00  0.00    -0.326 OA
ATOM      8  C   UNL d   1      -2.756  -1.542   4.647  0.00  0.00     0.142 A 
ATOM      9  C   UNL d   1      -1.994  -0.647   5.361  0.00  0.00     0.027 A 
ATOM     10  C   UNL d   1      -1.188   0.032   4.414  0.00  0.00     0.036 A 
ENDBRANCH   5   6
ENDBRANCH   4   5
BRANCH   4  11
ATOM     11  C   UNL d   1       0.715  -1.912   1.881  0.00  0.00     0.118 C 
BRANCH  11  12
ATOM     12  C   UNL d   1       2.208  -2.212   1.905  0.00  0.00     0.125 C 
BRANCH  12  13
ATOM     13  C   UNL d   1       2.450  -3.636   2.334  0.00  0.00     0.140 C 
ATOM     14  O   UNL d   1       1.584  -4.442   2.633  0.00  0.00    -0.650 OA
BRANCH  13  15
ATOM     15  O   UNL d   1       3.767  -3.951   2.348  0.00  0.00    -0.776 OA
ATOM     16  H   UNL d   1       4.350  -3.221   2.061  0.00  0.00     0.167 HD
ENDBRANCH  13  15
ENDBRANCH  12  13
ENDBRANCH  11  12
ENDBRANCH   4  11
ENDBRANCH   1   4
BRANCH   1  17
ATOM     17  C   UNL d   1       0.339   1.594  -0.439  0.00  0.00     0.077 C 
ATOM     18  C   UNL d   1      -1.021   1.888  -0.603  0.00  0.00     0.064 C 
ATOM     19  C   UNL d   1      -1.454   3.200  -0.828  0.00  0.00     0.102 C 
ATOM     20  C   UNL d   1      -0.494   4.202  -1.050  0.00  0.00     0.101 C 
ATOM     21  C   UNL d   1       0.870   3.869  -1.007  0.00  0.00     0.041 C 
ATOM     22  C   UNL d   1       1.292   2.580  -0.679  0.00  0.00     0.028 C 
BRANCH  19  23
ATOM     23  O   UNL d   1      -2.781   3.538  -0.857  0.00  0.00    -0.353 OA
ATOM     24  C   UNL d   1      -3.733   2.587  -0.392  0.00  0.00     0.210 C 
ENDBRANCH  19  23
BRANCH  20  25
ATOM     25  O   UNL d   1      -0.690   5.527  -1.339  0.00  0.00    -0.353 OA
ATOM     26  C   UNL d   1      -2.002   6.061  -1.247  0.00  0.00     0.210 C 
ENDBRANCH  20  25
ENDBRANCH   1  17
TORSDOF 10
