REMARK  7 active torsions:
REMARK  status: ('A' for Active; 'I' for Inactive)
REMARK    1  A    between atoms: C_2  and  C_1 
REMARK    2  A    between atoms: C_3  and  C_1 
REMARK    3  A    between atoms: C_4  and  C_1 
REMARK    4  A    between atoms: O_13  and  C_1 
REMARK    5  A    between atoms: O_16  and  C_4 
REMARK    6  A    between atoms: N_15  and  C_7 
REMARK    7  A    between atoms: C_18  and  O_16 
ROOT
ATOM      1  C   UNL d   1       1.046  -0.136   0.008  0.00  0.00     0.271 C 
ENDROOT
BRANCH   1   2
ATOM      2  C   UNL d   1       0.497   0.667  -1.201  0.00  0.00     0.432 C 
ATOM      3  F   UNL d   1      -0.269  -0.059  -2.046  0.00  0.00    -0.167 F 
ATOM      4  F   UNL d   1      -0.218   1.765  -0.864  0.00  0.00    -0.167 F 
ATOM      5  F   UNL d   1       1.552   1.119  -1.944  0.00  0.00    -0.167 F 
ENDBRANCH   1   2
BRANCH   1   6
ATOM      6  C   UNL d   1       0.539  -1.587   0.072  0.00  0.00    -0.004 A 
ATOM      7  C   UNL d   1      -0.838  -1.876   0.101  0.00  0.00     0.019 A 
ATOM      8  C   UNL d   1      -1.318  -3.199   0.180  0.00  0.00    -0.040 A 
ATOM      9  C   UNL d   1      -2.802  -3.428   0.273  0.00  0.00     0.050 C 
ATOM     10  C   UNL d   1      -0.409  -4.267   0.170  0.00  0.00     0.011 A 
ATOM     11  C   UNL d   1       0.957  -3.985   0.197  0.00  0.00     0.024 A 
ATOM     12  C   UNL d   1       1.427  -2.670   0.134  0.00  0.00     0.013 A 
BRANCH  10  13
ATOM     13  N   UNL d   1      -0.828  -5.594   0.368  0.00  0.00    -0.302 NA
ATOM     14  H   UNL d   1      -0.156  -6.281   0.046  0.00  0.00     0.124 HD
ATOM     15  H   UNL d   1      -1.762  -5.784   0.029  0.00  0.00     0.124 HD
ENDBRANCH  10  13
ENDBRANCH   1   6
BRANCH   1  16
ATOM     16  C   UNL d   1       0.597   0.678   1.236  0.00  0.00     0.308 C 
ATOM     17  O   UNL d   1      -0.462   0.518   1.841  0.00  0.00    -0.261 OA
BRANCH  16  18
ATOM     18  O   UNL d   1       1.496   1.661   1.547  0.00  0.00    -0.319 OA
BRANCH  18  19
ATOM     19  C   UNL d   1       1.150   2.475   2.682  0.00  0.00     0.174 C 
ATOM     20  C   UNL d   1       0.224   3.602   2.261  0.00  0.00     0.034 C 
ENDBRANCH  18  19
ENDBRANCH  16  18
ENDBRANCH   1  16
BRANCH   1  21
ATOM     21  O   UNL d   1       2.502  -0.201  -0.048  0.00  0.00    -0.368 OA
ATOM     22  H   UNL d   1       2.790   0.373  -0.784  0.00  0.00     0.212 HD
ENDBRANCH   1  21
TORSDOF 7
