REMARK  4 active torsions:
REMARK  status: ('A' for Active; 'I' for Inactive)
REMARK    1  A    between atoms: C_14  and  C_5 
REMARK    2  A    between atoms: N_7  and  C_9 
REMARK    3  A    between atoms: N_8  and  C_13 
REMARK    4  A    between atoms: O_23  and  C_14 
ROOT
ATOM      1  C   UNL d   1      -0.704   0.847   0.020  0.00  0.00     0.006 A 
ATOM      2  C   UNL d   1      -1.163  -0.491  -0.029  0.00  0.00     0.029 A 
ATOM      3  C   UNL d   1       1.194  -0.533  -0.036  0.00  0.00     0.028 A 
ATOM      4  C   UNL d   1       0.764   0.811   0.001  0.00  0.00    -0.009 A 
ATOM      5  C   UNL d   1      -1.669   1.856   0.061  0.00  0.00     0.052 A 
ATOM      6  C   UNL d   1       0.003  -1.389  -0.050  0.00  0.00     0.194 A 
ATOM      7  C   UNL d   1      -3.435   0.140  -0.036  0.00  0.00     0.104 A 
ATOM      8  C   UNL d   1      -2.490  -0.881  -0.064  0.00  0.00     0.052 A 
ATOM      9  C   UNL d   1      -3.038   1.494   0.044  0.00  0.00     0.055 A 
ATOM     10  C   UNL d   1       2.516  -0.944  -0.087  0.00  0.00     0.052 A 
ATOM     11  C   UNL d   1       3.478   0.065  -0.103  0.00  0.00     0.103 A 
ATOM     12  C   UNL d   1       1.739   1.796  -0.018  0.00  0.00     0.016 A 
ATOM     13  O   UNL d   1      -0.024  -2.600  -0.085  0.00  0.00    -0.287 OA
ATOM     14  C   UNL d   1       3.098   1.425  -0.064  0.00  0.00     0.037 A 
ENDROOT
BRANCH   5  15
ATOM     15  C   UNL d   1      -1.332   3.290   0.221  0.00  0.00     0.177 C 
ATOM     16  O   UNL d   1      -0.431   3.680   0.945  0.00  0.00    -0.646 OA
BRANCH  15  17
ATOM     17  O   UNL d   1      -2.121   4.132  -0.476  0.00  0.00    -0.773 OA
ATOM     18  H   UNL d   1      -2.783   3.749  -1.081  0.00  0.00     0.167 HD
ENDBRANCH  15  17
ENDBRANCH   5  15
BRANCH   7  19
ATOM     19  N   UNL d   1      -4.864  -0.193  -0.097  0.00  0.00    -0.116 N 
ATOM     20  O   UNL d   1      -5.177  -1.389  -0.120  0.00  0.00    -0.532 OA
ATOM     21  O   UNL d   1      -5.664   0.752  -0.141  0.00  0.00    -0.532 OA
ENDBRANCH   7  19
BRANCH  11  22
ATOM     22  N   UNL d   1       4.901  -0.293  -0.183  0.00  0.00    -0.116 N 
ATOM     23  O   UNL d   1       5.188  -1.495  -0.255  0.00  0.00    -0.532 OA
ATOM     24  O   UNL d   1       5.726   0.631  -0.183  0.00  0.00    -0.532 OA
ENDBRANCH  11  22
TORSDOF 4
