REMARK  2 active torsions:
REMARK  status: ('A' for Active; 'I' for Inactive)
REMARK       I    between atoms: N_2  and  C_1 
REMARK    1  A    between atoms: C_3  and  C_1 
REMARK    2  A    between atoms: C_4  and  N_2 
ROOT
ATOM      1  C   UNL d   1       1.052   0.086   0.065  0.00  0.00     0.256 C 
ATOM      2  N   UNL d   1       0.381   0.775  -0.938  0.00  0.00    -0.320 N 
ATOM      3  O   UNL d   1       2.204   0.295   0.408  0.00  0.00    -0.267 OA
ATOM      4  H   UNL d   1      -0.626   0.842  -0.856  0.00  0.00     0.169 HD
ENDROOT
BRANCH   1   5
ATOM      5  C   UNL d   1       0.249  -0.939   0.792  0.00  0.00     0.033 A 
ATOM      6  C   UNL d   1      -0.780  -1.648   0.169  0.00  0.00     0.030 A 
ATOM      7  C   UNL d   1      -1.444  -2.686   0.852  0.00  0.00    -0.009 A 
ATOM      8  C   UNL d   1      -2.445  -3.447   0.236  0.00  0.00     0.015 A 
ATOM      9  C   UNL d   1      -1.093  -3.008   2.182  0.00  0.00     0.042 A 
ATOM     10  C   UNL d   1      -3.046  -4.490   0.929  0.00  0.00     0.018 A 
ATOM     11  C   UNL d   1      -2.634  -4.730   2.226  0.00  0.00     0.088 A 
ATOM     12  N   UNL d   1      -1.684  -4.008   2.859  0.00  0.00    -0.365 N 
ATOM     13  HN  UNL d   1      -1.422  -4.215   3.823  1.00  0.00     0.165 HD
ATOM     14  C   UNL d   1      -0.086  -2.273   2.790  0.00  0.00     0.031 A 
ATOM     15  C   UNL d   1       0.593  -1.254   2.111  0.00  0.00     0.019 A 
ENDBRANCH   1   5
BRANCH   2  16
ATOM     16  C   UNL d   1       1.022   1.815  -1.644  0.00  0.00     0.074 A 
ATOM     17  C   UNL d   1       0.442   3.081  -1.713  0.00  0.00     0.146 A 
ATOM     18  C   UNL d   1       1.049   4.119  -2.421  0.00  0.00     0.086 A 
ATOM     19  F   UNL d   1      -0.685   3.342  -1.027  0.00  0.00    -0.204 F 
ATOM     20  C   UNL d   1       2.230   3.860  -3.100  0.00  0.00     0.119 A 
ATOM     21  C   UNL d   1       2.818   2.597  -3.067  0.00  0.00     0.044 A 
ATOM     22  F   UNL d   1       2.819   4.838  -3.798  0.00  0.00    -0.206 F 
ATOM     23  C   UNL d   1       2.221   1.572  -2.327  0.00  0.00     0.036 A 
ENDBRANCH   2  16
TORSDOF 2
