REMARK  6 active torsions:
REMARK  status: ('A' for Active; 'I' for Inactive)
REMARK       I    between atoms: N_2  and  C_1 
REMARK       I    between atoms: N_4  and  C_1 
REMARK    1  A    between atoms: C_12  and  N_2 
REMARK    2  A    between atoms: C_9  and  N_4 
REMARK    3  A    between atoms: C_14  and  N_4 
REMARK    4  A    between atoms: C_10  and  C_9 
REMARK    5  A    between atoms: C_11  and  C_10 
REMARK    6  A    between atoms: C_13  and  C_14 
ROOT
ATOM      1  N   UNL d   1      -4.444   0.174  -1.849  0.00  0.00    -0.197 NA
ATOM      2  C   UNL d   1      -3.289   0.283  -1.817  0.00  0.00     0.060 C 
ATOM      3  C   UNL d   1      -1.822   0.410  -1.754  0.00  0.00     0.144 C 
ENDROOT
BRANCH   3   4
ATOM      4  C   UNL d   1      -1.228  -0.722  -0.913  0.00  0.00     0.141 C 
BRANCH   4   5
ATOM      5  N   UNL d   1       0.242  -0.667  -0.839  0.00  0.00    -0.333 N 
ATOM      6  C   UNL d   1       1.010   0.078   0.057  0.00  0.00     0.322 C 
ATOM      7  N   UNL d   1       0.340   0.624   1.127  0.00  0.00    -0.309 N 
ATOM      8  O   UNL d   1       2.220   0.197  -0.130  0.00  0.00    -0.247 OA
ATOM      9  H   UNL d   1      -0.590   0.287   1.314  0.00  0.00     0.170 HD
BRANCH   7  10
ATOM     10  C   UNL d   1       0.916   1.391   2.171  0.00  0.00     0.036 A 
ATOM     11  C   UNL d   1       2.220   1.896   2.139  0.00  0.00     0.029 A 
ATOM     12  C   UNL d   1       2.747   2.597   3.227  0.00  0.00     0.002 A 
ATOM     13  C   UNL d   1       1.968   2.820   4.356  0.00  0.00     0.000 A 
ATOM     14  C   UNL d   1       0.658   2.352   4.393  0.00  0.00     0.002 A 
ATOM     15  C   UNL d   1       0.133   1.644   3.305  0.00  0.00     0.029 A 
ENDBRANCH   7  10
BRANCH   5  16
ATOM     16  C   UNL d   1       0.981  -1.290  -1.956  0.00  0.00     0.133 C 
BRANCH  16  17
ATOM     17  C   UNL d   1       1.878  -2.451  -1.503  0.00  0.00     0.077 C 
BRANCH  17  18
ATOM     18  C   UNL d   1       2.622  -3.061  -2.663  0.00  0.00     0.010 A 
ATOM     19  N   UNL d   1       1.874  -3.636  -3.635  0.00  0.00    -0.369 N 
ATOM     20  C   UNL d   1       2.531  -4.211  -4.666  0.00  0.00     0.088 A 
ATOM     21  HN  UNL d   1       0.855  -3.635  -3.590  1.00  0.00     0.165 HD
ATOM     22  C   UNL d   1       3.911  -4.244  -4.781  0.00  0.00     0.017 A 
ATOM     23  C   UNL d   1       4.665  -3.651  -3.777  0.00  0.00     0.003 A 
ATOM     24  C   UNL d   1       4.016  -3.051  -2.701  0.00  0.00     0.025 A 
ENDBRANCH  17  18
ENDBRANCH  16  17
ENDBRANCH   5  16
ENDBRANCH   4   5
ENDBRANCH   3   4
TORSDOF 6
