REMARK  9 active torsions:
REMARK  status: ('A' for Active; 'I' for Inactive)
REMARK    1  A    between atoms: C_3  and  C_1 
REMARK       I    between atoms: N_4  and  C_1 
REMARK    2  A    between atoms: C_2  and  C_3 
REMARK       I    between atoms: N_5  and  C_2 
REMARK    3  A    between atoms: C_14  and  C_3 
REMARK    4  A    between atoms: C_6  and  N_4 
REMARK    5  A    between atoms: C_7  and  N_5 
REMARK    6  A    between atoms: O_22  and  C_8 
REMARK    7  A    between atoms: O_21  and  C_9 
REMARK    8  A    between atoms: O_23  and  C_17 
REMARK    9  A    between atoms: O_24  and  C_18 
ROOT
ATOM      1  C   UNL d   1       0.687   0.256  -1.222  0.00  0.00     0.203 C 
ENDROOT
BRANCH   1   2
ATOM      2  C   UNL d   1       0.042   1.461  -1.901  0.00  0.00     0.239 C 
ATOM      3  N   UNL d   1      -1.147   1.183  -2.569  0.00  0.00    -0.324 N 
ATOM      4  H   UNL d   1      -1.595   0.289  -2.418  0.00  0.00     0.169 HD
ATOM      5  O   UNL d   1       0.561   2.571  -1.855  0.00  0.00    -0.272 OA
BRANCH   3   6
ATOM      6  C   UNL d   1      -1.908   2.141  -3.280  0.00  0.00     0.068 A 
ATOM      7  C   UNL d   1      -3.313   2.079  -3.308  0.00  0.00     0.097 A 
ATOM      8  C   UNL d   1      -4.043   2.977  -4.114  0.00  0.00     0.075 A 
ATOM      9  C   UNL d   1      -3.387   3.911  -4.914  0.00  0.00     0.070 A 
ATOM     10  C   UNL d   1      -1.994   3.964  -4.888  0.00  0.00     0.039 A 
ATOM     11  C   UNL d   1      -1.262   3.103  -4.066  0.00  0.00     0.035 A 
BRANCH   7  12
ATOM     12  O   UNL d   1      -4.081   1.147  -2.652  0.00  0.00    -0.354 OA
ATOM     13  C   UNL d   1      -3.808   0.958  -1.265  0.00  0.00     0.210 C 
ENDBRANCH   7  12
BRANCH   9  14
ATOM     14  O   UNL d   1      -3.965   4.797  -5.782  0.00  0.00    -0.356 OA
ATOM     15  C   UNL d   1      -5.376   4.742  -5.938  0.00  0.00     0.210 C 
ENDBRANCH   9  14
ENDBRANCH   3   6
ENDBRANCH   1   2
BRANCH   1  16
ATOM     16  C   UNL d   1       1.137   0.590   0.209  0.00  0.00     0.239 C 
ATOM     17  N   UNL d   1       2.245   1.423   0.311  0.00  0.00    -0.324 N 
ATOM     18  H   UNL d   1       2.459   2.002  -0.493  0.00  0.00     0.169 HD
ATOM     19  O   UNL d   1       0.527   0.127   1.168  0.00  0.00    -0.272 OA
BRANCH  17  20
ATOM     20  C   UNL d   1       2.894   1.745   1.526  0.00  0.00     0.068 A 
ATOM     21  C   UNL d   1       3.416   3.028   1.768  0.00  0.00     0.097 A 
ATOM     22  C   UNL d   1       4.156   3.280   2.938  0.00  0.00     0.075 A 
ATOM     23  C   UNL d   1       4.399   2.269   3.865  0.00  0.00     0.070 A 
ATOM     24  C   UNL d   1       3.886   0.996   3.620  0.00  0.00     0.039 A 
ATOM     25  C   UNL d   1       3.128   0.738   2.472  0.00  0.00     0.035 A 
BRANCH  21  26
ATOM     26  O   UNL d   1       3.306   4.124   0.950  0.00  0.00    -0.354 OA
ATOM     27  C   UNL d   1       2.041   4.340   0.335  0.00  0.00     0.210 C 
ENDBRANCH  21  26
BRANCH  23  28
ATOM     28  O   UNL d   1       5.121   2.385   5.020  0.00  0.00    -0.356 OA
ATOM     29  C   UNL d   1       5.645   3.671   5.329  0.00  0.00     0.210 C 
ENDBRANCH  23  28
ENDBRANCH  17  20
ENDBRANCH   1  16
BRANCH   1  30
ATOM     30  C   UNL d   1       1.807  -0.392  -2.031  0.00  0.00    -0.036 A 
ATOM     31  C   UNL d   1       2.150   0.029  -3.329  0.00  0.00     0.008 A 
ATOM     32  C   UNL d   1       3.183  -0.599  -4.027  0.00  0.00     0.001 A 
ATOM     33  C   UNL d   1       3.885  -1.649  -3.450  0.00  0.00     0.000 A 
ATOM     34  C   UNL d   1       3.555  -2.086  -2.171  0.00  0.00     0.001 A 
ATOM     35  C   UNL d   1       2.518  -1.470  -1.472  0.00  0.00     0.008 A 
ENDBRANCH   1  30
TORSDOF 9
