REMARK  6 active torsions:
REMARK  status: ('A' for Active; 'I' for Inactive)
REMARK    1  A    between atoms: C_14  and  C_5 
REMARK    2  A    between atoms: N_7  and  C_9 
REMARK    3  A    between atoms: N_8  and  C_13 
REMARK    4  A    between atoms: O_23  and  C_14 
REMARK    5  A    between atoms: C_24  and  O_23 
REMARK    6  A    between atoms: C_25  and  C_24 
ROOT
ATOM      1  C   UNL d   1      -0.663   0.858  -0.010  0.00  0.00     0.006 A 
ATOM      2  C   UNL d   1      -1.143  -0.473  -0.058  0.00  0.00     0.029 A 
ATOM      3  C   UNL d   1       1.217  -0.546  -0.038  0.00  0.00     0.028 A 
ATOM      4  C   UNL d   1       0.802   0.802  -0.012  0.00  0.00    -0.010 A 
ATOM      5  C   UNL d   1      -1.610   1.885   0.025  0.00  0.00     0.053 A 
ATOM      6  C   UNL d   1       0.013  -1.387  -0.056  0.00  0.00     0.194 A 
ATOM      7  C   UNL d   1      -3.404   0.198  -0.091  0.00  0.00     0.104 A 
ATOM      8  C   UNL d   1      -2.477  -0.840  -0.092  0.00  0.00     0.052 A 
ATOM      9  C   UNL d   1      -2.984   1.544  -0.032  0.00  0.00     0.054 A 
ATOM     10  C   UNL d   1       2.535  -0.968  -0.079  0.00  0.00     0.052 A 
ATOM     11  C   UNL d   1       3.507   0.034  -0.094  0.00  0.00     0.103 A 
ATOM     12  C   UNL d   1       1.785   1.780  -0.033  0.00  0.00     0.016 A 
ATOM     13  O   UNL d   1      -0.027  -2.598  -0.071  0.00  0.00    -0.287 OA
ATOM     14  C   UNL d   1       3.139   1.397  -0.064  0.00  0.00     0.037 A 
ENDROOT
BRANCH   5  15
ATOM     15  C   UNL d   1      -1.257   3.303   0.292  0.00  0.00     0.294 C 
ATOM     16  O   UNL d   1      -0.322   3.628   1.007  0.00  0.00    -0.259 OA
BRANCH  15  17
ATOM     17  O   UNL d   1      -2.181   4.141  -0.239  0.00  0.00    -0.317 OA
BRANCH  17  18
ATOM     18  C   UNL d   1      -2.226   5.455   0.346  0.00  0.00     0.178 C 
BRANCH  18  19
ATOM     19  C   UNL d   1      -1.781   6.527  -0.640  0.00  0.00     0.022 C 
ATOM     20  C   UNL d   1      -1.792   7.895   0.026  0.00  0.00     0.007 C 
ENDBRANCH  18  19
ENDBRANCH  17  18
ENDBRANCH  15  17
ENDBRANCH   5  15
BRANCH   7  21
ATOM     21  N   UNL d   1      -4.840  -0.115  -0.122  0.00  0.00    -0.116 N 
ATOM     22  O   UNL d   1      -5.169  -1.307  -0.157  0.00  0.00    -0.532 OA
ATOM     23  O   UNL d   1      -5.632   0.838  -0.109  0.00  0.00    -0.532 OA
ENDBRANCH   7  21
BRANCH  11  24
ATOM     24  N   UNL d   1       4.927  -0.332  -0.169  0.00  0.00    -0.116 N 
ATOM     25  O   UNL d   1       5.208  -1.537  -0.236  0.00  0.00    -0.532 OA
ATOM     26  O   UNL d   1       5.758   0.586  -0.169  0.00  0.00    -0.532 OA
ENDBRANCH  11  24
TORSDOF 6
