REMARK  4 active torsions:
REMARK  status: ('A' for Active; 'I' for Inactive)
REMARK    1  A    between atoms: C_6  and  C_1 
REMARK    2  A    between atoms: C_5  and  C_2 
REMARK       I    between atoms: N_9  and  C_5 
REMARK    3  A    between atoms: C_16  and  N_9 
REMARK    4  A    between atoms: N_10  and  C_11 
ROOT
ATOM      1  C   UNL d   1       0.157  -2.247   0.399  0.00  0.00     0.261 C 
ATOM      2  N   UNL d   1      -0.158  -3.486  -0.142  0.00  0.00    -0.323 N 
ATOM      3  O   UNL d   1      -0.595  -1.288   0.530  0.00  0.00    -0.267 OA
ATOM      4  H   UNL d   1       0.631  -4.058  -0.420  0.00  0.00     0.169 HD
ENDROOT
BRANCH   1   5
ATOM      5  C   UNL d   1       1.528  -2.225   0.874  0.00  0.00     0.093 C 
ATOM      6  C   UNL d   1       2.654  -1.374   0.630  0.00  0.00     0.086 C 
ATOM      7  N   UNL d   1       3.741  -1.908   1.220  0.00  0.00    -0.259 N 
ATOM      8  O   UNL d   1       3.304  -2.919   2.034  0.00  0.00    -0.241 OA
ATOM      9  HN  UNL d   1       4.709  -1.615   1.085  1.00  0.00     0.195 HD
ATOM     10  C   UNL d   1       1.975  -3.085   1.861  0.00  0.00     0.090 C 
ATOM     11  C   UNL d   1       1.323  -4.051   2.769  0.00  0.00     0.080 C 
BRANCH   6  12
ATOM     12  C   UNL d   1       2.821  -0.117  -0.118  0.00  0.00     0.037 A 
ATOM     13  C   UNL d   1       3.530   0.967   0.463  0.00  0.00     0.048 A 
ATOM     14 CL   UNL d   1       4.117   0.968   2.101  0.00  0.00    -0.083 Cl
ATOM     15  C   UNL d   1       3.792   2.144  -0.255  0.00  0.00     0.025 A 
ATOM     16  C   UNL d   1       3.322   2.290  -1.552  0.00  0.00     0.003 A 
ATOM     17  C   UNL d   1       2.604   1.253  -2.136  0.00  0.00     0.025 A 
ATOM     18  C   UNL d   1       2.370   0.051  -1.439  0.00  0.00     0.048 A 
ATOM     19 CL   UNL d   1       1.585  -1.200  -2.340  0.00  0.00    -0.083 Cl
ENDBRANCH   6  12
ENDBRANCH   1   5
BRANCH   2  20
ATOM     20  C   UNL d   1      -1.406  -4.144  -0.141  0.00  0.00     0.035 A 
ATOM     21  C   UNL d   1      -1.454  -5.438  -0.659  0.00  0.00     0.032 A 
ATOM     22  C   UNL d   1      -2.601  -6.238  -0.507  0.00  0.00     0.031 A 
ATOM     23  C   UNL d   1      -3.743  -5.799   0.180  0.00  0.00     0.030 A 
ATOM     24  C   UNL d   1      -3.684  -4.465   0.627  0.00  0.00     0.031 A 
ATOM     25  C   UNL d   1      -2.548  -3.644   0.464  0.00  0.00     0.032 A 
BRANCH  23  26
ATOM     26  N   UNL d   1      -4.806  -6.640   0.481  0.00  0.00    -0.377 N 
ATOM     27  C   UNL d   1      -6.154  -6.125   0.808  0.00  0.00     0.149 C 
ATOM     28  C   UNL d   1      -6.819  -7.044   1.847  0.00  0.00     0.187 C 
ATOM     29  O   UNL d   1      -6.921  -8.390   1.360  0.00  0.00    -0.388 OA
ATOM     30  C   UNL d   1      -5.612  -8.908   1.086  0.00  0.00     0.187 C 
ATOM     31  C   UNL d   1      -4.851  -8.057   0.051  0.00  0.00     0.149 C 
ENDBRANCH  23  26
ENDBRANCH   2  20
TORSDOF 4
