REMARK  5 active torsions:
REMARK  status: ('A' for Active; 'I' for Inactive)
REMARK       I    between atoms: N_3  and  C_1 
REMARK    1  A    between atoms: C_10  and  C_1 
REMARK    2  A    between atoms: N_4  and  N_3 
REMARK    3  A    between atoms: C_8  and  N_4 
REMARK    4  A    between atoms: C_12  and  C_10 
REMARK    5  A    between atoms: C_13  and  C_12 
ROOT
ATOM      1  C   UNL d   1       0.773   0.171   0.189  0.00  0.00     0.232 C 
ATOM      2  N   UNL d   1       0.072   0.850   1.171  0.00  0.00    -0.287 N 
ATOM      3  O   UNL d   1       1.895   0.527  -0.180  0.00  0.00    -0.272 OA
ATOM      4  H   UNL d   1      -0.944   0.811   1.169  0.00  0.00     0.184 HD
ENDROOT
BRANCH   2   5
ATOM      5  N   UNL d   1       0.564   2.139   1.464  0.00  0.00    -0.203 NA
ATOM      6  H   UNL d   1       1.530   2.240   1.123  0.00  0.00     0.153 HD
BRANCH   5   7
ATOM      7  C   UNL d   1       0.490   2.543   2.818  0.00  0.00     0.028 A 
ATOM      8  C   UNL d   1       0.162   1.701   3.888  0.00  0.00     0.032 A 
ATOM      9  C   UNL d   1       0.114   2.181   5.215  0.00  0.00    -0.054 A 
ATOM     10  C   UNL d   1      -0.228   1.233   6.333  0.00  0.00     0.049 C 
ATOM     11  C   UNL d   1       0.390   3.538   5.473  0.00  0.00    -0.056 A 
ATOM     12  C   UNL d   1       0.729   4.377   4.406  0.00  0.00     0.009 A 
ATOM     13  C   UNL d   1       0.335   4.106   6.865  0.00  0.00     0.049 C 
ATOM     14  C   UNL d   1       0.786   3.882   3.102  0.00  0.00     0.026 A 
ENDBRANCH   5   7
ENDBRANCH   2   5
BRANCH   1  15
ATOM     15  C   UNL d   1       0.160  -1.119  -0.323  0.00  0.00     0.108 C 
BRANCH  15  16
ATOM     16  C   UNL d   1      -1.363  -1.191  -0.419  0.00  0.00     0.048 C 
BRANCH  16  17
ATOM     17  C   UNL d   1      -2.072  -0.248  -1.365  0.00  0.00    -0.058 A 
ATOM     18  C   UNL d   1      -1.453   0.354  -2.468  0.00  0.00     0.007 A 
ATOM     19  C   UNL d   1      -2.186   1.154  -3.349  0.00  0.00     0.001 A 
ATOM     20  C   UNL d   1      -3.549   1.358  -3.147  0.00  0.00     0.000 A 
ATOM     21  C   UNL d   1      -4.182   0.762  -2.062  0.00  0.00     0.001 A 
ATOM     22  C   UNL d   1      -3.449  -0.037  -1.181  0.00  0.00     0.007 A 
ENDBRANCH  16  17
ENDBRANCH  15  16
ENDBRANCH   1  15
TORSDOF 5
