REMARK  6 active torsions:
REMARK  status: ('A' for Active; 'I' for Inactive)
REMARK    1  A    between atoms: N_2  and  S_1 
REMARK    2  A    between atoms: C_3  and  S_1 
REMARK    3  A    between atoms: C_8  and  N_2 
REMARK    4  A    between atoms: C_11  and  C_17 
REMARK    5  A    between atoms: C_18  and  C_13 
REMARK    6  A    between atoms: C_17  and  C_18 
ROOT
ATOM      1  C   UNL d   1       0.709  -2.568   0.726  0.00  0.00     0.043 A 
ATOM      2  C   UNL d   1       2.003  -2.938   0.356  0.00  0.00     0.037 A 
ATOM      3  C   UNL d   1       2.296  -4.269   0.021  0.00  0.00    -0.056 A 
ATOM      4  C   UNL d   1      -0.043  -4.830   0.382  0.00  0.00     0.003 A 
ATOM      5  C   UNL d   1      -0.317  -3.510   0.741  0.00  0.00     0.030 A 
ATOM      6  C   UNL d   1       1.255  -5.208   0.029  0.00  0.00     0.007 A 
ENDROOT
BRANCH   1   7
ATOM      7  N   UNL d   1       0.448  -1.219   1.077  0.00  0.00    -0.281 N 
ATOM      8  H   UNL d   1      -0.009  -1.028   1.966  0.00  0.00     0.179 HD
BRANCH   7   9
ATOM      9  S   UNL d   1       0.104  -0.092  -0.126  0.00  0.00     0.263 S 
ATOM     10  O   UNL d   1       1.123  -0.150  -1.147  0.00  0.00    -0.200 OA
ATOM     11  O   UNL d   1      -0.190   1.149   0.569  0.00  0.00    -0.200 OA
BRANCH   9  12
ATOM     12  C   UNL d   1      -1.426  -0.671  -0.831  0.00  0.00     0.079 A 
ATOM     13  C   UNL d   1      -2.639  -0.210  -0.309  0.00  0.00     0.026 A 
ATOM     14  C   UNL d   1      -3.841  -0.634  -0.877  0.00  0.00     0.008 A 
ATOM     15  C   UNL d   1      -3.842  -1.511  -1.970  0.00  0.00    -0.062 A 
ATOM     16  C   UNL d   1      -2.619  -1.946  -2.500  0.00  0.00     0.008 A 
ATOM     17  C   UNL d   1      -5.148  -1.956  -2.563  0.00  0.00     0.048 C 
ATOM     18  C   UNL d   1      -1.410  -1.521  -1.940  0.00  0.00     0.026 A 
ENDBRANCH   9  12
ENDBRANCH   7   9
ENDBRANCH   1   7
BRANCH   3  19
ATOM     19  C   UNL d   1       3.700  -4.686  -0.369  0.00  0.00     0.044 C 
BRANCH  19  20
ATOM     20  C   UNL d   1       4.721  -4.479   0.758  0.00  0.00     0.061 C 
BRANCH  20  21
ATOM     21  C   UNL d   1       6.135  -4.871   0.388  0.00  0.00     0.009 A 
ATOM     22  N   UNL d   1       6.314  -5.888  -0.489  0.00  0.00    -0.369 N 
ATOM     23  C   UNL d   1       7.586  -6.251  -0.773  0.00  0.00     0.088 A 
ATOM     24  HN  UNL d   1       5.519  -6.361  -0.919  1.00  0.00     0.165 HD
ATOM     25  C   UNL d   1       8.703  -5.657  -0.213  0.00  0.00     0.017 A 
ATOM     26  C   UNL d   1       8.507  -4.629   0.699  0.00  0.00     0.003 A 
ATOM     27  C   UNL d   1       7.209  -4.233   1.010  0.00  0.00     0.025 A 
ENDBRANCH  20  21
ENDBRANCH  19  20
ENDBRANCH   3  19
TORSDOF 6
