REMARK  5 active torsions:
REMARK  status: ('A' for Active; 'I' for Inactive)
REMARK    1  A    between atoms: C_5  and  C_1 
REMARK    2  A    between atoms: C_10  and  C_4 
REMARK       I    between atoms: N_11  and  C_5 
REMARK    3  A    between atoms: C_6  and  C_13 
REMARK       I    between atoms: C_9  and  N_12 
REMARK    4  A    between atoms: C_14  and  C_9 
REMARK    5  A    between atoms: N_12  and  N_11 
ROOT
ATOM      1  C   UNL d   1       2.279   1.725   0.117  0.00  0.00     0.287 C 
ATOM      2  N   UNL d   1       2.260   3.099   0.217  0.00  0.00    -0.262 N 
ATOM      3  O   UNL d   1       1.299   1.080  -0.264  0.00  0.00    -0.264 OA
ATOM      4  H   UNL d   1       3.070   3.628   0.543  0.00  0.00     0.190 HD
ENDROOT
BRANCH   2   5
ATOM      5  N   UNL d   1       1.113   3.796  -0.187  0.00  0.00    -0.263 N 
ATOM      6  C   UNL d   1       0.859   5.040   0.356  0.00  0.00     0.270 C 
ATOM      7  O   UNL d   1       1.605   5.607   1.147  0.00  0.00    -0.266 OA
ATOM      8  H   UNL d   1       0.371   3.232  -0.600  0.00  0.00     0.190 HD
BRANCH   6   9
ATOM      9  C   UNL d   1      -0.413   5.683  -0.076  0.00  0.00     0.034 A 
ATOM     10  C   UNL d   1      -1.125   6.474   0.838  0.00  0.00     0.033 A 
ATOM     11  C   UNL d   1      -2.317   7.112   0.450  0.00  0.00     0.048 A 
ATOM     12  C   UNL d   1      -2.765   6.967  -0.875  0.00  0.00     0.016 A 
ATOM     13  C   UNL d   1      -2.048   6.195  -1.789  0.00  0.00     0.002 A 
ATOM     14  C   UNL d   1      -0.876   5.549  -1.390  0.00  0.00     0.017 A 
BRANCH  11  15
ATOM     15  C   UNL d   1      -3.123   7.941   1.421  0.00  0.00     0.417 C 
ATOM     16  F   UNL d   1      -2.591   7.992   2.673  0.00  0.00    -0.166 F 
ATOM     17  F   UNL d   1      -3.256   9.236   1.016  0.00  0.00    -0.166 F 
ATOM     18  F   UNL d   1      -4.391   7.468   1.573  0.00  0.00    -0.166 F 
ENDBRANCH  11  15
ENDBRANCH   6   9
ENDBRANCH   2   5
BRANCH   1  19
ATOM     19  C   UNL d   1       3.555   1.098   0.473  0.00  0.00     0.110 A 
ATOM     20  N   UNL d   1       4.683   1.830   0.866  0.00  0.00    -0.345 N 
ATOM     21  C   UNL d   1       5.707   1.020   1.083  0.00  0.00     0.086 A 
ATOM     22  HN  UNL d   1       4.711   2.845   0.970  1.00  0.00     0.167 HD
ATOM     23  S   UNL d   1       5.354  -0.656   0.870  0.00  0.00    -0.081 SA
ATOM     24  C   UNL d   1       3.752  -0.269   0.434  0.00  0.00     0.087 A 
BRANCH  21  25
ATOM     25  C   UNL d   1       7.039   1.444   1.536  0.00  0.00     0.013 A 
ATOM     26  C   UNL d   1       8.209   0.756   1.211  0.00  0.00     0.101 A 
ATOM     27  N   UNL d   1       9.454   1.095   1.638  0.00  0.00    -0.374 N 
ATOM     28  C   UNL d   1       9.544   2.183   2.429  0.00  0.00     0.087 A 
ATOM     29  HN  UNL d   1      10.277   0.555   1.373  1.00  0.00     0.164 HD
ATOM     30  C   UNL d   1       8.454   2.952   2.800  0.00  0.00     0.018 A 
ATOM     31  C   UNL d   1       7.190   2.579   2.340  0.00  0.00     0.017 A 
ENDBRANCH  21  25
ENDBRANCH   1  19
TORSDOF 5
