REMARK  0 active torsions:
REMARK  status: ('A' for Active; 'I' for Inactive)
ROOT
ATOM      1  N   UNL d   1       0.015  -1.695  -0.002  0.00  0.00    -0.349 N 
ATOM      2  C   UNL d   1       1.173  -0.928  -0.002  0.00  0.00     0.063 A 
ATOM      3  C   UNL d   1       0.739   0.413  -0.002  0.00  0.00     0.006 A 
ATOM      4  C   UNL d   1      -0.688   0.431  -0.002  0.00  0.00     0.005 A 
ATOM      5  C   UNL d   1      -1.118  -0.889  -0.002  0.00  0.00     0.045 A 
ATOM      6  C   UNL d   1       2.563  -1.211  -0.002  0.00  0.00     0.040 A 
ATOM      7  C   UNL d   1       3.480  -0.148  -0.002  0.00  0.00     0.040 A 
ATOM      8  C   UNL d   1      -2.486  -1.224  -0.003  0.00  0.00     0.032 A 
ATOM      9  C   UNL d   1       1.687   1.461  -0.001  0.00  0.00     0.033 A 
ATOM     10  C   UNL d   1      -1.648   1.467  -0.001  0.00  0.00     0.033 A 
ATOM     11  C   UNL d   1       3.045   1.166  -0.002  0.00  0.00     0.013 A 
ATOM     12 BR   UNL d   1       3.328  -2.945  -0.003  0.00  0.00    -0.049 Br
ATOM     13  C   UNL d   1      -0.122  -3.136  -0.001  0.00  0.00     0.156 C 
ATOM     14  C   UNL d   1      -3.006   1.139  -0.002  0.00  0.00     0.011 A 
ATOM     15  C   UNL d   1      -3.422  -0.187  -0.003  0.00  0.00     0.021 A 
ATOM     16 BR   UNL d   1       4.307   2.575  -0.002  0.00  0.00    -0.051 Br
ATOM     17 BR   UNL d   1      -4.295   2.523  -0.001  0.00  0.00    -0.051 Br
ENDROOT
TORSDOF 0
