REMARK  6 active torsions:
REMARK  status: ('A' for Active; 'I' for Inactive)
REMARK    1  A    between atoms: C_5  and  C_1 
REMARK       I    between atoms: C_2  and  N_3 
REMARK    2  A    between atoms: C_6  and  C_2 
REMARK    3  A    between atoms: N_3  and  C_4 
REMARK       I    between atoms: N_15  and  C_5 
REMARK    4  A    between atoms: C_21  and  N_15 
REMARK    5  A    between atoms: C_17  and  C_20 
REMARK    6  A    between atoms: C_20  and  C_21 
ROOT
ATOM      1  C   UNL d   1       1.062  -0.608   0.621  0.00  0.00     0.058 A 
ATOM      2  C   UNL d   1       0.595  -1.617  -0.243  0.00  0.00     0.050 A 
ATOM      3  C   UNL d   1       0.303   0.543   0.861  0.00  0.00     0.019 A 
ATOM      4  C   UNL d   1      -0.702  -1.518  -0.750  0.00  0.00     0.030 A 
ATOM      5  C   UNL d   1      -0.969   0.654   0.307  0.00  0.00     0.001 A 
ATOM      6  C   UNL d   1      -1.480  -0.389  -0.470  0.00  0.00     0.002 A 
ENDROOT
BRANCH   1   7
ATOM      7  C   UNL d   1       2.265  -0.816   1.459  0.00  0.00     0.253 C 
ATOM      8  O   UNL d   1       3.063   0.083   1.666  0.00  0.00    -0.268 OA
ATOM      9  N   UNL d   1       2.367  -2.097   1.983  0.00  0.00    -0.356 N 
ATOM     10  H   UNL d   1       1.570  -2.713   1.871  0.00  0.00     0.162 HD
BRANCH   9  11
ATOM     11  C   UNL d   1       3.401  -2.510   2.914  0.00  0.00     0.129 C 
BRANCH  11  12
ATOM     12  C   UNL d   1       4.099  -3.798   2.471  0.00  0.00     0.076 C 
BRANCH  12  13
ATOM     13  C   UNL d   1       5.062  -3.724   1.311  0.00  0.00     0.010 A 
ATOM     14  N   UNL d   1       5.717  -4.883   1.041  0.00  0.00    -0.369 N 
ATOM     15  C   UNL d   1       6.614  -4.885   0.030  0.00  0.00     0.088 A 
ATOM     16  HN  UNL d   1       5.536  -5.726   1.585  1.00  0.00     0.165 HD
ATOM     17  C   UNL d   1       6.872  -3.790  -0.771  0.00  0.00     0.017 A 
ATOM     18  C   UNL d   1       6.183  -2.617  -0.507  0.00  0.00     0.003 A 
ATOM     19  C   UNL d   1       5.280  -2.576   0.553  0.00  0.00     0.025 A 
ENDBRANCH  12  13
ENDBRANCH  11  12
ENDBRANCH   9  11
ENDBRANCH   1   7
BRANCH   2  20
ATOM     20  N   UNL d   1       1.467  -2.670  -0.622  0.00  0.00    -0.322 N 
ATOM     21  C   UNL d   1       1.088  -3.982  -0.814  0.00  0.00     0.256 C 
ATOM     22  O   UNL d   1      -0.023  -4.445  -0.594  0.00  0.00    -0.267 OA
ATOM     23  H   UNL d   1       2.458  -2.504  -0.474  0.00  0.00     0.169 HD
BRANCH  21  24
ATOM     24  C   UNL d   1       2.197  -4.894  -1.201  0.00  0.00     0.034 A 
ATOM     25  C   UNL d   1       3.111  -4.532  -2.198  0.00  0.00     0.042 A 
ATOM     26  C   UNL d   1       4.114  -5.431  -2.577  0.00  0.00     0.056 A 
ATOM     27 CL   UNL d   1       5.191  -4.942  -3.839  0.00  0.00    -0.083 Cl
ATOM     28  C   UNL d   1       4.216  -6.679  -1.949  0.00  0.00     0.055 A 
ATOM     29  C   UNL d   1       3.308  -7.029  -0.946  0.00  0.00     0.026 A 
ATOM     30 CL   UNL d   1       5.437  -7.829  -2.367  0.00  0.00    -0.083 Cl
ATOM     31  C   UNL d   1       2.292  -6.142  -0.580  0.00  0.00     0.019 A 
ENDBRANCH  21  24
ENDBRANCH   2  20
TORSDOF 6
