REMARK  4 active torsions:
REMARK  status: ('A' for Active; 'I' for Inactive)
REMARK    1  A    between atoms: C_8  and  N_1 
REMARK    2  A    between atoms: C_10  and  N_3 
REMARK    3  A    between atoms: C_15  and  C_8 
REMARK    4  A    between atoms: O_19  and  C_16 
ROOT
ATOM      1  N   UNL d   1      -0.656   1.135  -0.042  0.00  0.00    -0.260 N 
ATOM      2  C   UNL d   1      -1.373  -0.052  -0.210  0.00  0.00     0.336 C 
ATOM      3  N   UNL d   1      -0.618  -1.239  -0.115  0.00  0.00    -0.273 N 
ATOM      4  C   UNL d   1       0.723   1.212   0.063  0.00  0.00     0.274 C 
ATOM      5  C   UNL d   1       1.457  -0.072   0.052  0.00  0.00     0.128 C 
ATOM      6  C   UNL d   1       0.760  -1.209  -0.025  0.00  0.00     0.130 C 
ATOM      7  C   UNL d   1       2.875  -0.079   0.159  0.00  0.00     0.106 C 
ATOM      8  N   UNL d   1       4.027  -0.149   0.236  0.00  0.00    -0.191 NA
ATOM      9  O   UNL d   1      -2.579  -0.043  -0.471  0.00  0.00    -0.246 OA
ATOM     10  O   UNL d   1       1.341   2.272   0.150  0.00  0.00    -0.266 OA
ENDROOT
BRANCH   1  11
ATOM     11  C   UNL d   1      -1.421   2.381  -0.023  0.00  0.00     0.175 C 
BRANCH  11  12
ATOM     12  C   UNL d   1      -1.982   2.670   1.356  0.00  0.00    -0.040 A 
ATOM     13  C   UNL d   1      -1.238   3.404   2.289  0.00  0.00     0.009 A 
ATOM     14  C   UNL d   1      -1.713   3.583   3.591  0.00  0.00     0.001 A 
ATOM     15  C   UNL d   1      -2.936   3.033   3.972  0.00  0.00     0.000 A 
ATOM     16  C   UNL d   1      -3.701   2.332   3.044  0.00  0.00     0.001 A 
ATOM     17  C   UNL d   1      -3.230   2.155   1.742  0.00  0.00     0.009 A 
ENDBRANCH  11  12
ENDBRANCH   1  11
BRANCH   3  18
ATOM     18  C   UNL d   1      -1.330  -2.483  -0.135  0.00  0.00     0.043 A 
ATOM     19  C   UNL d   1      -0.965  -3.518  -1.002  0.00  0.00     0.033 A 
ATOM     20  C   UNL d   1      -1.745  -4.680  -1.067  0.00  0.00     0.039 A 
ATOM     21  C   UNL d   1      -2.861  -4.846  -0.241  0.00  0.00     0.068 A 
ATOM     22  C   UNL d   1      -3.180  -3.848   0.675  0.00  0.00     0.039 A 
ATOM     23  C   UNL d   1      -2.429  -2.669   0.715  0.00  0.00     0.033 A 
BRANCH  21  24
ATOM     24  O   UNL d   1      -3.555  -6.009  -0.431  0.00  0.00    -0.356 OA
ATOM     25  C   UNL d   1      -4.727  -6.194   0.355  0.00  0.00     0.210 C 
ENDBRANCH  21  24
ENDBRANCH   3  18
TORSDOF 4
