REMARK  3 active torsions:
REMARK  status: ('A' for Active; 'I' for Inactive)
REMARK       I    between atoms: N_2  and  C_1 
REMARK       I    between atoms: N_5  and  C_1 
REMARK    1  A    between atoms: C_3  and  N_2 
REMARK    2  A    between atoms: C_4  and  C_12 
REMARK    3  A    between atoms: C_12  and  N_5 
ROOT
ATOM      1  C   UNL d   1       1.036   0.015   0.045  0.00  0.00     0.321 C 
ATOM      2  N   UNL d   1       0.504   1.196  -0.423  0.00  0.00    -0.308 N 
ATOM      3  N   UNL d   1       0.129  -0.639   0.841  0.00  0.00    -0.337 N 
ATOM      4  O   UNL d   1       2.172  -0.399  -0.141  0.00  0.00    -0.247 OA
ATOM      5  H   UNL d   1      -0.231   1.562   0.160  0.00  0.00     0.170 HD
ATOM      6  H   UNL d   1      -0.852  -0.513   0.640  0.00  0.00     0.164 HD
ENDROOT
BRANCH   2   7
ATOM      7  C   UNL d   1       1.183   2.102  -1.263  0.00  0.00     0.042 A 
ATOM      8  C   UNL d   1       0.996   3.489  -1.107  0.00  0.00    -0.035 A 
ATOM      9  C   UNL d   1       0.171   4.107  -0.010  0.00  0.00     0.050 C 
ATOM     10  C   UNL d   1       1.642   4.366  -1.998  0.00  0.00     0.009 A 
ATOM     11  C   UNL d   1       2.466   3.882  -3.014  0.00  0.00     0.001 A 
ATOM     12  C   UNL d   1       2.656   2.512  -3.156  0.00  0.00     0.002 A 
ATOM     13  C   UNL d   1       2.018   1.628  -2.285  0.00  0.00     0.030 A 
ENDBRANCH   2   7
BRANCH   3  14
ATOM     14  C   UNL d   1       0.517  -1.826   1.566  0.00  0.00     0.189 C 
BRANCH  14  15
ATOM     15  C   UNL d   1      -0.696  -2.486   2.103  0.00  0.00     0.070 A 
ATOM     16  O   UNL d   1      -1.551  -1.720   2.840  0.00  0.00    -0.325 OA
ATOM     17  C   UNL d   1      -2.579  -2.518   3.220  0.00  0.00     0.142 A 
ATOM     18  C   UNL d   1      -2.402  -3.792   2.733  0.00  0.00     0.027 A 
ATOM     19  C   UNL d   1      -1.184  -3.774   2.012  0.00  0.00     0.036 A 
ENDBRANCH  14  15
ENDBRANCH   3  14
TORSDOF 3
