REMARK  6 active torsions:
REMARK  status: ('A' for Active; 'I' for Inactive)
REMARK    1  A    between atoms: C_10  and  C_1 
REMARK    2  A    between atoms: C_14  and  C_4 
REMARK    3  A    between atoms: C_8  and  C_17 
REMARK    4  A    between atoms: O_15  and  C_9 
REMARK    5  A    between atoms: O_20  and  C_10 
REMARK    6  A    between atoms: C_17  and  O_15 
ROOT
ATOM      1  N   UNL d   1       5.569   4.955   0.240  0.00  0.00    -0.277 N 
ATOM      2  HN  UNL d   1       6.078   5.832   0.349  1.00  0.00     0.189 HD
ATOM      3  C   UNL d   1       6.094   3.755   0.083  0.00  0.00     0.174 A 
ATOM      4  O   UNL d   1       5.136   2.778  -0.030  0.00  0.00    -0.275 OA
ATOM      5  N   UNL d   1       4.198   4.794   0.226  0.00  0.00    -0.279 N 
ATOM      6  HN  UNL d   1       3.495   5.527   0.323  1.00  0.00     0.189 HD
ATOM      7  C   UNL d   1       3.976   3.506   0.063  0.00  0.00     0.165 A 
ENDROOT
BRANCH   7   8
ATOM      8  C   UNL d   1       2.697   2.789  -0.182  0.00  0.00     0.261 C 
BRANCH   8   9
ATOM      9  O   UNL d   1       2.181   2.334   1.060  0.00  0.00    -0.342 OA
BRANCH   9  10
ATOM     10  C   UNL d   1       0.959   1.723   1.064  0.00  0.00     0.092 A 
ATOM     11  C   UNL d   1       0.043   1.474   0.039  0.00  0.00     0.113 A 
ATOM     12  S   UNL d   1      -1.348   0.638   0.670  0.00  0.00    -0.093 SA
ATOM     13  C   UNL d   1      -0.777   0.688   2.263  0.00  0.00     0.053 A 
ATOM     14  C   UNL d   1       0.460   1.277   2.334  0.00  0.00     0.045 A 
BRANCH  11  15
ATOM     15  C   UNL d   1       0.042   1.725  -1.399  0.00  0.00     0.302 C 
ATOM     16  O   UNL d   1       1.022   1.789  -2.129  0.00  0.00    -0.259 OA
BRANCH  15  17
ATOM     17  O   UNL d   1      -1.236   1.911  -1.850  0.00  0.00    -0.322 OA
ATOM     18  C   UNL d   1      -1.379   2.106  -3.256  0.00  0.00     0.213 C 
ENDBRANCH  15  17
ENDBRANCH  11  15
ENDBRANCH   9  10
ENDBRANCH   8   9
ENDBRANCH   7   8
BRANCH   3  19
ATOM     19  C   UNL d   1       7.490   3.342   0.017  0.00  0.00     0.017 A 
ATOM     20  C   UNL d   1       7.859   1.998  -0.141  0.00  0.00     0.016 A 
ATOM     21  C   UNL d   1       9.206   1.621  -0.158  0.00  0.00     0.007 A 
ATOM     22  C   UNL d   1      10.214   2.580  -0.021  0.00  0.00    -0.062 A 
ATOM     23  C   UNL d   1       9.857   3.925   0.111  0.00  0.00     0.007 A 
ATOM     24  C   UNL d   1      11.653   2.157  -0.014  0.00  0.00     0.048 C 
ATOM     25  C   UNL d   1       8.508   4.301   0.128  0.00  0.00     0.016 A 
ENDBRANCH   3  19
TORSDOF 6
