REMARK  4 active torsions:
REMARK  status: ('A' for Active; 'I' for Inactive)
REMARK    1  A    between atoms: C_2  and  C_1 
REMARK    2  A    between atoms: S_3  and  C_2 
REMARK    3  A    between atoms: C_6  and  S_3 
REMARK    4  A    between atoms: N_8  and  C_7 
ROOT
ATOM      1  S   UNL d   1      -1.907   2.788   0.239  0.00  0.00    -0.123 SA
ENDROOT
BRANCH   1   2
ATOM      2  C   UNL d   1      -0.207   2.163  -0.024  0.00  0.00     0.121 C 
BRANCH   2   3
ATOM      3  C   UNL d   1      -0.143   0.671   0.231  0.00  0.00    -0.005 A 
ATOM      4  C   UNL d   1      -0.319  -0.265  -0.806  0.00  0.00     0.042 A 
ATOM      5 CL   UNL d   1      -0.590   0.218  -2.445  0.00  0.00    -0.084 Cl
ATOM      6  C   UNL d   1      -0.284  -1.642  -0.554  0.00  0.00     0.024 A 
ATOM      7  C   UNL d   1      -0.084  -2.119   0.738  0.00  0.00     0.003 A 
ATOM      8  C   UNL d   1       0.083  -1.215   1.781  0.00  0.00     0.024 A 
ATOM      9  C   UNL d   1       0.052   0.164   1.534  0.00  0.00     0.042 A 
ATOM     10 CL   UNL d   1       0.263   1.201   2.905  0.00  0.00    -0.084 Cl
ENDBRANCH   2   3
ENDBRANCH   1   2
BRANCH   1  11
ATOM     11  C   UNL d   1      -1.715   4.569   0.040  0.00  0.00     0.021 A 
ATOM     12  C   UNL d   1      -2.755   5.303  -0.578  0.00  0.00     0.022 A 
ATOM     13  C   UNL d   1      -2.640   6.695  -0.694  0.00  0.00     0.024 A 
ATOM     14  C   UNL d   1      -1.555   7.369  -0.136  0.00  0.00     0.002 A 
ATOM     15  C   UNL d   1      -0.553   6.652   0.512  0.00  0.00     0.001 A 
ATOM     16  C   UNL d   1      -0.633   5.261   0.602  0.00  0.00     0.020 A 
BRANCH  12  17
ATOM     17  N   UNL d   1      -3.807   4.656  -1.262  0.00  0.00    -0.302 NA
ATOM     18  H   UNL d   1      -3.931   3.703  -0.922  0.00  0.00     0.124 HD
ATOM     19  H   UNL d   1      -4.671   5.185  -1.273  0.00  0.00     0.124 HD
ENDBRANCH  12  17
ENDBRANCH   1  11
TORSDOF 4
