REMARK  5 active torsions:
REMARK  status: ('A' for Active; 'I' for Inactive)
REMARK    1  A    between atoms: C_3  and  N_5 
REMARK    2  A    between atoms: N_10  and  C_3 
REMARK    3  A    between atoms: N_5  and  C_12 
REMARK    4  A    between atoms: C_7  and  C_19 
REMARK    5  A    between atoms: C_19  and  N_10 
ROOT
ATOM      1  N   UNL d   1      -2.849   2.424   0.004  0.00  0.00    -0.333 N 
ATOM      2  H   UNL d   1      -3.836   2.195  -0.084  0.00  0.00     0.168 HD
ENDROOT
BRANCH   1   3
ATOM      3  C   UNL d   1      -2.591   3.768  -0.040  0.00  0.00     0.172 C 
ATOM      4  S   UNL d   1      -1.306   4.532  -0.783  0.00  0.00    -0.041 SA
BRANCH   3   5
ATOM      5  N   UNL d   1      -3.546   4.555   0.553  0.00  0.00    -0.361 N 
ATOM      6  H   UNL d   1      -3.330   5.543   0.489  0.00  0.00     0.162 HD
BRANCH   5   7
ATOM      7  C   UNL d   1      -4.317   4.151   1.716  0.00  0.00     0.187 C 
BRANCH   7   8
ATOM      8  C   UNL d   1      -5.577   3.487   1.302  0.00  0.00     0.070 A 
ATOM      9  O   UNL d   1      -5.513   2.143   1.061  0.00  0.00    -0.325 OA
ATOM     10  C   UNL d   1      -6.766   1.737   0.730  0.00  0.00     0.142 A 
ATOM     11  C   UNL d   1      -7.634   2.800   0.749  0.00  0.00     0.027 A 
ATOM     12  C   UNL d   1      -6.869   3.933   1.117  0.00  0.00     0.036 A 
ENDBRANCH   7   8
ENDBRANCH   5   7
ENDBRANCH   3   5
ENDBRANCH   1   3
BRANCH   1  13
ATOM     13  C   UNL d   1      -1.958   1.339  -0.037  0.00  0.00     0.035 A 
ATOM     14  C   UNL d   1      -0.671   1.415   0.496  0.00  0.00     0.047 A 
ATOM     15  C   UNL d   1       0.090   0.260   0.499  0.00  0.00     0.050 A 
ATOM     16  C   UNL d   1       1.419   0.057   1.057  0.00  0.00     0.294 A 
ATOM     17  C   UNL d   1      -0.364  -0.937  -0.016  0.00  0.00    -0.018 A 
ATOM     18  O   UNL d   1       1.742  -1.251   0.828  0.00  0.00    -0.313 OA
ATOM     19  O   UNL d   1       2.098   0.881   1.636  0.00  0.00    -0.259 OA
ATOM     20  C   UNL d   1       0.688  -1.960   0.142  0.00  0.00     0.218 A 
ATOM     21  C   UNL d   1      -1.635  -1.033  -0.547  0.00  0.00     0.012 A 
ATOM     22  C   UNL d   1      -2.442   0.112  -0.535  0.00  0.00     0.030 A 
ENDBRANCH   1  13
TORSDOF 5
