REMARK  9 active torsions:
REMARK  status: ('A' for Active; 'I' for Inactive)
REMARK    1  A    between atoms: N_2  and  S_1 
REMARK    2  A    between atoms: C_4  and  S_1 
REMARK    3  A    between atoms: C_3  and  N_9 
REMARK    4  A    between atoms: N_11  and  C_3 
REMARK    5  A    between atoms: N_7  and  N_11 
REMARK    6  A    between atoms: N_9  and  C_15 
REMARK    7  A    between atoms: C_16  and  C_14 
REMARK    8  A    between atoms: O_26  and  C_17 
REMARK    9  A    between atoms: C_27  and  O_26 
ROOT
ATOM      1  N   UNL d   1      -0.491  -5.682   1.333  0.00  0.00    -0.332 N 
ATOM      2  H   UNL d   1      -0.730  -5.891   2.297  0.00  0.00     0.168 HD
ENDROOT
BRANCH   1   3
ATOM      3  C   UNL d   1      -0.515  -6.804   0.527  0.00  0.00     0.191 C 
ATOM      4  S   UNL d   1      -0.831  -6.877  -1.112  0.00  0.00    -0.039 SA
BRANCH   3   5
ATOM      5  N   UNL d   1      -0.279  -7.982   1.222  0.00  0.00    -0.276 N 
ATOM      6  H   UNL d   1      -0.253  -8.837   0.670  0.00  0.00     0.189 HD
BRANCH   5   7
ATOM      7  N   UNL d   1       0.457  -7.909   2.366  0.00  0.00    -0.309 N 
ATOM      8  C   UNL d   1       0.919  -9.021   2.842  0.00  0.00     0.118 C 
ATOM      9  HN  UNL d   1       0.636  -7.017   2.827  1.00  0.00     0.186 HD
BRANCH   8  10
ATOM     10  C   UNL d   1       1.907  -8.985   3.943  0.00  0.00    -0.019 A 
ATOM     11  C   UNL d   1       2.480  -7.761   4.305  0.00  0.00     0.015 A 
ATOM     12  C   UNL d   1       3.463  -7.704   5.295  0.00  0.00     0.037 A 
ATOM     13  C   UNL d   1       3.880  -8.872   5.932  0.00  0.00     0.068 A 
ATOM     14  C   UNL d   1       3.303 -10.095   5.566  0.00  0.00     0.037 A 
ATOM     15  C   UNL d   1       2.321 -10.160   4.569  0.00  0.00     0.015 A 
BRANCH  13  16
ATOM     16  O   UNL d   1       4.835  -8.947   6.909  0.00  0.00    -0.352 OA
BRANCH  16  17
ATOM     17  C   UNL d   1       5.456  -7.718   7.296  0.00  0.00     0.171 C 
ATOM     18  C   UNL d   1       6.476  -8.018   8.380  0.00  0.00     0.034 C 
ENDBRANCH  16  17
ENDBRANCH  13  16
ENDBRANCH   8  10
ENDBRANCH   5   7
ENDBRANCH   3   5
ENDBRANCH   1   3
BRANCH   1  19
ATOM     19  C   UNL d   1      -0.202  -4.347   1.005  0.00  0.00     0.034 A 
ATOM     20  C   UNL d   1      -0.770  -3.319   1.768  0.00  0.00     0.031 A 
ATOM     21  C   UNL d   1      -0.485  -1.974   1.482  0.00  0.00     0.027 A 
ATOM     22  C   UNL d   1       0.414  -1.666   0.456  0.00  0.00     0.079 A 
ATOM     23  C   UNL d   1       1.059  -2.695  -0.239  0.00  0.00     0.027 A 
ATOM     24  C   UNL d   1       0.729  -4.027   0.015  0.00  0.00     0.031 A 
BRANCH  22  25
ATOM     25  S   UNL d   1       0.843   0.022   0.075  0.00  0.00     0.260 S 
ATOM     26  O   UNL d   1       0.421   0.849   1.190  0.00  0.00    -0.200 OA
ATOM     27  O   UNL d   1       2.227   0.015  -0.361  0.00  0.00    -0.200 OA
BRANCH  25  28
ATOM     28  N   UNL d   1      -0.135   0.403  -1.287  0.00  0.00    -0.307 N 
ATOM     29  C   UNL d   1      -1.551   0.726  -0.987  0.00  0.00     0.135 C 
ATOM     30  C   UNL d   1      -2.257   1.269  -2.229  0.00  0.00     0.021 C 
ATOM     31  C   UNL d   1      -2.123   0.315  -3.408  0.00  0.00     0.003 C 
ATOM     32  C   UNL d   1      -0.650   0.059  -3.695  0.00  0.00     0.021 C 
ATOM     33  C   UNL d   1       0.053  -0.487  -2.462  0.00  0.00     0.135 C 
ENDBRANCH  25  28
ENDBRANCH  22  25
ENDBRANCH   1  19
TORSDOF 9
