REMARK  6 active torsions:
REMARK  status: ('A' for Active; 'I' for Inactive)
REMARK    1  A    between atoms: S_9  and  C_1 
REMARK    2  A    between atoms: C_7  and  C_4 
REMARK    3  A    between atoms: O_17  and  C_7 
REMARK    4  A    between atoms: C_15  and  S_9 
REMARK       I    between atoms: C_10  and  N_12 
REMARK    5  A    between atoms: N_12  and  C_16 
REMARK    6  A    between atoms: C_24  and  O_17 
ROOT
ATOM      1  C   UNL d   1       0.931   1.208   0.010  0.00  0.00     0.150 A 
ATOM      2  N   UNL d   1      -0.402   1.199   0.015  0.00  0.00    -0.332 N 
ATOM      3  HN  UNL d   1      -0.947   2.061   0.012  1.00  0.00     0.168 HD
ATOM      4  C   UNL d   1      -0.989  -0.017   0.025  0.00  0.00     0.112 A 
ATOM      5  N   UNL d   1       1.702   0.106   0.011  0.00  0.00    -0.340 N 
ATOM      6  HN  UNL d   1       2.720   0.173   0.006  1.00  0.00     0.167 HD
ATOM      7  C   UNL d   1      -0.292  -1.206   0.029  0.00  0.00     0.060 A 
ATOM      8  C   UNL d   1       1.080  -1.094   0.018  0.00  0.00     0.009 A 
ATOM      9  C   UNL d   1       1.951  -2.314   0.012  0.00  0.00     0.068 C 
ENDROOT
BRANCH   1  10
ATOM     10  S   UNL d   1       1.711   2.788   0.171  0.00  0.00    -0.054 SA
BRANCH  10  11
ATOM     11  C   UNL d   1       1.949   3.298  -1.519  0.00  0.00     0.008 A 
ATOM     12  C   UNL d   1       0.908   3.443  -2.440  0.00  0.00     0.021 A 
ATOM     13  C   UNL d   1       1.166   3.935  -3.734  0.00  0.00     0.031 A 
ATOM     14  C   UNL d   1       2.464   4.292  -4.122  0.00  0.00     0.034 A 
ATOM     15  C   UNL d   1       3.492   4.155  -3.192  0.00  0.00     0.031 A 
ATOM     16  C   UNL d   1       3.239   3.667  -1.907  0.00  0.00     0.021 A 
BRANCH  14  17
ATOM     17  N   UNL d   1       2.665   4.776  -5.437  0.00  0.00    -0.328 N 
ATOM     18  C   UNL d   1       3.874   5.159  -6.002  0.00  0.00     0.218 C 
ATOM     19  O   UNL d   1       4.971   5.162  -5.456  0.00  0.00    -0.274 OA
ATOM     20  C   UNL d   1       3.762   5.604  -7.439  0.00  0.00     0.117 C 
ATOM     21  H   UNL d   1       1.842   4.835  -6.020  0.00  0.00     0.169 HD
ENDBRANCH  14  17
ENDBRANCH  10  11
ENDBRANCH   1  10
BRANCH   4  22
ATOM     22  C   UNL d   1      -2.474  -0.054  -0.061  0.00  0.00     0.310 C 
ATOM     23  O   UNL d   1      -3.126  -1.086  -0.155  0.00  0.00    -0.258 OA
BRANCH  22  24
ATOM     24  O   UNL d   1      -2.951   1.212  -0.140  0.00  0.00    -0.317 OA
BRANCH  24  25
ATOM     25  C   UNL d   1      -4.258   1.356  -0.705  0.00  0.00     0.175 C 
ATOM     26  C   UNL d   1      -4.103   1.456  -2.212  0.00  0.00     0.034 C 
ENDBRANCH  24  25
ENDBRANCH  22  24
ENDBRANCH   4  22
TORSDOF 6
