REMARK  6 active torsions:
REMARK  status: ('A' for Active; 'I' for Inactive)
REMARK    1  A    between atoms: S_12  and  C_1 
REMARK    2  A    between atoms: C_2  and  S_11 
REMARK    3  A    between atoms: S_11  and  C_15 
REMARK    4  A    between atoms: C_16  and  S_12 
REMARK    5  A    between atoms: C_13  and  C_16 
REMARK    6  A    between atoms: C_15  and  C_14 
ROOT
ATOM      1  N   UNL d   1       2.414  -5.395   1.628  0.00  0.00    -0.362 N 
ATOM      2  HN  UNL d   1       2.804  -4.808   2.366  1.00  0.00     0.165 HD
ATOM      3  C   UNL d   1       1.816  -4.838   0.542  0.00  0.00     0.019 A 
ATOM      4  C   UNL d   1       2.481  -6.748   1.712  0.00  0.00     0.019 A 
ATOM      5  C   UNL d   1       1.331  -6.999  -0.375  0.00  0.00     0.004 A 
ATOM      6  C   UNL d   1       1.948  -7.577   0.728  0.00  0.00     0.026 A 
ATOM      7  C   UNL d   1       1.266  -5.614  -0.475  0.00  0.00     0.026 A 
ENDROOT
BRANCH   3   8
ATOM      8  C   UNL d   1       1.730  -3.328   0.483  0.00  0.00     0.138 C 
BRANCH   8   9
ATOM      9  S   UNL d   1       3.358  -2.547   0.298  0.00  0.00    -0.099 SA
BRANCH   9  10
ATOM     10  C   UNL d   1       2.892  -0.882   0.275  0.00  0.00     0.103 C 
ATOM     11  N   UNL d   1       1.668  -0.471   0.288  0.00  0.00    -0.378 N 
ATOM     12  C   UNL d   1       1.653   1.003   0.172  0.00  0.00     0.131 C 
ATOM     13  HN  UNL d   1       0.844  -1.067   0.366  1.00  0.00     0.160 HD
ATOM     14  C   UNL d   1       2.965   1.586   0.672  0.00  0.00     0.101 C 
ATOM     15  S   UNL d   1       4.158   0.313   0.232  0.00  0.00    -0.104 SA
ENDBRANCH   9  10
ENDBRANCH   8   9
ENDBRANCH   3   8
BRANCH   4  16
ATOM     16  C   UNL d   1       3.229  -7.352   2.881  0.00  0.00     0.138 C 
BRANCH  16  17
ATOM     17  S   UNL d   1       2.658  -6.808   4.511  0.00  0.00    -0.099 SA
BRANCH  17  18
ATOM     18  C   UNL d   1       1.032  -7.391   4.483  0.00  0.00     0.103 C 
ATOM     19  N   UNL d   1       0.657  -8.464   3.869  0.00  0.00    -0.378 N 
ATOM     20  C   UNL d   1      -0.801  -8.628   4.057  0.00  0.00     0.131 C 
ATOM     21  HN  UNL d   1       1.263  -9.092   3.343  1.00  0.00     0.160 HD
ATOM     22  C   UNL d   1      -1.237  -7.956   5.350  0.00  0.00     0.101 C 
ATOM     23  S   UNL d   1      -0.147  -6.529   5.430  0.00  0.00    -0.104 SA
ENDBRANCH  17  18
ENDBRANCH  16  17
ENDBRANCH   4  16
TORSDOF 6
