REMARK  4 active torsions:
REMARK  status: ('A' for Active; 'I' for Inactive)
REMARK    1  A    between atoms: C_3  and  S_1 
REMARK    2  A    between atoms: N_9  and  S_1 
REMARK       I    between atoms: C_2  and  N_4 
REMARK       I    between atoms: N_8  and  C_2 
REMARK    3  A    between atoms: N_4  and  C_10 
REMARK    4  A    between atoms: C_12  and  N_8 
ROOT
ATOM      1  C   UNL d   1       0.655  -0.700   1.953  0.00  0.00     0.076 A 
ATOM      2  C   UNL d   1       0.731  -2.013   1.450  0.00  0.00     0.054 A 
ATOM      3  C   UNL d   1       0.427  -3.071   2.303  0.00  0.00     0.037 A 
ATOM      4  C   UNL d   1       0.251  -0.436   3.269  0.00  0.00     0.025 A 
ATOM      5  C   UNL d   1      -0.084  -1.491   4.102  0.00  0.00     0.004 A 
ATOM      6  C   UNL d   1       0.012  -2.795   3.620  0.00  0.00     0.029 A 
ENDROOT
BRANCH   3   7
ATOM      7  N   UNL d   1       0.607  -4.429   2.026  0.00  0.00    -0.309 N 
ATOM      8  C   UNL d   1       0.901  -5.202   0.955  0.00  0.00     0.325 C 
ATOM      9  N   UNL d   1       0.603  -4.751  -0.300  0.00  0.00    -0.309 N 
ATOM     10  O   UNL d   1       1.310  -6.331   1.230  0.00  0.00    -0.247 OA
ATOM     11  H   UNL d   1      -0.083  -4.011  -0.335  0.00  0.00     0.170 HD
ATOM     12  H   UNL d   1       0.642  -5.030   2.844  0.00  0.00     0.170 HD
BRANCH   9  13
ATOM     13  C   UNL d   1       0.660  -5.617  -1.430  0.00  0.00     0.036 A 
ATOM     14  C   UNL d   1      -0.295  -5.472  -2.442  0.00  0.00     0.029 A 
ATOM     15  C   UNL d   1      -0.381  -6.422  -3.469  0.00  0.00     0.002 A 
ATOM     16  C   UNL d   1       0.506  -7.497  -3.515  0.00  0.00     0.000 A 
ATOM     17  C   UNL d   1       1.506  -7.604  -2.555  0.00  0.00     0.002 A 
ATOM     18  C   UNL d   1       1.588  -6.662  -1.528  0.00  0.00     0.029 A 
ENDBRANCH   9  13
ENDBRANCH   3   7
BRANCH   1  19
ATOM     19  S   UNL d   1       1.117   0.672   0.936  0.00  0.00     0.239 S 
ATOM     20  O   UNL d   1       0.894   0.320  -0.449  0.00  0.00    -0.206 OA
ATOM     21  O   UNL d   1       2.363   1.206   1.424  0.00  0.00    -0.206 OA
BRANCH  19  22
ATOM     22  N   UNL d   1      -0.059   1.823   1.292  0.00  0.00    -0.225 NA
ATOM     23  H   UNL d   1      -0.601   2.034   0.451  0.00  0.00     0.136 HD
ATOM     24  H   UNL d   1       0.378   2.644   1.711  0.00  0.00     0.136 HD
ENDBRANCH  19  22
ENDBRANCH   1  19
TORSDOF 4
