REMARK  6 active torsions:
REMARK  status: ('A' for Active; 'I' for Inactive)
REMARK    1  A    between atoms: N_2  and  C_1 
REMARK    2  A    between atoms: N_3  and  C_5 
REMARK    3  A    between atoms: N_9  and  C_6 
REMARK    4  A    between atoms: N_7  and  N_9 
REMARK    5  A    between atoms: C_22  and  C_19 
REMARK    6  A    between atoms: C_20  and  C_22 
ROOT
ATOM      1  N   UNL d   1      -0.434  -0.102  -3.458  0.00  0.00    -0.197 NA
ATOM      2  C   UNL d   1       0.682  -0.251  -3.756  0.00  0.00     0.059 C 
ATOM      3  C   UNL d   1       2.084  -0.462  -4.128  0.00  0.00     0.124 C 
ENDROOT
BRANCH   3   4
ATOM      4  C   UNL d   1       3.054   0.368  -3.275  0.00  0.00     0.024 C 
BRANCH   4   5
ATOM      5  C   UNL d   1       3.012   0.087  -1.758  0.00  0.00     0.033 C 
ATOM      6  C   UNL d   1       4.014   1.007  -1.032  0.00  0.00     0.003 C 
ATOM      7  N   UNL d   1       3.549   2.115  -0.526  0.00  0.00    -0.324 N 
ATOM      8  C   UNL d   1       5.476   0.583  -1.052  0.00  0.00     0.054 C 
ATOM      9  HN  UNL d   1       2.559   2.346  -0.612  1.00  0.00     0.180 HD
ATOM     10  C   UNL d   1       5.620  -0.887  -0.675  0.00  0.00     0.006 C 
ATOM     11  C   UNL d   1       4.741  -1.777  -1.546  0.00  0.00     0.001 C 
ATOM     12  C   UNL d   1       3.277  -1.379  -1.385  0.00  0.00     0.010 C 
BRANCH   7  13
ATOM     13  N   UNL d   1       4.405   2.966   0.120  0.00  0.00    -0.204 NA
ATOM     14  H   UNL d   1       5.148   2.526   0.678  0.00  0.00     0.153 HD
BRANCH  13  15
ATOM     15  C   UNL d   1       3.799   4.023   0.860  0.00  0.00     0.060 C 
ATOM     16  C   UNL d   1       4.460   4.701   1.904  0.00  0.00     0.128 C 
ATOM     17  C   UNL d   1       3.816   5.640   2.726  0.00  0.00     0.074 C 
ATOM     18  C   UNL d   1       2.502   5.999   2.423  0.00  0.00     0.105 C 
ATOM     19  C   UNL d   1       1.875   5.482   1.284  0.00  0.00     0.038 C 
ATOM     20  C   UNL d   1       2.524   4.504   0.515  0.00  0.00     0.030 C 
BRANCH  16  21
ATOM     21  N   UNL d   1       5.877   4.486   2.128  0.00  0.00    -0.114 N 
ATOM     22  O   UNL d   1       6.593   5.494   2.214  0.00  0.00    -0.532 OA
ATOM     23  O   UNL d   1       6.271   3.312   2.201  0.00  0.00    -0.532 OA
ENDBRANCH  16  21
BRANCH  18  24
ATOM     24  N   UNL d   1       1.778   6.923   3.305  0.00  0.00    -0.116 N 
ATOM     25  O   UNL d   1       2.314   7.222   4.381  0.00  0.00    -0.532 OA
ATOM     26  O   UNL d   1       0.672   7.332   2.928  0.00  0.00    -0.532 OA
ENDBRANCH  18  24
ENDBRANCH  13  15
ENDBRANCH   7  13
ENDBRANCH   4   5
ENDBRANCH   3   4
TORSDOF 6
