REMARK  6 active torsions:
REMARK  status: ('A' for Active; 'I' for Inactive)
REMARK    1  A    between atoms: C_2  and  C_1 
REMARK    2  A    between atoms: O_5  and  C_2 
REMARK    3  A    between atoms: N_3  and  O_5 
REMARK    4  A    between atoms: C_10  and  C_13 
REMARK    5  A    between atoms: C_13  and  C_17 
REMARK    6  A    between atoms: O_24  and  C_14 
ROOT
ATOM      1  N   UNL d   1       2.223   2.284  -0.196  0.00  0.00    -0.266 N 
ATOM      2  HN  UNL d   1       2.811   2.685   0.534  1.00  0.00     0.194 HD
ATOM      3  C   UNL d   1       2.601   1.337  -1.000  0.00  0.00     0.010 C 
ATOM      4  C   UNL d   1       1.771   0.743  -2.118  0.00  0.00     0.055 C 
ATOM      5  C   UNL d   1       3.989   0.752  -0.840  0.00  0.00     0.055 C 
ATOM      6  C   UNL d   1       3.029  -1.451  -1.754  0.00  0.00    -0.010 C 
ATOM      7  C   UNL d   1       3.877  -0.759  -0.662  0.00  0.00     0.010 C 
ATOM      8  C   UNL d   1       1.659  -0.759  -1.886  0.00  0.00     0.010 C 
ENDROOT
BRANCH   1   9
ATOM      9  O   UNL d   1       0.902   2.687  -0.457  0.00  0.00    -0.195 OA
BRANCH   9  10
ATOM     10  C   UNL d   1       0.578   3.787   0.284  0.00  0.00     0.318 C 
ATOM     11  O   UNL d   1       1.292   4.475   0.992  0.00  0.00    -0.257 OA
BRANCH  10  12
ATOM     12  C   UNL d   1      -0.845   4.071   0.037  0.00  0.00     0.084 A 
ATOM     13  C   UNL d   1      -1.231   5.292  -0.533  0.00  0.00     0.052 A 
ATOM     14 CL   UNL d   1      -0.094   6.517  -0.987  0.00  0.00    -0.083 Cl
ATOM     15  C   UNL d   1      -2.582   5.554  -0.782  0.00  0.00     0.025 A 
ATOM     16  C   UNL d   1      -3.555   4.610  -0.474  0.00  0.00     0.003 A 
ATOM     17  C   UNL d   1      -3.182   3.402   0.111  0.00  0.00     0.025 A 
ATOM     18  C   UNL d   1      -1.834   3.133   0.379  0.00  0.00     0.052 A 
ATOM     19 CL   UNL d   1      -1.476   1.635   1.165  0.00  0.00    -0.083 Cl
ENDBRANCH  10  12
ENDBRANCH   9  10
ENDBRANCH   1   9
BRANCH   6  20
ATOM     20  C   UNL d   1       3.747  -1.548  -3.123  0.00  0.00     0.043 C 
BRANCH  20  21
ATOM     21  C   UNL d   1       5.017  -2.365  -3.061  0.00  0.00    -0.058 A 
ATOM     22  C   UNL d   1       4.979  -3.711  -2.674  0.00  0.00     0.010 A 
ATOM     23  C   UNL d   1       6.159  -4.437  -2.507  0.00  0.00     0.037 A 
ATOM     24  C   UNL d   1       7.392  -3.828  -2.735  0.00  0.00     0.068 A 
ATOM     25  C   UNL d   1       7.434  -2.512  -3.195  0.00  0.00     0.037 A 
ATOM     26  C   UNL d   1       6.255  -1.780  -3.351  0.00  0.00     0.010 A 
BRANCH  24  27
ATOM     27  O   UNL d   1       8.601  -4.450  -2.582  0.00  0.00    -0.356 OA
ATOM     28  C   UNL d   1       8.668  -5.344  -1.474  0.00  0.00     0.210 C 
ENDBRANCH  24  27
ENDBRANCH  20  21
ENDBRANCH   6  20
TORSDOF 6
