REMARK  1 active torsions:
REMARK  status: ('A' for Active; 'I' for Inactive)
REMARK    1  A    between atoms: C_8  and  C_2 
ROOT
ATOM      1  N   UNL d   1      -0.517   1.148  -0.639  0.00  0.00    -0.297 N 
ATOM      2  C   UNL d   1      -0.666  -1.210  -0.019  0.00  0.00     0.126 A 
ATOM      3  N   UNL d   1       0.504  -1.138   0.555  0.00  0.00    -0.293 N 
ATOM      4  HN  UNL d   1       0.919  -1.957   1.001  1.00  0.00     0.187 HD
ATOM      5  C   UNL d   1      -1.298   0.026  -0.660  0.00  0.00     0.276 A 
ATOM      6  C   UNL d   1       0.694   1.204  -0.034  0.00  0.00     0.193 A 
ATOM      7  N   UNL d   1       1.157   0.057   0.543  0.00  0.00    -0.275 N 
ATOM      8  S   UNL d   1       1.574   2.615   0.005  0.00  0.00    -0.039 SA
ATOM      9  O   UNL d   1      -2.427   0.023  -1.125  0.00  0.00    -0.266 OA
ATOM     10  H   UNL d   1      -0.903   1.989  -1.041  0.00  0.00     0.171 HD
ATOM     11  H   UNL d   1       2.067   0.075   0.996  0.00  0.00     0.189 HD
ENDROOT
BRANCH   2  12
ATOM     12  C   UNL d   1      -1.395  -2.511  -0.017  0.00  0.00    -0.002 A 
ATOM     13  C   UNL d   1      -2.278  -2.874  -1.042  0.00  0.00     0.015 A 
ATOM     14  C   UNL d   1      -2.946  -4.102  -0.996  0.00  0.00     0.024 A 
ATOM     15  C   UNL d   1      -2.725  -4.976   0.067  0.00  0.00     0.034 A 
ATOM     16  C   UNL d   1      -1.833  -4.637   1.081  0.00  0.00     0.024 A 
ATOM     17 CL   UNL d   1      -3.555  -6.481   0.123  0.00  0.00    -0.084 Cl
ATOM     18  C   UNL d   1      -1.166  -3.409   1.038  0.00  0.00     0.015 A 
ENDBRANCH   2  12
TORSDOF 1
