REMARK  7 active torsions:
REMARK  status: ('A' for Active; 'I' for Inactive)
REMARK    1  A    between atoms: C_2  and  C_1 
REMARK    2  A    between atoms: N_12  and  N_5 
REMARK    3  A    between atoms: C_14  and  C_7 
REMARK    4  A    between atoms: C_11  and  C_13 
REMARK    5  A    between atoms: C_23  and  N_12 
REMARK    6  A    between atoms: O_20  and  C_14 
REMARK    7  A    between atoms: C_22  and  O_20 
ROOT
ATOM      1  C   UNL d   1      -3.711 -11.324   4.035  0.00  0.00    -0.012 A 
ATOM      2  C   UNL d   1      -4.351 -12.492   4.470  0.00  0.00     0.016 A 
ATOM      3  C   UNL d   1      -2.323 -11.222   4.215  0.00  0.00     0.016 A 
ATOM      4  C   UNL d   1      -2.250 -13.409   5.268  0.00  0.00     0.069 A 
ATOM      5  C   UNL d   1      -3.627 -13.517   5.086  0.00  0.00     0.037 A 
ATOM      6  C   UNL d   1      -1.595 -12.260   4.827  0.00  0.00     0.037 A 
ENDROOT
BRANCH   4   7
ATOM      7  O   UNL d   1      -1.688 -14.446   5.957  0.00  0.00    -0.345 OA
BRANCH   7   8
ATOM      8  C   UNL d   1      -0.327 -14.759   5.658  0.00  0.00     0.234 C 
BRANCH   8   9
ATOM      9  C   UNL d   1       0.086 -15.994   6.438  0.00  0.00     0.055 A 
ATOM     10  N   UNL d   1       1.100 -15.823   7.337  0.00  0.00    -0.365 N 
ATOM     11  C   UNL d   1       1.495 -16.892   8.068  0.00  0.00     0.104 A 
ATOM     12  HN  UNL d   1       1.549 -14.915   7.454  1.00  0.00     0.165 HD
ATOM     13  C   UNL d   1       0.936 -18.155   7.957  0.00  0.00     0.064 A 
ATOM     14  C   UNL d   1      -0.093 -18.322   7.027  0.00  0.00     0.043 A 
ATOM     15  C   UNL d   1      -0.524 -17.238   6.255  0.00  0.00     0.059 A 
ATOM     16 CL   UNL d   1      -1.778 -17.511   5.102  0.00  0.00    -0.082 Cl
BRANCH  13  17
ATOM     17  C   UNL d   1       1.449 -19.271   8.812  0.00  0.00     0.418 C 
ATOM     18  F   UNL d   1       0.799 -20.451   8.614  0.00  0.00    -0.166 F 
ATOM     19  F   UNL d   1       1.338 -19.003  10.142  0.00  0.00    -0.166 F 
ATOM     20  F   UNL d   1       2.767 -19.530   8.592  0.00  0.00    -0.166 F 
ENDBRANCH  13  17
ENDBRANCH   8   9
ENDBRANCH   7   8
ENDBRANCH   4   7
BRANCH   1  21
ATOM     21  C   UNL d   1      -4.498 -10.177   3.442  0.00  0.00     0.032 C 
ATOM     22  N   UNL d   1      -3.872  -9.077   3.118  0.00  0.00    -0.304 N 
ATOM     23  HN  UNL d   1      -2.858  -9.011   3.202  1.00  0.00     0.186 HD
ATOM     24  C   UNL d   1      -6.000 -10.388   3.306  0.00  0.00     0.070 C 
BRANCH  22  25
ATOM     25  N   UNL d   1      -4.602  -8.023   2.667  0.00  0.00    -0.301 N 
ATOM     26  H   UNL d   1      -5.485  -8.171   2.188  0.00  0.00     0.187 HD
BRANCH  25  27
ATOM     27  C   UNL d   1      -3.959  -6.855   2.201  0.00  0.00     0.048 A 
ATOM     28  C   UNL d   1      -2.572  -6.683   2.228  0.00  0.00     0.031 A 
ATOM     29  C   UNL d   1      -1.992  -5.482   1.803  0.00  0.00     0.002 A 
ATOM     30  C   UNL d   1      -2.794  -4.424   1.380  0.00  0.00     0.000 A 
ATOM     31  C   UNL d   1      -4.179  -4.564   1.384  0.00  0.00     0.002 A 
ATOM     32  C   UNL d   1      -4.754  -5.769   1.796  0.00  0.00     0.031 A 
ENDBRANCH  25  27
ENDBRANCH  22  25
ENDBRANCH   1  21
TORSDOF 7
