REMARK  3 active torsions:
REMARK  status: ('A' for Active; 'I' for Inactive)
REMARK    1  A    between atoms: C_2  and  C_1 
REMARK       I    between atoms: N_4  and  C_1 
REMARK    2  A    between atoms: C_15  and  N_4 
REMARK    3  A    between atoms: C_14  and  C_15 
ROOT
ATOM      1  C   UNL d   1      -1.196   1.179  -0.182  0.00  0.00     0.161 C 
ENDROOT
BRANCH   1   2
ATOM      2  C   UNL d   1      -1.679   2.595  -0.354  0.00  0.00    -0.040 A 
ATOM      3  C   UNL d   1      -2.886   2.854  -1.028  0.00  0.00     0.018 A 
ATOM      4  C   UNL d   1      -3.292   4.168  -1.181  0.00  0.00    -0.022 A 
ATOM      5  C   UNL d   1      -4.534   4.715  -1.771  0.00  0.00     0.068 C 
ATOM      6  C   UNL d   1      -2.532   5.212  -0.678  0.00  0.00     0.075 A 
ATOM      7  C   UNL d   1      -4.124   6.185  -1.868  0.00  0.00     0.180 C 
ATOM      8  O   UNL d   1      -3.080   6.449  -0.901  0.00  0.00    -0.350 OA
ATOM      9  C   UNL d   1      -1.349   4.995  -0.005  0.00  0.00     0.038 A 
ATOM     10  C   UNL d   1      -0.917   3.674   0.149  0.00  0.00     0.011 A 
ENDBRANCH   1   2
BRANCH   1  11
ATOM     11  N   UNL d   1      -0.392   0.753  -1.300  0.00  0.00    -0.352 N 
ATOM     12  C   UNL d   1       0.099  -0.534  -1.371  0.00  0.00     0.258 C 
ATOM     13  O   UNL d   1      -0.114  -1.343  -0.469  0.00  0.00    -0.267 OA
ATOM     14  H   UNL d   1      -0.159   1.410  -2.032  0.00  0.00     0.163 HD
BRANCH  12  15
ATOM     15  C   UNL d   1       0.871  -0.871  -2.561  0.00  0.00     0.072 A 
ATOM     16  S   UNL d   1       1.041   0.200  -3.889  0.00  0.00    -0.097 SA
ATOM     17  C   UNL d   1       1.972  -0.931  -4.773  0.00  0.00     0.050 A 
ATOM     18  C   UNL d   1       2.172  -2.099  -4.070  0.00  0.00     0.009 A 
ATOM     19  C   UNL d   1       1.536  -2.062  -2.797  0.00  0.00     0.025 A 
ENDBRANCH  12  15
ENDBRANCH   1  11
TORSDOF 3
