REMARK  3 active torsions:
REMARK  status: ('A' for Active; 'I' for Inactive)
REMARK    1  A    between atoms: N_7  and  C_1 
REMARK    2  A    between atoms: C_8  and  N_7 
REMARK    3  A    between atoms: O_12  and  C_11 
ROOT
ATOM      1  C   UNL d   1      -0.309  -1.980   0.025  0.00  0.00     0.028 A 
ATOM      2  C   UNL d   1      -1.590  -1.605   0.174  0.00  0.00     0.083 A 
ATOM      3  C   UNL d   1      -0.931   0.867   0.138  0.00  0.00     0.232 A 
ATOM      4  C   UNL d   1      -2.006  -0.195   0.239  0.00  0.00     0.224 A 
ATOM      5  C   UNL d   1       0.471   0.420   0.054  0.00  0.00     0.030 A 
ATOM      6  C   UNL d   1       0.771  -0.952   0.002  0.00  0.00    -0.000 A 
ATOM      7  O   UNL d   1      -1.230   2.053   0.129  0.00  0.00    -0.283 OA
ATOM      8  O   UNL d   1      -3.186   0.098   0.360  0.00  0.00    -0.284 OA
ATOM      9  C   UNL d   1       1.482   1.395   0.041  0.00  0.00     0.016 A 
ATOM     10  C   UNL d   1       2.131  -1.310  -0.055  0.00  0.00     0.014 A 
ATOM     11  C   UNL d   1       2.818   1.012  -0.019  0.00  0.00     0.001 A 
ATOM     12  C   UNL d   1       3.142  -0.340  -0.065  0.00  0.00     0.001 A 
ENDROOT
BRANCH   1  13
ATOM     13  N   UNL d   1       0.048  -3.328  -0.060  0.00  0.00    -0.257 NA
ATOM     14  H   UNL d   1      -0.677  -3.911   0.372  0.00  0.00     0.134 HD
BRANCH  13  15
ATOM     15  C   UNL d   1       0.302  -3.971  -1.318  0.00  0.00     0.046 A 
ATOM     16  C   UNL d   1       0.648  -5.334  -1.314  0.00  0.00     0.087 A 
ATOM     17  C   UNL d   1       0.860  -6.040  -2.494  0.00  0.00     0.038 A 
ATOM     18  C   UNL d   1       0.747  -5.378  -3.714  0.00  0.00     0.003 A 
ATOM     19  C   UNL d   1       0.425  -4.021  -3.744  0.00  0.00     0.002 A 
ATOM     20  C   UNL d   1       0.209  -3.319  -2.553  0.00  0.00     0.026 A 
BRANCH  16  21
ATOM     21  O   UNL d   1       0.797  -6.008  -0.132  0.00  0.00    -0.359 OA
ATOM     22  H   UNL d   1       0.942  -5.327   0.550  0.00  0.00     0.217 HD
ENDBRANCH  16  21
ENDBRANCH  13  15
ENDBRANCH   1  13
TORSDOF 3
