REMARK  6 active torsions:
REMARK  status: ('A' for Active; 'I' for Inactive)
REMARK    1  A    between atoms: N_2  and  C_1 
REMARK    2  A    between atoms: C_5  and  C_4 
REMARK    3  A    between atoms: N_18  and  C_5 
REMARK    4  A    between atoms: O_14  and  N_6 
REMARK    5  A    between atoms: C_9  and  C_10 
REMARK    6  A    between atoms: C_10  and  O_14 
ROOT
ATOM      1  C   UNL d   1      -0.243  -2.825   0.085  0.00  0.00     0.116 C 
ATOM      2  N   UNL d   1      -1.434  -3.364   0.028  0.00  0.00    -0.245 N 
ATOM      3  HN  UNL d   1      -1.623  -4.364  -0.041  1.00  0.00     0.196 HD
ENDROOT
BRANCH   1   4
ATOM      4  C   UNL d   1       0.901  -3.732  -0.005  0.00  0.00     0.047 A 
ATOM      5  S   UNL d   1       2.498  -3.091   0.029  0.00  0.00    -0.063 SA
ATOM      6  C   UNL d   1       3.197  -4.628  -0.129  0.00  0.00     0.144 A 
ATOM      7  C   UNL d   1       2.258  -5.633  -0.206  0.00  0.00     0.045 A 
ATOM      8  C   UNL d   1       0.927  -5.111  -0.134  0.00  0.00     0.025 A 
BRANCH   6   9
ATOM      9  N   UNL d   1       4.629  -4.777  -0.173  0.00  0.00    -0.108 N 
ATOM     10  O   UNL d   1       5.056  -5.934  -0.291  0.00  0.00    -0.531 OA
ATOM     11  O   UNL d   1       5.330  -3.760  -0.095  0.00  0.00    -0.531 OA
ENDBRANCH   6   9
ENDBRANCH   1   4
BRANCH   1  12
ATOM     12  N   UNL d   1      -0.079  -1.463   0.204  0.00  0.00    -0.286 NA
ATOM     13  H   UNL d   1       0.786  -1.083  -0.160  0.00  0.00     0.125 HD
ATOM     14  H   UNL d   1      -0.905  -0.928  -0.038  0.00  0.00     0.125 HD
ENDBRANCH   1  12
BRANCH   2  15
ATOM     15  O   UNL d   1      -2.419  -2.353   0.077  0.00  0.00    -0.198 OA
BRANCH  15  16
ATOM     16  C   UNL d   1      -3.719  -2.805   0.120  0.00  0.00     0.285 C 
ATOM     17  O   UNL d   1      -4.660  -2.017   0.118  0.00  0.00    -0.263 OA
BRANCH  16  18
ATOM     18  C   UNL d   1      -3.955  -4.277   0.221  0.00  0.00     0.087 A 
ATOM     19  C   UNL d   1      -5.363  -4.832   0.124  0.00  0.00     0.015 A 
ATOM     20  C   UNL d   1      -4.654  -4.827   1.446  0.00  0.00     0.015 A 
ENDBRANCH  16  18
ENDBRANCH  15  16
ENDBRANCH   2  15
TORSDOF 6
