REMARK  5 active torsions:
REMARK  status: ('A' for Active; 'I' for Inactive)
REMARK    1  A    between atoms: C_5  and  S_1 
REMARK    2  A    between atoms: N_12  and  S_1 
REMARK    3  A    between atoms: N_3  and  C_2 
REMARK    4  A    between atoms: S_7  and  C_6 
REMARK    5  A    between atoms: C_15  and  S_7 
ROOT
ATOM      1  C   UNL d   1       0.282   3.203  -2.185  0.00  0.00     0.121 A 
ATOM      2  C   UNL d   1       0.635   2.317  -1.154  0.00  0.00     0.062 A 
ATOM      3  C   UNL d   1       0.432   0.949  -1.347  0.00  0.00     0.076 A 
ATOM      4  C   UNL d   1      -0.244   2.753  -3.405  0.00  0.00     0.038 A 
ATOM      5  C   UNL d   1      -0.482   1.375  -3.543  0.00  0.00     0.023 A 
ATOM      6  C   UNL d   1      -0.144   0.475  -2.527  0.00  0.00     0.026 A 
ENDROOT
BRANCH   4   7
ATOM      7  S   UNL d   1      -0.640   3.789  -4.807  0.00  0.00    -0.088 SA
BRANCH   7   8
ATOM      8  C   UNL d   1       0.903   3.805  -5.711  0.00  0.00     0.005 A 
ATOM      9  C   UNL d   1       1.498   2.630  -6.185  0.00  0.00     0.019 A 
ATOM     10  C   UNL d   1       2.682   2.682  -6.926  0.00  0.00     0.001 A 
ATOM     11  C   UNL d   1       3.272   3.911  -7.212  0.00  0.00     0.000 A 
ATOM     12  C   UNL d   1       2.678   5.087  -6.759  0.00  0.00     0.001 A 
ATOM     13  C   UNL d   1       1.497   5.035  -6.012  0.00  0.00     0.019 A 
ENDBRANCH   7   8
ENDBRANCH   4   7
BRANCH   1  14
ATOM     14  N   UNL d   1       0.466   4.621  -1.927  0.00  0.00    -0.114 N 
ATOM     15  O   UNL d   1       1.607   4.986  -1.613  0.00  0.00    -0.532 OA
ATOM     16  O   UNL d   1      -0.536   5.346  -1.971  0.00  0.00    -0.532 OA
ENDBRANCH   1  14
BRANCH   3  17
ATOM     17  S   UNL d   1       0.909  -0.195  -0.084  0.00  0.00     0.239 S 
ATOM     18  O   UNL d   1       0.693  -1.541  -0.556  0.00  0.00    -0.206 OA
ATOM     19  O   UNL d   1       0.407   0.287   1.180  0.00  0.00    -0.206 OA
BRANCH  17  20
ATOM     20  N   UNL d   1       2.575   0.008  -0.049  0.00  0.00    -0.225 NA
ATOM     21  H   UNL d   1       3.038  -0.839  -0.380  0.00  0.00     0.136 HD
ATOM     22  H   UNL d   1       2.872   0.293   0.886  0.00  0.00     0.136 HD
ENDBRANCH  17  20
ENDBRANCH   3  17
TORSDOF 5
