REMARK  1 active torsions:
REMARK  status: ('A' for Active; 'I' for Inactive)
REMARK       I    between atoms: C_2  and  N_1 
REMARK    1  A    between atoms: C_3  and  C_2 
ROOT
ATOM      1  N   UNL d   1       2.404   0.710   0.135  0.00  0.00    -0.343 N 
ATOM      2  C   UNL d   1       3.554   1.390   0.584  0.00  0.00     0.261 C 
ATOM      3  C   UNL d   1       1.206   1.389  -0.359  0.00  0.00     0.165 C 
ATOM      4  C   UNL d   1      -0.088   0.651  -0.119  0.00  0.00    -0.034 A 
ATOM      5  C   UNL d   1       2.307  -0.716   0.462  0.00  0.00     0.131 C 
ATOM      6  O   UNL d   1       4.398   0.778   1.244  0.00  0.00    -0.267 OA
ATOM      7  C   UNL d   1      -0.098  -0.753  -0.127  0.00  0.00    -0.049 A 
ATOM      8  C   UNL d   1       1.216  -1.462  -0.308  0.00  0.00     0.059 C 
ATOM      9  C   UNL d   1      -1.291   1.351   0.030  0.00  0.00     0.009 A 
ATOM     10  C   UNL d   1      -1.305  -1.444   0.009  0.00  0.00     0.008 A 
ATOM     11  C   UNL d   1      -2.491   0.656   0.184  0.00  0.00     0.001 A 
ATOM     12  C   UNL d   1      -2.498  -0.737   0.170  0.00  0.00     0.001 A 
ENDROOT
BRANCH   2  13
ATOM     13  C   UNL d   1       3.717   2.806   0.255  0.00  0.00     0.072 A 
ATOM     14  S   UNL d   1       4.543   3.815   1.380  0.00  0.00    -0.097 SA
ATOM     15  C   UNL d   1       4.347   5.200   0.399  0.00  0.00     0.050 A 
ATOM     16  C   UNL d   1       3.687   4.912  -0.772  0.00  0.00     0.009 A 
ATOM     17  C   UNL d   1       3.358   3.527  -0.870  0.00  0.00     0.025 A 
ENDBRANCH   2  13
TORSDOF 1
