REMARK  4 active torsions:
REMARK  status: ('A' for Active; 'I' for Inactive)
REMARK    1  A    between atoms: C_7  and  N_1 
REMARK    2  A    between atoms: C_12  and  N_2 
REMARK    3  A    between atoms: C_19  and  C_12 
REMARK    4  A    between atoms: O_21  and  C_18 
ROOT
ATOM      1  N   UNL d   1       0.924  -1.388   0.134  0.00  0.00    -0.246 N 
ATOM      2  N   UNL d   1       2.113   0.701   0.085  0.00  0.00    -0.260 N 
ATOM      3  C   UNL d   1       2.144  -0.699   0.264  0.00  0.00     0.338 C 
ATOM      4  C   UNL d   1      -0.254  -0.664   0.070  0.00  0.00     0.150 A 
ATOM      5  C   UNL d   1      -0.230   0.697   0.006  0.00  0.00     0.147 A 
ATOM      6  C   UNL d   1       0.957   1.473  -0.020  0.00  0.00     0.282 C 
ATOM      7  N   UNL d   1      -1.544  -1.125   0.034  0.00  0.00    -0.336 N 
ATOM      8  HN  UNL d   1      -1.856  -2.095   0.046  1.00  0.00     0.168 HD
ATOM      9  N   UNL d   1      -1.535   1.094  -0.041  0.00  0.00    -0.345 N 
ATOM     10  C   UNL d   1      -2.294  -0.042  -0.020  0.00  0.00     0.182 A 
ATOM     11  O   UNL d   1       3.202  -1.270   0.555  0.00  0.00    -0.246 OA
ATOM     12  O   UNL d   1       0.933   2.697  -0.109  0.00  0.00    -0.265 OA
ATOM     13  H   UNL d   1      -1.866   2.051  -0.086  0.00  0.00     0.167 HD
ENDROOT
BRANCH   1  14
ATOM     14  C   UNL d   1       0.860  -2.815   0.141  0.00  0.00     0.054 A 
ATOM     15  C   UNL d   1      -0.023  -3.459   1.035  0.00  0.00     0.067 A 
ATOM     16  C   UNL d   1      -0.071  -4.851   1.138  0.00  0.00     0.070 A 
ATOM     17  C   UNL d   1       0.741  -5.621   0.312  0.00  0.00     0.037 A 
ATOM     18  C   UNL d   1       1.603  -5.010  -0.596  0.00  0.00     0.012 A 
ATOM     19  C   UNL d   1       1.684  -3.608  -0.692  0.00  0.00    -0.034 A 
ATOM     20  C   UNL d   1       2.607  -3.074  -1.756  0.00  0.00     0.050 C 
BRANCH  16  21
ATOM     21  O   UNL d   1      -0.851  -5.571   2.002  0.00  0.00    -0.356 OA
ATOM     22  C   UNL d   1      -1.630  -4.829   2.931  0.00  0.00     0.210 C 
ENDBRANCH  16  21
ENDBRANCH   1  14
BRANCH   2  23
ATOM     23  C   UNL d   1       3.392   1.400   0.063  0.00  0.00     0.175 C 
BRANCH  23  24
ATOM     24  C   UNL d   1       3.997   1.432  -1.327  0.00  0.00    -0.040 A 
ATOM     25  C   UNL d   1       3.709   2.484  -2.208  0.00  0.00     0.009 A 
ATOM     26  C   UNL d   1       4.234   2.489  -3.502  0.00  0.00     0.001 A 
ATOM     27  C   UNL d   1       5.048   1.442  -3.931  0.00  0.00     0.000 A 
ATOM     28  C   UNL d   1       5.349   0.395  -3.063  0.00  0.00     0.001 A 
ATOM     29  C   UNL d   1       4.828   0.391  -1.768  0.00  0.00     0.009 A 
ENDBRANCH  23  24
ENDBRANCH   2  23
TORSDOF 4
