REMARK  8 active torsions:
REMARK  status: ('A' for Active; 'I' for Inactive)
REMARK    1  A    between atoms: C_4  and  C_1 
REMARK    2  A    between atoms: O_6  and  C_2 
REMARK    3  A    between atoms: C_3  and  O_6 
REMARK    4  A    between atoms: C_9  and  C_3 
REMARK    5  A    between atoms: O_10  and  C_4 
REMARK    6  A    between atoms: C_15  and  O_10 
REMARK    7  A    between atoms: C_11  and  C_15 
REMARK    8  A    between atoms: C_17  and  C_11 
ROOT
ATOM      1  C   UNL d   1       2.218  -0.751   0.504  0.00  0.00     0.074 A 
ATOM      2  C   UNL d   1       2.375   0.605   0.184  0.00  0.00     0.096 A 
ATOM      3  C   UNL d   1       0.953  -1.350   0.391  0.00  0.00     0.032 A 
ATOM      4  C   UNL d   1       1.243   1.383  -0.090  0.00  0.00     0.050 A 
ATOM      5  C   UNL d   1      -0.183  -0.586   0.100  0.00  0.00    -0.025 A 
ATOM      6  C   UNL d   1      -0.048   0.808  -0.086  0.00  0.00    -0.023 A 
ATOM      7  C   UNL d   1      -1.457  -1.178   0.040  0.00  0.00     0.012 A 
ATOM      8  C   UNL d   1      -1.213   1.580  -0.244  0.00  0.00     0.012 A 
ATOM      9  C   UNL d   1      -2.598  -0.396  -0.123  0.00  0.00     0.001 A 
ATOM     10  C   UNL d   1      -2.479   0.985  -0.240  0.00  0.00     0.001 A 
ENDROOT
BRANCH   1  11
ATOM     11  C   UNL d   1       3.288  -1.603   1.085  0.00  0.00     0.296 C 
ATOM     12  O   UNL d   1       3.330  -2.814   0.953  0.00  0.00    -0.259 OA
BRANCH  11  13
ATOM     13  O   UNL d   1       4.013  -0.876   1.973  0.00  0.00    -0.310 OA
BRANCH  13  14
ATOM     14  C   UNL d   1       4.809  -1.645   2.878  0.00  0.00     0.263 C 
BRANCH  14  15
ATOM     15  C   UNL d   1       6.167  -2.066   2.322  0.00  0.00     0.183 C 
ATOM     16  O   UNL d   1       6.546  -1.745   1.197  0.00  0.00    -0.290 OA
BRANCH  15  17
ATOM     17  C   UNL d   1       7.081  -2.868   3.197  0.00  0.00     0.012 A 
ATOM     18  C   UNL d   1       6.771  -3.190   4.525  0.00  0.00     0.015 A 
ATOM     19  C   UNL d   1       7.670  -3.938   5.294  0.00  0.00     0.001 A 
ATOM     20  C   UNL d   1       8.878  -4.367   4.745  0.00  0.00     0.000 A 
ATOM     21  C   UNL d   1       9.195  -4.045   3.429  0.00  0.00     0.001 A 
ATOM     22  C   UNL d   1       8.303  -3.298   2.658  0.00  0.00     0.015 A 
ENDBRANCH  15  17
ENDBRANCH  14  15
ENDBRANCH  13  14
ENDBRANCH  11  13
ENDBRANCH   1  11
BRANCH   2  23
ATOM     23  O   UNL d   1       3.705   1.116   0.135  0.00  0.00    -0.274 OA
BRANCH  23  24
ATOM     24  C   UNL d   1       4.121   2.357  -0.349  0.00  0.00     0.298 C 
ATOM     25  O   UNL d   1       3.404   3.262  -0.746  0.00  0.00    -0.259 OA
BRANCH  24  26
ATOM     26  C   UNL d   1       5.609   2.467  -0.322  0.00  0.00     0.040 A 
ATOM     27  C   UNL d   1       6.192   3.710  -0.624  0.00  0.00     0.019 A 
ATOM     28  C   UNL d   1       7.581   3.867  -0.616  0.00  0.00     0.025 A 
ATOM     29  C   UNL d   1       8.400   2.782  -0.311  0.00  0.00     0.034 A 
ATOM     30  C   UNL d   1       7.838   1.541  -0.021  0.00  0.00     0.025 A 
ATOM     31 CL   UNL d   1      10.109   2.974  -0.298  0.00  0.00    -0.084 Cl
ATOM     32  C   UNL d   1       6.444   1.382  -0.030  0.00  0.00     0.019 A 
ENDBRANCH  24  26
ENDBRANCH  23  24
ENDBRANCH   2  23
TORSDOF 8
