REMARK  3 active torsions:
REMARK  status: ('A' for Active; 'I' for Inactive)
REMARK    1  A    between atoms: C_9  and  N_1 
REMARK    2  A    between atoms: C_12  and  N_2 
REMARK    3  A    between atoms: C_16  and  C_12 
ROOT
ATOM      1  N   UNL d   1       0.924  -1.397   0.064  0.00  0.00    -0.246 N 
ATOM      2  N   UNL d   1       2.106   0.690  -0.020  0.00  0.00    -0.260 N 
ATOM      3  C   UNL d   1       2.154  -0.719   0.076  0.00  0.00     0.338 A 
ATOM      4  C   UNL d   1      -0.256  -0.688  -0.032  0.00  0.00     0.150 A 
ATOM      5  C   UNL d   1      -0.240   0.672  -0.085  0.00  0.00     0.147 A 
ATOM      6  C   UNL d   1       0.941   1.457  -0.096  0.00  0.00     0.282 A 
ATOM      7  N   UNL d   1      -1.538  -1.162  -0.040  0.00  0.00    -0.336 N 
ATOM      8  HN  UNL d   1      -1.841  -2.135  -0.019  1.00  0.00     0.168 HD
ATOM      9  N   UNL d   1      -1.548   1.061  -0.108  0.00  0.00    -0.345 N 
ATOM     10  C   UNL d   1      -2.297  -0.084  -0.081  0.00  0.00     0.182 A 
ATOM     11  O   UNL d   1       3.238  -1.311   0.127  0.00  0.00    -0.246 OA
ATOM     12  O   UNL d   1       0.905   2.677  -0.183  0.00  0.00    -0.265 OA
ATOM     13  H   UNL d   1      -1.889   2.014  -0.125  0.00  0.00     0.167 HD
ENDROOT
BRANCH   1  14
ATOM     14  C   UNL d   1       0.854  -2.811   0.116  0.00  0.00     0.051 A 
ATOM     15  C   UNL d   1       1.347  -3.537   1.218  0.00  0.00    -0.035 A 
ATOM     16  C   UNL d   1       1.801  -2.890   2.498  0.00  0.00     0.050 C 
ATOM     17  C   UNL d   1       1.390  -4.941   1.146  0.00  0.00     0.009 A 
ATOM     18  C   UNL d   1       0.945  -5.615   0.009  0.00  0.00     0.001 A 
ATOM     19  C   UNL d   1       0.427  -4.898  -1.064  0.00  0.00     0.002 A 
ATOM     20  C   UNL d   1       0.371  -3.504  -1.008  0.00  0.00     0.031 A 
ENDBRANCH   1  14
BRANCH   2  21
ATOM     21  C   UNL d   1       3.376   1.405  -0.054  0.00  0.00     0.175 C 
BRANCH  21  22
ATOM     22  C   UNL d   1       3.839   1.806   1.329  0.00  0.00    -0.040 A 
ATOM     23  C   UNL d   1       4.681   0.967   2.071  0.00  0.00     0.009 A 
ATOM     24  C   UNL d   1       5.058   1.311   3.370  0.00  0.00     0.001 A 
ATOM     25  C   UNL d   1       4.594   2.495   3.941  0.00  0.00     0.000 A 
ATOM     26  C   UNL d   1       3.769   3.344   3.208  0.00  0.00     0.001 A 
ATOM     27  C   UNL d   1       3.396   3.004   1.908  0.00  0.00     0.009 A 
ENDBRANCH  21  22
ENDBRANCH   2  21
TORSDOF 3
