REMARK  6 active torsions:
REMARK  status: ('A' for Active; 'I' for Inactive)
REMARK    1  A    between atoms: C_2  and  C_1 
REMARK       I    between atoms: C_3  and  N_4 
REMARK    2  A    between atoms: C_10  and  C_3 
REMARK    3  A    between atoms: N_4  and  C_5 
REMARK    4  A    between atoms: N_6  and  C_10 
REMARK    5  A    between atoms: C_17  and  N_7 
REMARK    6  A    between atoms: C_23  and  C_17 
ROOT
ATOM      1  C   UNL d   1       1.370   8.253   2.996  0.00  0.00     0.250 C 
ATOM      2  N   UNL d   1       1.901   8.750   1.825  0.00  0.00    -0.324 N 
ATOM      3  O   UNL d   1       1.170   8.923   4.011  0.00  0.00    -0.271 OA
ATOM      4  H   UNL d   1       2.317   8.065   1.198  0.00  0.00     0.169 HD
ENDROOT
BRANCH   1   5
ATOM      5  C   UNL d   1       0.908   6.798   2.962  0.00  0.00     0.375 C 
BRANCH   5   6
ATOM      6  N   UNL d   1       1.565   5.936   1.941  0.00  0.00     0.100 N 
ATOM      7  C   UNL d   1       0.686   4.764   1.682  0.00  0.00     0.303 C 
ATOM      8  C   UNL d   1       0.457   3.858   2.917  0.00  0.00     0.303 C 
ATOM      9  N   UNL d   1       1.685   3.361   3.558  0.00  0.00     0.096 N 
ATOM     10  C   UNL d   1       2.764   4.362   3.597  0.00  0.00     0.303 C 
ATOM     11  C   UNL d   1       2.852   5.385   2.429  0.00  0.00     0.303 C 
BRANCH   9  12
ATOM     12  C   UNL d   1       2.101   2.049   3.047  0.00  0.00     0.311 C 
BRANCH  12  13
ATOM     13  C   UNL d   1       1.208   0.919   3.539  0.00  0.00    -0.030 A 
ATOM     14  C   UNL d   1       0.849  -0.135   2.684  0.00  0.00     0.009 A 
ATOM     15  C   UNL d   1       0.050  -1.187   3.147  0.00  0.00     0.001 A 
ATOM     16  C   UNL d   1      -0.397  -1.204   4.467  0.00  0.00     0.000 A 
ATOM     17  C   UNL d   1      -0.043  -0.174   5.332  0.00  0.00     0.001 A 
ATOM     18  C   UNL d   1       0.760   0.875   4.871  0.00  0.00     0.009 A 
ENDBRANCH  12  13
ENDBRANCH   9  12
ENDBRANCH   5   6
ENDBRANCH   1   5
BRANCH   2  19
ATOM     19  C   UNL d   1       2.042  10.127   1.513  0.00  0.00     0.056 A 
ATOM     20  C   UNL d   1       1.233  11.096   2.121  0.00  0.00     0.032 A 
ATOM     21  C   UNL d   1       1.322  12.446   1.763  0.00  0.00     0.018 A 
ATOM     22  C   UNL d   1       2.236  12.869   0.792  0.00  0.00     0.049 A 
ATOM     23  C   UNL d   1       3.059  11.907   0.184  0.00  0.00     0.042 A 
ATOM     24  C   UNL d   1       2.952  10.550   0.532  0.00  0.00     0.061 A 
ATOM     25 CL   UNL d   1       4.000   9.423  -0.257  0.00  0.00    -0.082 Cl
BRANCH  22  26
ATOM     26  C   UNL d   1       2.299  14.328   0.410  0.00  0.00     0.417 C 
ATOM     27  F   UNL d   1       3.271  14.613  -0.500  0.00  0.00    -0.166 F 
ATOM     28  F   UNL d   1       2.536  15.140   1.477  0.00  0.00    -0.166 F 
ATOM     29  F   UNL d   1       1.133  14.768  -0.141  0.00  0.00    -0.166 F 
ENDBRANCH  22  26
ENDBRANCH   2  19
TORSDOF 6
