REMARK  2 active torsions:
REMARK  status: ('A' for Active; 'I' for Inactive)
REMARK    1  A    between atoms: C_11  and  C_3 
REMARK    2  A    between atoms: C_12  and  C_6 
REMARK       I    between atoms: N_17  and  C_12 
ROOT
ATOM      1  C   UNL d   1       0.142   0.604   0.003  0.00  0.00     0.172 A 
ATOM      2  N   UNL d   1      -0.128  -0.733   0.000  0.00  0.00    -0.235 N 
ATOM      3  C   UNL d   1      -1.936   0.341   0.005  0.00  0.00     0.207 A 
ATOM      4  N   UNL d   1      -0.942   1.326   0.007  0.00  0.00    -0.316 N 
ATOM      5  HN  UNL d   1      -1.040   2.341   0.010  1.00  0.00     0.169 HD
ATOM      6  C   UNL d   1       2.120  -0.833  -0.002  0.00  0.00     0.100 A 
ATOM      7  N   UNL d   1      -1.457  -0.928   0.001  0.00  0.00    -0.273 N 
ATOM      8  HN  UNL d   1      -1.975  -1.806  -0.001  1.00  0.00     0.189 HD
ATOM      9  C   UNL d   1       0.979  -1.558  -0.002  0.00  0.00     0.055 A 
ATOM     10  S   UNL d   1       1.849   0.914   0.002  0.00  0.00    -0.044 SA
ATOM     11  C   UNL d   1       0.818  -3.037  -0.005  0.00  0.00     0.072 C 
ENDROOT
BRANCH   6  12
ATOM     12  C   UNL d   1       3.489  -1.437  -0.003  0.00  0.00     0.260 C 
ATOM     13  O   UNL d   1       3.630  -2.658  -0.006  0.00  0.00    -0.267 OA
ATOM     14  N   UNL d   1       4.547  -0.572   0.001  0.00  0.00    -0.361 N 
ATOM     15  C   UNL d   1       5.912  -1.056   0.005  0.00  0.00     0.149 C 
ATOM     16  H   UNL d   1       4.385   0.427   0.003  0.00  0.00     0.162 HD
ENDBRANCH   6  12
BRANCH   3  17
ATOM     17  C   UNL d   1      -3.422   0.645   0.007  0.00  0.00     0.450 C 
ATOM     18  F   UNL d   1      -3.693   1.978   0.020  0.00  0.00    -0.163 F 
ATOM     19  F   UNL d   1      -4.048   0.136  -1.091  0.00  0.00    -0.163 F 
ATOM     20  F   UNL d   1      -4.051   0.114   1.092  0.00  0.00    -0.163 F 
ENDBRANCH   3  17
TORSDOF 2
