REMARK  1 active torsions:
REMARK  status: ('A' for Active; 'I' for Inactive)
REMARK       I    between atoms: N_2  and  C_1 
REMARK       I    between atoms: N_4  and  C_1 
REMARK       I    between atoms: C_3  and  N_2 
REMARK       I    between atoms: N_13  and  C_3 
REMARK    1  A    between atoms: C_5  and  N_4 
ROOT
ATOM      1  C   UNL d   1       1.159   1.865  -0.917  0.00  0.00     0.678 C 
ATOM      2  N   UNL d   1       2.293   1.310  -1.443  0.00  0.00    -0.167 N 
ATOM      3  C   UNL d   1       2.604   0.099  -1.962  0.00  0.00     0.163 C 
ATOM      4  N   UNL d   1       0.261   0.975  -0.394  0.00  0.00    -0.192 N 
ATOM      5  N   UNL d   1       0.986   3.148  -0.903  0.00  0.00    -0.234 N 
ATOM      6  HN  UNL d   1       0.174   3.616  -0.499  1.00  0.00     0.174 HD
ATOM      7  N   UNL d   1       1.819  -0.899  -2.160  0.00  0.00    -0.376 N 
ATOM      8  HN  UNL d   1       2.097  -1.816  -2.510  1.00  0.00     0.158 HD
ATOM      9  N   UNL d   1       3.903  -0.034  -2.322  0.00  0.00    -0.274 NA
ATOM     10  H   UNL d   1       3.055   1.966  -1.511  0.00  0.00     0.187 HD
ATOM     11  H   UNL d   1       0.640   0.149   0.049  0.00  0.00     0.184 HD
ATOM     12  H   UNL d   1       1.765   3.630  -1.349  0.00  0.00     0.174 HD
ATOM     13  H   UNL d   1       0.863  -0.618  -1.907  0.00  0.00     0.158 HD
ATOM     14  H   UNL d   1       4.238   0.686  -2.951  0.00  0.00     0.127 HD
ATOM     15  H   UNL d   1       4.021  -0.940  -2.774  0.00  0.00     0.127 HD
ENDROOT
BRANCH   4  16
ATOM     16  C   UNL d   1      -1.135   1.131  -0.310  0.00  0.00     0.055 A 
ATOM     17  C   UNL d   1      -1.873   0.608   0.770  0.00  0.00    -0.034 A 
ATOM     18  C   UNL d   1      -3.280   0.697   0.756  0.00  0.00     0.015 A 
ATOM     19  C   UNL d   1      -1.233  -0.050   1.963  0.00  0.00     0.050 C 
ATOM     20  C   UNL d   1      -3.961   1.344  -0.282  0.00  0.00    -0.061 A 
ATOM     21  C   UNL d   1      -3.219   1.943  -1.297  0.00  0.00     0.009 A 
ATOM     22  C   UNL d   1      -5.459   1.389  -0.291  0.00  0.00     0.048 C 
ATOM     23  C   UNL d   1      -1.826   1.844  -1.302  0.00  0.00     0.031 A 
ENDBRANCH   4  16
TORSDOF 1
