REMARK  3 active torsions:
REMARK  status: ('A' for Active; 'I' for Inactive)
REMARK    1  A    between atoms: C_2  and  C_1 
REMARK       I    between atoms: N_3  and  C_1 
REMARK    2  A    between atoms: N_5  and  N_3 
REMARK    3  A    between atoms: C_10  and  N_5 
ROOT
ATOM      1  C   UNL d   1       0.531  -0.362  -0.514  0.00  0.00     0.273 C 
ATOM      2  N   UNL d   1       0.164   0.959  -0.745  0.00  0.00    -0.282 N 
ATOM      3  O   UNL d   1      -0.268  -1.163  -0.022  0.00  0.00    -0.266 OA
ATOM      4  H   UNL d   1       0.885   1.665  -0.844  0.00  0.00     0.184 HD
ENDROOT
BRANCH   2   5
ATOM      5  N   UNL d   1      -1.085   1.381  -0.243  0.00  0.00    -0.203 NA
ATOM      6  H   UNL d   1      -1.640   0.560   0.036  0.00  0.00     0.153 HD
BRANCH   5   7
ATOM      7  C   UNL d   1      -1.812   2.210  -1.136  0.00  0.00     0.027 A 
ATOM      8  C   UNL d   1      -3.216   2.154  -1.122  0.00  0.00     0.028 A 
ATOM      9  C   UNL d   1      -3.980   3.026  -1.906  0.00  0.00     0.044 A 
ATOM     10  C   UNL d   1      -3.341   3.981  -2.684  0.00  0.00     0.116 A 
ATOM     11  C   UNL d   1      -1.957   4.081  -2.694  0.00  0.00     0.044 A 
ATOM     12  F   UNL d   1      -4.070   4.830  -3.421  0.00  0.00    -0.206 F 
ATOM     13  C   UNL d   1      -1.196   3.204  -1.914  0.00  0.00     0.028 A 
ENDBRANCH   5   7
ENDBRANCH   2   5
BRANCH   1  14
ATOM     14  C   UNL d   1       1.897  -0.720  -0.874  0.00  0.00     0.073 A 
ATOM     15  S   UNL d   1       2.912   0.327  -1.777  0.00  0.00    -0.097 SA
ATOM     16  C   UNL d   1       4.174  -0.825  -1.831  0.00  0.00     0.050 A 
ATOM     17  C   UNL d   1       3.852  -1.975  -1.146  0.00  0.00     0.009 A 
ATOM     18  C   UNL d   1       2.541  -1.911  -0.591  0.00  0.00     0.025 A 
ENDBRANCH   1  14
TORSDOF 3
