REMARK  2 active torsions:
REMARK  status: ('A' for Active; 'I' for Inactive)
REMARK    1  A    between atoms: C_11  and  C_5 
REMARK    2  A    between atoms: C_17  and  C_12 
ROOT
ATOM      1  C   UNL d   1      -3.826  -0.076   0.067  0.00  0.00    -0.008 A 
ATOM      2  C   UNL d   1      -6.662  -0.336  -0.156  0.00  0.00    -0.026 A 
ATOM      3  C   UNL d   1      -4.554  -0.832   0.992  0.00  0.00     0.014 A 
ATOM      4  C   UNL d   1      -4.530   0.576  -0.949  0.00  0.00     0.014 A 
ATOM      5  C   UNL d   1      -5.922   0.454  -1.053  0.00  0.00     0.013 A 
ATOM      6  C   UNL d   1      -5.946  -0.963   0.877  0.00  0.00     0.013 A 
ENDROOT
BRANCH   1   7
ATOM      7  C   UNL d   1      -2.374   0.025   0.117  0.00  0.00     0.060 A 
ATOM      8  C   UNL d   1      -1.539  -0.619   1.006  0.00  0.00     0.128 A 
ATOM      9  N   UNL d   1      -0.265  -0.262   0.645  0.00  0.00    -0.316 N 
ATOM     10  C   UNL d   1      -0.378   0.593  -0.445  0.00  0.00     0.111 A 
ATOM     11  C   UNL d   1       0.950  -0.647   1.204  0.00  0.00     0.104 A 
ATOM     12  N   UNL d   1      -1.639   0.780  -0.775  0.00  0.00    -0.340 N 
ATOM     13  C   UNL d   1       0.833   1.094  -0.999  0.00  0.00     0.050 A 
ATOM     14  HN  UNL d   1      -1.997   1.361  -1.533  1.00  0.00     0.167 HD
ATOM     15  C   UNL d   1       2.016   0.731  -0.465  0.00  0.00     0.012 A 
ATOM     16  C   UNL d   1       2.100  -0.177   0.682  0.00  0.00    -0.046 A 
ATOM     17  C   UNL d   1       3.455  -0.531   1.206  0.00  0.00     0.049 C 
ENDBRANCH   1   7
BRANCH   2  18
ATOM     18  C   UNL d   1      -8.125  -0.518  -0.312  0.00  0.00    -0.026 A 
ATOM     19  C   UNL d   1      -8.719  -0.579  -1.587  0.00  0.00     0.012 A 
ATOM     20  C   UNL d   1     -10.098  -0.752  -1.748  0.00  0.00     0.001 A 
ATOM     21  C   UNL d   1     -10.917  -0.884  -0.632  0.00  0.00     0.000 A 
ATOM     22  C   UNL d   1     -10.358  -0.840   0.641  0.00  0.00     0.001 A 
ATOM     23  C   UNL d   1      -8.979  -0.654   0.798  0.00  0.00     0.012 A 
ENDBRANCH   2  18
TORSDOF 2
