REMARK  3 active torsions:
REMARK  status: ('A' for Active; 'I' for Inactive)
REMARK    1  A    between atoms: N_2  and  S_1 
REMARK    2  A    between atoms: C_3  and  N_2 
REMARK    3  A    between atoms: N_11  and  C_8 
ROOT
ATOM      1  C   UNL d   1       1.102  -2.704  -0.444  0.00  0.00     0.030 A 
ATOM      2  C   UNL d   1       0.024  -3.554  -0.730  0.00  0.00     0.048 A 
ATOM      3  C   UNL d   1       2.383  -2.997  -0.928  0.00  0.00    -0.040 A 
ATOM      4  C   UNL d   1       0.200  -4.696  -1.516  0.00  0.00     0.007 A 
ATOM      5  C   UNL d   1       2.555  -4.143  -1.716  0.00  0.00     0.010 A 
ATOM      6  C   UNL d   1       1.482  -5.000  -1.975  0.00  0.00     0.024 A 
ATOM      7  C   UNL d   1       3.583  -2.148  -0.626  0.00  0.00     0.050 C 
ENDROOT
BRANCH   1   8
ATOM      8  N   UNL d   1       0.895  -1.587   0.426  0.00  0.00    -0.185 NA
ATOM      9  H   UNL d   1       0.391  -1.821   1.285  0.00  0.00     0.146 HD
BRANCH   8  10
ATOM     10  S   UNL d   1       0.243  -0.167  -0.209  0.00  0.00     0.210 S 
ATOM     11  O   UNL d   1      -0.580   0.374   0.852  0.00  0.00    -0.211 OA
ATOM     12  O   UNL d   1      -0.293  -0.394  -1.535  0.00  0.00    -0.211 OA
ATOM     13  C   UNL d   1       1.690   0.866  -0.335  0.00  0.00     0.180 C 
ENDBRANCH   8  10
ENDBRANCH   1   8
BRANCH   4  14
ATOM     14  N   UNL d   1      -0.824  -5.647  -1.625  0.00  0.00    -0.303 NA
ATOM     15  H   UNL d   1      -1.759  -5.255  -1.577  0.00  0.00     0.124 HD
ATOM     16  H   UNL d   1      -0.715  -6.286  -2.407  0.00  0.00     0.124 HD
ENDBRANCH   4  14
TORSDOF 3
