REMARK  4 active torsions:
REMARK  status: ('A' for Active; 'I' for Inactive)
REMARK    1  A    between atoms: C_2  and  N_1 
REMARK    2  A    between atoms: N_4  and  C_2 
REMARK    3  A    between atoms: C_3  and  C_5 
REMARK    4  A    between atoms: C_10  and  N_4 
ROOT
ATOM      1  N   UNL d   1       2.503   2.335  -1.142  0.00  0.00    -0.333 N 
ATOM      2  H   UNL d   1       2.976   2.163  -0.265  0.00  0.00     0.168 HD
ENDROOT
BRANCH   1   3
ATOM      3  C   UNL d   1       1.120   2.338  -1.050  0.00  0.00     0.174 C 
ATOM      4  S   UNL d   1       0.185   3.623  -1.612  0.00  0.00    -0.041 SA
BRANCH   3   5
ATOM      5  N   UNL d   1       0.604   1.214  -0.389  0.00  0.00    -0.353 N 
ATOM      6  C   UNL d   1       1.423   0.065   0.045  0.00  0.00     0.157 C 
ATOM      7  C   UNL d   1       0.755  -1.277  -0.311  0.00  0.00     0.136 C 
ATOM      8  C   UNL d   1       1.527  -2.446   0.286  0.00  0.00     0.041 C 
ATOM      9  O   UNL d   1      -0.584  -1.335   0.206  0.00  0.00    -0.378 OA
ATOM     10  C   UNL d   1      -1.388  -0.283  -0.353  0.00  0.00     0.136 C 
ATOM     11  C   UNL d   1      -0.810   1.092   0.023  0.00  0.00     0.157 C 
ATOM     12  C   UNL d   1      -2.803  -0.448   0.184  0.00  0.00     0.041 C 
ENDBRANCH   3   5
ENDBRANCH   1   3
BRANCH   1  13
ATOM     13  C   UNL d   1       3.313   2.781  -2.209  0.00  0.00     0.035 A 
ATOM     14  C   UNL d   1       2.858   2.817  -3.530  0.00  0.00     0.045 A 
ATOM     15  C   UNL d   1       3.712   3.197  -4.579  0.00  0.00     0.050 A 
ATOM     16  C   UNL d   1       5.038   3.543  -4.283  0.00  0.00     0.016 A 
ATOM     17  C   UNL d   1       5.503   3.493  -2.969  0.00  0.00     0.003 A 
ATOM     18  C   UNL d   1       4.647   3.099  -1.938  0.00  0.00     0.029 A 
BRANCH  15  19
ATOM     19  C   UNL d   1       3.229   3.198  -6.007  0.00  0.00     0.417 C 
ATOM     20  F   UNL d   1       1.902   2.922  -6.142  0.00  0.00    -0.166 F 
ATOM     21  F   UNL d   1       3.428   4.393  -6.629  0.00  0.00    -0.166 F 
ATOM     22  F   UNL d   1       3.878   2.272  -6.768  0.00  0.00    -0.166 F 
ENDBRANCH  15  19
ENDBRANCH   1  13
TORSDOF 4
