REMARK  6 active torsions:
REMARK  status: ('A' for Active; 'I' for Inactive)
REMARK    1  A    between atoms: C_2  and  S_1 
REMARK    2  A    between atoms: N_4  and  S_1 
REMARK    3  A    between atoms: C_13  and  N_4 
REMARK    4  A    between atoms: C_12  and  C_8 
REMARK       I    between atoms: N_17  and  C_12 
REMARK    5  A    between atoms: C_24  and  N_17 
REMARK    6  A    between atoms: C_18  and  C_24 
ROOT
ATOM      1  N   UNL d   1       0.647  -1.261  -0.138  0.00  0.00    -0.280 N 
ATOM      2  H   UNL d   1       0.009  -0.542  -0.489  0.00  0.00     0.179 HD
ENDROOT
BRANCH   1   3
ATOM      3  S   UNL d   1       0.428  -1.538   1.503  0.00  0.00     0.265 S 
ATOM      4  O   UNL d   1      -0.974  -1.370   1.812  0.00  0.00    -0.200 OA
ATOM      5  O   UNL d   1       1.137  -2.746   1.880  0.00  0.00    -0.200 OA
BRANCH   3   6
ATOM      6  C   UNL d   1       1.310  -0.187   2.181  0.00  0.00     0.110 A 
ATOM      7  C   UNL d   1       0.971   1.147   1.900  0.00  0.00     0.108 A 
ATOM      8  C   UNL d   1       1.758   2.256   2.428  0.00  0.00     0.086 A 
ATOM      9  N   UNL d   1      -0.022   1.662   1.163  0.00  0.00    -0.238 N 
ATOM     10  N   UNL d   1       1.208   3.401   2.009  0.00  0.00    -0.239 N 
ATOM     11  C   UNL d   1       2.895   2.063   3.235  0.00  0.00     0.034 A 
ATOM     12  O   UNL d   1       0.122   3.037   1.233  0.00  0.00    -0.156 OA
ATOM     13  HN  UNL d   1       1.524   4.348   2.218  1.00  0.00     0.197 HD
ATOM     14  C   UNL d   1       3.213   0.717   3.497  0.00  0.00     0.004 A 
ATOM     15  C   UNL d   1       2.452  -0.370   2.993  0.00  0.00     0.028 A 
ATOM     16  HN  UNL d   1      -0.739   1.146   0.653  1.00  0.00     0.197 HD
ENDBRANCH   3   6
ENDBRANCH   1   3
BRANCH   1  17
ATOM     17  C   UNL d   1       0.797  -2.379  -1.012  0.00  0.00     0.058 A 
ATOM     18  C   UNL d   1       1.948  -2.511  -1.822  0.00  0.00     0.059 A 
ATOM     19  C   UNL d   1       1.978  -3.593  -2.716  0.00  0.00     0.019 A 
ATOM     20  C   UNL d   1       0.940  -4.526  -2.794  0.00  0.00     0.001 A 
ATOM     21  C   UNL d   1      -0.198  -4.356  -2.024  0.00  0.00     0.002 A 
ATOM     22  C   UNL d   1      -0.277  -3.274  -1.146  0.00  0.00     0.031 A 
BRANCH  18  23
ATOM     23  C   UNL d   1       3.037  -1.463  -1.781  0.00  0.00     0.253 C 
ATOM     24  N   UNL d   1       4.352  -1.720  -2.138  0.00  0.00    -0.356 N 
ATOM     25  H   UNL d   1       4.898  -0.873  -2.192  0.00  0.00     0.162 HD
ATOM     26  O   UNL d   1       2.784  -0.308  -1.443  0.00  0.00    -0.268 OA
BRANCH  24  27
ATOM     27  C   UNL d   1       4.918  -2.923  -2.682  0.00  0.00     0.127 C 
BRANCH  27  28
ATOM     28  C   UNL d   1       6.404  -2.969  -2.641  0.00  0.00     0.003 A 
ATOM     29  C   UNL d   1       7.316  -2.068  -3.435  0.00  0.00     0.007 A 
ATOM     30  C   UNL d   1       7.088  -3.481  -3.888  0.00  0.00     0.007 A 
ENDBRANCH  27  28
ENDBRANCH  24  27
ENDBRANCH  18  23
ENDBRANCH   1  17
TORSDOF 6
