REMARK  2 active torsions:
REMARK  status: ('A' for Active; 'I' for Inactive)
REMARK    1  A    between atoms: C_3  and  C_4 
REMARK    2  A    between atoms: C_8  and  C_5 
ROOT
ATOM      1  N   UNL d   1       1.004  -0.110  -1.037  0.00  0.00    -0.352 N 
ATOM      2  HN  UNL d   1       1.642  -0.259  -1.819  1.00  0.00     0.166 HD
ATOM      3  C   UNL d   1       1.225   0.790  -0.001  0.00  0.00     0.025 A 
ATOM      4  C   UNL d   1      -0.138  -0.747  -0.877  0.00  0.00     0.084 A 
ATOM      5  S   UNL d   1      -0.978  -0.349   0.574  0.00  0.00    -0.081 SA
ATOM      6  C   UNL d   1       0.239   0.781   0.968  0.00  0.00     0.077 A 
ENDROOT
BRANCH   3   7
ATOM      7  C   UNL d   1       2.466   1.666  -0.022  0.00  0.00     0.004 C 
ATOM      8  C   UNL d   1       3.334   1.389  -1.283  0.00  0.00     0.020 C 
ATOM      9  C   UNL d   1       4.587   2.279  -1.301  0.00  0.00    -0.013 C 
ATOM     10  C   UNL d   1       4.157   3.754  -1.307  0.00  0.00     0.009 C 
ATOM     11  C   UNL d   1       5.426   1.995  -0.046  0.00  0.00     0.009 C 
ATOM     12  C   UNL d   1       3.329   4.064  -0.050  0.00  0.00    -0.013 C 
ATOM     13  C   UNL d   1       2.076   3.171  -0.035  0.00  0.00     0.020 C 
ATOM     14  C   UNL d   1       4.174   3.772   1.201  0.00  0.00     0.009 C 
ATOM     15  C   UNL d   1       4.602   2.295   1.216  0.00  0.00    -0.013 C 
ATOM     16  C   UNL d   1       3.348   1.403   1.229  0.00  0.00     0.020 C 
ENDBRANCH   3   7
BRANCH   4  17
ATOM     17  C   UNL d   1      -0.671  -1.750  -1.815  0.00  0.00    -0.001 A 
ATOM     18  C   UNL d   1      -2.050  -1.934  -2.004  0.00  0.00     0.041 A 
ATOM     19  C   UNL d   1      -2.524  -2.894  -2.901  0.00  0.00     0.073 A 
ATOM     20 CL   UNL d   1      -4.223  -3.094  -3.100  0.00  0.00    -0.081 Cl
ATOM     21  C   UNL d   1      -1.627  -3.677  -3.622  0.00  0.00     0.138 A 
ATOM     22  C   UNL d   1      -0.256  -3.502  -3.463  0.00  0.00     0.045 A 
ATOM     23  F   UNL d   1      -2.064  -4.606  -4.482  0.00  0.00    -0.204 F 
ATOM     24  C   UNL d   1       0.219  -2.538  -2.568  0.00  0.00     0.017 A 
ENDBRANCH   4  17
TORSDOF 2
