REMARK  3 active torsions:
REMARK  status: ('A' for Active; 'I' for Inactive)
REMARK    1  A    between atoms: N_7  and  C_1 
REMARK    2  A    between atoms: C_10  and  C_6 
REMARK    3  A    between atoms: C_11  and  N_7 
ROOT
ATOM      1  C   UNL d   1       2.346  -0.606   0.005  0.00  0.00     0.134 A 
ATOM      2  N   UNL d   1       1.113   1.468  -0.118  0.00  0.00    -0.351 N 
ATOM      3  HN  UNL d   1       1.079   2.485  -0.185  1.00  0.00     0.166 HD
ATOM      4  N   UNL d   1       1.198  -1.323   0.080  0.00  0.00    -0.339 N 
ATOM      5  HN  UNL d   1       1.222  -2.340   0.163  1.00  0.00     0.167 HD
ATOM      6  C   UNL d   1       2.307   0.801  -0.103  0.00  0.00     0.087 A 
ATOM      7  C   UNL d   1      -0.016   0.738  -0.043  0.00  0.00     0.059 A 
ATOM      8  C   UNL d   1       0.031  -0.667   0.041  0.00  0.00     0.060 A 
ATOM      9  C   UNL d   1      -1.258   1.364  -0.057  0.00  0.00     0.032 A 
ATOM     10  C   UNL d   1      -1.153  -1.394   0.076  0.00  0.00     0.032 A 
ATOM     11  C   UNL d   1      -2.445   0.627  -0.013  0.00  0.00     0.002 A 
ATOM     12  C   UNL d   1      -2.393  -0.757   0.047  0.00  0.00     0.002 A 
ENDROOT
BRANCH   1  13
ATOM     13  N   UNL d   1       3.568  -1.322   0.009  0.00  0.00    -0.341 N 
ATOM     14  H   UNL d   1       4.105  -1.085  -0.820  0.00  0.00     0.167 HD
BRANCH  13  15
ATOM     15  C   UNL d   1       3.764  -2.647   0.450  0.00  0.00     0.033 A 
ATOM     16  C   UNL d   1       4.757  -3.441  -0.137  0.00  0.00     0.031 A 
ATOM     17  C   UNL d   1       4.971  -4.755   0.294  0.00  0.00     0.026 A 
ATOM     18  C   UNL d   1       4.208  -5.276   1.336  0.00  0.00     0.034 A 
ATOM     19  C   UNL d   1       3.249  -4.491   1.964  0.00  0.00     0.026 A 
ATOM     20 CL   UNL d   1       4.456  -6.899   1.853  0.00  0.00    -0.084 Cl
ATOM     21  C   UNL d   1       3.039  -3.181   1.528  0.00  0.00     0.031 A 
ENDBRANCH  13  15
ENDBRANCH   1  13
BRANCH   6  22
ATOM     22  C   UNL d   1       3.496   1.678  -0.267  0.00  0.00    -0.006 A 
ATOM     23  C   UNL d   1       4.734   1.422   0.349  0.00  0.00     0.014 A 
ATOM     24  C   UNL d   1       5.851   2.231   0.110  0.00  0.00     0.001 A 
ATOM     25  C   UNL d   1       5.747   3.340  -0.724  0.00  0.00     0.000 A 
ATOM     26  C   UNL d   1       4.523   3.649  -1.306  0.00  0.00     0.001 A 
ATOM     27  C   UNL d   1       3.414   2.828  -1.078  0.00  0.00     0.014 A 
ENDBRANCH   6  22
TORSDOF 3
