REMARK  7 active torsions:
REMARK  status: ('A' for Active; 'I' for Inactive)
REMARK    1  A    between atoms: C_2  and  S_1 
REMARK    2  A    between atoms: C_6  and  S_1 
REMARK    3  A    between atoms: N_4  and  C_3 
REMARK    4  A    between atoms: S_11  and  C_3 
REMARK    5  A    between atoms: C_10  and  N_4 
REMARK    6  A    between atoms: C_22  and  S_11 
REMARK    7  A    between atoms: C_23  and  C_22 
ROOT
ATOM      1  C   UNL d   1       0.484   1.177   1.170  0.00  0.00     0.177 C 
ATOM      2  C   UNL d   1      -0.434   2.120   0.836  0.00  0.00     0.103 C 
ATOM      3  C   UNL d   1       1.088   1.180   2.449  0.00  0.00     0.115 C 
ATOM      4  N   UNL d   1       1.533   1.183   3.519  0.00  0.00    -0.191 NA
ENDROOT
BRANCH   1   5
ATOM      5  S   UNL d   1       0.942  -0.115   0.116  0.00  0.00     0.219 S 
ATOM      6  O   UNL d   1       1.134   0.355  -1.243  0.00  0.00    -0.216 OA
ATOM      7  O   UNL d   1       0.081  -1.260   0.371  0.00  0.00    -0.216 OA
BRANCH   5   8
ATOM      8  C   UNL d   1       2.583  -0.633   0.630  0.00  0.00     0.065 A 
ATOM      9  C   UNL d   1       2.721  -1.710   1.513  0.00  0.00     0.025 A 
ATOM     10  C   UNL d   1       3.993  -2.223   1.778  0.00  0.00     0.025 A 
ATOM     11  C   UNL d   1       5.111  -1.671   1.151  0.00  0.00     0.034 A 
ATOM     12  C   UNL d   1       4.973  -0.594   0.274  0.00  0.00     0.025 A 
ATOM     13 CL   UNL d   1       6.667  -2.347   1.433  0.00  0.00    -0.084 Cl
ATOM     14  C   UNL d   1       3.705  -0.071   0.007  0.00  0.00     0.025 A 
ENDBRANCH   5   8
ENDBRANCH   1   5
BRANCH   2  15
ATOM     15  N   UNL d   1      -0.717   3.219   1.659  0.00  0.00    -0.348 N 
ATOM     16  H   UNL d   1      -0.714   3.036   2.664  0.00  0.00     0.166 HD
BRANCH  15  17
ATOM     17  C   UNL d   1      -0.205   4.536   1.437  0.00  0.00     0.054 A 
ATOM     18  C   UNL d   1      -0.584   5.589   2.297  0.00  0.00     0.060 A 
ATOM     19 CL   UNL d   1      -1.617   5.294   3.654  0.00  0.00    -0.082 Cl
ATOM     20  C   UNL d   1      -0.134   6.898   2.085  0.00  0.00     0.026 A 
ATOM     21  C   UNL d   1       0.702   7.181   1.008  0.00  0.00     0.002 A 
ATOM     22  C   UNL d   1       1.074   6.159   0.138  0.00  0.00     0.002 A 
ATOM     23  C   UNL d   1       0.610   4.855   0.340  0.00  0.00     0.031 A 
ENDBRANCH  15  17
ENDBRANCH   2  15
BRANCH   2  24
ATOM     24  S   UNL d   1      -1.409   2.018  -0.649  0.00  0.00    -0.110 SA
BRANCH  24  25
ATOM     25  C   UNL d   1      -2.595   0.689  -0.242  0.00  0.00     0.080 C 
BRANCH  25  26
ATOM     26  C   UNL d   1      -3.369   0.904   1.057  0.00  0.00     0.006 C 
ATOM     27  C   UNL d   1      -4.269  -0.290   1.354  0.00  0.00     0.006 C 
ENDBRANCH  25  26
ENDBRANCH  24  25
ENDBRANCH   2  24
TORSDOF 7
