REMARK  2 active torsions:
REMARK  status: ('A' for Active; 'I' for Inactive)
REMARK    1  A    between atoms: N_4  and  C_10 
REMARK    2  A    between atoms: C_11  and  N_6 
ROOT
ATOM      1  C   UNL d   1       0.064  -0.492  -0.038  0.00  0.00     0.036 A 
ATOM      2  N   UNL d   1      -1.275  -0.868  -0.157  0.00  0.00    -0.385 N 
ATOM      3  C   UNL d   1       0.430   0.873   0.050  0.00  0.00    -0.029 A 
ATOM      4  C   UNL d   1       1.120  -1.417  -0.075  0.00  0.00     0.032 A 
ATOM      5  C   UNL d   1       1.785   1.263   0.106  0.00  0.00     0.040 A 
ATOM      6  C   UNL d   1       2.818   0.326   0.054  0.00  0.00     0.048 A 
ATOM      7  C   UNL d   1       2.467  -1.021  -0.021  0.00  0.00     0.033 A 
ATOM      8  C   UNL d   1      -2.290   0.127   0.209  0.00  0.00     0.123 C 
ATOM      9  C   UNL d   1      -1.698  -2.257   0.017  0.00  0.00     0.149 C 
ATOM     10  C   UNL d   1      -0.622   1.949   0.150  0.00  0.00     0.042 C 
ATOM     11  C   UNL d   1      -1.959   1.480  -0.394  0.00  0.00     0.024 C 
ENDROOT
BRANCH   6  12
ATOM     12  N   UNL d   1       4.153   0.774   0.154  0.00  0.00    -0.300 N 
ATOM     13  N   UNL d   1       4.922   0.137  -0.600  0.00  0.00    -0.300 N 
ATOM     14  HN  UNL d   1       4.618  -0.605  -1.230  1.00  0.00     0.187 HD
ATOM     15  HN  UNL d   1       4.456   1.529   0.769  1.00  0.00     0.187 HD
BRANCH  13  16
ATOM     16  C   UNL d   1       6.262   0.567  -0.473  0.00  0.00     0.048 A 
ATOM     17  C   UNL d   1       7.279  -0.400  -0.530  0.00  0.00     0.032 A 
ATOM     18  C   UNL d   1       8.627  -0.029  -0.436  0.00  0.00     0.021 A 
ATOM     19  C   UNL d   1       8.966   1.310  -0.288  0.00  0.00     0.011 A 
ATOM     20  C   UNL d   1       7.974   2.288  -0.241  0.00  0.00     0.021 A 
ATOM     21 BR   UNL d   1      10.783   1.816  -0.158  0.00  0.00    -0.051 Br
ATOM     22  C   UNL d   1       6.631   1.915  -0.341  0.00  0.00     0.032 A 
ENDBRANCH  13  16
ENDBRANCH   6  12
TORSDOF 2
