REMARK  5 active torsions:
REMARK  status: ('A' for Active; 'I' for Inactive)
REMARK    1  A    between atoms: C_2  and  C_1 
REMARK    2  A    between atoms: O_10  and  C_2 
REMARK    3  A    between atoms: C_16  and  C_5 
REMARK    4  A    between atoms: C_6  and  C_11 
REMARK    5  A    between atoms: C_15  and  O_10 
ROOT
ATOM      1  C   UNL d   1       0.633  -1.647  -0.179  0.00  0.00     0.081 A 
ATOM      2  N   UNL d   1       2.057   0.237  -0.086  0.00  0.00    -0.298 N 
ATOM      3  HN  UNL d   1       2.995   0.639  -0.101  1.00  0.00     0.187 HD
ATOM      4  C   UNL d   1       1.910  -1.098  -0.237  0.00  0.00     0.075 A 
ATOM      5  N   UNL d   1       0.979   1.067   0.089  0.00  0.00    -0.299 N 
ATOM      6  HN  UNL d   1       1.129   2.067   0.227  1.00  0.00     0.187 HD
ATOM      7  C   UNL d   1      -0.504  -0.790  -0.061  0.00  0.00     0.011 A 
ATOM      8  C   UNL d   1      -0.263   0.583   0.082  0.00  0.00     0.059 A 
ATOM      9  C   UNL d   1      -1.859  -1.210  -0.106  0.00  0.00     0.015 A 
ATOM     10  C   UNL d   1      -1.328   1.470   0.202  0.00  0.00     0.032 A 
ATOM     11  C   UNL d   1      -2.920  -0.310   0.006  0.00  0.00     0.001 A 
ATOM     12  C   UNL d   1      -2.652   1.037   0.167  0.00  0.00     0.002 A 
ENDROOT
BRANCH   1  13
ATOM     13  C   UNL d   1       0.417  -3.100  -0.301  0.00  0.00     0.301 C 
ATOM     14  O   UNL d   1       0.558  -3.750  -1.319  0.00  0.00    -0.259 OA
BRANCH  13  15
ATOM     15  O   UNL d   1      -0.065  -3.539   0.926  0.00  0.00    -0.275 OA
BRANCH  15  16
ATOM     16  C   UNL d   1      -0.858  -4.710   1.041  0.00  0.00     0.080 A 
ATOM     17  C   UNL d   1      -1.934  -4.962   0.185  0.00  0.00     0.053 A 
ATOM     18  C   UNL d   1      -2.870  -5.963   0.506  0.00  0.00     0.050 A 
ATOM     19  C   UNL d   1      -2.668  -6.736   1.661  0.00  0.00     0.016 A 
ATOM     20  C   UNL d   1      -1.567  -6.504   2.487  0.00  0.00     0.004 A 
ATOM     21  C   UNL d   1      -0.672  -5.475   2.189  0.00  0.00     0.037 A 
BRANCH  18  22
ATOM     22  C   UNL d   1      -4.131  -6.133  -0.308  0.00  0.00     0.417 C 
ATOM     23  F   UNL d   1      -4.030  -5.649  -1.577  0.00  0.00    -0.166 F 
ATOM     24  F   UNL d   1      -4.522  -7.432  -0.429  0.00  0.00    -0.166 F 
ATOM     25  F   UNL d   1      -5.188  -5.477   0.253  0.00  0.00    -0.166 F 
ENDBRANCH  18  22
ENDBRANCH  15  16
ENDBRANCH  13  15
ENDBRANCH   1  13
BRANCH   4  26
ATOM     26  C   UNL d   1       3.195  -1.773  -0.487  0.00  0.00    -0.007 A 
ATOM     27  C   UNL d   1       3.656  -2.866   0.260  0.00  0.00     0.014 A 
ATOM     28  C   UNL d   1       4.947  -3.376   0.061  0.00  0.00     0.001 A 
ATOM     29  C   UNL d   1       5.797  -2.807  -0.887  0.00  0.00     0.000 A 
ATOM     30  C   UNL d   1       5.359  -1.732  -1.649  0.00  0.00     0.001 A 
ATOM     31  C   UNL d   1       4.074  -1.226  -1.450  0.00  0.00     0.014 A 
ENDBRANCH   4  26
TORSDOF 5
