REMARK  4 active torsions:
REMARK  status: ('A' for Active; 'I' for Inactive)
REMARK    1  A    between atoms: N_6  and  C_1 
REMARK    2  A    between atoms: O_7  and  C_1 
REMARK    3  A    between atoms: C_8  and  N_6 
REMARK    4  A    between atoms: C_9  and  O_7 
ROOT
ATOM      1  C   UNL d   1       0.801   0.145   0.242  0.00  0.00     0.238 C 
ATOM      2  N   UNL d   1       0.038   0.410   1.251  0.00  0.00    -0.259 N 
ATOM      3  HN  UNL d   1      -0.965   0.224   1.213  1.00  0.00     0.181 HD
ATOM      4  C   UNL d   1       0.594   0.931   2.338  0.00  0.00     0.185 C 
ATOM      5  N   UNL d   1       1.107   1.373   3.281  0.00  0.00    -0.172 NA
ENDROOT
BRANCH   1   6
ATOM      6  N   UNL d   1       2.169   0.271   0.128  0.00  0.00    -0.321 N 
ATOM      7  H   UNL d   1       2.734   0.267   0.967  0.00  0.00     0.169 HD
BRANCH   6   8
ATOM      8  C   UNL d   1       2.869   0.437  -1.079  0.00  0.00     0.035 A 
ATOM      9  C   UNL d   1       2.337   1.204  -2.125  0.00  0.00     0.029 A 
ATOM     10  C   UNL d   1       2.969   1.269  -3.366  0.00  0.00     0.002 A 
ATOM     11  C   UNL d   1       4.143   0.555  -3.581  0.00  0.00     0.000 A 
ATOM     12  C   UNL d   1       4.695  -0.200  -2.548  0.00  0.00     0.002 A 
ATOM     13  C   UNL d   1       4.065  -0.254  -1.299  0.00  0.00     0.029 A 
ENDBRANCH   6   8
ENDBRANCH   1   6
BRANCH   1  14
ATOM     14  O   UNL d   1       0.232  -0.395  -0.921  0.00  0.00    -0.279 OA
BRANCH  14  15
ATOM     15  C   UNL d   1      -1.022  -1.035  -0.887  0.00  0.00     0.079 A 
ATOM     16  C   UNL d   1      -1.885  -0.807  -1.956  0.00  0.00     0.037 A 
ATOM     17  C   UNL d   1      -3.119  -1.456  -1.980  0.00  0.00     0.003 A 
ATOM     18  C   UNL d   1      -3.472  -2.328  -0.947  0.00  0.00     0.000 A 
ATOM     19  C   UNL d   1      -2.585  -2.573   0.102  0.00  0.00     0.003 A 
ATOM     20  C   UNL d   1      -1.346  -1.938   0.124  0.00  0.00     0.037 A 
ENDBRANCH  14  15
ENDBRANCH   1  14
TORSDOF 4
