REMARK  2 active torsions:
REMARK  status: ('A' for Active; 'I' for Inactive)
REMARK    1  A    between atoms: C_9  and  C_1 
REMARK    2  A    between atoms: O_8  and  C_2 
ROOT
ATOM      1  C   UNL d   1       1.822  -0.838   0.033  0.00  0.00     0.051 A 
ATOM      2  C   UNL d   1       0.596  -1.390   0.012  0.00  0.00     0.090 A 
ATOM      3  C   UNL d   1       1.976   0.643  -0.018  0.00  0.00     0.297 A 
ATOM      4  O   UNL d   1       0.824   1.414   0.008  0.00  0.00    -0.274 OA
ATOM      5  C   UNL d   1      -0.604  -0.553  -0.019  0.00  0.00     0.032 A 
ATOM      6  C   UNL d   1      -0.453   0.829   0.005  0.00  0.00     0.092 A 
ATOM      7  O   UNL d   1       3.083   1.170  -0.072  0.00  0.00    -0.259 OA
ATOM      8  C   UNL d   1      -1.904  -1.072  -0.047  0.00  0.00     0.017 A 
ATOM      9  C   UNL d   1      -1.547   1.694   0.021  0.00  0.00     0.038 A 
ATOM     10  C   UNL d   1      -3.013  -0.219  -0.037  0.00  0.00     0.001 A 
ATOM     11  C   UNL d   1      -2.834   1.164   0.003  0.00  0.00     0.003 A 
ENDROOT
BRANCH   1  12
ATOM     12  C   UNL d   1       3.111  -1.615   0.161  0.00  0.00     0.043 C 
ATOM     13  C   UNL d   1       3.691  -2.020  -1.187  0.00  0.00     0.010 C 
ENDBRANCH   1  12
BRANCH   2  14
ATOM     14  O   UNL d   1       0.355  -2.748   0.036  0.00  0.00    -0.359 OA
ATOM     15  H   UNL d   1       1.191  -3.236  -0.033  0.00  0.00     0.217 HD
ENDBRANCH   2  14
TORSDOF 2
