REMARK  5 active torsions:
REMARK  status: ('A' for Active; 'I' for Inactive)
REMARK    1  A    between atoms: C_10  and  N_1 
REMARK    2  A    between atoms: C_9  and  N_2 
REMARK    3  A    between atoms: C_13  and  C_9 
REMARK    4  A    between atoms: O_18  and  C_16 
REMARK    5  A    between atoms: C_24  and  O_18 
ROOT
ATOM      1  N   UNL d   1       0.908  -1.390   0.343  0.00  0.00    -0.246 N 
ATOM      2  N   UNL d   1       2.011   0.763   0.487  0.00  0.00    -0.259 N 
ATOM      3  C   UNL d   1       2.105  -0.659   0.483  0.00  0.00     0.338 A 
ATOM      4  C   UNL d   1      -0.292  -0.735   0.182  0.00  0.00     0.150 A 
ATOM      5  C   UNL d   1      -0.329   0.614   0.188  0.00  0.00     0.147 A 
ATOM      6  C   UNL d   1       0.799   1.448   0.298  0.00  0.00     0.282 A 
ATOM      7  N   UNL d   1      -1.551  -1.256   0.028  0.00  0.00    -0.336 N 
ATOM      8  HN  UNL d   1      -1.817  -2.240  -0.014  1.00  0.00     0.168 HD
ATOM      9  N   UNL d   1      -1.636   0.966   0.038  0.00  0.00    -0.345 N 
ATOM     10  C   UNL d   1      -2.342  -0.201  -0.056  0.00  0.00     0.182 A 
ATOM     11  O   UNL d   1       3.211  -1.217   0.544  0.00  0.00    -0.246 OA
ATOM     12  O   UNL d   1       0.633   2.651   0.189  0.00  0.00    -0.265 OA
ATOM     13  H   UNL d   1      -1.996   1.911   0.004  0.00  0.00     0.167 HD
ENDROOT
BRANCH   2  14
ATOM     14  C   UNL d   1       3.311   1.478   0.400  0.00  0.00     0.178 C 
BRANCH  14  15
ATOM     15  C   UNL d   1       3.357   2.920   0.871  0.00  0.00    -0.006 C 
ATOM     16  C   UNL d   1       3.724   3.302   2.171  0.00  0.00     0.076 C 
ATOM     17  C   UNL d   1       3.420   4.602   2.608  0.00  0.00     0.037 C 
ATOM     18  C   UNL d   1       2.858   5.542   1.746  0.00  0.00     0.003 C 
ATOM     19  C   UNL d   1       2.646   5.214   0.416  0.00  0.00     0.001 C 
ATOM     20  C   UNL d   1       2.925   3.923  -0.025  0.00  0.00     0.011 C 
BRANCH  16  21
ATOM     21  O   UNL d   1       4.378   2.389   2.968  0.00  0.00    -0.351 OA
BRANCH  21  22
ATOM     22  C   UNL d   1       5.226   2.995   3.961  0.00  0.00     0.171 C 
ATOM     23  C   UNL d   1       6.241   2.002   4.494  0.00  0.00     0.034 C 
ENDBRANCH  21  22
ENDBRANCH  16  21
ENDBRANCH  14  15
ENDBRANCH   2  14
BRANCH   1  24
ATOM     24  C   UNL d   1       0.889  -2.807   0.283  0.00  0.00     0.051 A 
ATOM     25  C   UNL d   1       1.311  -3.598   1.370  0.00  0.00    -0.035 A 
ATOM     26  C   UNL d   1       1.672  -3.025   2.712  0.00  0.00     0.050 C 
ATOM     27  C   UNL d   1       1.360  -4.995   1.217  0.00  0.00     0.009 A 
ATOM     28  C   UNL d   1       0.978  -5.603   0.021  0.00  0.00     0.001 A 
ATOM     29  C   UNL d   1       0.524  -4.824  -1.038  0.00  0.00     0.002 A 
ATOM     30  C   UNL d   1       0.471  -3.436  -0.905  0.00  0.00     0.031 A 
ENDBRANCH   1  24
TORSDOF 5
