REMARK  1 active torsions:
REMARK  status: ('A' for Active; 'I' for Inactive)
REMARK    1  A    between atoms: C_7  and  C_1 
ROOT
ATOM      1  C   UNL d   1      -2.272   0.006   0.011  0.00  0.00     0.090 A 
ATOM      2  N   UNL d   1      -1.530   1.097   0.011  0.00  0.00    -0.343 N 
ATOM      3  HN  UNL d   1      -1.859   2.063   0.015  1.00  0.00     0.167 HD
ATOM      4  N   UNL d   1      -1.472  -1.116   0.013  0.00  0.00    -0.343 N 
ATOM      5  C   UNL d   1      -0.227   0.671   0.007  0.00  0.00     0.060 A 
ATOM      6  C   UNL d   1      -0.160  -0.717   0.006  0.00  0.00     0.060 A 
ATOM      7  C   UNL d   1       0.961   1.417  -0.003  0.00  0.00     0.032 A 
ATOM      8  C   UNL d   1       1.043  -1.425  -0.001  0.00  0.00     0.032 A 
ATOM      9  C   UNL d   1       2.219  -0.665  -0.009  0.00  0.00     0.002 A 
ATOM     10  C   UNL d   1       2.182   0.733  -0.010  0.00  0.00     0.002 A 
ATOM     11  H   UNL d   1      -1.797  -2.071   0.009  0.00  0.00     0.167 HD
ENDROOT
BRANCH   1  12
ATOM     12  C   UNL d   1      -3.785  -0.054  -0.004  0.00  0.00     0.007 C 
ATOM     13  C   UNL d   1      -4.364   1.374   0.006  0.00  0.00     0.022 C 
ATOM     14  C   UNL d   1      -4.270  -0.772  -1.275  0.00  0.00     0.022 C 
ATOM     15  C   UNL d   1      -4.305  -0.800   1.237  0.00  0.00     0.022 C 
ENDBRANCH   1  12
TORSDOF 1
