REMARK  5 active torsions:
REMARK  status: ('A' for Active; 'I' for Inactive)
REMARK    1  A    between atoms: C_8  and  C_2 
REMARK    2  A    between atoms: S_9  and  C_5 
REMARK    3  A    between atoms: C_18  and  S_9 
REMARK    4  A    between atoms: C_11  and  C_14 
REMARK    5  A    between atoms: C_14  and  C_18 
ROOT
ATOM      1  N   UNL d   1      -1.103  -0.435   0.366  0.00  0.00    -0.315 N 
ATOM      2  C   UNL d   1      -1.058   0.798  -0.267  0.00  0.00     0.134 A 
ATOM      3  N   UNL d   1       0.118   0.908  -0.860  0.00  0.00    -0.283 N 
ATOM      4  HN  UNL d   1       0.433   1.709  -1.408  1.00  0.00     0.188 HD
ATOM      5  C   UNL d   1       0.103  -1.046   0.084  0.00  0.00     0.163 A 
ATOM      6  N   UNL d   1       0.848  -0.230  -0.619  0.00  0.00    -0.278 N 
ATOM      7  HN  UNL d   1       1.802  -0.408  -0.933  1.00  0.00     0.189 HD
ATOM      8  C   UNL d   1      -2.224  -0.981   1.088  0.00  0.00     0.160 C 
ENDROOT
BRANCH   5   9
ATOM      9  S   UNL d   1       0.512  -2.688   0.480  0.00  0.00    -0.085 SA
BRANCH   9  10
ATOM     10  C   UNL d   1       2.253  -2.865  -0.114  0.00  0.00     0.166 C 
BRANCH  10  11
ATOM     11  C   UNL d   1       2.796  -4.283   0.115  0.00  0.00     0.169 C 
ATOM     12  O   UNL d   1       2.164  -5.172   0.644  0.00  0.00    -0.291 OA
BRANCH  11  13
ATOM     13  C   UNL d   1       4.200  -4.594  -0.334  0.00  0.00     0.013 A 
ATOM     14  C   UNL d   1       4.683  -5.894  -0.108  0.00  0.00     0.054 A 
ATOM     15  C   UNL d   1       5.945  -6.272  -0.570  0.00  0.00     0.102 A 
ATOM     16  O   UNL d   1       6.328  -7.549  -0.241  0.00  0.00    -0.348 OA
ATOM     17  C   UNL d   1       6.710  -5.369  -1.320  0.00  0.00     0.102 A 
ATOM     18  C   UNL d   1       7.715  -7.633   0.087  0.00  0.00     0.178 C 
ATOM     19  C   UNL d   1       8.553  -7.857  -1.160  0.00  0.00     0.053 C 
ATOM     20  C   UNL d   1       8.083  -6.996  -2.320  0.00  0.00     0.178 C 
ATOM     21  O   UNL d   1       7.917  -5.638  -1.914  0.00  0.00    -0.348 OA
ATOM     22  C   UNL d   1       6.257  -4.058  -1.491  0.00  0.00     0.040 A 
ATOM     23  C   UNL d   1       5.016  -3.664  -0.982  0.00  0.00     0.018 A 
ENDBRANCH  11  13
ENDBRANCH  10  11
ENDBRANCH   9  10
ENDBRANCH   5   9
BRANCH   2  24
ATOM     24  C   UNL d   1      -2.131   1.794  -0.320  0.00  0.00     0.010 A 
ATOM     25  C   UNL d   1      -2.256   2.640  -1.429  0.00  0.00     0.027 A 
ATOM     26  C   UNL d   1      -3.301   3.579  -1.509  0.00  0.00    -0.025 A 
ATOM     27  C   UNL d   1      -3.438   4.437  -2.611  0.00  0.00     0.012 A 
ATOM     28  C   UNL d   1      -4.237   3.665  -0.453  0.00  0.00    -0.026 A 
ATOM     29  C   UNL d   1      -4.476   5.369  -2.663  0.00  0.00     0.001 A 
ATOM     30  C   UNL d   1      -5.390   5.454  -1.616  0.00  0.00     0.001 A 
ATOM     31  C   UNL d   1      -5.275   4.603  -0.518  0.00  0.00     0.012 A 
ATOM     32  C   UNL d   1      -4.108   2.827   0.653  0.00  0.00     0.013 A 
ATOM     33  C   UNL d   1      -3.050   1.936   0.724  0.00  0.00     0.016 A 
ENDBRANCH   2  24
TORSDOF 5
