REMARK  6 active torsions:
REMARK  status: ('A' for Active; 'I' for Inactive)
REMARK    1  A    between atoms: C_7  and  C_1 
REMARK    2  A    between atoms: C_17  and  C_5 
REMARK       I    between atoms: N_16  and  C_7 
REMARK    3  A    between atoms: C_8  and  C_10 
REMARK    4  A    between atoms: C_9  and  C_11 
REMARK    5  A    between atoms: C_12  and  C_13 
REMARK       I    between atoms: C_13  and  N_18 
REMARK    6  A    between atoms: N_18  and  N_16 
ROOT
ATOM      1  C   UNL d   1      -0.116  -1.115   0.173  0.00  0.00     0.098 A 
ATOM      2  S   UNL d   1       1.385  -0.306   0.351  0.00  0.00    -0.063 SA
ATOM      3  N   UNL d   1      -0.674   1.143  -0.151  0.00  0.00    -0.351 N 
ATOM      4  HN  UNL d   1      -1.280   1.942  -0.338  1.00  0.00     0.166 HD
ATOM      5  C   UNL d   1       0.625   1.222   0.072  0.00  0.00     0.102 A 
ATOM      6  C   UNL d   1      -1.105  -0.177  -0.095  0.00  0.00     0.029 A 
ATOM      7  C   UNL d   1      -2.553  -0.442  -0.331  0.00  0.00     0.070 C 
ENDROOT
BRANCH   1   8
ATOM      8  C   UNL d   1      -0.255  -2.561   0.268  0.00  0.00     0.279 C 
ATOM      9  N   UNL d   1       0.872  -3.302   0.602  0.00  0.00    -0.262 N 
ATOM     10  H   UNL d   1       1.756  -2.883   0.887  0.00  0.00     0.190 HD
ATOM     11  O   UNL d   1      -1.323  -3.147   0.052  0.00  0.00    -0.265 OA
BRANCH   9  12
ATOM     12  N   UNL d   1       0.766  -4.709   0.658  0.00  0.00    -0.263 N 
ATOM     13  C   UNL d   1       1.513  -5.411   1.590  0.00  0.00     0.271 C 
ATOM     14  O   UNL d   1       2.319  -4.876   2.344  0.00  0.00    -0.266 OA
ATOM     15  H   UNL d   1      -0.021  -5.109   0.148  0.00  0.00     0.190 HD
BRANCH  13  16
ATOM     16  C   UNL d   1       1.258  -6.882   1.671  0.00  0.00     0.048 A 
ATOM     17  C   UNL d   1       2.276  -7.836   1.871  0.00  0.00     0.063 A 
ATOM     18  C   UNL d   1       1.908  -9.202   1.978  0.00  0.00     0.017 A 
ATOM     19  C   UNL d   1       0.580  -9.612   1.894  0.00  0.00     0.001 A 
ATOM     20  C   UNL d   1      -0.417  -8.664   1.710  0.00  0.00     0.001 A 
ATOM     21  C   UNL d   1      -0.083  -7.312   1.604  0.00  0.00     0.018 A 
BRANCH  17  22
ATOM     22  C   UNL d   1       3.757  -7.552   1.989  0.00  0.00     0.418 C 
ATOM     23  F   UNL d   1       4.182  -6.298   1.711  0.00  0.00    -0.166 F 
ATOM     24  F   UNL d   1       4.234  -7.859   3.230  0.00  0.00    -0.166 F 
ATOM     25  F   UNL d   1       4.472  -8.350   1.135  0.00  0.00    -0.166 F 
ENDBRANCH  17  22
ENDBRANCH  13  16
ENDBRANCH   9  12
ENDBRANCH   1   8
BRANCH   5  26
ATOM     26  C   UNL d   1       1.405   2.478   0.094  0.00  0.00     0.066 A 
ATOM     27  N   UNL d   1       2.736   2.368   0.336  0.00  0.00    -0.363 N 
ATOM     28  C   UNL d   1       3.474   3.503   0.368  0.00  0.00     0.104 A 
ATOM     29  HN  UNL d   1       3.168   1.457   0.489  1.00  0.00     0.165 HD
ATOM     30  C   UNL d   1       2.958   4.773   0.171  0.00  0.00     0.063 A 
ATOM     31  C   UNL d   1       1.585   4.872  -0.079  0.00  0.00     0.020 A 
ATOM     32  C   UNL d   1       0.800   3.716  -0.118  0.00  0.00     0.033 A 
BRANCH  30  33
ATOM     33  C   UNL d   1       3.854   5.973   0.226  0.00  0.00     0.418 C 
ATOM     34  F   UNL d   1       5.154   5.668   0.490  0.00  0.00    -0.166 F 
ATOM     35  F   UNL d   1       3.867   6.669  -0.945  0.00  0.00    -0.166 F 
ATOM     36  F   UNL d   1       3.479   6.864   1.185  0.00  0.00    -0.166 F 
ENDBRANCH  30  33
ENDBRANCH   5  26
TORSDOF 6
