REMARK  3 active torsions:
REMARK  status: ('A' for Active; 'I' for Inactive)
REMARK       I    between atoms: N_5  and  C_1 
REMARK    1  A    between atoms: C_10  and  C_1 
REMARK    2  A    between atoms: N_3  and  C_2 
REMARK    3  A    between atoms: C_8  and  N_5 
ROOT
ATOM      1  C   UNL d   1       2.378  -5.159   0.121  0.00  0.00     0.052 A 
ATOM      2  C   UNL d   1       2.683  -4.110   1.014  0.00  0.00     0.062 A 
ATOM      3  C   UNL d   1       2.028  -2.874   0.945  0.00  0.00     0.055 A 
ATOM      4  C   UNL d   1       1.365  -4.898  -0.819  0.00  0.00     0.033 A 
ATOM      5  C   UNL d   1       1.070  -2.615  -0.032  0.00  0.00     0.036 A 
ATOM      6 CL   UNL d   1       3.984  -4.205   2.164  0.00  0.00    -0.082 Cl
ATOM      7  C   UNL d   1       0.713  -3.654  -0.892  0.00  0.00     0.032 A 
ENDROOT
BRANCH   5   8
ATOM      8  N   UNL d   1       0.476  -1.341  -0.219  0.00  0.00    -0.323 N 
ATOM      9  C   UNL d   1       0.911  -0.162   0.372  0.00  0.00     0.256 C 
ATOM     10  O   UNL d   1       1.832  -0.070   1.182  0.00  0.00    -0.267 OA
ATOM     11  H   UNL d   1      -0.272  -1.294  -0.895  0.00  0.00     0.169 HD
BRANCH   9  12
ATOM     12  C   UNL d   1       0.237   1.113  -0.010  0.00  0.00     0.032 A 
ATOM     13  C   UNL d   1       0.433   2.214   0.842  0.00  0.00     0.017 A 
ATOM     14  C   UNL d   1      -0.094   3.466   0.532  0.00  0.00     0.001 A 
ATOM     15  C   UNL d   1      -0.830   3.631  -0.636  0.00  0.00     0.000 A 
ATOM     16  C   UNL d   1      -1.036   2.546  -1.490  0.00  0.00     0.001 A 
ATOM     17  C   UNL d   1      -0.502   1.288  -1.185  0.00  0.00     0.017 A 
ENDBRANCH   9  12
ENDBRANCH   5   8
BRANCH   1  18
ATOM     18  N   UNL d   1       3.060  -6.360   0.116  0.00  0.00    -0.375 N 
ATOM     19  C   UNL d   1       3.395  -7.078  -1.119  0.00  0.00     0.149 C 
ATOM     20  C   UNL d   1       4.790  -7.716  -0.956  0.00  0.00     0.187 C 
ATOM     21  O   UNL d   1       4.873  -8.548   0.217  0.00  0.00    -0.388 OA
ATOM     22  C   UNL d   1       4.572  -7.779   1.399  0.00  0.00     0.187 C 
ATOM     23  C   UNL d   1       3.152  -7.197   1.322  0.00  0.00     0.149 C 
ENDBRANCH   1  18
TORSDOF 3
