REMARK  4 active torsions:
REMARK  status: ('A' for Active; 'I' for Inactive)
REMARK    1  A    between atoms: C_5  and  C_1 
REMARK    2  A    between atoms: C_6  and  C_2 
REMARK       I    between atoms: N_9  and  C_5 
REMARK    3  A    between atoms: C_12  and  N_9 
REMARK    4  A    between atoms: S_16  and  C_14 
ROOT
ATOM      1  C   UNL d   1      -0.221  -1.067   0.342  0.00  0.00     0.093 A 
ATOM      2  C   UNL d   1      -1.531  -0.497   0.515  0.00  0.00     0.085 A 
ATOM      3  N   UNL d   1      -1.446   0.848   0.464  0.00  0.00    -0.259 N 
ATOM      4  HN  UNL d   1      -2.218   1.507   0.559  1.00  0.00     0.195 HD
ATOM      5  O   UNL d   1      -0.132   1.164   0.262  0.00  0.00    -0.241 OA
ATOM      6  C   UNL d   1       0.608   0.036   0.190  0.00  0.00     0.090 A 
ATOM      7  C   UNL d   1       2.047   0.237  -0.064  0.00  0.00     0.080 C 
ENDROOT
BRANCH   1   8
ATOM      8  C   UNL d   1       0.205  -2.459   0.261  0.00  0.00     0.261 C 
ATOM      9  N   UNL d   1       1.418  -2.689   0.902  0.00  0.00    -0.323 N 
ATOM     10  H   UNL d   1       1.777  -1.928   1.461  0.00  0.00     0.169 HD
ATOM     11  O   UNL d   1      -0.483  -3.296  -0.302  0.00  0.00    -0.267 OA
BRANCH   9  12
ATOM     12  C   UNL d   1       2.108  -3.910   1.054  0.00  0.00     0.036 A 
ATOM     13  C   UNL d   1       1.752  -5.093   0.405  0.00  0.00     0.048 A 
ATOM     14  C   UNL d   1       2.400  -6.299   0.708  0.00  0.00     0.002 A 
ATOM     15  C   UNL d   1       3.454  -6.297   1.629  0.00  0.00     0.018 A 
ATOM     16  C   UNL d   1       3.865  -5.109   2.230  0.00  0.00     0.004 A 
ATOM     17  C   UNL d   1       3.197  -3.920   1.938  0.00  0.00     0.029 A 
BRANCH  14  18
ATOM     18  S   UNL d   1       1.954  -7.869  -0.026  0.00  0.00    -0.134 SA
ATOM     19  C   UNL d   1       0.192  -7.626  -0.386  0.00  0.00     0.095 C 
ENDBRANCH  14  18
ENDBRANCH   9  12
ENDBRANCH   1   8
BRANCH   2  20
ATOM     20  C   UNL d   1      -2.863  -1.096   0.713  0.00  0.00     0.015 A 
ATOM     21  C   UNL d   1      -3.137  -2.178   1.562  0.00  0.00     0.046 A 
ATOM     22 CL   UNL d   1      -1.955  -2.906   2.594  0.00  0.00    -0.083 Cl
ATOM     23  C   UNL d   1      -4.452  -2.660   1.698  0.00  0.00     0.025 A 
ATOM     24  C   UNL d   1      -5.514  -2.042   1.039  0.00  0.00     0.002 A 
ATOM     25  C   UNL d   1      -5.269  -0.934   0.238  0.00  0.00     0.001 A 
ATOM     26  C   UNL d   1      -3.961  -0.475   0.071  0.00  0.00     0.015 A 
ENDBRANCH   2  20
TORSDOF 4
