REMARK  5 active torsions:
REMARK  status: ('A' for Active; 'I' for Inactive)
REMARK    1  A    between atoms: N_6  and  C_1 
REMARK    2  A    between atoms: N_9  and  C_1 
REMARK    3  A    between atoms: N_2  and  N_6 
REMARK    4  A    between atoms: O_15  and  C_7 
REMARK    5  A    between atoms: C_12  and  C_11 
ROOT
ATOM      1  N   UNL d   1      -1.193   1.058  -3.301  0.00  0.00    -0.309 N 
ATOM      2  HN  UNL d   1      -1.756   0.964  -4.146  1.00  0.00     0.186 HD
ATOM      3  C   UNL d   1      -1.739   1.240  -2.143  0.00  0.00     0.118 C 
ENDROOT
BRANCH   3   4
ATOM      4  C   UNL d   1      -3.211   1.302  -2.035  0.00  0.00    -0.018 A 
ATOM      5  C   UNL d   1      -3.817   1.510  -0.797  0.00  0.00     0.034 A 
ATOM      6  C   UNL d   1      -5.223   1.561  -0.689  0.00  0.00     0.045 A 
ATOM      7 BR   UNL d   1      -5.848   1.872   1.081  0.00  0.00    -0.048 Br
ATOM      8  C   UNL d   1      -6.023   1.397  -1.831  0.00  0.00     0.085 A 
ATOM      9  C   UNL d   1      -5.383   1.194  -3.065  0.00  0.00     0.039 A 
ATOM     10  C   UNL d   1      -3.997   1.146  -3.174  0.00  0.00     0.015 A 
BRANCH   8  11
ATOM     11  O   UNL d   1      -7.376   1.399  -2.005  0.00  0.00    -0.355 OA
ATOM     12  C   UNL d   1      -8.268   1.528  -0.916  0.00  0.00     0.210 C 
ENDBRANCH   8  11
ENDBRANCH   3   4
BRANCH   1  13
ATOM     13  N   UNL d   1       0.166   0.997  -3.342  0.00  0.00    -0.277 N 
ATOM     14  H   UNL d   1       0.726   1.083  -2.500  0.00  0.00     0.189 HD
BRANCH  13  15
ATOM     15  C   UNL d   1       0.804   0.788  -4.553  0.00  0.00     0.186 C 
ATOM     16  S   UNL d   1       2.463   0.689  -4.623  0.00  0.00    -0.040 SA
BRANCH  15  17
ATOM     17  N   UNL d   1      -0.081   0.682  -5.595  0.00  0.00    -0.370 N 
ATOM     18  C   UNL d   1       0.164   0.462  -6.999  0.00  0.00     0.148 C 
ATOM     19  H   UNL d   1      -1.037   0.791  -5.274  0.00  0.00     0.161 HD
ENDBRANCH  15  17
ENDBRANCH  13  15
ENDBRANCH   1  13
TORSDOF 5
