REMARK  7 active torsions:
REMARK  status: ('A' for Active; 'I' for Inactive)
REMARK    1  A    between atoms: N_5  and  S_1 
REMARK    2  A    between atoms: C_2  and  N_4 
REMARK    3  A    between atoms: N_7  and  C_2 
REMARK    4  A    between atoms: N_4  and  C_3 
REMARK    5  A    between atoms: C_11  and  N_5 
REMARK    6  A    between atoms: C_14  and  N_7 
REMARK    7  A    between atoms: O_22  and  C_17 
ROOT
ATOM      1  N   UNL d   1      -0.958   3.755  -4.596  0.00  0.00    -0.333 N 
ATOM      2  H   UNL d   1      -1.062   4.750  -4.755  0.00  0.00     0.168 HD
ENDROOT
BRANCH   1   3
ATOM      3  C   UNL d   1      -1.111   3.022  -5.748  0.00  0.00     0.176 C 
ATOM      4  S   UNL d   1      -0.041   1.866  -6.347  0.00  0.00    -0.041 SA
BRANCH   3   5
ATOM      5  N   UNL d   1      -2.174   3.292  -6.554  0.00  0.00    -0.333 N 
ATOM      6  H   UNL d   1      -2.091   2.799  -7.438  0.00  0.00     0.168 HD
BRANCH   5   7
ATOM      7  C   UNL d   1      -3.436   3.869  -6.323  0.00  0.00     0.034 A 
ATOM      8  C   UNL d   1      -3.881   4.376  -5.104  0.00  0.00     0.032 A 
ATOM      9  C   UNL d   1      -5.203   4.826  -4.963  0.00  0.00     0.039 A 
ATOM     10  C   UNL d   1      -6.096   4.756  -6.033  0.00  0.00     0.068 A 
ATOM     11  C   UNL d   1      -5.645   4.276  -7.259  0.00  0.00     0.039 A 
ATOM     12  C   UNL d   1      -4.327   3.838  -7.404  0.00  0.00     0.032 A 
BRANCH  10  13
ATOM     13  O   UNL d   1      -7.414   5.115  -6.008  0.00  0.00    -0.356 OA
ATOM     14  C   UNL d   1      -7.976   5.381  -4.729  0.00  0.00     0.210 C 
ENDBRANCH  10  13
ENDBRANCH   5   7
ENDBRANCH   3   5
ENDBRANCH   1   3
BRANCH   1  15
ATOM     15  C   UNL d   1      -0.130   3.364  -3.513  0.00  0.00     0.042 C 
ATOM     16  C   UNL d   1      -0.221   2.048  -3.038  0.00  0.00     0.054 C 
ATOM     17  C   UNL d   1       0.675   1.576  -2.086  0.00  0.00     0.024 C 
ATOM     18  C   UNL d   1       1.648   2.421  -1.568  0.00  0.00     0.025 C 
ATOM     19  C   UNL d   1       1.685   3.759  -1.967  0.00  0.00     0.011 C 
ATOM     20  C   UNL d   1       0.772   4.259  -2.913  0.00  0.00    -0.035 C 
ATOM     21  C   UNL d   1       0.814   5.721  -3.258  0.00  0.00     0.050 C 
BRANCH  17  22
ATOM     22  N   UNL d   1       0.545   0.243  -1.595  0.00  0.00    -0.186 NA
ATOM     23  H   UNL d   1       0.233  -0.437  -2.293  0.00  0.00     0.145 HD
BRANCH  22  24
ATOM     24  S   UNL d   1      -0.383   0.035  -0.186  0.00  0.00     0.210 S 
ATOM     25  O   UNL d   1      -0.948  -1.293  -0.292  0.00  0.00    -0.211 OA
ATOM     26  O   UNL d   1      -1.211   1.192   0.043  0.00  0.00    -0.211 OA
ATOM     27  C   UNL d   1       0.900  -0.019   1.046  0.00  0.00     0.180 C 
ENDBRANCH  22  24
ENDBRANCH  17  22
ENDBRANCH   1  15
TORSDOF 7
