REMARK  4 active torsions:
REMARK  status: ('A' for Active; 'I' for Inactive)
REMARK    1  A    between atoms: C_6  and  C_1 
REMARK    2  A    between atoms: C_11  and  C_4 
REMARK       I    between atoms: N_8  and  C_6 
REMARK    3  A    between atoms: N_10  and  N_8 
REMARK    4  A    between atoms: C_15  and  N_10 
ROOT
ATOM      1  C   UNL d   1       0.277  -2.762   0.063  0.00  0.00     0.271 C 
ATOM      2  N   UNL d   1      -0.654  -3.777   0.274  0.00  0.00    -0.282 N 
ATOM      3  O   UNL d   1       1.464  -3.030  -0.106  0.00  0.00    -0.266 OA
ATOM      4  H   UNL d   1      -1.518  -3.603   0.762  0.00  0.00     0.184 HD
ENDROOT
BRANCH   1   5
ATOM      5  C   UNL d   1      -0.238  -1.397   0.045  0.00  0.00     0.093 A 
ATOM      6  C   UNL d   1       0.380  -0.208  -0.501  0.00  0.00     0.083 A 
ATOM      7  N   UNL d   1      -0.401   0.862  -0.267  0.00  0.00    -0.259 N 
ATOM      8  O   UNL d   1      -1.518   0.413   0.372  0.00  0.00    -0.241 OA
ATOM      9  HN  UNL d   1      -0.195   1.829  -0.521  1.00  0.00     0.195 HD
ATOM     10  C   UNL d   1      -1.442  -0.926   0.552  0.00  0.00     0.090 A 
ATOM     11  C   UNL d   1      -2.620  -1.501   1.234  0.00  0.00     0.080 C 
BRANCH   6  12
ATOM     12  C   UNL d   1       1.619  -0.005  -1.267  0.00  0.00    -0.006 A 
ATOM     13  C   UNL d   1       2.290   1.231  -1.200  0.00  0.00     0.014 A 
ATOM     14  C   UNL d   1       3.417   1.488  -1.987  0.00  0.00     0.001 A 
ATOM     15  C   UNL d   1       3.900   0.508  -2.848  0.00  0.00     0.000 A 
ATOM     16  C   UNL d   1       3.253  -0.722  -2.925  0.00  0.00     0.001 A 
ATOM     17  C   UNL d   1       2.115  -0.973  -2.150  0.00  0.00     0.014 A 
ENDBRANCH   6  12
ENDBRANCH   1   5
BRANCH   2  18
ATOM     18  N   UNL d   1      -0.154  -5.088   0.423  0.00  0.00    -0.203 NA
ATOM     19  H   UNL d   1       0.834  -5.132   0.142  0.00  0.00     0.153 HD
BRANCH  18  20
ATOM     20  C   UNL d   1      -0.920  -6.099  -0.216  0.00  0.00     0.028 A 
ATOM     21  C   UNL d   1      -2.315  -6.044  -0.354  0.00  0.00     0.032 A 
ATOM     22  C   UNL d   1      -3.056  -7.130  -0.870  0.00  0.00    -0.054 A 
ATOM     23  C   UNL d   1      -4.555  -7.025  -0.965  0.00  0.00     0.049 C 
ATOM     24  C   UNL d   1      -2.387  -8.309  -1.245  0.00  0.00    -0.056 A 
ATOM     25  C   UNL d   1      -0.997  -8.379  -1.083  0.00  0.00     0.009 A 
ATOM     26  C   UNL d   1      -3.129  -9.509  -1.768  0.00  0.00     0.049 C 
ATOM     27  C   UNL d   1      -0.281  -7.295  -0.564  0.00  0.00     0.026 A 
ENDBRANCH  18  20
ENDBRANCH   2  18
TORSDOF 4
