REMARK  5 active torsions:
REMARK  status: ('A' for Active; 'I' for Inactive)
REMARK    1  A    between atoms: N_2  and  S_1 
REMARK    2  A    between atoms: C_6  and  S_1 
REMARK    3  A    between atoms: C_3  and  N_2 
REMARK    4  A    between atoms: N_7  and  C_3 
REMARK    5  A    between atoms: C_9  and  N_7 
ROOT
ATOM      1  N   UNL d   1       1.367  -0.962  -1.625  0.00  0.00    -0.257 N 
ATOM      2  H   UNL d   1       2.339  -0.856  -1.361  0.00  0.00     0.181 HD
ENDROOT
BRANCH   1   3
ATOM      3  S   UNL d   1       0.640  -2.109  -0.656  0.00  0.00     0.264 S 
ATOM      4  O   UNL d   1      -0.481  -1.478   0.011  0.00  0.00    -0.200 OA
ATOM      5  O   UNL d   1       1.715  -2.705   0.105  0.00  0.00    -0.200 OA
BRANCH   3   6
ATOM      6  C   UNL d   1       0.037  -3.355  -1.761  0.00  0.00     0.079 A 
ATOM      7  C   UNL d   1       0.928  -4.024  -2.604  0.00  0.00     0.025 A 
ATOM      8  C   UNL d   1       0.435  -4.971  -3.503  0.00  0.00     0.002 A 
ATOM      9  C   UNL d   1      -0.932  -5.252  -3.546  0.00  0.00     0.000 A 
ATOM     10  C   UNL d   1      -1.812  -4.603  -2.679  0.00  0.00     0.002 A 
ATOM     11  C   UNL d   1      -1.329  -3.655  -1.778  0.00  0.00     0.025 A 
ENDBRANCH   3   6
ENDBRANCH   1   3
BRANCH   1  12
ATOM     12  C   UNL d   1       0.843  -0.135  -2.616  0.00  0.00     0.181 C 
ATOM     13  S   UNL d   1      -0.567  -0.363  -3.473  0.00  0.00    -0.040 SA
BRANCH  12  14
ATOM     14  N   UNL d   1       1.604   0.960  -2.952  0.00  0.00    -0.362 N 
ATOM     15  H   UNL d   1       1.175   1.469  -3.719  0.00  0.00     0.162 HD
BRANCH  14  16
ATOM     16  C   UNL d   1       2.312   1.794  -1.973  0.00  0.00     0.083 C 
ATOM     17  C   UNL d   1       2.174   3.288  -2.329  0.00  0.00     0.025 C 
ATOM     18  C   UNL d   1       3.106   3.750  -3.449  0.00  0.00     0.002 C 
ATOM     19  C   UNL d   1       4.552   3.353  -3.180  0.00  0.00     0.000 C 
ATOM     20  C   UNL d   1       4.665   1.850  -2.968  0.00  0.00     0.002 C 
ATOM     21  C   UNL d   1       3.785   1.393  -1.808  0.00  0.00     0.025 C 
ENDBRANCH  14  16
ENDBRANCH  12  14
ENDBRANCH   1  12
TORSDOF 5
