REMARK  1 active torsions:
REMARK  status: ('A' for Active; 'I' for Inactive)
REMARK    1  A    between atoms: N_2  and  C_3 
ROOT
ATOM      1  C   UNL d   1       0.034   0.773   0.070  0.00  0.00     0.093 A 
ATOM      2  C   UNL d   1       1.237   1.512  -0.001  0.00  0.00     0.062 A 
ATOM      3  C   UNL d   1      -1.261   1.390   0.041  0.00  0.00     0.103 C 
ATOM      4  N   UNL d   1      -2.304   1.901   0.024  0.00  0.00    -0.191 NA
ATOM      5  C   UNL d   1       0.100  -0.635   0.075  0.00  0.00     0.057 A 
ATOM      6 CL   UNL d   1      -1.320  -1.627   0.136  0.00  0.00    -0.083 Cl
ATOM      7  C   UNL d   1       2.465   0.823  -0.082  0.00  0.00     0.031 A 
ATOM      8  C   UNL d   1       2.509  -0.571  -0.067  0.00  0.00     0.004 A 
ATOM      9  C   UNL d   1       1.328  -1.299   0.013  0.00  0.00     0.025 A 
ENDROOT
BRANCH   2  10
ATOM     10  N   UNL d   1       1.281   2.940  -0.000  0.00  0.00    -0.316 N 
ATOM     11  C   UNL d   1       0.413   3.831   0.593  0.00  0.00     0.188 A 
ATOM     12  N   UNL d   1       0.754   5.085   0.388  0.00  0.00    -0.360 N 
ATOM     13  C   UNL d   1       1.898   5.028  -0.351  0.00  0.00     0.106 A 
ATOM     14  HN  UNL d   1       0.267   5.920   0.712  1.00  0.00     0.166 HD
ATOM     15  C   UNL d   1       2.263   3.723  -0.577  0.00  0.00     0.115 A 
ENDBRANCH   2  10
TORSDOF 1
