REMARK  6 active torsions:
REMARK  status: ('A' for Active; 'I' for Inactive)
REMARK    1  A    between atoms: C_7  and  C_1 
REMARK    2  A    between atoms: N_11  and  N_3 
REMARK       I    between atoms: N_8  and  C_7 
REMARK       I    between atoms: C_12  and  N_8 
REMARK    3  A    between atoms: C_9  and  C_10 
REMARK    4  A    between atoms: C_13  and  N_11 
REMARK    5  A    between atoms: O_21  and  C_12 
REMARK    6  A    between atoms: C_24  and  O_21 
ROOT
ATOM      1  C   UNL d   1      -0.579  -1.286   0.058  0.00  0.00     0.118 C 
ATOM      2  N   UNL d   1      -0.712   1.113  -0.235  0.00  0.00    -0.273 N 
ATOM      3  N   UNL d   1       1.357   0.093   0.136  0.00  0.00    -0.215 N 
ATOM      4  C   UNL d   1       0.656   1.269  -0.160  0.00  0.00     0.348 C 
ATOM      5  C   UNL d   1      -1.366  -0.085  -0.295  0.00  0.00     0.266 C 
ATOM      6  C   UNL d   1       0.741  -1.137   0.223  0.00  0.00     0.144 C 
ATOM      7  O   UNL d   1       1.162   2.364  -0.394  0.00  0.00    -0.245 OA
ATOM      8  O   UNL d   1      -2.530  -0.176  -0.674  0.00  0.00    -0.267 OA
ATOM      9  H   UNL d   1      -1.227   1.935  -0.516  0.00  0.00     0.173 HD
ENDROOT
BRANCH   3  10
ATOM     10  N   UNL d   1       2.764   0.195   0.172  0.00  0.00    -0.290 N 
ATOM     11  H   UNL d   1       3.189   0.221  -0.757  0.00  0.00     0.187 HD
BRANCH  10  12
ATOM     12  C   UNL d   1       3.473  -0.487   1.189  0.00  0.00     0.063 A 
ATOM     13  C   UNL d   1       4.778  -0.979   0.979  0.00  0.00     0.075 A 
ATOM     14  C   UNL d   1       5.414  -1.718   2.001  0.00  0.00     0.018 A 
ATOM     15  C   UNL d   1       4.784  -1.954   3.220  0.00  0.00     0.001 A 
ATOM     16  C   UNL d   1       3.528  -1.414   3.456  0.00  0.00     0.002 A 
ATOM     17  C   UNL d   1       2.896  -0.668   2.460  0.00  0.00     0.032 A 
BRANCH  13  18
ATOM     18  C   UNL d   1       5.552  -0.771  -0.298  0.00  0.00     0.419 C 
ATOM     19  F   UNL d   1       4.848  -0.149  -1.288  0.00  0.00    -0.166 F 
ATOM     20  F   UNL d   1       6.676  -0.023  -0.114  0.00  0.00    -0.166 F 
ATOM     21  F   UNL d   1       5.977  -1.947  -0.844  0.00  0.00    -0.166 F 
ENDBRANCH  13  18
ENDBRANCH  10  12
ENDBRANCH   3  10
BRANCH   1  22
ATOM     22  C   UNL d   1      -1.151  -2.653   0.194  0.00  0.00     0.267 C 
ATOM     23  N   UNL d   1      -2.260  -2.871  -0.592  0.00  0.00    -0.269 N 
ATOM     24  C   UNL d   1      -3.080  -3.969  -0.628  0.00  0.00     0.367 C 
ATOM     25  H   UNL d   1      -2.570  -2.142  -1.221  0.00  0.00     0.174 HD
ATOM     26  O   UNL d   1      -3.909  -4.099  -1.523  0.00  0.00    -0.238 OA
ATOM     27  O   UNL d   1      -0.589  -3.490   0.893  0.00  0.00    -0.267 OA
BRANCH  24  28
ATOM     28  O   UNL d   1      -2.925  -4.813   0.415  0.00  0.00    -0.304 OA
BRANCH  28  29
ATOM     29  C   UNL d   1      -3.919  -5.844   0.534  0.00  0.00     0.176 C 
ATOM     30  C   UNL d   1      -5.219  -5.257   1.060  0.00  0.00     0.034 C 
ENDBRANCH  28  29
ENDBRANCH  24  28
ENDBRANCH   1  22
TORSDOF 6
