REMARK  5 active torsions:
REMARK  status: ('A' for Active; 'I' for Inactive)
REMARK    1  A    between atoms: C_2  and  C_1 
REMARK       I    between atoms: N_3  and  C_1 
REMARK       I    between atoms: N_5  and  C_2 
REMARK    2  A    between atoms: C_4  and  N_3 
REMARK    3  A    between atoms: C_7  and  N_5 
REMARK    4  A    between atoms: O_19  and  C_9 
REMARK    5  A    between atoms: O_20  and  C_16 
ROOT
ATOM      1  C   UNL d   1       1.239  -2.057  -1.213  0.00  0.00     0.314 C 
ATOM      2  N   UNL d   1       2.229  -2.571  -0.390  0.00  0.00    -0.316 N 
ATOM      3  O   UNL d   1       1.046  -2.309  -2.402  0.00  0.00    -0.262 OA
ATOM      4  H   UNL d   1       2.102  -2.421   0.606  0.00  0.00     0.169 HD
ENDROOT
BRANCH   1   5
ATOM      5  C   UNL d   1       0.237  -1.132  -0.502  0.00  0.00     0.310 C 
ATOM      6  N   UNL d   1      -0.951  -0.943  -1.181  0.00  0.00    -0.348 N 
ATOM      7  H   UNL d   1      -1.011  -1.376  -2.103  0.00  0.00     0.163 HD
ATOM      8  O   UNL d   1       0.543  -0.645   0.580  0.00  0.00    -0.262 OA
BRANCH   6   9
ATOM      9  C   UNL d   1      -1.889   0.110  -0.809  0.00  0.00     0.085 C 
ATOM     10  C   UNL d   1      -2.645  -0.180   0.496  0.00  0.00     0.034 C 
ATOM     11  C   UNL d   1      -3.883  -1.095   0.363  0.00  0.00    -0.045 C 
ATOM     12  C   UNL d   1      -3.477  -2.552   0.080  0.00  0.00     0.015 C 
ATOM     13  C   UNL d   1      -4.644  -1.071   1.705  0.00  0.00     0.015 C 
ATOM     14  C   UNL d   1      -4.813  -0.558  -0.744  0.00  0.00     0.013 C 
ATOM     15  C   UNL d   1      -4.105  -0.356  -2.092  0.00  0.00    -0.016 C 
ATOM     16  C   UNL d   1      -2.844   0.510  -1.947  0.00  0.00     0.029 C 
ATOM     17  C   UNL d   1      -5.072   0.295  -3.091  0.00  0.00     0.010 C 
ENDBRANCH   6   9
ENDBRANCH   1   5
BRANCH   2  18
ATOM     18  C   UNL d   1       3.104  -3.595  -0.822  0.00  0.00     0.071 A 
ATOM     19  C   UNL d   1       3.727  -3.449  -2.075  0.00  0.00     0.069 A 
ATOM     20  C   UNL d   1       4.521  -4.461  -2.613  0.00  0.00     0.070 A 
ATOM     21  C   UNL d   1       4.725  -5.622  -1.873  0.00  0.00     0.039 A 
ATOM     22  C   UNL d   1       4.175  -5.749  -0.595  0.00  0.00     0.042 A 
ATOM     23  C   UNL d   1       3.370  -4.738  -0.053  0.00  0.00     0.095 A 
BRANCH  20  24
ATOM     24  O   UNL d   1       5.132  -4.435  -3.835  0.00  0.00    -0.356 OA
ATOM     25  C   UNL d   1       4.853  -3.320  -4.675  0.00  0.00     0.210 C 
ENDBRANCH  20  24
BRANCH  23  26
ATOM     26  O   UNL d   1       2.942  -4.997   1.221  0.00  0.00    -0.354 OA
ATOM     27  C   UNL d   1       1.575  -4.733   1.510  0.00  0.00     0.210 C 
ENDBRANCH  23  26
ENDBRANCH   2  18
TORSDOF 5
