REMARK  4 active torsions:
REMARK  status: ('A' for Active; 'I' for Inactive)
REMARK    1  A    between atoms: N_2  and  S_1 
REMARK    2  A    between atoms: C_8  and  S_1 
REMARK    3  A    between atoms: C_11  and  C_5 
REMARK    4  A    between atoms: S_15  and  C_11 
ROOT
ATOM      1  N   UNL d   1       0.433   0.801   1.265  0.00  0.00    -0.188 N 
ATOM      2  N   UNL d   1       0.674   2.122   1.495  0.00  0.00    -0.288 N 
ATOM      3  HN  UNL d   1       1.129   2.791   0.874  1.00  0.00     0.188 HD
ATOM      4  C   UNL d   1       0.178   2.345   2.723  0.00  0.00     0.042 A 
ATOM      5  C   UNL d   1      -0.195   0.191   2.324  0.00  0.00     0.131 A 
ATOM      6  C   UNL d   1      -0.392   1.168   3.272  0.00  0.00     0.047 A 
ENDROOT
BRANCH   1   7
ATOM      7  S   UNL d   1       0.971  -0.074  -0.132  0.00  0.00     0.282 S 
ATOM      8  O   UNL d   1       0.530   0.694  -1.281  0.00  0.00    -0.198 OA
ATOM      9  O   UNL d   1       0.566  -1.453   0.078  0.00  0.00    -0.198 OA
BRANCH   7  10
ATOM     10  C   UNL d   1       2.743   0.016  -0.050  0.00  0.00     0.081 A 
ATOM     11  C   UNL d   1       3.493  -1.163  -0.001  0.00  0.00     0.027 A 
ATOM     12  C   UNL d   1       4.888  -1.092   0.051  0.00  0.00     0.025 A 
ATOM     13  C   UNL d   1       5.522   0.150   0.050  0.00  0.00     0.034 A 
ATOM     14  C   UNL d   1       4.775   1.327  -0.018  0.00  0.00     0.025 A 
ATOM     15 CL   UNL d   1       7.238   0.233   0.126  0.00  0.00    -0.084 Cl
ATOM     16  C   UNL d   1       3.380   1.262  -0.079  0.00  0.00     0.027 A 
ENDBRANCH   7  10
ENDBRANCH   1   7
BRANCH   4  17
ATOM     17  C   UNL d   1       0.279   3.700   3.376  0.00  0.00     0.094 C 
ATOM     18  C   UNL d   1       0.194   4.869   2.396  0.00  0.00     0.028 C 
BRANCH  17  19
ATOM     19  S   UNL d   1       1.781   3.807   4.441  0.00  0.00    -0.163 SA
ATOM     20  C   UNL d   1       3.095   3.680   3.200  0.00  0.00     0.090 C 
ENDBRANCH  17  19
ENDBRANCH   4  17
TORSDOF 4
