REMARK  1 active torsions:
REMARK  status: ('A' for Active; 'I' for Inactive)
REMARK    1  A    between atoms: C_8  and  C_2 
ROOT
ATOM      1  N   UNL d   1      -0.578  -0.043   1.784  0.00  0.00    -0.292 N 
ATOM      2  C   UNL d   1       1.339   0.217   0.261  0.00  0.00     0.127 C 
ATOM      3  C   UNL d   1      -1.350   0.756   0.934  0.00  0.00     0.197 C 
ATOM      4  N   UNL d   1       0.637   1.012  -0.491  0.00  0.00    -0.291 N 
ATOM      5  HN  UNL d   1       1.071   1.463  -1.296  1.00  0.00     0.187 HD
ATOM      6  C   UNL d   1       0.702  -0.461   1.455  0.00  0.00     0.278 C 
ATOM      7  N   UNL d   1      -0.685   1.247  -0.205  0.00  0.00    -0.271 N 
ATOM      8  S   UNL d   1      -2.980   1.097   1.248  0.00  0.00    -0.039 SA
ATOM      9  O   UNL d   1       1.289  -1.362   2.043  0.00  0.00    -0.265 OA
ATOM     10  C   UNL d   1      -1.104  -0.695   2.982  0.00  0.00     0.162 C 
ATOM     11  C   UNL d   1      -1.336   2.015  -1.280  0.00  0.00     0.180 C 
ENDROOT
BRANCH   2  12
ATOM     12  C   UNL d   1       2.735  -0.130  -0.151  0.00  0.00    -0.002 C 
ATOM     13  C   UNL d   1       3.082   0.021  -1.503  0.00  0.00     0.026 C 
ATOM     14  C   UNL d   1       4.225  -0.607  -2.024  0.00  0.00    -0.025 A 
ATOM     15  C   UNL d   1       4.528  -0.555  -3.393  0.00  0.00     0.012 A 
ATOM     16  C   UNL d   1       5.048  -1.367  -1.165  0.00  0.00    -0.026 A 
ATOM     17  C   UNL d   1       5.576  -1.316  -3.917  0.00  0.00     0.001 A 
ATOM     18  C   UNL d   1       6.339  -2.123  -3.078  0.00  0.00     0.001 A 
ATOM     19  C   UNL d   1       6.094  -2.129  -1.704  0.00  0.00     0.012 A 
ATOM     20  C   UNL d   1       4.784  -1.370   0.210  0.00  0.00     0.013 C 
ATOM     21  C   UNL d   1       3.644  -0.741   0.715  0.00  0.00     0.015 C 
ENDBRANCH   2  12
TORSDOF 1
