REMARK  3 active torsions:
REMARK  status: ('A' for Active; 'I' for Inactive)
REMARK    1  A    between atoms: C_11  and  C_3 
REMARK    2  A    between atoms: N_6  and  C_8 
REMARK    3  A    between atoms: C_12  and  C_9 
ROOT
ATOM      1  N   UNL d   1      -0.393   0.308   0.784  0.00  0.00    -0.331 N 
ATOM      2  HN  UNL d   1      -1.032   0.272   1.578  1.00  0.00     0.168 HD
ATOM      3  C   UNL d   1      -0.263   1.243  -0.095  0.00  0.00     0.162 A 
ATOM      4  C   UNL d   1       0.532  -0.621   0.395  0.00  0.00     0.112 A 
ATOM      5  O   UNL d   1       0.665   1.068  -1.062  0.00  0.00    -0.256 OA
ATOM      6  C   UNL d   1       1.251  -0.143  -0.815  0.00  0.00     0.316 A 
ATOM      7  C   UNL d   1       0.782  -1.797   0.987  0.00  0.00     0.054 C 
ATOM      8  O   UNL d   1       2.130  -0.681  -1.456  0.00  0.00    -0.257 OA
ENDROOT
BRANCH   3   9
ATOM      9  C   UNL d   1      -1.053   2.480  -0.121  0.00  0.00     0.018 A 
ATOM     10  C   UNL d   1      -1.926   2.732   0.946  0.00  0.00     0.052 A 
ATOM     11  C   UNL d   1      -2.727   3.889   0.959  0.00  0.00     0.109 A 
ATOM     12  C   UNL d   1      -2.660   4.805  -0.113  0.00  0.00    -0.029 A 
ATOM     13  C   UNL d   1      -1.770   4.528  -1.172  0.00  0.00     0.010 A 
ATOM     14  C   UNL d   1      -3.479   6.065  -0.209  0.00  0.00     0.050 C 
ATOM     15  C   UNL d   1      -0.973   3.380  -1.180  0.00  0.00     0.016 A 
BRANCH  11  16
ATOM     16  N   UNL d   1      -3.619   4.076   2.127  0.00  0.00    -0.115 N 
ATOM     17  O   UNL d   1      -3.613   3.193   2.998  0.00  0.00    -0.532 OA
ATOM     18  O   UNL d   1      -4.323   5.091   2.186  0.00  0.00    -0.532 OA
ENDBRANCH  11  16
ENDBRANCH   3   9
BRANCH   7  19
ATOM     19  C   UNL d   1       0.032  -2.234   2.122  0.00  0.00     0.007 A 
ATOM     20  S   UNL d   1       0.772  -3.228   3.318  0.00  0.00    -0.102 SA
ATOM     21  C   UNL d   1      -0.636  -3.240   4.292  0.00  0.00     0.050 A 
ATOM     22  C   UNL d   1      -1.671  -2.545   3.712  0.00  0.00     0.008 A 
ATOM     23  C   UNL d   1      -1.291  -1.989   2.463  0.00  0.00     0.019 A 
ENDBRANCH   7  19
TORSDOF 3
