REMARK  5 active torsions:
REMARK  status: ('A' for Active; 'I' for Inactive)
REMARK       I    between atoms: N_2  and  C_1 
REMARK    1  A    between atoms: C_4  and  C_1 
REMARK    2  A    between atoms: C_3  and  N_2 
REMARK    3  A    between atoms: N_10  and  C_4 
REMARK    4  A    between atoms: C_16  and  N_10 
REMARK    5  A    between atoms: C_17  and  C_16 
ROOT
ATOM      1  C   UNL d   1       1.149  -0.249   0.223  0.00  0.00     0.283 C 
ATOM      2  N   UNL d   1       0.619   0.885   0.809  0.00  0.00    -0.318 N 
ATOM      3  O   UNL d   1       2.229  -0.770   0.460  0.00  0.00    -0.265 OA
ATOM      4  H   UNL d   1      -0.368   1.067   0.632  0.00  0.00     0.169 HD
ENDROOT
BRANCH   1   5
ATOM      5  C   UNL d   1       0.260  -0.897  -0.835  0.00  0.00     0.165 C 
ATOM      6  S   UNL d   1      -1.349  -1.144  -0.481  0.00  0.00    -0.055 SA
BRANCH   5   7
ATOM      7  N   UNL d   1       0.797  -1.264  -2.044  0.00  0.00    -0.372 N 
ATOM      8  H   UNL d   1       0.191  -1.785  -2.667  0.00  0.00     0.161 HD
BRANCH   7   9
ATOM      9  C   UNL d   1       2.178  -1.084  -2.466  0.00  0.00     0.159 C 
BRANCH   9  10
ATOM     10  C   UNL d   1       2.237  -0.802  -3.944  0.00  0.00    -0.041 A 
ATOM     11  C   UNL d   1       1.463   0.234  -4.492  0.00  0.00     0.009 A 
ATOM     12  C   UNL d   1       1.505   0.507  -5.859  0.00  0.00     0.001 A 
ATOM     13  C   UNL d   1       2.333  -0.242  -6.691  0.00  0.00     0.000 A 
ATOM     14  C   UNL d   1       3.122  -1.260  -6.157  0.00  0.00     0.001 A 
ATOM     15  C   UNL d   1       3.077  -1.539  -4.788  0.00  0.00     0.009 A 
ENDBRANCH   9  10
ENDBRANCH   7   9
ENDBRANCH   5   7
ENDBRANCH   1   5
BRANCH   2  16
ATOM     16  C   UNL d   1       1.242   1.682   1.792  0.00  0.00     0.077 A 
ATOM     17  C   UNL d   1       2.608   1.628   2.079  0.00  0.00     0.078 A 
ATOM     18  C   UNL d   1       3.135   2.430   3.086  0.00  0.00     0.157 A 
ATOM     19  F   UNL d   1       4.447   2.376   3.349  0.00  0.00    -0.203 F 
ATOM     20  C   UNL d   1       2.316   3.291   3.812  0.00  0.00     0.157 A 
ATOM     21  C   UNL d   1       0.960   3.374   3.530  0.00  0.00     0.090 A 
ATOM     22  F   UNL d   1       2.833   4.047   4.790  0.00  0.00    -0.203 F 
ATOM     23  C   UNL d   1       0.438   2.578   2.514  0.00  0.00     0.146 A 
ATOM     24  F   UNL d   1      -0.874   2.655   2.242  0.00  0.00    -0.204 F 
ENDBRANCH   2  16
TORSDOF 5
