REMARK  6 active torsions:
REMARK  status: ('A' for Active; 'I' for Inactive)
REMARK    1  A    between atoms: C_2  and  N_1 
REMARK    2  A    between atoms: S_4  and  C_3 
REMARK    3  A    between atoms: C_5  and  S_4 
REMARK    4  A    between atoms: C_10  and  C_7 
REMARK    5  A    between atoms: C_8  and  C_10 
REMARK    6  A    between atoms: O_12  and  C_8 
ROOT
ATOM      1  C   UNL d   1       2.820  -1.043  -1.556  0.00  0.00     0.012 A 
ATOM      2  C   UNL d   1       2.019  -1.994  -0.885  0.00  0.00    -0.032 A 
ATOM      3  C   UNL d   1       4.182  -0.938  -1.230  0.00  0.00     0.019 A 
ATOM      4  C   UNL d   1       2.624  -2.830   0.075  0.00  0.00     0.009 A 
ATOM      5  C   UNL d   1       4.760  -1.769  -0.271  0.00  0.00     0.001 A 
ATOM      6  C   UNL d   1       3.980  -2.715   0.382  0.00  0.00     0.001 A 
ENDROOT
BRANCH   1   7
ATOM      7  S   UNL d   1       2.193   0.099  -2.780  0.00  0.00    -0.087 SA
BRANCH   7   8
ATOM      8  C   UNL d   1       2.498  -0.684  -4.365  0.00  0.00     0.038 A 
ATOM      9  C   UNL d   1       2.309  -0.017  -5.592  0.00  0.00     0.119 A 
ATOM     10  C   UNL d   1       2.466  -0.661  -6.833  0.00  0.00     0.037 A 
ATOM     11  C   UNL d   1       2.837  -2.000  -6.867  0.00  0.00     0.003 A 
ATOM     12  C   UNL d   1       3.072  -2.675  -5.675  0.00  0.00     0.002 A 
ATOM     13  C   UNL d   1       2.910  -2.023  -4.445  0.00  0.00     0.021 A 
BRANCH   9  14
ATOM     14  N   UNL d   1       1.970   1.394  -5.649  0.00  0.00    -0.114 N 
ATOM     15  O   UNL d   1       0.871   1.735  -5.188  0.00  0.00    -0.532 OA
ATOM     16  O   UNL d   1       2.775   2.141  -6.219  0.00  0.00    -0.532 OA
ENDBRANCH   9  14
ENDBRANCH   7   8
ENDBRANCH   1   7
BRANCH   2  17
ATOM     17  C   UNL d   1       0.535  -2.177  -1.142  0.00  0.00     0.151 C 
BRANCH  17  18
ATOM     18  C   UNL d   1       0.184  -3.277  -2.125  0.00  0.00     0.262 C 
ATOM     19  O   UNL d   1       0.974  -3.976  -2.751  0.00  0.00    -0.265 OA
BRANCH  18  20
ATOM     20  O   UNL d   1      -1.178  -3.386  -2.180  0.00  0.00    -0.326 OA
ATOM     21  C   UNL d   1      -1.713  -4.398  -3.039  0.00  0.00     0.213 C 
ENDBRANCH  18  20
ENDBRANCH  17  18
ENDBRANCH   2  17
TORSDOF 6
