REMARK  0 active torsions:
REMARK  status: ('A' for Active; 'I' for Inactive)
ROOT
ATOM      1  C   UNL d   1       1.021   1.279  -1.209  0.00  0.00     0.194 C 
ATOM      2  C   UNL d   1       0.706   2.539  -1.956  0.00  0.00     0.027 A 
ATOM      3  C   UNL d   1       0.345  -0.034  -1.465  0.00  0.00     0.027 C 
ATOM      4  S   UNL d   1      -1.749   1.753   0.127  0.00  0.00    -0.089 SA
ATOM      5  C   UNL d   1      -1.341   3.311  -0.606  0.00  0.00     0.017 A 
ATOM      6  C   UNL d   1      -2.019   0.775  -1.365  0.00  0.00     0.017 C 
ATOM      7  C   UNL d   1      -0.293   3.497  -1.555  0.00  0.00     0.005 A 
ATOM      8  C   UNL d   1      -1.040  -0.172  -1.723  0.00  0.00     0.005 C 
ATOM      9  O   UNL d   1       2.025   1.299  -0.495  0.00  0.00    -0.287 OA
ATOM     10  C   UNL d   1      -0.235   4.788  -2.156  0.00  0.00    -0.024 A 
ATOM     11  C   UNL d   1      -1.510  -1.386  -2.278  0.00  0.00    -0.024 C 
ATOM     12  C   UNL d   1       1.166  -1.173  -1.481  0.00  0.00     0.016 C 
ATOM     13  C   UNL d   1       1.651   2.875  -2.936  0.00  0.00     0.016 A 
ATOM     14  C   UNL d   1      -3.323   0.703  -1.870  0.00  0.00     0.020 C 
ATOM     15  C   UNL d   1      -2.201   4.358  -0.233  0.00  0.00     0.020 A 
ATOM     16  C   UNL d   1       1.652   4.130  -3.535  0.00  0.00     0.002 A 
ATOM     17  C   UNL d   1       0.648  -2.414  -1.843  0.00  0.00     0.002 C 
ATOM     18  C   UNL d   1      -2.088   5.609  -0.808  0.00  0.00     0.002 A 
ATOM     19  C   UNL d   1      -3.711  -0.402  -2.616  0.00  0.00     0.002 C 
ATOM     20  C   UNL d   1      -1.118   5.813  -1.776  0.00  0.00     0.012 A 
ATOM     21  C   UNL d   1       0.721   5.080  -3.132  0.00  0.00     0.012 A 
ATOM     22  C   UNL d   1      -0.667  -2.506  -2.295  0.00  0.00     0.012 C 
ATOM     23  C   UNL d   1      -2.831  -1.474  -2.752  0.00  0.00     0.012 C 
ENDROOT
TORSDOF 0
