REMARK  6 active torsions:
REMARK  status: ('A' for Active; 'I' for Inactive)
REMARK    1  A    between atoms: N_6  and  C_1 
REMARK    2  A    between atoms: C_9  and  N_4 
REMARK       I    between atoms: C_8  and  N_6 
REMARK    3  A    between atoms: C_15  and  C_8 
REMARK    4  A    between atoms: C_10  and  C_16 
REMARK    5  A    between atoms: O_17  and  C_10 
REMARK    6  A    between atoms: C_16  and  C_15 
ROOT
ATOM      1  C   UNL d   1      -0.193  -1.246  -0.033  0.00  0.00     0.129 A 
ATOM      2  C   UNL d   1       1.192  -0.680  -0.034  0.00  0.00     0.295 A 
ATOM      3  N   UNL d   1      -0.312   1.007   0.326  0.00  0.00    -0.289 N 
ATOM      4  N   UNL d   1       1.065   0.693   0.135  0.00  0.00    -0.217 N 
ATOM      5  C   UNL d   1      -1.020  -0.195   0.114  0.00  0.00     0.057 A 
ATOM      6  O   UNL d   1       2.184  -1.385  -0.170  0.00  0.00    -0.264 OA
ATOM      7  C   UNL d   1      -0.800   2.320  -0.093  0.00  0.00     0.178 C 
ATOM      8  C   UNL d   1      -2.517  -0.240   0.148  0.00  0.00     0.072 C 
ENDROOT
BRANCH   1   9
ATOM      9  N   UNL d   1      -0.357  -2.598  -0.201  0.00  0.00    -0.321 N 
ATOM     10  C   UNL d   1      -1.432  -3.256  -0.739  0.00  0.00     0.222 C 
ATOM     11  O   UNL d   1      -2.394  -2.724  -1.296  0.00  0.00    -0.273 OA
ATOM     12  H   UNL d   1       0.525  -3.111  -0.151  0.00  0.00     0.169 HD
BRANCH  10  13
ATOM     13  C   UNL d   1      -1.301  -4.764  -0.744  0.00  0.00     0.113 C 
BRANCH  13  14
ATOM     14  C   UNL d   1      -1.522  -5.277  -2.160  0.00  0.00     0.119 C 
BRANCH  14  15
ATOM     15  C   UNL d   1      -0.424  -4.780  -3.062  0.00  0.00     0.139 C 
ATOM     16  O   UNL d   1       0.625  -5.380  -3.239  0.00  0.00    -0.650 OA
BRANCH  15  17
ATOM     17  O   UNL d   1      -0.671  -3.566  -3.602  0.00  0.00    -0.776 OA
ATOM     18  H   UNL d   1      -1.515  -3.154  -3.311  0.00  0.00     0.167 HD
ENDBRANCH  15  17
ENDBRANCH  14  15
ENDBRANCH  13  14
ENDBRANCH  10  13
ENDBRANCH   1   9
BRANCH   4  19
ATOM     19  C   UNL d   1       2.116   1.631   0.069  0.00  0.00     0.060 A 
ATOM     20  C   UNL d   1       3.189   1.409  -0.808  0.00  0.00     0.031 A 
ATOM     21  C   UNL d   1       4.237   2.327  -0.912  0.00  0.00     0.002 A 
ATOM     22  C   UNL d   1       4.239   3.469  -0.118  0.00  0.00     0.000 A 
ATOM     23  C   UNL d   1       3.193   3.693   0.776  0.00  0.00     0.002 A 
ATOM     24  C   UNL d   1       2.137   2.780   0.866  0.00  0.00     0.031 A 
ENDBRANCH   4  19
TORSDOF 6
