REMARK  7 active torsions:
REMARK  status: ('A' for Active; 'I' for Inactive)
REMARK    1  A    between atoms: S_3  and  C_1 
REMARK    2  A    between atoms: C_9  and  S_3 
REMARK    3  A    between atoms: C_4  and  C_9 
REMARK       I    between atoms: N_7  and  C_4 
REMARK    4  A    between atoms: C_8  and  N_7 
REMARK    5  A    between atoms: C_21  and  C_9 
REMARK    6  A    between atoms: O_23  and  C_14 
REMARK    7  A    between atoms: O_24  and  C_17 
ROOT
ATOM      1  C   UNL d   1      -0.033   1.391   0.354  0.00  0.00     0.092 A 
ATOM      2  C   UNL d   1       0.520   0.369   1.139  0.00  0.00     0.084 A 
ATOM      3  N   UNL d   1      -1.286   1.332  -0.170  0.00  0.00    -0.353 N 
ATOM      4  HN  UNL d   1      -1.655   2.087  -0.747  1.00  0.00     0.166 HD
ATOM      5  C   UNL d   1      -0.255  -0.775   1.397  0.00  0.00    -0.037 A 
ATOM      6  C   UNL d   1       1.857   0.477   1.658  0.00  0.00     0.103 C 
ATOM      7  N   UNL d   1       2.933   0.522   2.085  0.00  0.00    -0.191 NA
ATOM      8  C   UNL d   1      -2.027   0.230   0.106  0.00  0.00     0.006 A 
ATOM      9  C   UNL d   1      -1.549  -0.831   0.869  0.00  0.00     0.033 A 
ATOM     10  C   UNL d   1       0.232  -1.950   2.204  0.00  0.00     0.050 C 
ATOM     11  C   UNL d   1      -3.415   0.167  -0.459  0.00  0.00     0.068 C 
ENDROOT
BRANCH   1  12
ATOM     12  S   UNL d   1       0.943   2.805  -0.140  0.00  0.00    -0.091 SA
BRANCH  12  13
ATOM     13  C   UNL d   1      -0.263   4.218  -0.033  0.00  0.00     0.179 C 
BRANCH  13  14
ATOM     14  C   UNL d   1      -1.078   4.199   1.279  0.00  0.00     0.240 C 
ATOM     15  N   UNL d   1      -2.147   5.103   1.298  0.00  0.00    -0.323 N 
ATOM     16  H   UNL d   1      -2.121   5.883   0.645  0.00  0.00     0.169 HD
ATOM     17  O   UNL d   1      -0.758   3.501   2.241  0.00  0.00    -0.272 OA
BRANCH  15  18
ATOM     18  C   UNL d   1      -3.031   5.268   2.395  0.00  0.00     0.071 A 
ATOM     19  C   UNL d   1      -3.261   4.231   3.304  0.00  0.00     0.071 A 
ATOM     20  C   UNL d   1      -4.039   4.396   4.459  0.00  0.00     0.092 A 
ATOM     21  C   UNL d   1      -4.614   5.647   4.689  0.00  0.00     0.070 A 
ATOM     22  C   UNL d   1      -4.455   6.678   3.740  0.00  0.00     0.065 A 
ATOM     23 CL   UNL d   1      -5.548   6.068   6.081  0.00  0.00    -0.081 Cl
ATOM     24  C   UNL d   1      -3.687   6.495   2.583  0.00  0.00     0.096 A 
BRANCH  20  25
ATOM     25  O   UNL d   1      -4.095   3.232   5.170  0.00  0.00    -0.354 OA
ATOM     26  C   UNL d   1      -4.652   3.186   6.468  0.00  0.00     0.210 C 
ENDBRANCH  20  25
BRANCH  24  27
ATOM     27  O   UNL d   1      -3.489   7.450   1.615  0.00  0.00    -0.354 OA
ATOM     28  C   UNL d   1      -4.187   8.684   1.770  0.00  0.00     0.210 C 
ENDBRANCH  24  27
ENDBRANCH  15  18
ENDBRANCH  13  14
BRANCH  13  29
ATOM     29  C   UNL d   1       0.570   5.494  -0.195  0.00  0.00    -0.035 A 
ATOM     30  C   UNL d   1       1.042   6.216   0.917  0.00  0.00     0.009 A 
ATOM     31  C   UNL d   1       1.931   7.279   0.754  0.00  0.00     0.001 A 
ATOM     32  C   UNL d   1       2.377   7.628  -0.518  0.00  0.00     0.000 A 
ATOM     33  C   UNL d   1       1.916   6.929  -1.631  0.00  0.00     0.001 A 
ATOM     34  C   UNL d   1       1.013   5.876  -1.474  0.00  0.00     0.009 A 
ENDBRANCH  13  29
ENDBRANCH  12  13
ENDBRANCH   1  12
TORSDOF 7
