REMARK  5 active torsions:
REMARK  status: ('A' for Active; 'I' for Inactive)
REMARK    1  A    between atoms: N_7  and  C_1 
REMARK    2  A    between atoms: C_8  and  C_4 
REMARK       I    between atoms: C_9  and  N_7 
REMARK    3  A    between atoms: C_22  and  C_9 
REMARK    4  A    between atoms: C_14  and  O_15 
REMARK    5  A    between atoms: O_15  and  C_22 
ROOT
ATOM      1  C   UNL d   1      -1.430   0.338   0.045  0.00  0.00     0.131 A 
ATOM      2  N   UNL d   1      -1.385  -0.958   0.184  0.00  0.00    -0.339 N 
ATOM      3  HN  UNL d   1      -2.190  -1.565   0.344  1.00  0.00     0.167 HD
ATOM      4  C   UNL d   1      -0.063  -1.381   0.079  0.00  0.00     0.057 A 
ATOM      5  S   UNL d   1       0.027   1.136  -0.284  0.00  0.00    -0.062 SA
ATOM      6  C   UNL d   1       0.863  -0.359  -0.104  0.00  0.00     0.009 A 
ATOM      7  C   UNL d   1       2.349  -0.374  -0.203  0.00  0.00     0.059 C 
ENDROOT
BRANCH   1   8
ATOM      8  N   UNL d   1      -2.538   1.138   0.100  0.00  0.00    -0.207 NA
ATOM      9  C   UNL d   1      -3.380   1.006   1.175  0.00  0.00     0.227 C 
ATOM     10  O   UNL d   1      -4.597   1.145   1.014  0.00  0.00    -0.277 OA
ATOM     11  H   UNL d   1      -3.076   1.151  -0.757  0.00  0.00     0.138 HD
BRANCH   9  12
ATOM     12  C   UNL d   1      -2.778   0.737   2.559  0.00  0.00     0.272 C 
BRANCH  12  13
ATOM     13  O   UNL d   1      -1.708   1.633   2.848  0.00  0.00    -0.341 OA
BRANCH  13  14
ATOM     14  C   UNL d   1      -1.050   1.457   4.040  0.00  0.00     0.091 A 
ATOM     15  C   UNL d   1       0.212   2.064   4.177  0.00  0.00     0.069 A 
ATOM     16  C   UNL d   1       0.946   1.938   5.360  0.00  0.00     0.050 A 
ATOM     17 CL   UNL d   1       0.917   2.984   2.894  0.00  0.00    -0.081 Cl
ATOM     18  C   UNL d   1       0.413   1.217   6.423  0.00  0.00     0.035 A 
ATOM     19  C   UNL d   1      -0.843   0.627   6.313  0.00  0.00     0.026 A 
ATOM     20 CL   UNL d   1       1.307   1.056   7.883  0.00  0.00    -0.084 Cl
ATOM     21  C   UNL d   1      -1.573   0.747   5.126  0.00  0.00     0.040 A 
ENDBRANCH  13  14
ENDBRANCH  12  13
ENDBRANCH   9  12
ENDBRANCH   1   8
BRANCH   4  22
ATOM     22  C   UNL d   1       0.257  -2.806   0.112  0.00  0.00    -0.007 A 
ATOM     23  C   UNL d   1      -0.546  -3.703  -0.608  0.00  0.00     0.038 A 
ATOM     24  C   UNL d   1      -0.243  -5.069  -0.632  0.00  0.00     0.040 A 
ATOM     25 CL   UNL d   1      -1.273  -6.109  -1.552  0.00  0.00    -0.084 Cl
ATOM     26  C   UNL d   1       0.866  -5.571   0.064  0.00  0.00    -0.040 A 
ATOM     27  C   UNL d   1       1.647  -4.675   0.807  0.00  0.00     0.009 A 
ATOM     28  C   UNL d   1       1.230  -7.029   0.045  0.00  0.00     0.050 C 
ATOM     29  C   UNL d   1       1.340  -3.309   0.836  0.00  0.00     0.014 A 
ENDBRANCH   4  22
TORSDOF 5
