REMARK  2 active torsions:
REMARK  status: ('A' for Active; 'I' for Inactive)
REMARK    1  A    between atoms: C_8  and  C_3 
REMARK    2  A    between atoms: O_9  and  C_6 
ROOT
ATOM      1  N   UNL d   1       0.649  -0.361  -0.891  0.00  0.00    -0.305 N 
ATOM      2  HN  UNL d   1       1.230  -0.629  -1.685  1.00  0.00     0.171 HD
ATOM      3  C   UNL d   1       0.869   0.634   0.046  0.00  0.00     0.133 A 
ATOM      4  N   UNL d   1      -0.098   0.729   0.980  0.00  0.00    -0.282 N 
ATOM      5  HN  UNL d   1      -0.167   1.370   1.771  1.00  0.00     0.188 HD
ATOM      6  C   UNL d   1      -0.487  -0.871  -0.507  0.00  0.00     0.237 A 
ATOM      7  N   UNL d   1      -0.948  -0.239   0.599  0.00  0.00    -0.264 N 
ATOM      8  H   UNL d   1      -1.800  -0.407   1.119  0.00  0.00     0.190 HD
ENDROOT
BRANCH   3   9
ATOM      9  C   UNL d   1       2.042   1.505  -0.003  0.00  0.00     0.009 A 
ATOM     10  C   UNL d   1       2.980   1.377  -1.037  0.00  0.00     0.015 A 
ATOM     11  C   UNL d   1       4.090   2.224  -1.101  0.00  0.00     0.001 A 
ATOM     12  C   UNL d   1       4.275   3.206  -0.129  0.00  0.00     0.000 A 
ATOM     13  C   UNL d   1       3.356   3.339   0.909  0.00  0.00     0.001 A 
ATOM     14  C   UNL d   1       2.246   2.493   0.973  0.00  0.00     0.015 A 
ENDBRANCH   3   9
BRANCH   6  15
ATOM     15  O   UNL d   1      -1.096  -1.862  -1.120  0.00  0.00    -0.331 OA
ATOM     16  H   UNL d   1      -0.485  -2.053  -1.855  0.00  0.00     0.221 HD
ENDBRANCH   6  15
TORSDOF 2
