REMARK  8 active torsions:
REMARK  status: ('A' for Active; 'I' for Inactive)
REMARK    1  A    between atoms: C_1  and  O_9 
REMARK    2  A    between atoms: N_2  and  C_6 
REMARK    3  A    between atoms: C_3  and  O_13 
REMARK    4  A    between atoms: C_4  and  O_14 
REMARK    5  A    between atoms: C_7  and  O_15 
REMARK    6  A    between atoms: C_8  and  C_16 
REMARK    7  A    between atoms: C_10  and  O_9 
REMARK    8  A    between atoms: O_18  and  C_16 
ROOT
ATOM      1  C   UNL d   1      -0.028   1.663  -0.015  0.00  0.00     0.298 C 
ATOM      2  C   UNL d   1       0.948   0.550   0.421  0.00  0.00     0.205 C 
ATOM      3  C   UNL d   1       0.619  -0.726  -0.376  0.00  0.00     0.183 C 
ATOM      4  O   UNL d   1      -1.369   1.202   0.232  0.00  0.00    -0.348 OA
ATOM      5  C   UNL d   1      -0.871  -1.091  -0.316  0.00  0.00     0.180 C 
ATOM      6  C   UNL d   1      -1.726   0.136  -0.660  0.00  0.00     0.179 C 
ENDROOT
BRANCH   1   7
ATOM      7  O   UNL d   1       0.231   2.876   0.708  0.00  0.00    -0.315 OA
BRANCH   7   8
ATOM      8  C   UNL d   1      -0.250   4.024   0.126  0.00  0.00     0.105 A 
ATOM      9  C   UNL d   1       0.436   5.229   0.310  0.00  0.00     0.136 A 
ATOM     10  C   UNL d   1      -0.007   6.433  -0.263  0.00  0.00     0.039 A 
ATOM     11  C   UNL d   1      -1.170   6.439  -1.029  0.00  0.00     0.003 A 
ATOM     12  C   UNL d   1      -1.877   5.256  -1.214  0.00  0.00     0.003 A 
ATOM     13  C   UNL d   1      -1.426   4.064  -0.637  0.00  0.00     0.039 A 
BRANCH   9  14
ATOM     14  N   UNL d   1       1.670   5.268   1.072  0.00  0.00    -0.113 N 
ATOM     15  O   UNL d   1       1.626   4.913   2.260  0.00  0.00    -0.532 OA
ATOM     16  O   UNL d   1       2.666   5.727   0.496  0.00  0.00    -0.532 OA
ENDBRANCH   9  14
ENDBRANCH   7   8
ENDBRANCH   1   7
BRANCH   2  17
ATOM     17  O   UNL d   1       2.313   0.899   0.160  0.00  0.00    -0.388 OA
ATOM     18  H   UNL d   1       2.827   0.081   0.313  0.00  0.00     0.210 HD
ENDBRANCH   2  17
BRANCH   3  19
ATOM     19  O   UNL d   1       1.421  -1.808   0.120  0.00  0.00    -0.390 OA
ATOM     20  H   UNL d   1       0.868  -2.277   0.778  0.00  0.00     0.210 HD
ENDBRANCH   3  19
BRANCH   6  21
ATOM     21  C   UNL d   1      -3.228  -0.126  -0.529  0.00  0.00     0.198 C 
BRANCH  21  22
ATOM     22  O   UNL d   1      -3.663  -1.081  -1.487  0.00  0.00    -0.398 OA
ATOM     23  H   UNL d   1      -3.515  -1.965  -1.107  0.00  0.00     0.209 HD
ENDBRANCH  21  22
ENDBRANCH   6  21
BRANCH   5  24
ATOM     24  O   UNL d   1      -1.159  -1.577   1.006  0.00  0.00    -0.390 OA
ATOM     25  H   UNL d   1      -1.327  -0.803   1.579  0.00  0.00     0.210 HD
ENDBRANCH   5  24
TORSDOF 8
