REMARK  1 active torsions:
REMARK  status: ('A' for Active; 'I' for Inactive)
REMARK    1  A    between atoms: C_8  and  N_5 
ROOT
ATOM      1  C   UNL d   1       3.559   1.230  -0.177  0.00  0.00     0.136 C 
ATOM      2  N   UNL d   1       4.370   1.693   0.711  0.00  0.00    -0.370 N 
ATOM      3  HN  UNL d   1       4.251   2.570   1.218  1.00  0.00     0.161 HD
ATOM      4  S   UNL d   1       3.917  -0.349  -0.842  0.00  0.00    -0.088 SA
ATOM      5  N   UNL d   1       2.412   1.765  -0.661  0.00  0.00    -0.366 N 
ATOM      6  C   UNL d   1       5.500   0.753   0.880  0.00  0.00     0.137 C 
ATOM      7  C   UNL d   1       5.050  -0.660   0.530  0.00  0.00     0.069 C 
ATOM      8  C   UNL d   1       6.175  -1.589   0.118  0.00  0.00     0.023 C 
ATOM      9  H   UNL d   1       1.942   1.128  -1.295  0.00  0.00     0.162 HD
ENDROOT
BRANCH   5  10
ATOM     10  C   UNL d   1       1.496   2.619   0.073  0.00  0.00     0.083 C 
ATOM     11  C   UNL d   1       1.310   2.198   1.531  0.00  0.00     0.025 C 
ATOM     12  C   UNL d   1       0.187   3.010   2.171  0.00  0.00     0.002 C 
ATOM     13  C   UNL d   1       0.418   4.515   2.036  0.00  0.00     0.000 C 
ATOM     14  C   UNL d   1       0.755   4.946   0.607  0.00  0.00     0.002 C 
ATOM     15  C   UNL d   1       1.870   4.098  -0.014  0.00  0.00     0.025 C 
ENDBRANCH   5  10
TORSDOF 1
