REMARK  10 active torsions:
REMARK  status: ('A' for Active; 'I' for Inactive)
REMARK    1  A    between atoms: C_5  and  S_1 
REMARK    2  A    between atoms: N_6  and  S_1 
REMARK    3  A    between atoms: C_2  and  C_3 
REMARK       I    between atoms: C_3  and  N_7 
REMARK    4  A    between atoms: C_4  and  C_11 
REMARK       I    between atoms: N_8  and  C_4 
REMARK    5  A    between atoms: C_21  and  N_6 
REMARK    6  A    between atoms: C_22  and  N_6 
REMARK    7  A    between atoms: N_7  and  N_8 
REMARK    8  A    between atoms: N_19  and  C_12 
REMARK    9  A    between atoms: C_24  and  C_21 
REMARK   10  A    between atoms: C_25  and  C_22 
ROOT
ATOM      1  C   UNL d   1      -0.307   5.431   2.569  0.00  0.00     0.270 C 
ATOM      2  N   UNL d   1       0.244   6.605   2.098  0.00  0.00    -0.263 N 
ATOM      3  O   UNL d   1      -1.132   5.418   3.481  0.00  0.00    -0.266 OA
ATOM      4  H   UNL d   1       0.865   6.684   1.297  0.00  0.00     0.190 HD
ENDROOT
BRANCH   1   5
ATOM      5  C   UNL d   1       0.118   4.151   1.910  0.00  0.00     0.033 A 
ATOM      6  C   UNL d   1       1.064   4.090   0.875  0.00  0.00     0.018 A 
ATOM      7  C   UNL d   1       1.412   2.862   0.298  0.00  0.00     0.026 A 
ATOM      8  C   UNL d   1       0.774   1.685   0.702  0.00  0.00     0.074 A 
ATOM      9  C   UNL d   1      -0.141   1.725   1.759  0.00  0.00     0.026 A 
ATOM     10  C   UNL d   1      -0.461   2.952   2.359  0.00  0.00     0.018 A 
BRANCH   8  11
ATOM     11  S   UNL d   1       1.265   0.110   0.010  0.00  0.00     0.243 S 
ATOM     12  O   UNL d   1       0.708  -0.907   0.877  0.00  0.00    -0.206 OA
ATOM     13  O   UNL d   1       2.693   0.171  -0.230  0.00  0.00    -0.206 OA
BRANCH  11  14
ATOM     14  N   UNL d   1       0.472   0.022  -1.550  0.00  0.00    -0.206 NA
BRANCH  14  15
ATOM     15  C   UNL d   1       1.090   0.979  -2.544  0.00  0.00     0.107 C 
BRANCH  15  16
ATOM     16  C   UNL d   1       0.417   1.047  -3.916  0.00  0.00     0.011 C 
ATOM     17  C   UNL d   1      -1.055   1.413  -3.856  0.00  0.00     0.006 C 
ENDBRANCH  15  16
ENDBRANCH  14  15
BRANCH  14  18
ATOM     18  C   UNL d   1       0.420  -1.384  -2.094  0.00  0.00     0.107 C 
BRANCH  18  19
ATOM     19  C   UNL d   1      -0.614  -2.285  -1.417  0.00  0.00     0.011 C 
ATOM     20  C   UNL d   1      -2.006  -1.681  -1.339  0.00  0.00     0.006 C 
ENDBRANCH  18  19
ENDBRANCH  14  18
ENDBRANCH  11  14
ENDBRANCH   8  11
ENDBRANCH   1   5
BRANCH   2  21
ATOM     21  N   UNL d   1      -0.212   7.830   2.603  0.00  0.00    -0.263 N 
ATOM     22  C   UNL d   1       0.217   8.980   1.974  0.00  0.00     0.271 C 
ATOM     23  O   UNL d   1       1.031   8.950   1.048  0.00  0.00    -0.266 OA
ATOM     24  H   UNL d   1      -0.812   7.823   3.430  0.00  0.00     0.190 HD
BRANCH  22  25
ATOM     25  C   UNL d   1      -0.338  10.273   2.452  0.00  0.00     0.054 A 
ATOM     26  C   UNL d   1      -1.664  10.429   2.903  0.00  0.00     0.021 A 
ATOM     27  C   UNL d   1      -2.067  11.700   3.344  0.00  0.00     0.024 A 
ATOM     28  C   UNL d   1      -1.220  12.809   3.244  0.00  0.00     0.002 A 
ATOM     29  C   UNL d   1       0.070  12.655   2.750  0.00  0.00     0.001 A 
ATOM     30  C   UNL d   1       0.511  11.392   2.358  0.00  0.00     0.019 A 
BRANCH  26  31
ATOM     31  N   UNL d   1      -2.541   9.347   3.113  0.00  0.00    -0.302 NA
ATOM     32  H   UNL d   1      -2.436   8.596   2.431  0.00  0.00     0.124 HD
ATOM     33  H   UNL d   1      -3.517   9.623   3.192  0.00  0.00     0.124 HD
ENDBRANCH  26  31
ENDBRANCH  22  25
ENDBRANCH   2  21
TORSDOF 10
