REMARK  5 active torsions:
REMARK  status: ('A' for Active; 'I' for Inactive)
REMARK    1  A    between atoms: C_7  and  C_1 
REMARK    2  A    between atoms: C_8  and  N_2 
REMARK       I    between atoms: N_10  and  C_7 
REMARK    3  A    between atoms: C_21  and  N_10 
REMARK    4  A    between atoms: C_20  and  C_21 
REMARK    5  A    between atoms: O_27  and  C_23 
ROOT
ATOM      1  C   UNL d   1      -0.345   1.136   0.002  0.00  0.00     0.073 C 
ATOM      2  N   UNL d   1       0.869  -0.731   0.163  0.00  0.00    -0.260 N 
ATOM      3  C   UNL d   1       0.968   0.662   0.018  0.00  0.00     0.048 C 
ATOM      4  N   UNL d   1      -0.396  -1.099   0.483  0.00  0.00    -0.304 N 
ATOM      5  HN  UNL d   1      -0.716  -2.009   0.812  1.00  0.00     0.186 HD
ATOM      6  C   UNL d   1      -1.122  -0.012   0.273  0.00  0.00     0.126 C 
ATOM      7  C   UNL d   1       2.260   1.394  -0.039  0.00  0.00     0.071 C 
ENDROOT
BRANCH   1   8
ATOM      8  C   UNL d   1      -0.968   2.439  -0.185  0.00  0.00     0.255 C 
ATOM      9  N   UNL d   1      -0.207   3.585  -0.092  0.00  0.00    -0.353 N 
ATOM     10  H   UNL d   1       0.796   3.543  -0.124  0.00  0.00     0.163 HD
ATOM     11  O   UNL d   1      -2.179   2.499  -0.403  0.00  0.00    -0.268 OA
BRANCH   9  12
ATOM     12  C   UNL d   1      -0.899   4.836  -0.316  0.00  0.00     0.161 C 
BRANCH  12  13
ATOM     13  C   UNL d   1      -0.231   6.112   0.127  0.00  0.00    -0.038 A 
ATOM     14  C   UNL d   1       0.847   6.172   1.022  0.00  0.00     0.048 A 
ATOM     15  C   UNL d   1       1.231   7.416   1.487  0.00  0.00     0.105 A 
ATOM     16  O   UNL d   1       2.211   7.655   2.404  0.00  0.00    -0.323 OA
ATOM     17  C   UNL d   1       0.606   8.576   1.091  0.00  0.00     0.105 A 
ATOM     18  C   UNL d   1       2.015   9.066   2.643  0.00  0.00     0.352 C 
ATOM     19  O   UNL d   1       1.101   9.679   1.713  0.00  0.00    -0.323 OA
ATOM     20  C   UNL d   1      -0.432   8.567   0.190  0.00  0.00     0.040 A 
ATOM     21  C   UNL d   1      -0.851   7.325  -0.287  0.00  0.00     0.012 A 
ENDBRANCH  12  13
ENDBRANCH   9  12
ENDBRANCH   1   8
BRANCH   2  22
ATOM     22  C   UNL d   1       1.829  -1.774  -0.003  0.00  0.00     0.056 A 
ATOM     23  C   UNL d   1       1.583  -3.011   0.622  0.00  0.00     0.034 A 
ATOM     24  C   UNL d   1       2.449  -4.094   0.446  0.00  0.00     0.039 A 
ATOM     25  C   UNL d   1       3.563  -3.966  -0.378  0.00  0.00     0.068 A 
ATOM     26  C   UNL d   1       3.807  -2.740  -1.008  0.00  0.00     0.039 A 
ATOM     27  C   UNL d   1       2.948  -1.646  -0.828  0.00  0.00     0.034 A 
BRANCH  25  28
ATOM     28  O   UNL d   1       4.470  -4.953  -0.651  0.00  0.00    -0.356 OA
ATOM     29  C   UNL d   1       4.171  -6.250  -0.145  0.00  0.00     0.210 C 
ENDBRANCH  25  28
ENDBRANCH   2  22
TORSDOF 5
