REMARK  3 active torsions:
REMARK  status: ('A' for Active; 'I' for Inactive)
REMARK    1  A    between atoms: N_2  and  C_1 
REMARK    2  A    between atoms: N_3  and  C_1 
REMARK    3  A    between atoms: C_5  and  N_3 
ROOT
ATOM      1  C   UNL d   1       1.006  -0.042   0.049  0.00  0.00     0.174 C 
ATOM      2  S   UNL d   1       0.479  -1.578  -0.414  0.00  0.00    -0.041 SA
ENDROOT
BRANCH   1   3
ATOM      3  N   UNL d   1       0.526   0.639   1.184  0.00  0.00    -0.353 N 
ATOM      4  C   UNL d   1       0.852   2.046   1.506  0.00  0.00     0.157 C 
ATOM      5  C   UNL d   1       0.918   2.266   3.032  0.00  0.00     0.136 C 
ATOM      6  C   UNL d   1       1.101   3.738   3.376  0.00  0.00     0.041 C 
ATOM      7  O   UNL d   1      -0.292   1.828   3.675  0.00  0.00    -0.378 OA
ATOM      8  C   UNL d   1      -0.526   0.433   3.425  0.00  0.00     0.136 C 
ATOM      9  C   UNL d   1      -0.672   0.178   1.918  0.00  0.00     0.157 C 
ATOM     10  C   UNL d   1      -1.791   0.026   4.167  0.00  0.00     0.041 C 
ENDBRANCH   1   3
BRANCH   1  11
ATOM     11  N   UNL d   1       2.035   0.619  -0.608  0.00  0.00    -0.333 N 
ATOM     12  H   UNL d   1       2.765   0.944   0.006  0.00  0.00     0.168 HD
BRANCH  11  13
ATOM     13  C   UNL d   1       2.363   0.548  -1.990  0.00  0.00     0.040 A 
ATOM     14  C   UNL d   1       3.696   0.684  -2.424  0.00  0.00    -0.035 A 
ATOM     15  C   UNL d   1       4.881   0.794  -1.506  0.00  0.00     0.050 C 
ATOM     16  C   UNL d   1       3.961   0.689  -3.810  0.00  0.00     0.009 A 
ATOM     17  C   UNL d   1       2.937   0.551  -4.743  0.00  0.00     0.001 A 
ATOM     18  C   UNL d   1       1.624   0.410  -4.311  0.00  0.00     0.002 A 
ATOM     19  C   UNL d   1       1.342   0.425  -2.944  0.00  0.00     0.030 A 
ENDBRANCH  11  13
ENDBRANCH   1  11
TORSDOF 3
