REMARK  3 active torsions:
REMARK  status: ('A' for Active; 'I' for Inactive)
REMARK    1  A    between atoms: C_10  and  N_1 
REMARK    2  A    between atoms: C_9  and  C_3 
REMARK    3  A    between atoms: C_6  and  C_9 
ROOT
ATOM      1  N   UNL d   1       0.209  -1.254   0.310  0.00  0.00    -0.262 N 
ATOM      2  C   UNL d   1       1.046  -0.154   0.416  0.00  0.00     0.153 A 
ATOM      3  C   UNL d   1      -1.401   0.470   0.209  0.00  0.00     0.077 A 
ATOM      4  C   UNL d   1      -1.140  -0.995   0.113  0.00  0.00     0.271 A 
ATOM      5  S   UNL d   1       0.088   1.325   0.334  0.00  0.00    -0.054 SA
ATOM      6  S   UNL d   1       2.714  -0.098   0.513  0.00  0.00    -0.052 SA
ATOM      7  O   UNL d   1      -2.020  -1.826  -0.084  0.00  0.00    -0.266 OA
ENDROOT
BRANCH   3   8
ATOM      8  C   UNL d   1      -2.599   1.071   0.231  0.00  0.00     0.042 C 
BRANCH   8   9
ATOM      9  C   UNL d   1      -3.886   0.402   0.206  0.00  0.00     0.039 C 
ATOM     10  C   UNL d   1      -4.826   0.655  -0.922  0.00  0.00     0.197 C 
ATOM     11  C   UNL d   1      -6.037  -0.211  -0.999  0.00  0.00     0.055 A 
ATOM     12  O   UNL d   1      -4.576   1.544  -1.726  0.00  0.00    -0.286 OA
ATOM     13  C   UNL d   1      -6.947  -0.209  -2.077  0.00  0.00    -0.044 A 
ATOM     14  C   UNL d   1      -6.264  -1.078   0.082  0.00  0.00     0.090 A 
ATOM     15  C   UNL d   1      -8.059  -1.079  -2.023  0.00  0.00     0.014 A 
ATOM     16  C   UNL d   1      -6.866   0.667  -3.297  0.00  0.00     0.049 C 
ATOM     17  C   UNL d   1      -8.270  -1.950  -0.949  0.00  0.00    -0.059 A 
ATOM     18  C   UNL d   1      -7.361  -1.942   0.105  0.00  0.00     0.045 A 
ATOM     19  C   UNL d   1      -9.466  -2.854  -0.933  0.00  0.00     0.048 C 
ATOM     20  O   UNL d   1      -5.459  -1.139   1.193  0.00  0.00    -0.321 OA
ATOM     21  C   UNL d   1      -4.289  -0.432   1.169  0.00  0.00     0.158 C 
ENDBRANCH   8   9
ENDBRANCH   3   8
BRANCH   1  22
ATOM     22  C   UNL d   1       0.651  -2.604   0.379  0.00  0.00     0.045 A 
ATOM     23  C   UNL d   1       1.325  -3.075   1.512  0.00  0.00     0.054 A 
ATOM     24  C   UNL d   1       1.708  -4.415   1.584  0.00  0.00     0.036 A 
ATOM     25 CL   UNL d   1       2.490  -5.001   3.001  0.00  0.00    -0.084 Cl
ATOM     26  C   UNL d   1       1.445  -5.287   0.530  0.00  0.00     0.024 A 
ATOM     27  C   UNL d   1       0.767  -4.826  -0.597  0.00  0.00     0.004 A 
ATOM     28  C   UNL d   1       0.354  -3.494  -0.664  0.00  0.00     0.030 A 
ENDBRANCH   1  22
TORSDOF 3
