REMARK  7 active torsions:
REMARK  status: ('A' for Active; 'I' for Inactive)
REMARK    1  A    between atoms: C_11  and  N_1 
REMARK    2  A    between atoms: C_2  and  S_14 
REMARK    3  A    between atoms: C_5  and  O_16 
REMARK       I    between atoms: N_15  and  C_5 
REMARK    4  A    between atoms: O_16  and  N_9 
REMARK    5  A    between atoms: C_12  and  C_11 
REMARK    6  A    between atoms: S_14  and  C_25 
REMARK    7  A    between atoms: C_24  and  N_15 
ROOT
ATOM      1  N   UNL d   1       0.793   0.064   0.217  0.00  0.00     0.103 N 
ATOM      2  C   UNL d   1       0.035   1.292   0.508  0.00  0.00     0.229 C 
ATOM      3  C   UNL d   1      -0.032  -1.108   0.548  0.00  0.00     0.229 C 
ATOM      4  C   UNL d   1      -1.915   0.129  -0.705  0.00  0.00     0.015 C 
ATOM      5  C   UNL d   1      -1.282   1.433  -0.269  0.00  0.00     0.090 C 
ATOM      6  C   UNL d   1      -1.336  -1.194  -0.250  0.00  0.00     0.090 C 
ATOM      7  N   UNL d   1      -2.939   0.056  -1.507  0.00  0.00    -0.264 N 
ATOM      8  HN  UNL d   1      -3.327  -0.822  -1.850  1.00  0.00     0.194 HD
ATOM      9  C   UNL d   1      -0.273  -1.150   2.070  0.00  0.00     0.036 C 
ATOM     10  C   UNL d   1      -0.171   1.383   2.034  0.00  0.00     0.036 C 
ATOM     11  C   UNL d   1      -0.818   0.149   2.651  0.00  0.00     0.004 C 
ENDROOT
BRANCH   7  12
ATOM     12  O   UNL d   1      -3.452   1.325  -1.851  0.00  0.00    -0.181 OA
BRANCH  12  13
ATOM     13  C   UNL d   1      -3.833   1.308  -3.166  0.00  0.00     0.387 C 
ATOM     14  N   UNL d   1      -5.169   1.489  -3.437  0.00  0.00    -0.301 N 
ATOM     15  H   UNL d   1      -5.332   1.485  -4.435  0.00  0.00     0.171 HD
ATOM     16  O   UNL d   1      -3.031   1.179  -4.097  0.00  0.00    -0.236 OA
BRANCH  14  17
ATOM     17  C   UNL d   1      -6.303   1.469  -2.603  0.00  0.00     0.036 A 
ATOM     18  C   UNL d   1      -6.270   1.399  -1.212  0.00  0.00     0.031 A 
ATOM     19  C   UNL d   1      -7.455   1.282  -0.474  0.00  0.00     0.021 A 
ATOM     20  C   UNL d   1      -8.693   1.216  -1.115  0.00  0.00     0.009 A 
ATOM     21  C   UNL d   1      -8.739   1.348  -2.504  0.00  0.00     0.021 A 
ATOM     22  C   UNL d   1      -7.553   1.474  -3.239  0.00  0.00     0.031 A 
BRANCH  20  23
ATOM     23  S   UNL d   1     -10.202   1.013  -0.198  0.00  0.00    -0.016 SA
BRANCH  23  24
ATOM     24  C   UNL d   1      -9.956  -0.621   0.524  0.00  0.00     0.448 C 
ATOM     25  F   UNL d   1      -8.745  -1.164   0.259  0.00  0.00    -0.160 F 
ATOM     26  F   UNL d   1     -10.079  -0.568   1.873  0.00  0.00    -0.160 F 
ATOM     27  F   UNL d   1     -10.891  -1.492   0.073  0.00  0.00    -0.160 F 
ENDBRANCH  23  24
ENDBRANCH  20  23
ENDBRANCH  14  17
ENDBRANCH  12  13
ENDBRANCH   7  12
BRANCH   1  28
ATOM     28  C   UNL d   1       1.332  -0.020  -1.155  0.00  0.00     0.319 C 
BRANCH  28  29
ATOM     29  C   UNL d   1       2.305   1.081  -1.480  0.00  0.00     0.011 A 
ATOM     30  S   UNL d   1       1.953   2.183  -2.749  0.00  0.00    -0.105 SA
ATOM     31  C   UNL d   1       3.418   3.027  -2.510  0.00  0.00     0.050 A 
ATOM     32  C   UNL d   1       4.170   2.481  -1.493  0.00  0.00     0.008 A 
ATOM     33  C   UNL d   1       3.527   1.355  -0.900  0.00  0.00     0.017 A 
ENDBRANCH  28  29
ENDBRANCH   1  28
TORSDOF 7
