REMARK  3 active torsions:
REMARK  status: ('A' for Active; 'I' for Inactive)
REMARK    1  A    between atoms: C_6  and  C_1 
REMARK    2  A    between atoms: C_5  and  C_2 
REMARK       I    between atoms: N_9  and  C_5 
REMARK    3  A    between atoms: C_14  and  N_9 
ROOT
ATOM      1  C   UNL d   1      -1.568  -0.483   0.426  0.00  0.00     0.086 A 
ATOM      2  C   UNL d   1      -0.267  -1.061   0.191  0.00  0.00     0.093 A 
ATOM      3  N   UNL d   1      -1.446   0.846   0.594  0.00  0.00    -0.259 N 
ATOM      4  HN  UNL d   1      -2.191   1.494   0.852  1.00  0.00     0.195 HD
ATOM      5  O   UNL d   1      -0.143   1.167   0.355  0.00  0.00    -0.241 OA
ATOM      6  C   UNL d   1       0.569   0.045   0.103  0.00  0.00     0.090 A 
ATOM      7  C   UNL d   1       1.996   0.303  -0.184  0.00  0.00     0.080 C 
ENDROOT
BRANCH   2   8
ATOM      8  C   UNL d   1       0.117  -2.466   0.066  0.00  0.00     0.261 C 
ATOM      9  N   UNL d   1       1.384  -2.726   0.569  0.00  0.00    -0.323 N 
ATOM     10  H   UNL d   1       1.902  -1.931   0.911  0.00  0.00     0.169 HD
ATOM     11  O   UNL d   1      -0.638  -3.298  -0.412  0.00  0.00    -0.267 OA
BRANCH   9  12
ATOM     12  C   UNL d   1       2.028  -3.959   0.783  0.00  0.00     0.038 A 
ATOM     13  C   UNL d   1       1.381  -5.193   0.763  0.00  0.00     0.075 A 
ATOM     14  C   UNL d   1       2.094  -6.340   1.114  0.00  0.00     0.157 A 
ATOM     15  F   UNL d   1       1.455  -7.522   1.150  0.00  0.00    -0.203 F 
ATOM     16  C   UNL d   1       3.441  -6.277   1.451  0.00  0.00     0.154 A 
ATOM     17  C   UNL d   1       4.105  -5.060   1.432  0.00  0.00     0.048 A 
ATOM     18  F   UNL d   1       4.109  -7.382   1.804  0.00  0.00    -0.203 F 
ATOM     19  C   UNL d   1       3.396  -3.901   1.108  0.00  0.00     0.032 A 
ENDBRANCH   9  12
ENDBRANCH   2   8
BRANCH   1  20
ATOM     20  C   UNL d   1      -2.909  -1.073   0.571  0.00  0.00     0.037 A 
ATOM     21  C   UNL d   1      -3.179  -2.124   1.470  0.00  0.00     0.048 A 
ATOM     22 CL   UNL d   1      -1.977  -2.834   2.497  0.00  0.00    -0.083 Cl
ATOM     23  C   UNL d   1      -4.489  -2.601   1.653  0.00  0.00     0.025 A 
ATOM     24  C   UNL d   1      -5.562  -2.008   0.996  0.00  0.00     0.003 A 
ATOM     25  C   UNL d   1      -5.326  -0.957   0.122  0.00  0.00     0.025 A 
ATOM     26  C   UNL d   1      -4.016  -0.508  -0.110  0.00  0.00     0.048 A 
ATOM     27 CL   UNL d   1      -3.870   0.763  -1.287  0.00  0.00    -0.083 Cl
ENDBRANCH   1  20
TORSDOF 3
