REMARK  5 active torsions:
REMARK  status: ('A' for Active; 'I' for Inactive)
REMARK    1  A    between atoms: S_8  and  C_1 
REMARK    2  A    between atoms: C_9  and  N_2 
REMARK    3  A    between atoms: C_6  and  S_8 
REMARK    4  A    between atoms: C_13  and  C_9 
REMARK    5  A    between atoms: C_14  and  C_9 
ROOT
ATOM      1  N   UNL d   1      -4.514   1.777  -0.339  0.00  0.00     0.104 N 
ATOM      2  C   UNL d   1      -4.768  -0.327  -0.556  0.00  0.00     0.111 C 
ATOM      3  C   UNL d   1      -5.465   0.796   0.244  0.00  0.00     0.291 C 
ATOM      4  C   UNL d   1      -4.237   0.817  -1.442  0.00  0.00     0.291 C 
ENDROOT
BRANCH   1   5
ATOM      5  C   UNL d   1      -5.212   2.986  -0.846  0.00  0.00     0.289 C 
BRANCH   5   6
ATOM      6  C   UNL d   1      -5.637   3.935   0.282  0.00  0.00    -0.021 A 
ATOM      7  C   UNL d   1      -4.696   4.475   1.175  0.00  0.00     0.010 A 
ATOM      8  C   UNL d   1      -5.070   5.442   2.111  0.00  0.00     0.001 A 
ATOM      9  C   UNL d   1      -6.392   5.875   2.178  0.00  0.00     0.000 A 
ATOM     10  C   UNL d   1      -7.346   5.328   1.322  0.00  0.00     0.001 A 
ATOM     11  C   UNL d   1      -6.972   4.364   0.379  0.00  0.00     0.010 A 
ENDBRANCH   5   6
BRANCH   5  12
ATOM     12  C   UNL d   1      -4.385   3.761  -1.886  0.00  0.00    -0.021 A 
ATOM     13  C   UNL d   1      -5.040   4.487  -2.898  0.00  0.00     0.010 A 
ATOM     14  C   UNL d   1      -4.315   5.192  -3.860  0.00  0.00     0.001 A 
ATOM     15  C   UNL d   1      -2.921   5.181  -3.823  0.00  0.00     0.000 A 
ATOM     16  C   UNL d   1      -2.253   4.486  -2.816  0.00  0.00     0.001 A 
ATOM     17  C   UNL d   1      -2.981   3.793  -1.852  0.00  0.00     0.010 A 
ENDBRANCH   5  12
ENDBRANCH   1   5
BRANCH   2  18
ATOM     18  S   UNL d   1      -3.405  -1.183   0.325  0.00  0.00    -0.096 SA
BRANCH  18  19
ATOM     19  C   UNL d   1      -4.299  -2.098   1.518  0.00  0.00     0.113 A 
ATOM     20  N   UNL d   1      -5.603  -2.014   1.643  0.00  0.00    -0.344 N 
ATOM     21  C   UNL d   1      -6.009  -2.751   2.746  0.00  0.00     0.050 A 
ATOM     22  HN  UNL d   1      -6.221  -1.488   1.025  1.00  0.00     0.167 HD
ATOM     23  C   UNL d   1      -7.326  -2.846   3.240  0.00  0.00     0.031 A 
ATOM     24  C   UNL d   1      -4.993  -3.434   3.418  0.00  0.00     0.034 A 
ATOM     25  C   UNL d   1      -7.587  -3.599   4.390  0.00  0.00     0.002 A 
ATOM     26  C   UNL d   1      -6.557  -4.270   5.042  0.00  0.00     0.002 A 
ATOM     27  C   UNL d   1      -5.245  -4.207   4.563  0.00  0.00     0.021 A 
ATOM     28  S   UNL d   1      -3.499  -3.135   2.621  0.00  0.00    -0.063 SA
ENDBRANCH  18  19
ENDBRANCH   2  18
TORSDOF 5
