REMARK  5 active torsions:
REMARK  status: ('A' for Active; 'I' for Inactive)
REMARK    1  A    between atoms: N_2  and  S_1 
REMARK    2  A    between atoms: C_5  and  S_1 
REMARK    3  A    between atoms: N_3  and  N_2 
REMARK       I    between atoms: C_4  and  N_3 
REMARK    4  A    between atoms: C_8  and  C_4 
REMARK    5  A    between atoms: N_10  and  C_9 
ROOT
ATOM      1  N   UNL d   1       0.867   0.854   2.421  0.00  0.00    -0.256 N 
ATOM      2  C   UNL d   1       0.721   1.608   3.570  0.00  0.00     0.270 C 
ATOM      3  O   UNL d   1       1.370   1.392   4.593  0.00  0.00    -0.266 OA
ATOM      4  H   UNL d   1       0.403   1.075   1.544  0.00  0.00     0.191 HD
ENDROOT
BRANCH   1   5
ATOM      5  N   UNL d   1       1.819  -0.236   2.397  0.00  0.00    -0.220 N 
ATOM      6  H   UNL d   1       2.368  -0.437   3.239  0.00  0.00     0.200 HD
BRANCH   5   7
ATOM      7  S   UNL d   1       2.063  -1.057   0.949  0.00  0.00     0.276 S 
ATOM      8  O   UNL d   1       2.689  -0.132   0.024  0.00  0.00    -0.199 OA
ATOM      9  O   UNL d   1       0.818  -1.711   0.602  0.00  0.00    -0.199 OA
BRANCH   7  10
ATOM     10  C   UNL d   1       3.249  -2.304   1.374  0.00  0.00     0.081 A 
ATOM     11  C   UNL d   1       2.805  -3.574   1.761  0.00  0.00     0.027 A 
ATOM     12  C   UNL d   1       3.740  -4.579   2.022  0.00  0.00     0.025 A 
ATOM     13  C   UNL d   1       5.103  -4.313   1.886  0.00  0.00     0.034 A 
ATOM     14  C   UNL d   1       5.543  -3.052   1.482  0.00  0.00     0.025 A 
ATOM     15 CL   UNL d   1       6.250  -5.554   2.209  0.00  0.00    -0.084 Cl
ATOM     16  C   UNL d   1       4.614  -2.042   1.218  0.00  0.00     0.027 A 
ENDBRANCH   7  10
ENDBRANCH   5   7
ENDBRANCH   1   5
BRANCH   2  17
ATOM     17  C   UNL d   1      -0.248   2.743   3.492  0.00  0.00     0.033 A 
ATOM     18  C   UNL d   1      -1.288   2.788   2.559  0.00  0.00     0.019 A 
ATOM     19  C   UNL d   1      -2.148   3.900   2.503  0.00  0.00     0.030 A 
ATOM     20  C   UNL d   1      -2.027   4.994   3.376  0.00  0.00     0.029 A 
ATOM     21  C   UNL d   1      -0.995   4.901   4.326  0.00  0.00     0.030 A 
ATOM     22  C   UNL d   1      -0.119   3.803   4.387  0.00  0.00     0.019 A 
BRANCH  20  23
ATOM     23  N   UNL d   1      -2.902   6.071   3.355  0.00  0.00    -0.390 N 
ATOM     24  C   UNL d   1      -2.455   7.415   3.724  0.00  0.00     0.149 C 
ATOM     25  C   UNL d   1      -4.156   6.045   2.604  0.00  0.00     0.149 C 
ENDBRANCH  20  23
ENDBRANCH   2  17
TORSDOF 5
