REMARK  8 active torsions:
REMARK  status: ('A' for Active; 'I' for Inactive)
REMARK    1  A    between atoms: C_7  and  C_1 
REMARK    2  A    between atoms: C_6  and  O_8 
REMARK       I    between atoms: N_10  and  C_6 
REMARK    3  A    between atoms: O_8  and  C_7 
REMARK    4  A    between atoms: C_16  and  N_10 
REMARK    5  A    between atoms: O_15  and  C_17 
REMARK    6  A    between atoms: C_18  and  C_16 
REMARK    7  A    between atoms: C_17  and  C_19 
REMARK    8  A    between atoms: C_19  and  C_18 
ROOT
ATOM      1  C   UNL d   1      -0.022   1.871  -0.004  0.00  0.00     0.078 A 
ATOM      2  C   UNL d   1      -0.940   2.275  -2.199  0.00  0.00    -0.018 A 
ATOM      3  C   UNL d   1      -1.837   1.368  -1.515  0.00  0.00    -0.018 A 
ATOM      4  C   UNL d   1       0.136   2.592  -1.342  0.00  0.00    -0.036 A 
ATOM      5  C   UNL d   1      -1.327   1.103  -0.224  0.00  0.00    -0.036 A 
ATOM      6  C   UNL d   1      -3.030   0.801  -1.933  0.00  0.00     0.013 A 
ATOM      7  C   UNL d   1      -1.010   2.817  -3.473  0.00  0.00     0.013 A 
ATOM      8  C   UNL d   1       1.147   3.447  -1.744  0.00  0.00     0.009 A 
ATOM      9  C   UNL d   1      -2.005   0.276   0.658  0.00  0.00     0.009 A 
ATOM     10  C   UNL d   1      -3.718  -0.035  -1.048  0.00  0.00     0.001 A 
ATOM     11  C   UNL d   1      -3.211  -0.291   0.236  0.00  0.00     0.001 A 
ATOM     12  C   UNL d   1       1.076   3.992  -3.031  0.00  0.00     0.001 A 
ATOM     13  C   UNL d   1       0.009   3.678  -3.889  0.00  0.00     0.001 A 
ENDROOT
BRANCH   1  14
ATOM     14  C   UNL d   1      -0.082   2.831   1.196  0.00  0.00     0.194 C 
BRANCH  14  15
ATOM     15  O   UNL d   1      -1.260   3.635   1.052  0.00  0.00    -0.303 OA
BRANCH  15  16
ATOM     16  C   UNL d   1      -2.052   3.705   2.138  0.00  0.00     0.360 C 
ATOM     17  O   UNL d   1      -1.667   3.847   3.282  0.00  0.00    -0.239 OA
ATOM     18  N   UNL d   1      -3.336   3.537   1.718  0.00  0.00    -0.337 N 
ATOM     19  H   UNL d   1      -3.439   3.218   0.763  0.00  0.00     0.164 HD
BRANCH  18  20
ATOM     20  C   UNL d   1      -4.487   3.727   2.558  0.00  0.00     0.125 C 
BRANCH  20  21
ATOM     21  C   UNL d   1      -5.245   2.440   2.869  0.00  0.00     0.022 C 
BRANCH  21  22
ATOM     22  C   UNL d   1      -4.423   1.436   3.681  0.00  0.00     0.028 C 
BRANCH  22  23
ATOM     23  C   UNL d   1      -5.227   0.192   4.042  0.00  0.00     0.164 C 
BRANCH  23  24
ATOM     24  O   UNL d   1      -5.659  -0.471   2.861  0.00  0.00    -0.401 OA
ATOM     25  H   UNL d   1      -6.191  -1.235   3.142  0.00  0.00     0.209 HD
ENDBRANCH  23  24
ENDBRANCH  22  23
ENDBRANCH  21  22
ENDBRANCH  20  21
ENDBRANCH  18  20
ENDBRANCH  15  16
ENDBRANCH  14  15
ENDBRANCH   1  14
TORSDOF 8
