REMARK  5 active torsions:
REMARK  status: ('A' for Active; 'I' for Inactive)
REMARK    1  A    between atoms: N_6  and  S_1 
REMARK    2  A    between atoms: C_17  and  S_1 
REMARK    3  A    between atoms: C_2  and  S_8 
REMARK    4  A    between atoms: C_9  and  N_6 
REMARK    5  A    between atoms: S_8  and  C_14 
ROOT
ATOM      1  C   UNL d   1      -2.783   0.590  -2.491  0.00  0.00     0.096 A 
ATOM      2  C   UNL d   1      -4.165   0.469  -2.321  0.00  0.00     0.085 A 
ATOM      3  N   UNL d   1      -2.100   1.683  -2.083  0.00  0.00    -0.349 N 
ATOM      4  HN  UNL d   1      -1.100   1.765  -2.270  1.00  0.00     0.166 HD
ATOM      5  C   UNL d   1      -4.879   1.548  -1.752  0.00  0.00    -0.026 A 
ATOM      6  C   UNL d   1      -4.149   2.659  -1.251  0.00  0.00    -0.002 A 
ATOM      7  C   UNL d   1      -4.834  -0.745  -2.679  0.00  0.00     0.103 C 
ATOM      8  C   UNL d   1      -2.748   2.655  -1.430  0.00  0.00     0.043 A 
ATOM      9  N   UNL d   1      -5.402  -1.727  -2.943  0.00  0.00    -0.191 NA
ATOM     10  C   UNL d   1      -6.385   1.512  -1.613  0.00  0.00     0.050 C 
ATOM     11  C   UNL d   1      -4.737   3.747  -0.558  0.00  0.00     0.014 A 
ATOM     12  C   UNL d   1      -1.994   3.686  -0.889  0.00  0.00     0.030 A 
ATOM     13  C   UNL d   1      -3.957   4.770  -0.021  0.00  0.00     0.001 A 
ATOM     14  C   UNL d   1      -2.579   4.733  -0.176  0.00  0.00     0.002 A 
ENDROOT
BRANCH   1  15
ATOM     15  S   UNL d   1      -1.796  -0.728  -3.223  0.00  0.00    -0.069 SA
BRANCH  15  16
ATOM     16  C   UNL d   1      -0.215   0.057  -3.525  0.00  0.00     0.029 A 
ATOM     17  C   UNL d   1       0.911  -0.168  -2.709  0.00  0.00     0.040 A 
ATOM     18  C   UNL d   1       2.143   0.409  -3.035  0.00  0.00     0.026 A 
ATOM     19  C   UNL d   1       2.278   1.173  -4.195  0.00  0.00     0.002 A 
ATOM     20  C   UNL d   1       1.175   1.385  -5.019  0.00  0.00     0.001 A 
ATOM     21  C   UNL d   1      -0.065   0.833  -4.684  0.00  0.00     0.021 A 
BRANCH  17  22
ATOM     22  N   UNL d   1       0.859  -0.993  -1.527  0.00  0.00    -0.180 NA
ATOM     23  H   UNL d   1       0.173  -1.739  -1.663  0.00  0.00     0.146 HD
BRANCH  22  24
ATOM     24  S   UNL d   1       0.416  -0.173  -0.096  0.00  0.00     0.245 S 
ATOM     25  O   UNL d   1      -1.024  -0.246   0.032  0.00  0.00    -0.206 OA
ATOM     26  O   UNL d   1       1.145   1.072   0.021  0.00  0.00    -0.206 OA
BRANCH  24  27
ATOM     27  C   UNL d   1       1.079  -1.302   1.110  0.00  0.00     0.074 A 
ATOM     28  C   UNL d   1       2.385  -1.136   1.577  0.00  0.00     0.025 A 
ATOM     29  C   UNL d   1       2.892  -2.035   2.515  0.00  0.00     0.002 A 
ATOM     30  C   UNL d   1       2.095  -3.082   2.986  0.00  0.00     0.000 A 
ATOM     31  C   UNL d   1       0.784  -3.228   2.533  0.00  0.00     0.002 A 
ATOM     32  C   UNL d   1       0.269  -2.334   1.596  0.00  0.00     0.025 A 
ENDBRANCH  24  27
ENDBRANCH  22  24
ENDBRANCH  17  22
ENDBRANCH  15  16
ENDBRANCH   1  15
TORSDOF 5
