REMARK  2 active torsions:
REMARK  status: ('A' for Active; 'I' for Inactive)
REMARK    1  A    between atoms: C_7  and  N_1 
REMARK    2  A    between atoms: C_8  and  C_3 
ROOT
ATOM      1  N   UNL d   1      -0.003  -1.195  -0.027  0.00  0.00    -0.238 N 
ATOM      2  C   UNL d   1       1.314  -0.706  -0.032  0.00  0.00     0.136 A 
ATOM      3  C   UNL d   1       1.227   0.682   0.043  0.00  0.00     0.070 A 
ATOM      4  N   UNL d   1      -0.894  -0.183  -0.056  0.00  0.00    -0.296 N 
ATOM      5  HN  UNL d   1      -1.910  -0.260  -0.115  1.00  0.00     0.187 HD
ATOM      6  C   UNL d   1      -0.176   0.939   0.009  0.00  0.00     0.039 A 
ATOM      7  N   UNL d   1       2.425  -1.486  -0.131  0.00  0.00    -0.383 N 
ATOM      8  C   UNL d   1      -0.902   2.237  -0.023  0.00  0.00     0.071 C 
ATOM      9  H   UNL d   1       2.396  -2.495  -0.256  0.00  0.00     0.157 HD
ATOM     10  H   UNL d   1       3.319  -1.149   0.227  0.00  0.00     0.157 HD
ENDROOT
BRANCH   1  11
ATOM     11  C   UNL d   1      -0.465  -2.535   0.143  0.00  0.00     0.081 A 
ATOM     12  C   UNL d   1       0.295  -3.418   0.934  0.00  0.00     0.057 A 
ATOM     13  C   UNL d   1      -0.153  -4.717   1.178  0.00  0.00     0.036 A 
ATOM     14 CL   UNL d   1       0.800  -5.780   2.138  0.00  0.00    -0.084 Cl
ATOM     15  C   UNL d   1      -1.366  -5.154   0.663  0.00  0.00     0.026 A 
ATOM     16  C   UNL d   1      -2.133  -4.285  -0.114  0.00  0.00     0.028 A 
ATOM     17  C   UNL d   1      -1.691  -2.980  -0.385  0.00  0.00     0.062 A 
ATOM     18 CL   UNL d   1      -2.686  -2.075  -1.475  0.00  0.00    -0.082 Cl
ENDBRANCH   1  11
BRANCH   3  19
ATOM     19  C   UNL d   1       2.354   1.595   0.063  0.00  0.00     0.110 C 
ATOM     20  S   UNL d   1       2.321   3.007   0.931  0.00  0.00    -0.060 SA
ATOM     21  N   UNL d   1       3.466   1.236  -0.644  0.00  0.00    -0.389 N 
ATOM     22  H   UNL d   1       3.452   0.420  -1.247  0.00  0.00     0.157 HD
ATOM     23  H   UNL d   1       4.250   1.873  -0.699  0.00  0.00     0.157 HD
ENDBRANCH   3  19
TORSDOF 2
