REMARK  4 active torsions:
REMARK  status: ('A' for Active; 'I' for Inactive)
REMARK    1  A    between atoms: O_2  and  C_1 
REMARK    2  A    between atoms: C_5  and  C_1 
REMARK    3  A    between atoms: C_3  and  O_2 
REMARK    4  A    between atoms: C_6  and  C_7 
ROOT
ATOM      1  C   UNL d   1       0.894  -0.084  -0.006  0.00  0.00     0.298 C 
ATOM      2  O   UNL d   1       1.785   0.159  -0.808  0.00  0.00    -0.259 OA
ENDROOT
BRANCH   1   3
ATOM      3  O   UNL d   1       0.379  -1.335   0.276  0.00  0.00    -0.274 OA
BRANCH   3   4
ATOM      4  C   UNL d   1      -0.093  -2.171  -0.765  0.00  0.00     0.097 A 
ATOM      5  C   UNL d   1      -0.471  -3.474  -0.422  0.00  0.00     0.045 A 
ATOM      6  C   UNL d   1      -1.139  -4.276  -1.351  0.00  0.00     0.028 A 
ATOM      7 BR   UNL d   1      -0.148  -4.180   1.310  0.00  0.00    -0.048 Br
ATOM      8  C   UNL d   1      -1.442  -3.780  -2.627  0.00  0.00    -0.061 A 
ATOM      9  C   UNL d   1      -1.014  -2.494  -2.977  0.00  0.00     0.009 A 
ATOM     10  C   UNL d   1      -2.234  -4.615  -3.589  0.00  0.00     0.048 C 
ATOM     11  C   UNL d   1      -0.346  -1.688  -2.051  0.00  0.00     0.039 A 
ENDBRANCH   3   4
ENDBRANCH   1   3
BRANCH   1  12
ATOM     12  C   UNL d   1       0.136   0.954   0.748  0.00  0.00     0.040 A 
ATOM     13  C   UNL d   1       0.472   2.299   0.569  0.00  0.00     0.018 A 
ATOM     14  C   UNL d   1      -0.316   3.308   1.142  0.00  0.00     0.009 A 
ATOM     15  C   UNL d   1      -1.459   3.005   1.907  0.00  0.00    -0.051 A 
ATOM     16  C   UNL d   1      -1.752   1.646   2.110  0.00  0.00     0.009 A 
ATOM     17  C   UNL d   1      -0.967   0.634   1.544  0.00  0.00     0.018 A 
BRANCH  15  18
ATOM     18  C   UNL d   1      -2.346   4.128   2.478  0.00  0.00    -0.024 C 
ATOM     19  C   UNL d   1      -3.570   3.605   3.266  0.00  0.00     0.019 C 
ATOM     20  C   UNL d   1      -1.523   5.010   3.439  0.00  0.00     0.019 C 
ATOM     21  C   UNL d   1      -2.895   5.009   1.334  0.00  0.00     0.019 C 
ENDBRANCH  15  18
ENDBRANCH   1  12
TORSDOF 4
