REMARK  3 active torsions:
REMARK  status: ('A' for Active; 'I' for Inactive)
REMARK       I    between atoms: N_2  and  C_1 
REMARK       I    between atoms: N_4  and  C_1 
REMARK    1  A    between atoms: C_6  and  N_2 
REMARK    2  A    between atoms: C_3  and  C_5 
REMARK    3  A    between atoms: C_8  and  N_7 
ROOT
ATOM      1  C   UNL d   1       1.016  -0.137  -0.221  0.00  0.00     0.323 C 
ATOM      2  N   UNL d   1       0.594  -0.363   1.073  0.00  0.00    -0.307 N 
ATOM      3  N   UNL d   1       0.250   0.772  -0.938  0.00  0.00    -0.332 N 
ATOM      4  N   UNL d   1      -2.053   1.442  -2.631  0.00  0.00    -0.366 N 
ATOM      5  O   UNL d   1       1.988  -0.698  -0.721  0.00  0.00    -0.247 OA
ATOM      6  C   UNL d   1      -0.898   1.555  -0.433  0.00  0.00     0.147 C 
ATOM      7  C   UNL d   1      -2.227   1.298  -1.182  0.00  0.00     0.144 C 
ATOM      8  C   UNL d   1       0.003   0.266  -3.377  0.00  0.00     0.040 C 
ATOM      9  C   UNL d   1       0.691   1.093  -2.296  0.00  0.00     0.129 C 
ATOM     10  C   UNL d   1      -1.522   0.289  -3.349  0.00  0.00     0.126 C 
ATOM     11  H   UNL d   1      -0.407  -0.491   1.125  0.00  0.00     0.170 HD
ENDROOT
BRANCH   2  12
ATOM     12  C   UNL d   1       1.314  -1.239   1.932  0.00  0.00     0.064 A 
ATOM     13  C   UNL d   1       0.610  -2.300   2.531  0.00  0.00     0.061 A 
ATOM     14 CL   UNL d   1      -1.101  -2.469   2.312  0.00  0.00    -0.082 Cl
ATOM     15  C   UNL d   1       1.277  -3.270   3.279  0.00  0.00     0.026 A 
ATOM     16  C   UNL d   1       2.654  -3.175   3.460  0.00  0.00     0.002 A 
ATOM     17  C   UNL d   1       3.351  -2.087   2.935  0.00  0.00     0.009 A 
ATOM     18  C   UNL d   1       2.691  -1.091   2.191  0.00  0.00    -0.034 A 
ATOM     19  C   UNL d   1       3.508   0.090   1.737  0.00  0.00     0.050 C 
ENDBRANCH   2  12
BRANCH   4  20
ATOM     20  C   UNL d   1      -2.581   2.522  -3.301  0.00  0.00     0.102 A 
ATOM     21  N   UNL d   1      -3.652   3.161  -2.777  0.00  0.00    -0.352 N 
ATOM     22  C   UNL d   1      -4.205   4.188  -3.467  0.00  0.00     0.106 A 
ATOM     23  HN  UNL d   1      -4.037   2.874  -1.877  1.00  0.00     0.166 HD
ATOM     24  C   UNL d   1      -3.718   4.672  -4.668  0.00  0.00     0.063 A 
ATOM     25  C   UNL d   1      -2.587   4.044  -5.186  0.00  0.00     0.021 A 
ATOM     26  C   UNL d   1      -2.029   2.966  -4.503  0.00  0.00     0.049 A 
BRANCH  24  27
ATOM     27  C   UNL d   1      -4.371   5.815  -5.373  0.00  0.00     0.418 C 
ATOM     28  F   UNL d   1      -5.484   6.284  -4.744  0.00  0.00    -0.166 F 
ATOM     29  F   UNL d   1      -3.541   6.886  -5.508  0.00  0.00    -0.166 F 
ATOM     30  F   UNL d   1      -4.768   5.492  -6.636  0.00  0.00    -0.166 F 
ENDBRANCH  24  27
ENDBRANCH   4  20
TORSDOF 3
