REMARK  8 active torsions:
REMARK  status: ('A' for Active; 'I' for Inactive)
REMARK    1  A    between atoms: C_3  and  C_1 
REMARK    2  A    between atoms: C_13  and  N_2 
REMARK    3  A    between atoms: N_7  and  O_12 
REMARK    4  A    between atoms: C_15  and  C_10 
REMARK    5  A    between atoms: N_25  and  C_10 
REMARK    6  A    between atoms: C_11  and  C_14 
REMARK    7  A    between atoms: O_12  and  C_11 
REMARK    8  A    between atoms: C_19  and  C_13 
ROOT
ATOM      1  C   UNL d   1      -3.671   3.574  -1.508  0.00  0.00     0.042 A 
ATOM      2  C   UNL d   1      -2.831   2.474  -1.252  0.00  0.00     0.026 A 
ATOM      3  C   UNL d   1      -1.814   2.109  -2.149  0.00  0.00    -0.039 A 
ATOM      4  C   UNL d   1      -3.485   4.320  -2.677  0.00  0.00     0.017 A 
ATOM      5  C   UNL d   1      -2.478   3.961  -3.578  0.00  0.00     0.002 A 
ATOM      6  C   UNL d   1      -1.656   2.861  -3.320  0.00  0.00     0.009 A 
ENDROOT
BRANCH   1   7
ATOM      7  C   UNL d   1      -4.768   3.847  -0.536  0.00  0.00     0.315 C 
ATOM      8  O   UNL d   1      -4.930   3.168   0.473  0.00  0.00    -0.257 OA
BRANCH   7   9
ATOM      9  O   UNL d   1      -5.558   4.890  -0.933  0.00  0.00    -0.193 OA
BRANCH   9  10
ATOM     10  N   UNL d   1      -6.900   4.474  -0.822  0.00  0.00    -0.246 N 
ATOM     11  C   UNL d   1      -7.746   5.455  -0.890  0.00  0.00     0.109 C 
ATOM     12  HN  UNL d   1      -7.178   3.500  -0.701  1.00  0.00     0.196 HD
BRANCH  11  13
ATOM     13  C   UNL d   1      -9.189   5.075  -1.028  0.00  0.00     0.004 A 
ATOM     14  C   UNL d   1      -9.652   3.876  -0.476  0.00  0.00     0.015 A 
ATOM     15  C   UNL d   1     -10.932   3.412  -0.786  0.00  0.00     0.007 A 
ATOM     16  C   UNL d   1     -11.756   4.135  -1.657  0.00  0.00    -0.062 A 
ATOM     17  C   UNL d   1     -11.308   5.362  -2.162  0.00  0.00     0.007 A 
ATOM     18  C   UNL d   1     -13.069   3.554  -2.096  0.00  0.00     0.048 C 
ATOM     19  C   UNL d   1     -10.031   5.836  -1.845  0.00  0.00     0.015 A 
ENDBRANCH  11  13
BRANCH  11  20
ATOM     20  N   UNL d   1      -7.407   6.787  -0.875  0.00  0.00    -0.286 NA
ATOM     21  H   UNL d   1      -6.480   6.940  -0.487  0.00  0.00     0.125 HD
ATOM     22  H   UNL d   1      -8.097   7.399  -0.452  0.00  0.00     0.125 HD
ENDBRANCH  11  20
ENDBRANCH   9  10
ENDBRANCH   7   9
ENDBRANCH   1   7
BRANCH   3  23
ATOM     23  C   UNL d   1      -0.890   0.950  -1.847  0.00  0.00     0.170 C 
BRANCH  23  24
ATOM     24  N   UNL d   1      -1.313  -0.333  -2.411  0.00  0.00    -0.320 N 
ATOM     25  C   UNL d   1      -2.098  -1.190  -1.651  0.00  0.00     0.110 A 
ATOM     26  C   UNL d   1      -2.398  -2.437  -2.058  0.00  0.00     0.063 A 
ATOM     27  C   UNL d   1      -1.902  -2.882  -3.349  0.00  0.00     0.023 A 
ATOM     28  C   UNL d   1      -1.157  -2.076  -4.116  0.00  0.00     0.075 A 
ATOM     29  C   UNL d   1      -0.806  -0.705  -3.656  0.00  0.00     0.247 A 
ATOM     30  O   UNL d   1      -0.086  -0.006  -4.363  0.00  0.00    -0.268 OA
BRANCH  26  31
ATOM     31  C   UNL d   1      -3.180  -3.390  -1.197  0.00  0.00     0.418 C 
ATOM     32  F   UNL d   1      -3.246  -4.644  -1.715  0.00  0.00    -0.166 F 
ATOM     33  F   UNL d   1      -2.627  -3.511   0.037  0.00  0.00    -0.166 F 
ATOM     34  F   UNL d   1      -4.459  -2.973  -1.014  0.00  0.00    -0.166 F 
ENDBRANCH  26  31
ENDBRANCH  23  24
ENDBRANCH   3  23
TORSDOF 8
