REMARK  6 active torsions:
REMARK  status: ('A' for Active; 'I' for Inactive)
REMARK       I    between atoms: N_7  and  C_1 
REMARK    1  A    between atoms: C_10  and  C_1 
REMARK       I    between atoms: C_2  and  N_6 
REMARK    2  A    between atoms: C_11  and  C_2 
REMARK    3  A    between atoms: C_3  and  C_5 
REMARK    4  A    between atoms: C_4  and  C_3 
REMARK       I    between atoms: N_9  and  C_4 
REMARK       I    between atoms: C_5  and  N_8 
REMARK    5  A    between atoms: N_6  and  N_9 
REMARK    6  A    between atoms: N_8  and  N_7 
ROOT
ATOM      1  C   UNL d   1      -0.701   3.274  -0.384  0.00  0.00     0.208 C 
ENDROOT
BRANCH   1   2
ATOM      2  C   UNL d   1       0.554   3.105  -1.200  0.00  0.00     0.244 C 
ATOM      3  N   UNL d   1       0.455   3.385  -2.540  0.00  0.00    -0.267 N 
ATOM      4  H   UNL d   1      -0.404   3.653  -3.022  0.00  0.00     0.190 HD
ATOM      5  O   UNL d   1       1.614   2.701  -0.703  0.00  0.00    -0.271 OA
BRANCH   3   6
ATOM      6  N   UNL d   1       1.529   2.994  -3.346  0.00  0.00    -0.263 N 
ATOM      7  C   UNL d   1       1.510   3.299  -4.689  0.00  0.00     0.270 C 
ATOM      8  O   UNL d   1       0.606   3.946  -5.212  0.00  0.00    -0.266 OA
ATOM      9  H   UNL d   1       2.340   2.609  -2.865  0.00  0.00     0.190 HD
BRANCH   7  10
ATOM     10  C   UNL d   1       2.657   2.791  -5.491  0.00  0.00     0.033 A 
ATOM     11  C   UNL d   1       3.347   1.620  -5.136  0.00  0.00     0.020 A 
ATOM     12  C   UNL d   1       4.376   1.141  -5.951  0.00  0.00     0.043 A 
ATOM     13  C   UNL d   1       4.709   1.829  -7.113  0.00  0.00     0.116 A 
ATOM     14  C   UNL d   1       4.037   2.990  -7.476  0.00  0.00     0.043 A 
ATOM     15  F   UNL d   1       5.683   1.356  -7.901  0.00  0.00    -0.206 F 
ATOM     16  C   UNL d   1       3.005   3.472  -6.666  0.00  0.00     0.020 A 
ENDBRANCH   7  10
ENDBRANCH   3   6
ENDBRANCH   1   2
BRANCH   1  17
ATOM     17  C   UNL d   1      -0.913   2.198   0.660  0.00  0.00     0.244 C 
ATOM     18  N   UNL d   1       0.231   1.629   1.212  0.00  0.00    -0.267 N 
ATOM     19  H   UNL d   1       1.070   1.692   0.636  0.00  0.00     0.190 HD
ATOM     20  O   UNL d   1      -2.047   1.868   1.012  0.00  0.00    -0.271 OA
BRANCH  18  21
ATOM     21  N   UNL d   1       0.035   0.435   1.897  0.00  0.00    -0.263 N 
ATOM     22  C   UNL d   1       0.939  -0.381   2.535  0.00  0.00     0.270 C 
ATOM     23  O   UNL d   1       0.494  -1.450   2.972  0.00  0.00    -0.266 OA
ATOM     24  H   UNL d   1      -0.930   0.099   1.913  0.00  0.00     0.190 HD
BRANCH  22  25
ATOM     25  C   UNL d   1       2.393  -0.087   2.763  0.00  0.00     0.033 A 
ATOM     26  C   UNL d   1       3.124   0.991   2.251  0.00  0.00     0.020 A 
ATOM     27  C   UNL d   1       4.489   1.138   2.551  0.00  0.00     0.043 A 
ATOM     28  C   UNL d   1       5.127   0.221   3.373  0.00  0.00     0.116 A 
ATOM     29  C   UNL d   1       4.433  -0.855   3.899  0.00  0.00     0.043 A 
ATOM     30  F   UNL d   1       6.425   0.379   3.665  0.00  0.00    -0.206 F 
ATOM     31  C   UNL d   1       3.079  -1.008   3.590  0.00  0.00     0.020 A 
ENDBRANCH  22  25
ENDBRANCH  18  21
ENDBRANCH   1  17
TORSDOF 6
