REMARK  2 active torsions:
REMARK  status: ('A' for Active; 'I' for Inactive)
REMARK    1  A    between atoms: C_6  and  C_1 
REMARK    2  A    between atoms: O_13  and  C_1 
ROOT
ATOM      1  C   UNL d   1      -0.507   0.524   1.260  0.00  0.00     0.233 C 
ATOM      2  C   UNL d   1       2.152  -1.479  -0.295  0.00  0.00     0.100 A 
ATOM      3  C   UNL d   1       1.008  -0.671   0.006  0.00  0.00     0.059 C 
ATOM      4  N   UNL d   1      -0.093  -0.726  -0.684  0.00  0.00    -0.320 N 
ATOM      5  HN  UNL d   1      -0.284  -1.317  -1.493  1.00  0.00     0.180 HD
ATOM      6  N   UNL d   1      -0.935   0.168  -0.102  0.00  0.00    -0.198 NA
ATOM      7  C   UNL d   1       1.000   0.319   1.131  0.00  0.00     0.127 C 
ATOM      8  O   UNL d   1       3.259  -1.381   0.507  0.00  0.00    -0.308 OA
ATOM      9  C   UNL d   1       2.374  -2.417  -1.283  0.00  0.00     0.053 A 
ATOM     10  C   UNL d   1       4.178  -2.267   0.032  0.00  0.00     0.086 A 
ATOM     11  C   UNL d   1       3.681  -2.930  -1.083  0.00  0.00     0.001 A 
ATOM     12  C   UNL d   1       5.442  -2.488   0.574  0.00  0.00     0.038 A 
ATOM     13  C   UNL d   1       4.495  -3.885  -1.715  0.00  0.00     0.014 A 
ATOM     14  C   UNL d   1       6.237  -3.443  -0.070  0.00  0.00     0.003 A 
ATOM     15  C   UNL d   1       5.774  -4.129  -1.196  0.00  0.00     0.001 A 
ATOM     16  H   UNL d   1      -1.906  -0.136  -0.139  0.00  0.00     0.150 HD
ENDROOT
BRANCH   1  17
ATOM     17  C   UNL d   1      -0.872   1.972   1.717  0.00  0.00     0.434 C 
ATOM     18  F   UNL d   1      -1.452   2.699   0.734  0.00  0.00    -0.166 F 
ATOM     19  F   UNL d   1      -1.776   1.917   2.734  0.00  0.00    -0.166 F 
ATOM     20  F   UNL d   1       0.193   2.669   2.169  0.00  0.00    -0.166 F 
ENDBRANCH   1  17
BRANCH   1  21
ATOM     21  O   UNL d   1      -1.002  -0.474   2.172  0.00  0.00    -0.366 OA
ATOM     22  H   UNL d   1      -1.897  -0.194   2.437  0.00  0.00     0.212 HD
ENDBRANCH   1  21
TORSDOF 2
