REMARK  3 active torsions:
REMARK  status: ('A' for Active; 'I' for Inactive)
REMARK    1  A    between atoms: C_16  and  C_5 
REMARK    2  A    between atoms: N_9  and  N_12 
REMARK    3  A    between atoms: C_11  and  N_9 
ROOT
ATOM      1  N   UNL d   1       1.558  -0.666  -0.330  0.00  0.00    -0.334 N 
ATOM      2  HN  UNL d   1       0.602  -0.894  -0.605  1.00  0.00     0.168 HD
ATOM      3  C   UNL d   1       2.474  -1.557  -0.008  0.00  0.00     0.163 A 
ATOM      4  C   UNL d   1       2.066   0.621  -0.245  0.00  0.00     0.051 A 
ATOM      5  S   UNL d   1       4.001  -0.880   0.434  0.00  0.00    -0.062 SA
ATOM      6  C   UNL d   1       3.368   0.693   0.207  0.00  0.00     0.083 A 
ATOM      7  N   UNL d   1       2.324  -2.909   0.014  0.00  0.00    -0.279 N 
ATOM      8  H   UNL d   1       3.141  -3.419   0.340  0.00  0.00     0.189 HD
ENDROOT
BRANCH   7   9
ATOM      9  N   UNL d   1       1.099  -3.499   0.134  0.00  0.00    -0.302 N 
ATOM     10  HN  UNL d   1       0.259  -2.929   0.238  1.00  0.00     0.186 HD
BRANCH   9  11
ATOM     11  C   UNL d   1       1.018  -4.793   0.113  0.00  0.00     0.038 C 
ATOM     12  C   UNL d   1      -0.288  -5.367   0.353  0.00  0.00     0.019 A 
ATOM     13  C   UNL d   1      -0.477  -6.726   0.256  0.00  0.00     0.064 A 
ATOM     14  C   UNL d   1      -1.547  -4.827   0.705  0.00  0.00     0.040 A 
ATOM     15  O   UNL d   1      -1.756  -7.070   0.536  0.00  0.00    -0.326 OA
ATOM     16  C   UNL d   1       0.520  -7.762  -0.089  0.00  0.00     0.066 C 
ATOM     17  C   UNL d   1      -2.404  -5.902   0.811  0.00  0.00     0.143 A 
ATOM     18  C   UNL d   1       1.712  -7.073  -0.786  0.00  0.00     0.013 C 
ATOM     19  C   UNL d   1       2.170  -5.785  -0.070  0.00  0.00     0.060 C 
ENDBRANCH   9  11
ENDBRANCH   7   9
BRANCH   4  20
ATOM     20  C   UNL d   1       1.254   1.788  -0.578  0.00  0.00    -0.009 A 
ATOM     21  C   UNL d   1      -0.141   1.724  -0.449  0.00  0.00     0.014 A 
ATOM     22  C   UNL d   1      -0.936   2.834  -0.749  0.00  0.00     0.001 A 
ATOM     23  C   UNL d   1      -0.347   4.016  -1.192  0.00  0.00     0.000 A 
ATOM     24  C   UNL d   1       1.036   4.089  -1.344  0.00  0.00     0.001 A 
ATOM     25  C   UNL d   1       1.831   2.980  -1.040  0.00  0.00     0.014 A 
ENDBRANCH   4  20
TORSDOF 3
