REMARK  4 active torsions:
REMARK  status: ('A' for Active; 'I' for Inactive)
REMARK    1  A    between atoms: N_8  and  C_1 
REMARK       I    between atoms: C_9  and  N_8 
REMARK       I    between atoms: N_11  and  C_9 
REMARK    2  A    between atoms: C_13  and  N_10 
REMARK    3  A    between atoms: C_14  and  N_11 
REMARK    4  A    between atoms: O_26  and  C_16 
ROOT
ATOM      1  C   UNL d   1      -0.226   0.700  -0.475  0.00  0.00     0.716 A 
ATOM      2  N   UNL d   1      -1.020  -0.357  -0.818  0.00  0.00    -0.019 N 
ATOM      3  C   UNL d   1      -0.301  -1.486  -0.541  0.00  0.00     0.712 A 
ATOM      4  N   UNL d   1       0.932   0.247  -0.058  0.00  0.00    -0.117 N 
ATOM      5  HN  UNL d   1       1.717   0.810   0.270  1.00  0.00     0.206 HD
ATOM      6  N   UNL d   1       0.896  -1.133  -0.145  0.00  0.00    -0.117 N 
ATOM      7  HN  UNL d   1       1.669  -1.766   0.062  1.00  0.00     0.206 HD
ATOM      8  N   UNL d   1      -0.801  -2.723  -0.765  0.00  0.00    -0.190 N 
ATOM      9  H   UNL d   1      -1.947  -0.335  -1.198  0.00  0.00     0.203 HD
ATOM     10  H   UNL d   1      -0.128  -3.485  -0.717  0.00  0.00     0.184 HD
ENDROOT
BRANCH   1  11
ATOM     11  N   UNL d   1      -0.683   1.981  -0.577  0.00  0.00    -0.139 N 
ATOM     12  C   UNL d   1      -0.025   3.118  -0.240  0.00  0.00     0.339 C 
ATOM     13  N   UNL d   1       1.216   3.003   0.348  0.00  0.00    -0.308 N 
ATOM     14  O   UNL d   1      -0.619   4.178  -0.438  0.00  0.00    -0.246 OA
ATOM     15  H   UNL d   1       1.424   2.089   0.746  0.00  0.00     0.170 HD
ATOM     16  H   UNL d   1      -1.608   2.165  -0.938  0.00  0.00     0.189 HD
BRANCH  13  17
ATOM     17  C   UNL d   1       1.909   4.120   0.857  0.00  0.00     0.036 A 
ATOM     18  C   UNL d   1       2.570   4.008   2.083  0.00  0.00     0.031 A 
ATOM     19  C   UNL d   1       3.080   5.154   2.704  0.00  0.00     0.026 A 
ATOM     20  C   UNL d   1       2.977   6.394   2.075  0.00  0.00     0.034 A 
ATOM     21  C   UNL d   1       2.414   6.497   0.808  0.00  0.00     0.026 A 
ATOM     22 CL   UNL d   1       3.518   7.815   2.881  0.00  0.00    -0.084 Cl
ATOM     23  C   UNL d   1       1.883   5.358   0.200  0.00  0.00     0.031 A 
ENDBRANCH  13  17
ENDBRANCH   1  11
BRANCH   8  24
ATOM     24  C   UNL d   1      -2.134  -3.161  -0.613  0.00  0.00     0.049 A 
ATOM     25  C   UNL d   1      -2.536  -4.319  -1.294  0.00  0.00     0.033 A 
ATOM     26  C   UNL d   1      -3.870  -4.747  -1.268  0.00  0.00     0.039 A 
ATOM     27  C   UNL d   1      -4.824  -4.013  -0.569  0.00  0.00     0.068 A 
ATOM     28  C   UNL d   1      -4.428  -2.893   0.157  0.00  0.00     0.039 A 
ATOM     29  C   UNL d   1      -3.097  -2.464   0.126  0.00  0.00     0.033 A 
BRANCH  27  30
ATOM     30  O   UNL d   1      -6.152  -4.327  -0.500  0.00  0.00    -0.356 OA
ATOM     31  C   UNL d   1      -6.694  -4.870  -1.698  0.00  0.00     0.210 C 
ENDBRANCH  27  30
ENDBRANCH   8  24
TORSDOF 4
