REMARK  6 active torsions:
REMARK  status: ('A' for Active; 'I' for Inactive)
REMARK    1  A    between atoms: C_5  and  C_1 
REMARK    2  A    between atoms: N_2  and  C_3 
REMARK       I    between atoms: C_4  and  N_2 
REMARK    3  A    between atoms: C_3  and  N_8 
REMARK    4  A    between atoms: C_9  and  C_4 
REMARK    5  A    between atoms: N_8  and  C_5 
REMARK    6  A    between atoms: C_10  and  C_9 
ROOT
ATOM      1  C   UNL d   1      -2.121   4.377   0.369  0.00  0.00     0.153 C 
ATOM      2  S   UNL d   1      -3.255   5.195   1.287  0.00  0.00    -0.047 SA
ENDROOT
BRANCH   1   3
ATOM      3  N   UNL d   1      -1.084   5.103  -0.167  0.00  0.00    -0.202 NA
ATOM      4  C   UNL d   1       0.207   4.715   0.107  0.00  0.00     0.227 C 
ATOM      5  O   UNL d   1       0.713   4.832   1.215  0.00  0.00    -0.275 OA
ATOM      6  H   UNL d   1      -1.206   6.015   0.263  0.00  0.00     0.139 HD
BRANCH   4   7
ATOM      7  C   UNL d   1       1.009   4.438  -1.112  0.00  0.00     0.069 C 
BRANCH   7   8
ATOM      8  C   UNL d   1       2.326   4.695  -1.055  0.00  0.00     0.024 C 
ATOM      9  C   UNL d   1       3.196   4.581  -2.179  0.00  0.00     0.004 A 
ATOM     10  S   UNL d   1       4.720   5.399  -2.118  0.00  0.00    -0.102 SA
ATOM     11  C   UNL d   1       3.065   3.910  -3.384  0.00  0.00     0.019 A 
ATOM     12  C   UNL d   1       5.158   4.877  -3.682  0.00  0.00     0.050 A 
ATOM     13  C   UNL d   1       4.191   4.082  -4.247  0.00  0.00     0.008 A 
ENDBRANCH   7   8
ENDBRANCH   4   7
ENDBRANCH   1   3
BRANCH   1  14
ATOM     14  N   UNL d   1      -2.141   3.043   0.064  0.00  0.00    -0.367 N 
ATOM     15  H   UNL d   1      -1.444   2.713  -0.589  0.00  0.00     0.161 HD
BRANCH  14  16
ATOM     16  C   UNL d   1      -2.821   2.001   0.825  0.00  0.00     0.163 C 
BRANCH  16  17
ATOM     17  C   UNL d   1      -4.321   1.819   0.704  0.00  0.00     0.003 A 
ATOM     18  C   UNL d   1      -5.111   2.210  -0.393  0.00  0.00     0.043 A 
ATOM     19 CL   UNL d   1      -4.464   2.924  -1.831  0.00  0.00    -0.084 Cl
ATOM     20  C   UNL d   1      -6.501   1.990  -0.404  0.00  0.00     0.024 A 
ATOM     21  C   UNL d   1      -7.132   1.336   0.651  0.00  0.00     0.003 A 
ATOM     22  C   UNL d   1      -6.368   0.887   1.718  0.00  0.00     0.024 A 
ATOM     23  C   UNL d   1      -4.988   1.120   1.743  0.00  0.00     0.043 A 
ATOM     24 CL   UNL d   1      -4.136   0.451   3.099  0.00  0.00    -0.084 Cl
ENDBRANCH  16  17
ENDBRANCH  14  16
ENDBRANCH   1  14
TORSDOF 6
