REMARK  3 active torsions:
REMARK  status: ('A' for Active; 'I' for Inactive)
REMARK       I    between atoms: N_2  and  C_1 
REMARK    1  A    between atoms: C_5  and  C_1 
REMARK    2  A    between atoms: N_3  and  N_2 
REMARK    3  A    between atoms: C_6  and  N_3 
ROOT
ATOM      1  C   UNL d   1       0.825  -0.117   0.034  0.00  0.00     0.236 C 
ATOM      2  N   UNL d   1       0.176  -1.183  -0.582  0.00  0.00    -0.287 N 
ATOM      3  O   UNL d   1       0.204   0.780   0.605  0.00  0.00    -0.272 OA
ATOM      4  H   UNL d   1       0.625  -1.634  -1.371  0.00  0.00     0.184 HD
ENDROOT
BRANCH   2   5
ATOM      5  N   UNL d   1      -1.222  -1.043  -0.684  0.00  0.00    -0.203 NA
ATOM      6  H   UNL d   1      -1.554  -0.360   0.008  0.00  0.00     0.153 HD
BRANCH   5   7
ATOM      7  C   UNL d   1      -1.952  -2.255  -0.615  0.00  0.00     0.027 A 
ATOM      8  C   UNL d   1      -3.243  -2.231  -0.068  0.00  0.00     0.026 A 
ATOM      9  C   UNL d   1      -4.079  -3.351  -0.130  0.00  0.00     0.008 A 
ATOM     10  C   UNL d   1      -3.652  -4.518  -0.769  0.00  0.00    -0.062 A 
ATOM     11  C   UNL d   1      -2.365  -4.555  -1.312  0.00  0.00     0.008 A 
ATOM     12  C   UNL d   1      -4.588  -5.681  -0.910  0.00  0.00     0.048 C 
ATOM     13  C   UNL d   1      -1.528  -3.433  -1.240  0.00  0.00     0.026 A 
ENDBRANCH   5   7
ENDBRANCH   2   5
BRANCH   1  14
ATOM     14  C   UNL d   1       2.349  -0.177  -0.062  0.00  0.00     0.079 C 
ATOM     15  C   UNL d   1       2.903  -1.398   0.684  0.00  0.00     0.014 C 
ATOM     16  C   UNL d   1       2.774  -1.249   2.199  0.00  0.00     0.001 C 
ATOM     17  C   UNL d   1       3.445   0.026   2.700  0.00  0.00     0.000 C 
ATOM     18  C   UNL d   1       2.953   1.268   1.965  0.00  0.00     0.001 C 
ATOM     19  C   UNL d   1       3.018   1.110   0.445  0.00  0.00     0.014 C 
ENDBRANCH   1  14
TORSDOF 3
