REMARK  8 active torsions:
REMARK  status: ('A' for Active; 'I' for Inactive)
REMARK    1  A    between atoms: N_5  and  C_1 
REMARK    2  A    between atoms: N_9  and  C_1 
REMARK    3  A    between atoms: C_2  and  C_8 
REMARK    4  A    between atoms: O_16  and  C_2 
REMARK    5  A    between atoms: N_3  and  N_9 
REMARK    6  A    between atoms: C_15  and  N_5 
REMARK    7  A    between atoms: C_6  and  C_12 
REMARK    8  A    between atoms: C_22  and  O_16 
ROOT
ATOM      1  C   UNL d   1      -0.843   0.849  -0.384  0.00  0.00     0.191 C 
ATOM      2  S   UNL d   1      -2.322   0.903  -1.167  0.00  0.00    -0.039 SA
ENDROOT
BRANCH   1   3
ATOM      3  N   UNL d   1       0.406   0.769  -0.954  0.00  0.00    -0.332 N 
ATOM      4  H   UNL d   1       1.082   0.308  -0.355  0.00  0.00     0.168 HD
BRANCH   3   5
ATOM      5  C   UNL d   1       0.848   1.250  -2.196  0.00  0.00     0.034 A 
ATOM      6  C   UNL d   1       0.292   2.394  -2.775  0.00  0.00     0.030 A 
ATOM      7  C   UNL d   1       0.842   2.938  -3.937  0.00  0.00     0.020 A 
ATOM      8  C   UNL d   1       1.953   2.340  -4.542  0.00  0.00     0.039 A 
ATOM      9  C   UNL d   1       2.491   1.174  -3.982  0.00  0.00     0.020 A 
ATOM     10  C   UNL d   1       1.954   0.647  -2.801  0.00  0.00     0.030 A 
BRANCH   8  11
ATOM     11  C   UNL d   1       2.656   2.973  -5.691  0.00  0.00     0.293 C 
ATOM     12  O   UNL d   1       3.658   2.511  -6.213  0.00  0.00    -0.259 OA
BRANCH  11  13
ATOM     13  O   UNL d   1       2.095   4.181  -5.950  0.00  0.00    -0.318 OA
BRANCH  13  14
ATOM     14  C   UNL d   1       2.906   5.110  -6.678  0.00  0.00     0.174 C 
ATOM     15  C   UNL d   1       3.727   5.905  -5.677  0.00  0.00     0.034 C 
ENDBRANCH  13  14
ENDBRANCH  11  13
ENDBRANCH   8  11
ENDBRANCH   3   5
ENDBRANCH   1   3
BRANCH   1  16
ATOM     16  N   UNL d   1      -0.840   0.846   0.994  0.00  0.00    -0.276 N 
ATOM     17  H   UNL d   1      -1.744   0.936   1.446  0.00  0.00     0.189 HD
BRANCH  16  18
ATOM     18  N   UNL d   1       0.298   1.153   1.691  0.00  0.00    -0.309 N 
ATOM     19  C   UNL d   1       0.102   1.409   2.950  0.00  0.00     0.120 C 
ATOM     20  HN  UNL d   1       1.222   1.178   1.259  1.00  0.00     0.186 HD
BRANCH  19  21
ATOM     21  C   UNL d   1       1.199   1.866   3.831  0.00  0.00     0.002 A 
ATOM     22  C   UNL d   1       1.035   1.971   5.218  0.00  0.00     0.045 A 
ATOM     23 CL   UNL d   1      -0.431   1.543   6.027  0.00  0.00    -0.083 Cl
ATOM     24  C   UNL d   1       2.091   2.436   6.011  0.00  0.00     0.024 A 
ATOM     25  C   UNL d   1       3.303   2.804   5.426  0.00  0.00     0.002 A 
ATOM     26  C   UNL d   1       3.466   2.709   4.046  0.00  0.00     0.001 A 
ATOM     27  C   UNL d   1       2.420   2.242   3.250  0.00  0.00     0.014 A 
ENDBRANCH  19  21
ENDBRANCH  16  18
ENDBRANCH   1  16
TORSDOF 8
