REMARK  6 active torsions:
REMARK  status: ('A' for Active; 'I' for Inactive)
REMARK    1  A    between atoms: C_2  and  C_1 
REMARK       I    between atoms: N_3  and  C_1 
REMARK    2  A    between atoms: C_9  and  N_3 
REMARK    3  A    between atoms: N_4  and  C_10 
REMARK    4  A    between atoms: O_13  and  C_6 
REMARK    5  A    between atoms: C_11  and  C_8 
REMARK    6  A    between atoms: O_23  and  C_12 
ROOT
ATOM      1  C   UNL d   1      -1.095   1.268  -0.189  0.00  0.00     0.035 A 
ATOM      2  C   UNL d   1      -3.922   1.366  -0.084  0.00  0.00     0.032 A 
ATOM      3  C   UNL d   1      -1.794   0.682   0.868  0.00  0.00     0.032 A 
ATOM      4  C   UNL d   1      -1.820   1.971  -1.157  0.00  0.00     0.032 A 
ATOM      5  C   UNL d   1      -3.190   0.738   0.923  0.00  0.00     0.031 A 
ATOM      6  C   UNL d   1      -3.220   2.016  -1.102  0.00  0.00     0.031 A 
ENDROOT
BRANCH   1   7
ATOM      7  N   UNL d   1       0.306   1.169  -0.354  0.00  0.00    -0.323 N 
ATOM      8  C   UNL d   1       1.163   0.397   0.412  0.00  0.00     0.259 C 
ATOM      9  O   UNL d   1       0.857  -0.283   1.391  0.00  0.00    -0.267 OA
ATOM     10  H   UNL d   1       0.675   1.593  -1.194  0.00  0.00     0.169 HD
BRANCH   8  11
ATOM     11  C   UNL d   1       2.580   0.309  -0.039  0.00  0.00     0.065 A 
ATOM     12  C   UNL d   1       3.321  -0.847   0.267  0.00  0.00     0.081 A 
ATOM     13  C   UNL d   1       4.636  -0.988  -0.166  0.00  0.00     0.037 A 
ATOM     14  C   UNL d   1       5.239   0.037  -0.890  0.00  0.00     0.003 A 
ATOM     15  C   UNL d   1       4.528   1.205  -1.173  0.00  0.00     0.001 A 
ATOM     16  C   UNL d   1       3.203   1.345  -0.747  0.00  0.00     0.020 A 
BRANCH  12  17
ATOM     17  O   UNL d   1       2.814  -1.894   0.993  0.00  0.00    -0.360 OA
ATOM     18  H   UNL d   1       1.962  -1.597   1.387  0.00  0.00     0.217 HD
ENDBRANCH  12  17
ENDBRANCH   8  11
ENDBRANCH   1   7
BRANCH   2  19
ATOM     19  N   UNL d   1      -5.326   1.406  -0.118  0.00  0.00    -0.365 N 
ATOM     20  C   UNL d   1      -5.994   0.358   0.249  0.00  0.00     0.099 C 
ATOM     21  HN  UNL d   1      -5.812   2.248  -0.426  1.00  0.00     0.165 HD
BRANCH  20  22
ATOM     22  C   UNL d   1      -7.468   0.317   0.181  0.00  0.00    -0.021 A 
ATOM     23  C   UNL d   1      -8.175   1.368  -0.403  0.00  0.00     0.015 A 
ATOM     24  C   UNL d   1      -9.565   1.299  -0.492  0.00  0.00     0.037 A 
ATOM     25  C   UNL d   1     -10.252   0.180  -0.015  0.00  0.00     0.068 A 
ATOM     26  C   UNL d   1      -9.543  -0.862   0.587  0.00  0.00     0.037 A 
ATOM     27  C   UNL d   1      -8.147  -0.797   0.682  0.00  0.00     0.015 A 
BRANCH  25  28
ATOM     28  O   UNL d   1     -11.611   0.236  -0.149  0.00  0.00    -0.356 OA
ATOM     29  C   UNL d   1     -12.269  -1.019  -0.280  0.00  0.00     0.210 C 
ENDBRANCH  25  28
ENDBRANCH  20  22
ENDBRANCH   2  19
TORSDOF 6
