REMARK  5 active torsions:
REMARK  status: ('A' for Active; 'I' for Inactive)
REMARK    1  A    between atoms: C_3  and  C_1 
REMARK    2  A    between atoms: N_2  and  C_6 
REMARK       I    between atoms: N_7  and  C_3 
REMARK    3  A    between atoms: S_8  and  C_4 
REMARK    4  A    between atoms: C_16  and  N_7 
REMARK    5  A    between atoms: C_17  and  S_8 
ROOT
ATOM      1  C   UNL d   1       1.272  -0.078  -0.439  0.00  0.00     0.051 A 
ATOM      2  C   UNL d   1       0.577  -1.275  -0.181  0.00  0.00     0.021 A 
ATOM      3  C   UNL d   1       0.615   1.162  -0.421  0.00  0.00     0.054 A 
ATOM      4  C   UNL d   1      -0.755   1.207  -0.146  0.00  0.00     0.103 A 
ATOM      5  C   UNL d   1      -0.799  -1.202   0.092  0.00  0.00     0.022 A 
ATOM      6  C   UNL d   1      -1.468   0.028   0.101  0.00  0.00     0.037 A 
ENDROOT
BRANCH   1   7
ATOM      7  C   UNL d   1       2.681  -0.060  -0.872  0.00  0.00     0.257 C 
ATOM      8  N   UNL d   1       3.561   0.583  -0.019  0.00  0.00    -0.323 N 
ATOM      9  H   UNL d   1       3.237   0.809   0.913  0.00  0.00     0.169 HD
ATOM     10  O   UNL d   1       2.946  -0.575  -1.952  0.00  0.00    -0.267 OA
BRANCH   8  11
ATOM     11  C   UNL d   1       4.938   0.772  -0.283  0.00  0.00     0.037 A 
ATOM     12  C   UNL d   1       5.480   0.699  -1.565  0.00  0.00     0.046 A 
ATOM     13  C   UNL d   1       6.849   0.840  -1.717  0.00  0.00     0.090 A 
ATOM     14  N   UNL d   1       7.698   1.050  -0.691  0.00  0.00    -0.375 N 
ATOM     15  C   UNL d   1       7.148   1.143   0.537  0.00  0.00     0.090 A 
ATOM     16  HN  UNL d   1       8.704   1.133  -0.836  1.00  0.00     0.164 HD
ATOM     17  C   UNL d   1       5.787   1.035   0.788  0.00  0.00     0.046 A 
ENDBRANCH   8  11
ENDBRANCH   1   7
BRANCH   2  18
ATOM     18  S   UNL d   1       1.374  -2.869  -0.012  0.00  0.00    -0.090 SA
BRANCH  18  19
ATOM     19  C   UNL d   1       1.138  -3.592  -1.626  0.00  0.00     0.005 A 
ATOM     20  C   UNL d   1       2.203  -3.616  -2.531  0.00  0.00     0.019 A 
ATOM     21  C   UNL d   1       2.062  -4.224  -3.780  0.00  0.00     0.001 A 
ATOM     22  C   UNL d   1       0.856  -4.828  -4.128  0.00  0.00     0.000 A 
ATOM     23  C   UNL d   1      -0.207  -4.827  -3.226  0.00  0.00     0.001 A 
ATOM     24  C   UNL d   1      -0.066  -4.215  -1.976  0.00  0.00     0.019 A 
ENDBRANCH  18  19
ENDBRANCH   2  18
BRANCH   4  25
ATOM     25  N   UNL d   1      -1.443   2.504  -0.120  0.00  0.00    -0.116 N 
ATOM     26  O   UNL d   1      -0.756   3.521  -0.267  0.00  0.00    -0.532 OA
ATOM     27  O   UNL d   1      -2.668   2.497   0.068  0.00  0.00    -0.532 OA
ENDBRANCH   4  25
TORSDOF 5
