REMARK  2 active torsions:
REMARK  status: ('A' for Active; 'I' for Inactive)
REMARK    1  A    between atoms: C_7  and  N_1 
REMARK    2  A    between atoms: C_9  and  C_7 
ROOT
ATOM      1  N   UNL d   1      -0.672   1.129  -0.078  0.00  0.00    -0.313 N 
ATOM      2  C   UNL d   1      -0.610  -1.345  -0.136  0.00  0.00     0.118 A 
ATOM      3  C   UNL d   1      -1.393  -0.072  -0.188  0.00  0.00     0.269 A 
ATOM      4  C   UNL d   1       0.725   1.147  -0.029  0.00  0.00     0.012 A 
ATOM      5  C   UNL d   1       0.734  -1.296  -0.054  0.00  0.00    -0.034 A 
ATOM      6  C   UNL d   1       1.405  -0.014  -0.027  0.00  0.00     0.033 A 
ATOM      7  C   UNL d   1      -1.329  -2.572  -0.150  0.00  0.00     0.105 C 
ATOM      8  N   UNL d   1      -1.857  -3.608  -0.148  0.00  0.00    -0.191 NA
ATOM      9  O   UNL d   1      -2.616  -0.114  -0.318  0.00  0.00    -0.266 OA
ATOM     10  C   UNL d   1       1.605  -2.523   0.023  0.00  0.00     0.050 C 
ATOM     11  C   UNL d   1       1.506   2.434   0.016  0.00  0.00     0.068 C 
ENDROOT
BRANCH   1  12
ATOM     12  C   UNL d   1      -1.469   2.358   0.034  0.00  0.00     0.174 C 
BRANCH  12  13
ATOM     13  C   UNL d   1      -1.702   3.110  -1.256  0.00  0.00    -0.001 A 
ATOM     14  C   UNL d   1      -1.825   4.504  -1.219  0.00  0.00     0.124 A 
ATOM     15  F   UNL d   1      -1.610   5.161  -0.070  0.00  0.00    -0.205 F 
ATOM     16  C   UNL d   1      -2.191   5.237  -2.346  0.00  0.00     0.043 A 
ATOM     17  C   UNL d   1      -2.444   4.577  -3.545  0.00  0.00     0.003 A 
ATOM     18  C   UNL d   1      -2.312   3.191  -3.611  0.00  0.00     0.001 A 
ATOM     19  C   UNL d   1      -1.947   2.461  -2.475  0.00  0.00     0.012 A 
ENDBRANCH  12  13
ENDBRANCH   1  12
TORSDOF 2
