REMARK  9 active torsions:
REMARK  status: ('A' for Active; 'I' for Inactive)
REMARK    1  A    between atoms: C_9  and  C_1 
REMARK    2  A    between atoms: N_17  and  C_3 
REMARK    3  A    between atoms: C_16  and  C_6 
REMARK       I    between atoms: N_15  and  C_9 
REMARK    4  A    between atoms: C_19  and  C_12 
REMARK    5  A    between atoms: N_13  and  N_15 
REMARK    6  A    between atoms: C_23  and  C_20 
REMARK    7  A    between atoms: O_21  and  C_22 
REMARK    8  A    between atoms: C_24  and  O_21 
REMARK    9  A    between atoms: C_29  and  C_24 
ROOT
ATOM      1  C   UNL d   1      -2.570  -0.738  -0.046  0.00  0.00     0.103 A 
ATOM      2  C   UNL d   1      -0.192  -1.024  -0.020  0.00  0.00     0.040 A 
ATOM      3  C   UNL d   1      -1.505  -1.633  -0.132  0.00  0.00     0.062 A 
ATOM      4  C   UNL d   1      -0.355   0.349   0.065  0.00  0.00     0.103 A 
ATOM      5  S   UNL d   1      -1.970   0.855   0.082  0.00  0.00    -0.062 SA
ATOM      6  C   UNL d   1       1.158  -1.497   0.013  0.00  0.00     0.018 A 
ATOM      7  N   UNL d   1       1.874   0.825   0.154  0.00  0.00    -0.298 N 
ATOM      8  HN  UNL d   1       2.636   1.501   0.198  1.00  0.00     0.187 HD
ATOM      9  N   UNL d   1       0.632   1.257   0.140  0.00  0.00    -0.292 N 
ATOM     10  HN  UNL d   1       0.425   2.255   0.184  1.00  0.00     0.187 HD
ATOM     11  C   UNL d   1       2.165  -0.503   0.111  0.00  0.00     0.070 A 
ENDROOT
BRANCH   1  12
ATOM     12  C   UNL d   1      -3.995  -1.098  -0.093  0.00  0.00     0.279 C 
ATOM     13  N   UNL d   1      -5.025  -0.170  -0.109  0.00  0.00    -0.266 N 
ATOM     14  H   UNL d   1      -5.951  -0.576  -0.182  0.00  0.00     0.190 HD
ATOM     15  O   UNL d   1      -4.365  -2.280  -0.157  0.00  0.00    -0.265 OA
BRANCH  13  16
ATOM     16  N   UNL d   1      -4.890   1.169  -0.000  0.00  0.00    -0.308 N 
ATOM     17  C   UNL d   1      -5.953   1.868  -0.236  0.00  0.00     0.118 C 
ATOM     18  HN  UNL d   1      -4.002   1.603   0.253  1.00  0.00     0.186 HD
BRANCH  17  19
ATOM     19  C   UNL d   1      -5.914   3.336  -0.133  0.00  0.00    -0.019 A 
ATOM     20  C   UNL d   1      -6.920   4.099  -0.724  0.00  0.00     0.015 A 
ATOM     21  C   UNL d   1      -6.852   5.493  -0.649  0.00  0.00     0.037 A 
ATOM     22  C   UNL d   1      -5.789   6.122   0.008  0.00  0.00     0.069 A 
ATOM     23  C   UNL d   1      -4.802   5.347   0.618  0.00  0.00     0.037 A 
ATOM     24  C   UNL d   1      -4.861   3.956   0.543  0.00  0.00     0.015 A 
BRANCH  22  25
ATOM     25  O   UNL d   1      -5.836   7.488   0.017  0.00  0.00    -0.347 OA
BRANCH  25  26
ATOM     26  C   UNL d   1      -4.595   8.154   0.246  0.00  0.00     0.214 C 
BRANCH  26  27
ATOM     27  C   UNL d   1      -4.849   9.639   0.241  0.00  0.00    -0.034 A 
ATOM     28  C   UNL d   1      -5.081  10.314   1.445  0.00  0.00     0.009 A 
ATOM     29  C   UNL d   1      -5.323  11.692   1.452  0.00  0.00     0.001 A 
ATOM     30  C   UNL d   1      -5.349  12.396   0.252  0.00  0.00     0.000 A 
ATOM     31  C   UNL d   1      -5.134  11.732  -0.957  0.00  0.00     0.001 A 
ATOM     32  C   UNL d   1      -4.891  10.355  -0.961  0.00  0.00     0.009 A 
ENDBRANCH  26  27
ENDBRANCH  25  26
ENDBRANCH  22  25
ENDBRANCH  17  19
ENDBRANCH  13  16
ENDBRANCH   1  12
BRANCH   3  33
ATOM     33  N   UNL d   1      -1.719  -2.959  -0.296  0.00  0.00    -0.397 N 
ATOM     34  H   UNL d   1      -1.018  -3.585  -0.684  0.00  0.00     0.156 HD
ATOM     35  H   UNL d   1      -2.674  -3.315  -0.406  0.00  0.00     0.156 HD
ENDBRANCH   3  33
BRANCH   6  36
ATOM     36  C   UNL d   1       1.439  -2.944  -0.061  0.00  0.00    -0.023 A 
ATOM     37  C   UNL d   1       2.269  -3.479  -1.062  0.00  0.00     0.012 A 
ATOM     38  C   UNL d   1       2.556  -4.847  -1.108  0.00  0.00     0.001 A 
ATOM     39  C   UNL d   1       1.984  -5.713  -0.181  0.00  0.00     0.000 A 
ATOM     40  C   UNL d   1       1.151  -5.209   0.813  0.00  0.00     0.001 A 
ATOM     41  C   UNL d   1       0.908  -3.836   0.890  0.00  0.00     0.012 A 
ENDBRANCH   6  36
BRANCH  11  42
ATOM     42  C   UNL d   1       3.627  -0.771   0.159  0.00  0.00    -0.007 A 
ATOM     43  C   UNL d   1       4.517   0.003  -0.613  0.00  0.00     0.014 A 
ATOM     44  C   UNL d   1       5.891  -0.259  -0.627  0.00  0.00     0.001 A 
ATOM     45  C   UNL d   1       6.409  -1.304   0.131  0.00  0.00     0.000 A 
ATOM     46  C   UNL d   1       5.558  -2.062   0.929  0.00  0.00     0.001 A 
ATOM     47  C   UNL d   1       4.188  -1.782   0.959  0.00  0.00     0.014 A 
ENDBRANCH  11  42
TORSDOF 9
