REMARK  3 active torsions:
REMARK  status: ('A' for Active; 'I' for Inactive)
REMARK    1  A    between atoms: N_4  and  C_1 
REMARK    2  A    between atoms: N_2  and  N_4 
REMARK    3  A    between atoms: C_7  and  C_5 
ROOT
ATOM      1  N   UNL d   1       0.942   2.029   1.325  0.00  0.00    -0.302 N 
ATOM      2  HN  UNL d   1       0.401   1.311   0.845  1.00  0.00     0.186 HD
ATOM      3  C   UNL d   1       0.332   2.987   1.968  0.00  0.00     0.033 C 
ATOM      4  C   UNL d   1       1.017   4.112   2.726  0.00  0.00     0.070 C 
ENDROOT
BRANCH   1   5
ATOM      5  N   UNL d   1       2.305   1.992   1.298  0.00  0.00    -0.276 N 
ATOM      6  H   UNL d   1       2.869   2.703   1.743  0.00  0.00     0.189 HD
BRANCH   5   7
ATOM      7  C   UNL d   1       2.989   0.991   0.669  0.00  0.00     0.184 C 
ATOM      8  S   UNL d   1       4.646   0.942   0.648  0.00  0.00    -0.040 SA
ATOM      9  N   UNL d   1       2.238   0.041   0.071  0.00  0.00    -0.375 N 
ATOM     10  H   UNL d   1       1.235   0.168   0.083  0.00  0.00     0.158 HD
ATOM     11  H   UNL d   1       2.661  -0.717  -0.444  0.00  0.00     0.158 HD
ENDBRANCH   5   7
ENDBRANCH   1   5
BRANCH   3  12
ATOM     12  C   UNL d   1      -1.171   2.991   1.973  0.00  0.00     0.003 A 
ATOM     13  C   UNL d   1      -1.911   3.996   2.591  0.00  0.00     0.101 A 
ATOM     14  N   UNL d   1      -3.266   4.037   2.634  0.00  0.00    -0.374 N 
ATOM     15  C   UNL d   1      -3.923   3.026   2.029  0.00  0.00     0.087 A 
ATOM     16  HN  UNL d   1      -3.764   4.795   3.100  1.00  0.00     0.164 HD
ATOM     17  C   UNL d   1      -3.286   1.980   1.381  0.00  0.00     0.018 A 
ATOM     18  C   UNL d   1      -1.891   1.966   1.353  0.00  0.00     0.016 A 
ENDBRANCH   3  12
TORSDOF 3
