REMARK  7 active torsions:
REMARK  status: ('A' for Active; 'I' for Inactive)
REMARK    1  A    between atoms: C_3  and  C_1 
REMARK    2  A    between atoms: C_2  and  C_6 
REMARK    3  A    between atoms: O_8  and  C_2 
REMARK    4  A    between atoms: N_4  and  O_8 
REMARK    5  A    between atoms: C_14  and  C_15 
REMARK    6  A    between atoms: C_15  and  C_19 
REMARK    7  A    between atoms: O_26  and  C_16 
ROOT
ATOM      1  N   UNL d   1      -0.181   3.811   5.329  0.00  0.00    -0.266 N 
ATOM      2  HN  UNL d   1      -0.421   2.865   5.623  1.00  0.00     0.194 HD
ATOM      3  C   UNL d   1      -0.481   4.299   4.165  0.00  0.00     0.010 C 
ATOM      4  C   UNL d   1      -1.319   3.422   3.248  0.00  0.00     0.055 C 
ATOM      5  C   UNL d   1      -0.188   5.720   3.718  0.00  0.00     0.055 C 
ATOM      6  C   UNL d   1      -0.888   5.064   1.349  0.00  0.00    -0.010 C 
ATOM      7  C   UNL d   1       0.146   5.784   2.232  0.00  0.00     0.010 C 
ATOM      8  C   UNL d   1      -0.947   3.592   1.782  0.00  0.00     0.010 C 
ENDROOT
BRANCH   1   9
ATOM      9  O   UNL d   1       0.510   4.728   6.144  0.00  0.00    -0.195 OA
BRANCH   9  10
ATOM     10  C   UNL d   1       0.657   4.206   7.401  0.00  0.00     0.315 C 
ATOM     11  O   UNL d   1       0.209   3.154   7.828  0.00  0.00    -0.257 OA
BRANCH  10  12
ATOM     12  C   UNL d   1       1.482   5.118   8.248  0.00  0.00     0.042 A 
ATOM     13  C   UNL d   1       2.017   6.327   7.779  0.00  0.00     0.034 A 
ATOM     14  C   UNL d   1       2.817   7.128   8.616  0.00  0.00     0.048 A 
ATOM     15  C   UNL d   1       3.043   6.721   9.940  0.00  0.00     0.016 A 
ATOM     16  C   UNL d   1       2.512   5.523  10.413  0.00  0.00     0.002 A 
ATOM     17  C   UNL d   1       1.743   4.721   9.569  0.00  0.00     0.018 A 
BRANCH  14  18
ATOM     18  C   UNL d   1       3.453   8.401   8.106  0.00  0.00     0.417 C 
ATOM     19  F   UNL d   1       3.258   8.606   6.774  0.00  0.00    -0.166 F 
ATOM     20  F   UNL d   1       4.802   8.415   8.291  0.00  0.00    -0.166 F 
ATOM     21  F   UNL d   1       2.976   9.511   8.731  0.00  0.00    -0.166 F 
ENDBRANCH  14  18
ENDBRANCH  10  12
ENDBRANCH   9  10
ENDBRANCH   1   9
BRANCH   6  22
ATOM     22  C   UNL d   1      -2.288   5.727   1.360  0.00  0.00     0.043 C 
BRANCH  22  23
ATOM     23  C   UNL d   1      -2.269   7.157   0.875  0.00  0.00    -0.058 A 
ATOM     24  C   UNL d   1      -1.877   7.458  -0.436  0.00  0.00     0.010 A 
ATOM     25  C   UNL d   1      -1.768   8.784  -0.864  0.00  0.00     0.037 A 
ATOM     26  C   UNL d   1      -2.060   9.830   0.011  0.00  0.00     0.068 A 
ATOM     27  C   UNL d   1      -2.498   9.535   1.304  0.00  0.00     0.037 A 
ATOM     28  C   UNL d   1      -2.605   8.210   1.735  0.00  0.00     0.010 A 
BRANCH  26  29
ATOM     29  O   UNL d   1      -1.954  11.164  -0.272  0.00  0.00    -0.356 OA
ATOM     30  C   UNL d   1      -1.411  11.504  -1.542  0.00  0.00     0.210 C 
ENDBRANCH  26  29
ENDBRANCH  22  23
ENDBRANCH   6  22
TORSDOF 7
