REMARK  1 active torsions:
REMARK  status: ('A' for Active; 'I' for Inactive)
REMARK    1  A    between atoms: C_8  and  C_6 
ROOT
ATOM      1  N   UNL d   1       1.566   1.390  -0.554  0.00  0.00    -0.326 N 
ATOM      2  HN  UNL d   1       1.777   2.251  -1.059  1.00  0.00     0.180 HD
ATOM      3  C   UNL d   1       0.404   0.900  -0.298  0.00  0.00     0.038 C 
ATOM      4  C   UNL d   1       0.511  -0.741   0.547  0.00  0.00     0.293 C 
ATOM      5  N   UNL d   1       2.471   0.496   0.006  0.00  0.00    -0.229 NA
ATOM      6  C   UNL d   1       2.002  -0.914   0.205  0.00  0.00     0.148 C 
ATOM      7  N   UNL d   1      -0.667  -1.683  -0.017  0.00  0.00     0.100 N 
ATOM      8  C   UNL d   1      -1.279   1.370  -0.676  0.00  0.00     0.038 C 
ATOM      9  C   UNL d   1      -2.251  -1.384   0.124  0.00  0.00     0.274 C 
ATOM     10  C   UNL d   1      -0.785  -0.717  -0.982  0.00  0.00     0.274 C 
ATOM     11  C   UNL d   1      -2.738   0.276  -0.672  0.00  0.00     0.041 C 
ATOM     12  C   UNL d   1      -1.214   0.562   0.456  0.00  0.00     0.041 C 
ATOM     13  H   UNL d   1       3.382   0.534  -0.452  0.00  0.00     0.147 HD
ENDROOT
BRANCH   6  14
ATOM     14  C   UNL d   1       2.598  -1.639   1.402  0.00  0.00    -0.035 A 
ATOM     15  C   UNL d   1       2.853  -0.960   2.610  0.00  0.00     0.034 A 
ATOM     16  C   UNL d   1       3.018  -1.665   3.807  0.00  0.00     0.056 A 
ATOM     17 CL   UNL d   1       3.184  -0.748   5.262  0.00  0.00    -0.083 Cl
ATOM     18  C   UNL d   1       2.967  -3.062   3.804  0.00  0.00     0.055 A 
ATOM     19  C   UNL d   1       2.776  -3.748   2.602  0.00  0.00     0.026 A 
ATOM     20 CL   UNL d   1       3.075  -3.998   5.253  0.00  0.00    -0.083 Cl
ATOM     21  C   UNL d   1       2.592  -3.042   1.409  0.00  0.00     0.011 A 
ENDBRANCH   6  14
TORSDOF 1
