REMARK  8 active torsions:
REMARK  status: ('A' for Active; 'I' for Inactive)
REMARK    1  A    between atoms: N_2  and  S_1 
REMARK    2  A    between atoms: C_8  and  S_1 
REMARK    3  A    between atoms: C_3  and  N_2 
REMARK       I    between atoms: C_11  and  N_13 
REMARK    4  A    between atoms: C_22  and  C_11 
REMARK    5  A    between atoms: C_12  and  C_23 
REMARK    6  A    between atoms: O_24  and  C_12 
REMARK    7  A    between atoms: N_13  and  C_21 
REMARK    8  A    between atoms: C_23  and  C_22 
ROOT
ATOM      1  C   UNL d   1       0.351  -0.263  -1.550  0.00  0.00     0.075 A 
ATOM      2  C   UNL d   1       0.366  -1.582  -2.013  0.00  0.00     0.027 A 
ATOM      3  C   UNL d   1      -0.220   0.743  -2.329  0.00  0.00     0.027 A 
ATOM      4  C   UNL d   1      -0.697  -0.871  -4.087  0.00  0.00     0.034 A 
ATOM      5  C   UNL d   1      -0.158  -1.881  -3.280  0.00  0.00     0.031 A 
ATOM      6  C   UNL d   1      -0.729   0.438  -3.596  0.00  0.00     0.031 A 
ENDROOT
BRANCH   1   7
ATOM      7  S   UNL d   1       0.952   0.132   0.088  0.00  0.00     0.248 S 
ATOM      8  O   UNL d   1       0.253   1.314   0.533  0.00  0.00    -0.205 OA
ATOM      9  O   UNL d   1       0.870  -1.102   0.849  0.00  0.00    -0.205 OA
BRANCH   7  10
ATOM     10  N   UNL d   1       2.589   0.443  -0.113  0.00  0.00    -0.151 NA
ATOM     11  H   UNL d   1       3.061  -0.376  -0.473  0.00  0.00     0.149 HD
BRANCH  10  12
ATOM     12  C   UNL d   1       2.860   1.547  -0.919  0.00  0.00     0.171 A 
ATOM     13  N   UNL d   1       2.962   2.739  -0.335  0.00  0.00    -0.336 N 
ATOM     14  C   UNL d   1       3.165   3.783  -1.162  0.00  0.00     0.009 A 
ATOM     15  HN  UNL d   1       2.891   2.854   0.676  1.00  0.00     0.168 HD
ATOM     16  C   UNL d   1       3.332   5.137  -0.541  0.00  0.00     0.068 C 
ATOM     17  C   UNL d   1       3.216   3.634  -2.537  0.00  0.00     0.049 A 
ATOM     18  C   UNL d   1       3.079   2.349  -3.030  0.00  0.00     0.009 A 
ATOM     19  N   UNL d   1       2.928   1.280  -2.224  0.00  0.00    -0.336 N 
ATOM     20  C   UNL d   1       3.061   2.101  -4.508  0.00  0.00     0.068 C 
ATOM     21  HN  UNL d   1       2.870   0.329  -2.588  1.00  0.00     0.168 HD
ENDBRANCH  10  12
ENDBRANCH   7  10
ENDBRANCH   1   7
BRANCH   4  22
ATOM     22  N   UNL d   1      -1.186  -1.232  -5.367  0.00  0.00    -0.327 N 
ATOM     23  C   UNL d   1      -1.571  -0.365  -6.369  0.00  0.00     0.222 C 
ATOM     24  O   UNL d   1      -1.534   0.865  -6.327  0.00  0.00    -0.273 OA
ATOM     25  H   UNL d   1      -1.137  -2.219  -5.595  0.00  0.00     0.169 HD
BRANCH  23  26
ATOM     26  C   UNL d   1      -1.959  -1.042  -7.669  0.00  0.00     0.113 C 
BRANCH  26  27
ATOM     27  C   UNL d   1      -1.240  -0.338  -8.815  0.00  0.00     0.119 C 
BRANCH  27  28
ATOM     28  C   UNL d   1       0.250  -0.507  -8.669  0.00  0.00     0.139 C 
ATOM     29  O   UNL d   1       0.867  -1.459  -9.123  0.00  0.00    -0.650 OA
BRANCH  28  30
ATOM     30  O   UNL d   1       0.837   0.453  -7.921  0.00  0.00    -0.776 OA
ATOM     31  H   UNL d   1       0.203   1.091  -7.521  0.00  0.00     0.167 HD
ENDBRANCH  28  30
ENDBRANCH  27  28
ENDBRANCH  26  27
ENDBRANCH  23  26
ENDBRANCH   4  22
TORSDOF 8
