REMARK  6 active torsions:
REMARK  status: ('A' for Active; 'I' for Inactive)
REMARK    1  A    between atoms: N_9  and  C_1 
REMARK    2  A    between atoms: C_2  and  N_10 
REMARK    3  A    between atoms: O_19  and  C_3 
REMARK    4  A    between atoms: O_20  and  C_4 
REMARK    5  A    between atoms: C_21  and  O_19 
REMARK    6  A    between atoms: C_22  and  O_20 
ROOT
ATOM      1  N   UNL d   1       1.700  -2.339  -0.301  0.00  0.00    -0.372 N 
ATOM      2  N   UNL d   1       3.892  -4.024  -1.048  0.00  0.00    -0.372 N 
ATOM      3  C   UNL d   1       2.821  -3.693  -2.008  0.00  0.00     0.143 C 
ATOM      4  C   UNL d   1       2.698  -2.728   0.732  0.00  0.00     0.143 C 
ATOM      5  C   UNL d   1       1.489  -3.442  -1.268  0.00  0.00     0.143 C 
ATOM      6  C   UNL d   1       4.060  -3.054   0.058  0.00  0.00     0.143 C 
ENDROOT
BRANCH   1   7
ATOM      7  C   UNL d   1       0.704  -1.526   0.012  0.00  0.00     0.123 A 
ATOM      8  C   UNL d   1       0.389  -0.204  -0.198  0.00  0.00     0.154 A 
ATOM      9  C   UNL d   1      -0.863  -0.328   0.584  0.00  0.00     0.259 A 
ATOM     10  C   UNL d   1      -0.563  -1.773   0.739  0.00  0.00     0.254 A 
ATOM     11  O   UNL d   1      -1.786   0.354   0.946  0.00  0.00    -0.281 OA
ATOM     12  O   UNL d   1      -1.161  -2.687   1.252  0.00  0.00    -0.281 OA
BRANCH   8  13
ATOM     13  O   UNL d   1       0.932   0.802  -0.789  0.00  0.00    -0.345 OA
BRANCH  13  14
ATOM     14  C   UNL d   1       1.821   0.456  -1.849  0.00  0.00     0.171 C 
ATOM     15  C   UNL d   1       2.394   1.739  -2.426  0.00  0.00     0.034 C 
ENDBRANCH  13  14
ENDBRANCH   8  13
ENDBRANCH   1   7
BRANCH   2  16
ATOM     16  C   UNL d   1       4.721  -5.026  -1.261  0.00  0.00     0.123 A 
ATOM     17  C   UNL d   1       5.959  -5.284  -1.804  0.00  0.00     0.154 A 
ATOM     18  C   UNL d   1       5.837  -6.732  -1.514  0.00  0.00     0.259 A 
ATOM     19  C   UNL d   1       4.498  -6.460  -0.949  0.00  0.00     0.254 A 
ATOM     20  O   UNL d   1       6.445  -7.758  -1.701  0.00  0.00    -0.281 OA
ATOM     21  O   UNL d   1       3.646  -7.162  -0.465  0.00  0.00    -0.281 OA
BRANCH  17  22
ATOM     22  O   UNL d   1       6.902  -4.614  -2.364  0.00  0.00    -0.345 OA
BRANCH  22  23
ATOM     23  C   UNL d   1       6.474  -3.446  -3.056  0.00  0.00     0.171 C 
ATOM     24  C   UNL d   1       7.695  -2.798  -3.687  0.00  0.00     0.034 C 
ENDBRANCH  22  23
ENDBRANCH  17  22
ENDBRANCH   2  16
TORSDOF 6
