REMARK  5 active torsions:
REMARK  status: ('A' for Active; 'I' for Inactive)
REMARK       I    between atoms: N_4  and  C_1 
REMARK       I    between atoms: N_9  and  C_1 
REMARK    1  A    between atoms: N_2  and  N_4 
REMARK    2  A    between atoms: C_5  and  C_8 
REMARK    3  A    between atoms: C_10  and  C_5 
REMARK    4  A    between atoms: C_8  and  C_7 
REMARK    5  A    between atoms: C_13  and  C_10 
ROOT
ATOM      1  N   UNL d   1      -1.046  -4.261   1.879  0.00  0.00    -0.305 N 
ATOM      2  HN  UNL d   1      -0.780  -3.342   2.233  1.00  0.00     0.186 HD
ATOM      3  C   UNL d   1      -1.035  -4.482   0.601  0.00  0.00     0.001 C 
ATOM      4  C   UNL d   1      -1.348  -5.806  -0.076  0.00  0.00     0.065 C 
ENDROOT
BRANCH   3   5
ATOM      5  C   UNL d   1      -0.652  -3.304  -0.326  0.00  0.00     0.063 C 
BRANCH   5   6
ATOM      6  C   UNL d   1      -1.722  -2.148  -0.418  0.00  0.00    -0.035 C 
ATOM      7  C   UNL d   1      -3.045  -2.755  -0.956  0.00  0.00     0.010 C 
ATOM      8  C   UNL d   1      -2.967  -3.165  -2.434  0.00  0.00     0.001 C 
ATOM      9  C   UNL d   1      -2.575  -1.984  -3.312  0.00  0.00     0.000 C 
ATOM     10  C   UNL d   1      -1.239  -1.398  -2.878  0.00  0.00     0.001 C 
ATOM     11  C   UNL d   1      -1.242  -1.034  -1.396  0.00  0.00     0.010 C 
BRANCH   6  12
ATOM     12  C   UNL d   1      -1.856  -1.509   1.016  0.00  0.00     0.013 C 
BRANCH  12  13
ATOM     13  C   UNL d   1      -2.546  -0.137   1.225  0.00  0.00    -0.022 C 
ATOM     14  C   UNL d   1      -4.056  -0.184   1.011  0.00  0.00     0.009 C 
ATOM     15  C   UNL d   1      -2.265   0.364   2.650  0.00  0.00     0.009 C 
ENDBRANCH  12  13
ENDBRANCH   6  12
ENDBRANCH   5   6
ENDBRANCH   3   5
BRANCH   1  16
ATOM     16  N   UNL d   1      -1.408  -5.243   2.758  0.00  0.00    -0.252 N 
ATOM     17  C   UNL d   1      -1.558  -4.992   4.101  0.00  0.00     0.332 C 
ATOM     18  O   UNL d   1      -1.962  -5.831   4.900  0.00  0.00    -0.246 OA
ATOM     19  N   UNL d   1      -1.233  -3.727   4.471  0.00  0.00    -0.351 N 
ATOM     20  H   UNL d   1      -1.176  -3.062   3.711  0.00  0.00     0.160 HD
ATOM     21  H   UNL d   1      -1.485  -3.417   5.396  0.00  0.00     0.160 HD
ATOM     22  H   UNL d   1      -1.681  -6.167   2.457  0.00  0.00     0.191 HD
ENDBRANCH   1  16
TORSDOF 5
