REMARK  5 active torsions:
REMARK  status: ('A' for Active; 'I' for Inactive)
REMARK    1  A    between atoms: S_9  and  C_1 
REMARK    2  A    between atoms: C_7  and  C_4 
REMARK    3  A    between atoms: O_14  and  C_7 
REMARK    4  A    between atoms: C_12  and  S_9 
REMARK    5  A    between atoms: C_21  and  O_14 
ROOT
ATOM      1  C   UNL d   1       0.961   1.185   0.016  0.00  0.00     0.150 A 
ATOM      2  N   UNL d   1      -0.374   1.190   0.028  0.00  0.00    -0.332 N 
ATOM      3  HN  UNL d   1      -0.912   2.057   0.023  1.00  0.00     0.168 HD
ATOM      4  C   UNL d   1      -0.969  -0.021   0.047  0.00  0.00     0.112 A 
ATOM      5  N   UNL d   1       1.724   0.080   0.028  0.00  0.00    -0.340 N 
ATOM      6  HN  UNL d   1       2.742   0.140   0.017  1.00  0.00     0.167 HD
ATOM      7  C   UNL d   1      -0.279  -1.214   0.067  0.00  0.00     0.060 A 
ATOM      8  C   UNL d   1       1.093  -1.112   0.054  0.00  0.00     0.009 A 
ATOM      9  C   UNL d   1       1.960  -2.334   0.036  0.00  0.00     0.068 C 
ENDROOT
BRANCH   1  10
ATOM     10  S   UNL d   1       1.771   2.758  -0.095  0.00  0.00    -0.054 SA
BRANCH  10  11
ATOM     11  C   UNL d   1       1.953   3.167   1.629  0.00  0.00     0.008 A 
ATOM     12  C   UNL d   1       3.230   3.468   2.117  0.00  0.00     0.021 A 
ATOM     13  C   UNL d   1       3.413   3.810   3.459  0.00  0.00     0.025 A 
ATOM     14  C   UNL d   1       2.315   3.857   4.316  0.00  0.00     0.034 A 
ATOM     15  C   UNL d   1       1.037   3.575   3.840  0.00  0.00     0.025 A 
ATOM     16 CL   UNL d   1       2.540   4.271   5.971  0.00  0.00    -0.084 Cl
ATOM     17  C   UNL d   1       0.855   3.238   2.495  0.00  0.00     0.021 A 
ENDBRANCH  10  11
ENDBRANCH   1  10
BRANCH   4  18
ATOM     18  C   UNL d   1      -2.455  -0.056  -0.062  0.00  0.00     0.310 C 
ATOM     19  O   UNL d   1      -3.106  -1.086  -0.145  0.00  0.00    -0.258 OA
BRANCH  18  20
ATOM     20  O   UNL d   1      -2.933   1.210  -0.161  0.00  0.00    -0.317 OA
BRANCH  20  21
ATOM     21  C   UNL d   1      -4.249   1.342  -0.711  0.00  0.00     0.175 C 
ATOM     22  C   UNL d   1      -4.126   1.410  -2.222  0.00  0.00     0.034 C 
ENDBRANCH  20  21
ENDBRANCH  18  20
ENDBRANCH   4  18
TORSDOF 5
