REMARK  7 active torsions:
REMARK  status: ('A' for Active; 'I' for Inactive)
REMARK       I    between atoms: N_3  and  C_1 
REMARK       I    between atoms: N_4  and  C_1 
REMARK       I    between atoms: C_2  and  N_6 
REMARK    1  A    between atoms: C_15  and  C_2 
REMARK    2  A    between atoms: N_6  and  N_3 
REMARK    3  A    between atoms: C_12  and  N_4 
REMARK    4  A    between atoms: C_5  and  C_21 
REMARK       I    between atoms: N_7  and  C_5 
REMARK    5  A    between atoms: C_14  and  N_7 
REMARK    6  A    between atoms: S_11  and  C_15 
REMARK    7  A    between atoms: C_21  and  S_11 
ROOT
ATOM      1  C   UNL d   1       0.297  -3.094   2.132  0.00  0.00     0.245 C 
ATOM      2  N   UNL d   1       0.032  -1.981   2.905  0.00  0.00    -0.265 N 
ATOM      3  O   UNL d   1       0.001  -3.151   0.937  0.00  0.00    -0.271 OA
ATOM      4  H   UNL d   1       0.156  -1.969   3.922  0.00  0.00     0.190 HD
ENDROOT
BRANCH   1   5
ATOM      5  C   UNL d   1       1.054  -4.200   2.845  0.00  0.00     0.178 C 
BRANCH   5   6
ATOM      6  S   UNL d   1       0.177  -4.801   4.337  0.00  0.00    -0.150 SA
BRANCH   6   7
ATOM      7  C   UNL d   1      -1.248  -5.559   3.506  0.00  0.00     0.177 C 
BRANCH   7   8
ATOM      8  C   UNL d   1      -2.258  -6.272   4.396  0.00  0.00     0.231 C 
ATOM      9  N   UNL d   1      -1.984  -6.329   5.750  0.00  0.00    -0.327 N 
ATOM     10  H   UNL d   1      -1.177  -5.798   6.068  0.00  0.00     0.169 HD
ATOM     11  O   UNL d   1      -3.267  -6.727   3.858  0.00  0.00    -0.272 OA
BRANCH   9  12
ATOM     12  C   UNL d   1      -2.824  -6.889   6.743  0.00  0.00     0.034 A 
ATOM     13  C   UNL d   1      -3.900  -7.733   6.449  0.00  0.00     0.029 A 
ATOM     14  C   UNL d   1      -4.762  -8.178   7.455  0.00  0.00     0.002 A 
ATOM     15  C   UNL d   1      -4.551  -7.793   8.774  0.00  0.00     0.000 A 
ATOM     16  C   UNL d   1      -3.453  -6.996   9.090  0.00  0.00     0.002 A 
ATOM     17  C   UNL d   1      -2.584  -6.558   8.082  0.00  0.00     0.029 A 
ENDBRANCH   9  12
ENDBRANCH   7   8
ENDBRANCH   6   7
ENDBRANCH   5   6
ENDBRANCH   1   5
BRANCH   2  18
ATOM     18  N   UNL d   1      -0.711  -0.923   2.354  0.00  0.00    -0.249 N 
ATOM     19  C   UNL d   1      -0.851   0.212   3.143  0.00  0.00     0.339 C 
ATOM     20  N   UNL d   1      -1.497   1.228   2.473  0.00  0.00    -0.308 N 
ATOM     21  O   UNL d   1      -0.459   0.225   4.305  0.00  0.00    -0.245 OA
ATOM     22  H   UNL d   1      -1.982   0.960   1.627  0.00  0.00     0.170 HD
ATOM     23  H   UNL d   1      -0.615  -0.821   1.346  0.00  0.00     0.192 HD
BRANCH  20  24
ATOM     24  C   UNL d   1      -1.725   2.537   2.949  0.00  0.00     0.036 A 
ATOM     25  C   UNL d   1      -1.074   3.070   4.066  0.00  0.00     0.031 A 
ATOM     26  C   UNL d   1      -1.327   4.383   4.479  0.00  0.00     0.026 A 
ATOM     27  C   UNL d   1      -2.235   5.169   3.777  0.00  0.00     0.034 A 
ATOM     28  C   UNL d   1      -2.893   4.653   2.664  0.00  0.00     0.026 A 
ATOM     29 CL   UNL d   1      -2.540   6.785   4.283  0.00  0.00    -0.084 Cl
ATOM     30  C   UNL d   1      -2.632   3.342   2.246  0.00  0.00     0.031 A 
ENDBRANCH  20  24
ENDBRANCH   2  18
TORSDOF 7
