REMARK  10 active torsions:
REMARK  status: ('A' for Active; 'I' for Inactive)
REMARK    1  A    between atoms: O_7  and  C_1 
REMARK    2  A    between atoms: C_2  and  C_20 
REMARK       I    between atoms: N_8  and  C_2 
REMARK    3  A    between atoms: N_3  and  N_8 
REMARK       I    between atoms: C_5  and  N_6 
REMARK    4  A    between atoms: C_26  and  C_5 
REMARK    5  A    between atoms: N_6  and  C_16 
REMARK    6  A    between atoms: C_17  and  O_7 
REMARK    7  A    between atoms: S_14  and  C_26 
REMARK    8  A    between atoms: C_20  and  S_14 
REMARK    9  A    between atoms: C_19  and  C_15 
REMARK   10  A    between atoms: O_27  and  C_21 
ROOT
ATOM      1  S   UNL d   1       5.043   8.053   2.475  0.00  0.00    -0.150 SA
ENDROOT
BRANCH   1   2
ATOM      2  C   UNL d   1       3.296   8.225   1.972  0.00  0.00     0.177 C 
BRANCH   2   3
ATOM      3  C   UNL d   1       2.698   6.844   1.730  0.00  0.00     0.231 C 
ATOM      4  N   UNL d   1       2.793   6.010   2.833  0.00  0.00    -0.327 N 
ATOM      5  H   UNL d   1       3.184   6.420   3.673  0.00  0.00     0.169 HD
ATOM      6  O   UNL d   1       2.164   6.574   0.656  0.00  0.00    -0.272 OA
BRANCH   4   7
ATOM      7  C   UNL d   1       2.488   4.637   2.896  0.00  0.00     0.034 A 
ATOM      8  C   UNL d   1       2.105   3.876   1.790  0.00  0.00     0.032 A 
ATOM      9  C   UNL d   1       1.830   2.510   1.919  0.00  0.00     0.039 A 
ATOM     10  C   UNL d   1       1.890   1.895   3.165  0.00  0.00     0.078 A 
ATOM     11  C   UNL d   1       2.320   2.642   4.265  0.00  0.00     0.039 A 
ATOM     12  C   UNL d   1       2.616   4.002   4.135  0.00  0.00     0.032 A 
BRANCH  10  13
ATOM     13  O   UNL d   1       1.588   0.597   3.442  0.00  0.00    -0.255 OA
BRANCH  13  14
ATOM     14  C   UNL d   1       0.697  -0.105   2.587  0.00  0.00     0.530 C 
ATOM     15  F   UNL d   1      -0.094   0.695   1.843  0.00  0.00    -0.144 F 
ATOM     16  F   UNL d   1      -0.110  -0.872   3.356  0.00  0.00    -0.144 F 
ATOM     17  F   UNL d   1       1.397  -0.920   1.770  0.00  0.00    -0.144 F 
ENDBRANCH  13  14
ENDBRANCH  10  13
ENDBRANCH   4   7
ENDBRANCH   2   3
ENDBRANCH   1   2
BRANCH   1  18
ATOM     18  C   UNL d   1       5.501   9.817   2.517  0.00  0.00     0.178 C 
BRANCH  18  19
ATOM     19  C   UNL d   1       6.965  10.064   2.882  0.00  0.00     0.245 C 
ATOM     20  N   UNL d   1       7.708   8.929   3.148  0.00  0.00    -0.270 N 
ATOM     21  H   UNL d   1       7.270   8.018   3.043  0.00  0.00     0.190 HD
ATOM     22  O   UNL d   1       7.396  11.216   2.929  0.00  0.00    -0.271 OA
BRANCH  20  23
ATOM     23  N   UNL d   1       9.039   9.023   3.409  0.00  0.00    -0.308 N 
ATOM     24  C   UNL d   1       9.657   7.904   3.612  0.00  0.00     0.118 C 
ATOM     25  HN  UNL d   1       9.522   9.921   3.442  1.00  0.00     0.186 HD
BRANCH  24  26
ATOM     26  C   UNL d   1      11.114   7.868   3.852  0.00  0.00    -0.017 A 
ATOM     27  C   UNL d   1      11.854   9.058   3.869  0.00  0.00     0.049 A 
ATOM     28  C   UNL d   1      13.233   9.017   4.067  0.00  0.00     0.069 A 
ATOM     29  C   UNL d   1      13.862   7.781   4.238  0.00  0.00     0.037 A 
ATOM     30  C   UNL d   1      13.125   6.594   4.226  0.00  0.00     0.004 A 
ATOM     31  C   UNL d   1      11.745   6.635   4.035  0.00  0.00     0.013 A 
BRANCH  28  32
ATOM     32  O   UNL d   1      14.069  10.098   4.112  0.00  0.00    -0.356 OA
ATOM     33  C   UNL d   1      13.468  11.380   3.963  0.00  0.00     0.210 C 
ENDBRANCH  28  32
ENDBRANCH  24  26
ENDBRANCH  20  23
ENDBRANCH  18  19
ENDBRANCH   1  18
TORSDOF 10
