REMARK  0 active torsions:
REMARK  status: ('A' for Active; 'I' for Inactive)
ROOT
ATOM      1  S   UNL d   1       1.740   1.475   0.000  0.00  0.00    -0.101 SA
ATOM      2  C   UNL d   1       0.282  -0.658   0.001  0.00  0.00    -0.011 A 
ATOM      3  C   UNL d   1       2.534  -0.030  -0.001  0.00  0.00     0.058 A 
ATOM      4  C   UNL d   1       1.661  -1.099  -0.001  0.00  0.00    -0.044 A 
ATOM      5  C   UNL d   1       0.186   0.738   0.001  0.00  0.00     0.015 A 
ATOM      6  C   UNL d   1      -0.925  -1.403   0.001  0.00  0.00     0.037 A 
ATOM      7  C   UNL d   1      -1.059   1.398   0.002  0.00  0.00     0.021 A 
ATOM      8  C   UNL d   1      -2.160  -0.749   0.003  0.00  0.00     0.035 A 
ATOM      9  C   UNL d   1      -2.229   0.636   0.003  0.00  0.00     0.025 A 
ATOM     10 CL   UNL d   1      -3.611  -1.676   0.004  0.00  0.00    -0.084 Cl
ATOM     11  C   UNL d   1       2.091  -2.530  -0.003  0.00  0.00     0.049 C 
ENDROOT
TORSDOF 0
