REMARK  7 active torsions:
REMARK  status: ('A' for Active; 'I' for Inactive)
REMARK       I    between atoms: C_3  and  N_1 
REMARK    1  A    between atoms: C_6  and  N_2 
REMARK    2  A    between atoms: C_5  and  C_3 
REMARK    3  A    between atoms: O_8  and  C_4 
REMARK    4  A    between atoms: C_17  and  C_7 
REMARK    5  A    between atoms: C_20  and  O_8 
REMARK    6  A    between atoms: O_21  and  C_9 
REMARK    7  A    between atoms: O_22  and  C_16 
ROOT
ATOM      1  N   UNL d   1      -3.277  -0.838   1.476  0.00  0.00    -0.346 N 
ATOM      2  N   UNL d   1      -4.300  -3.376   2.359  0.00  0.00    -0.376 N 
ATOM      3  C   UNL d   1      -2.772   0.318   0.895  0.00  0.00     0.243 C 
ATOM      4  C   UNL d   1      -4.490  -0.914   2.320  0.00  0.00     0.146 C 
ATOM      5  C   UNL d   1      -2.911  -2.091   0.804  0.00  0.00     0.146 C 
ATOM      6  C   UNL d   1      -4.579  -2.194   3.184  0.00  0.00     0.143 C 
ATOM      7  C   UNL d   1      -2.982  -3.326   1.711  0.00  0.00     0.143 C 
ATOM      8  O   UNL d   1      -1.872   0.303   0.056  0.00  0.00    -0.268 OA
ENDROOT
BRANCH   3   9
ATOM      9  C   UNL d   1      -3.358   1.614   1.318  0.00  0.00     0.075 C 
ATOM     10  C   UNL d   1      -2.809   2.764   0.902  0.00  0.00     0.017 C 
BRANCH  10  11
ATOM     11  C   UNL d   1      -3.387   4.033   1.338  0.00  0.00    -0.033 A 
ATOM     12  C   UNL d   1      -4.487   4.575   0.661  0.00  0.00     0.051 A 
ATOM     13  C   UNL d   1      -5.097   5.757   1.108  0.00  0.00     0.103 A 
ATOM     14  C   UNL d   1      -4.623   6.369   2.282  0.00  0.00     0.101 A 
ATOM     15  C   UNL d   1      -3.516   5.816   2.945  0.00  0.00     0.040 A 
ATOM     16  C   UNL d   1      -2.895   4.660   2.475  0.00  0.00     0.014 A 
BRANCH  13  17
ATOM     17  O   UNL d   1      -6.172   6.303   0.458  0.00  0.00    -0.343 OA
BRANCH  17  18
ATOM     18  C   UNL d   1      -6.261   6.134  -0.954  0.00  0.00     0.129 C 
ATOM     19  C   UNL d   1      -5.115   6.793  -1.722  0.00  0.00     0.032 C 
ATOM     20  C   UNL d   1      -5.687   7.122  -3.097  0.00  0.00     0.002 C 
ATOM     21  C   UNL d   1      -7.206   7.066  -2.954  0.00  0.00     0.002 C 
ATOM     22  C   UNL d   1      -7.471   6.912  -1.465  0.00  0.00     0.032 C 
ENDBRANCH  17  18
ENDBRANCH  13  17
BRANCH  14  23
ATOM     23  O   UNL d   1      -5.088   7.489   2.918  0.00  0.00    -0.353 OA
ATOM     24  C   UNL d   1      -6.226   8.153   2.395  0.00  0.00     0.210 C 
ENDBRANCH  14  23
ENDBRANCH  10  11
ENDBRANCH   3   9
BRANCH   2  25
ATOM     25  C   UNL d   1      -4.949  -4.587   2.576  0.00  0.00     0.064 A 
ATOM     26  C   UNL d   1      -6.360  -4.702   2.676  0.00  0.00     0.094 A 
ATOM     27  C   UNL d   1      -6.971  -5.968   2.733  0.00  0.00     0.039 A 
ATOM     28  C   UNL d   1      -6.207  -7.132   2.732  0.00  0.00     0.003 A 
ATOM     29  C   UNL d   1      -4.826  -7.043   2.693  0.00  0.00     0.002 A 
ATOM     30  C   UNL d   1      -4.213  -5.789   2.620  0.00  0.00     0.032 A 
BRANCH  26  31
ATOM     31  O   UNL d   1      -7.109  -3.546   2.607  0.00  0.00    -0.354 OA
ATOM     32  C   UNL d   1      -8.385  -3.594   3.239  0.00  0.00     0.210 C 
ENDBRANCH  26  31
ENDBRANCH   2  25
TORSDOF 7
