REMARK  5 active torsions:
REMARK  status: ('A' for Active; 'I' for Inactive)
REMARK       I    between atoms: N_2  and  C_1 
REMARK       I    between atoms: N_4  and  C_1 
REMARK    1  A    between atoms: C_3  and  N_2 
REMARK    2  A    between atoms: C_10  and  N_4 
REMARK    3  A    between atoms: O_11  and  C_12 
REMARK    4  A    between atoms: C_13  and  O_11 
REMARK    5  A    between atoms: C_18  and  C_13 
ROOT
ATOM      1  C   UNL d   1       1.195   0.491   0.472  0.00  0.00     0.321 C 
ATOM      2  N   UNL d   1       2.504   0.463   0.029  0.00  0.00    -0.338 N 
ATOM      3  N   UNL d   1       0.351   0.985  -0.495  0.00  0.00    -0.309 N 
ATOM      4  O   UNL d   1       0.879   0.096   1.587  0.00  0.00    -0.247 OA
ATOM      5  H   UNL d   1       2.756   1.103  -0.707  0.00  0.00     0.164 HD
ATOM      6  H   UNL d   1       0.782   1.261  -1.363  0.00  0.00     0.170 HD
ENDROOT
BRANCH   3   7
ATOM      7  C   UNL d   1      -1.050   1.119  -0.422  0.00  0.00     0.036 A 
ATOM      8  C   UNL d   1      -1.821   0.715   0.669  0.00  0.00     0.032 A 
ATOM      9  C   UNL d   1      -3.209   0.893   0.665  0.00  0.00     0.039 A 
ATOM     10  C   UNL d   1      -3.842   1.494  -0.421  0.00  0.00     0.069 A 
ATOM     11  C   UNL d   1      -3.083   1.867  -1.529  0.00  0.00     0.039 A 
ATOM     12  C   UNL d   1      -1.696   1.687  -1.524  0.00  0.00     0.032 A 
BRANCH  10  13
ATOM     13  O   UNL d   1      -5.195   1.664  -0.294  0.00  0.00    -0.347 OA
BRANCH  13  14
ATOM     14  C   UNL d   1      -5.758   2.673  -1.135  0.00  0.00     0.214 C 
BRANCH  14  15
ATOM     15  C   UNL d   1      -7.115   3.108  -0.634  0.00  0.00    -0.034 A 
ATOM     16  C   UNL d   1      -7.488   4.458  -0.743  0.00  0.00     0.009 A 
ATOM     17  C   UNL d   1      -8.753   4.881  -0.340  0.00  0.00     0.001 A 
ATOM     18  C   UNL d   1      -9.662   3.962   0.175  0.00  0.00     0.000 A 
ATOM     19  C   UNL d   1      -9.309   2.617   0.281  0.00  0.00     0.001 A 
ATOM     20  C   UNL d   1      -8.043   2.190  -0.126  0.00  0.00     0.009 A 
ENDBRANCH  14  15
ENDBRANCH  13  14
ENDBRANCH  10  13
ENDBRANCH   3   7
BRANCH   2  21
ATOM     21  C   UNL d   1       3.560   0.047   0.939  0.00  0.00     0.094 C 
ATOM     22  C   UNL d   1       4.027   1.177   1.886  0.00  0.00     0.064 C 
ATOM     23  C   UNL d   1       5.420   0.725   2.202  0.00  0.00    -0.050 A 
ATOM     24  C   UNL d   1       6.231   1.125   3.249  0.00  0.00     0.007 A 
ATOM     25  C   UNL d   1       5.872  -0.197   1.249  0.00  0.00    -0.050 A 
ATOM     26  C   UNL d   1       7.510   0.571   3.344  0.00  0.00     0.001 A 
ATOM     27  C   UNL d   1       7.962  -0.354   2.390  0.00  0.00     0.001 A 
ATOM     28  C   UNL d   1       7.144  -0.739   1.327  0.00  0.00     0.007 A 
ATOM     29  C   UNL d   1       4.825  -0.446   0.208  0.00  0.00     0.064 C 
ENDBRANCH   2  21
TORSDOF 5
