REMARK  3 active torsions:
REMARK  status: ('A' for Active; 'I' for Inactive)
REMARK    1  A    between atoms: C_2  and  C_1 
REMARK       I    between atoms: N_4  and  C_1 
REMARK    2  A    between atoms: C_3  and  C_5 
REMARK    3  A    between atoms: C_9  and  N_4 
ROOT
ATOM      1  C   UNL d   1       1.076  -0.086   0.141  0.00  0.00     0.262 C 
ATOM      2  N   UNL d   1       0.318   1.074   0.092  0.00  0.00    -0.323 N 
ATOM      3  O   UNL d   1       0.619  -1.219   0.249  0.00  0.00    -0.267 OA
ATOM      4  H   UNL d   1       0.803   1.943  -0.102  0.00  0.00     0.169 HD
ENDROOT
BRANCH   2   5
ATOM      5  C   UNL d   1      -1.091   1.166   0.182  0.00  0.00     0.035 A 
ATOM      6  C   UNL d   1      -1.920   0.089   0.508  0.00  0.00     0.045 A 
ATOM      7  C   UNL d   1      -3.317   0.231   0.550  0.00  0.00     0.050 A 
ATOM      8  C   UNL d   1      -3.882   1.480   0.259  0.00  0.00     0.016 A 
ATOM      9  C   UNL d   1      -3.064   2.567  -0.045  0.00  0.00     0.003 A 
ATOM     10  C   UNL d   1      -1.676   2.411  -0.077  0.00  0.00     0.029 A 
BRANCH   7  11
ATOM     11  C   UNL d   1      -4.203  -0.945   0.878  0.00  0.00     0.417 C 
ATOM     12  F   UNL d   1      -3.528  -2.053   1.290  0.00  0.00    -0.166 F 
ATOM     13  F   UNL d   1      -5.092  -0.663   1.873  0.00  0.00    -0.166 F 
ATOM     14  F   UNL d   1      -4.955  -1.340  -0.188  0.00  0.00    -0.166 F 
ENDBRANCH   7  11
ENDBRANCH   2   5
BRANCH   1  15
ATOM     15  C   UNL d   1       2.550   0.066   0.018  0.00  0.00     0.109 A 
ATOM     16  C   UNL d   1       3.387  -0.987   0.406  0.00  0.00     0.135 A 
ATOM     17  F   UNL d   1       2.896  -2.109   0.950  0.00  0.00    -0.205 F 
ATOM     18  C   UNL d   1       4.773  -0.903   0.262  0.00  0.00     0.043 A 
ATOM     19  C   UNL d   1       5.350   0.245  -0.274  0.00  0.00     0.006 A 
ATOM     20  C   UNL d   1       4.534   1.308  -0.655  0.00  0.00     0.043 A 
ATOM     21  C   UNL d   1       3.148   1.213  -0.507  0.00  0.00     0.135 A 
ATOM     22  F   UNL d   1       2.405   2.264  -0.890  0.00  0.00    -0.205 F 
ENDBRANCH   1  15
TORSDOF 3
