REMARK  16 active torsions:
REMARK  status: ('A' for Active; 'I' for Inactive)
REMARK       I    between atoms: N_4  and  C_1 
REMARK    1  A    between atoms: C_6  and  C_1 
REMARK       I    between atoms: C_3  and  N_2 
REMARK    2  A    between atoms: C_8  and  C_3 
REMARK    3  A    between atoms: C_12  and  N_4 
REMARK    4  A    between atoms: N_5  and  C_6 
REMARK    5  A    between atoms: C_16  and  C_8 
REMARK    6  A    between atoms: S_15  and  C_16 
REMARK    7  A    between atoms: C_17  and  S_15 
REMARK    8  A    between atoms: O_23  and  C_18 
REMARK    9  A    between atoms: C_34  and  C_31 
REMARK   10  A    between atoms: O_37  and  C_31 
REMARK   11  A    between atoms: C_32  and  C_33 
REMARK   12  A    between atoms: O_38  and  C_32 
REMARK   13  A    between atoms: C_43  and  C_41 
REMARK   14  A    between atoms: O_47  and  C_41 
REMARK   15  A    between atoms: C_42  and  C_44 
REMARK   16  A    between atoms: O_48  and  C_42 
ROOT
ATOM      1  C   UNL d   2       1.935  -1.832   2.986  0.00  0.00     0.088 C 
ATOM      2  C   UNL d   2       1.877  -0.506   3.172  0.00  0.00     0.088 C 
ENDROOT
BRANCH   1   3
ATOM      3  C   UNL d   2       0.871  -2.666   3.558  0.00  0.00     0.165 C 
ATOM      4  O   UNL d   2      -0.128  -2.233   4.109  0.00  0.00    -0.647 OA
BRANCH   3   5
ATOM      5  O   UNL d   2       1.124  -3.984   3.424  0.00  0.00    -0.773 OA
ATOM      6  H   UNL d   2       1.963  -4.205   2.983  0.00  0.00     0.167 HD
ENDBRANCH   3   5
ENDBRANCH   1   3
BRANCH   2   7
ATOM      7  C   UNL d   2       2.857   0.428   2.616  0.00  0.00     0.165 C 
ATOM      8  O   UNL d   2       2.788   1.640   2.711  0.00  0.00    -0.647 OA
BRANCH   7   9
ATOM      9  O   UNL d   2       3.872  -0.156   1.956  0.00  0.00    -0.773 OA
ATOM     10  H   UNL d   2       4.394   0.619   1.657  0.00  0.00     0.167 HD
ENDBRANCH   7   9
ENDBRANCH   2   7
TORSDOF 16
