REMARK  10 active torsions:
REMARK  status: ('A' for Active; 'I' for Inactive)
REMARK       I    between atoms: C_3  and  N_6 
REMARK       I    between atoms: N_15  and  C_3 
REMARK    1  A    between atoms: C_9  and  C_4 
REMARK    2  A    between atoms: C_8  and  C_5 
REMARK    3  A    between atoms: N_6  and  C_13 
REMARK    4  A    between atoms: S_10  and  C_7 
REMARK    5  A    between atoms: O_21  and  C_8 
REMARK    6  A    between atoms: O_22  and  C_9 
REMARK    7  A    between atoms: C_14  and  S_10 
REMARK    8  A    between atoms: C_19  and  N_15 
REMARK    9  A    between atoms: C_30  and  O_21 
REMARK   10  A    between atoms: C_31  and  O_22 
ROOT
ATOM      1  C   UNL d   1       3.584   2.797   2.503  0.00  0.00     0.033 C 
ATOM      2  C   UNL d   1       3.486   1.983   1.341  0.00  0.00     0.027 C 
ATOM      3  C   UNL d   1       4.394   3.941   2.552  0.00  0.00     0.025 C 
ATOM      4  C   UNL d   1       4.028   2.510   0.167  0.00  0.00     0.021 C 
ATOM      5  C   UNL d   1       4.682   3.760   0.177  0.00  0.00     0.001 C 
ATOM      6  C   UNL d   1       4.925   4.439   1.373  0.00  0.00     0.002 C 
ENDROOT
BRANCH   2   7
ATOM      7  S   UNL d   1       2.714   0.372   1.532  0.00  0.00    -0.089 SA
BRANCH   7   8
ATOM      8  C   UNL d   1       1.752  -0.135   0.120  0.00  0.00     0.010 A 
ATOM      9  C   UNL d   1       1.250   0.724  -0.847  0.00  0.00     0.054 A 
ATOM     10  C   UNL d   1       0.527   0.169  -1.908  0.00  0.00     0.110 A 
ATOM     11  N   UNL d   1       0.279  -1.155  -2.054  0.00  0.00    -0.346 N 
ATOM     12  C   UNL d   1       0.726  -1.979  -1.087  0.00  0.00     0.110 A 
ATOM     13  HN  UNL d   1      -0.227  -1.514  -2.864  1.00  0.00     0.166 HD
ATOM     14  C   UNL d   1       1.430  -1.506   0.021  0.00  0.00     0.054 A 
BRANCH  10  15
ATOM     15  C   UNL d   1      -0.104   1.075  -2.906  0.00  0.00     0.310 C 
ATOM     16  O   UNL d   1      -0.170   2.298  -2.772  0.00  0.00    -0.258 OA
BRANCH  15  17
ATOM     17  O   UNL d   1      -0.666   0.347  -3.899  0.00  0.00    -0.317 OA
BRANCH  17  18
ATOM     18  C   UNL d   1      -1.642   1.018  -4.701  0.00  0.00     0.175 C 
ATOM     19  C   UNL d   1      -2.998   0.833  -4.048  0.00  0.00     0.034 C 
ENDBRANCH  17  18
ENDBRANCH  15  17
ENDBRANCH  10  15
BRANCH  12  20
ATOM     20  C   UNL d   1       0.497  -3.456  -1.270  0.00  0.00     0.310 C 
ATOM     21  O   UNL d   1       0.733  -4.282  -0.400  0.00  0.00    -0.258 OA
BRANCH  20  22
ATOM     22  O   UNL d   1       0.095  -3.734  -2.540  0.00  0.00    -0.317 OA
BRANCH  22  23
ATOM     23  C   UNL d   1       0.173  -5.107  -2.967  0.00  0.00     0.175 C 
ATOM     24  C   UNL d   1      -1.136  -5.847  -2.760  0.00  0.00     0.034 C 
ENDBRANCH  22  23
ENDBRANCH  20  22
ENDBRANCH  12  20
ENDBRANCH   7   8
ENDBRANCH   2   7
BRANCH   1  25
ATOM     25  N   UNL d   1       2.463   2.825   3.386  0.00  0.00    -0.214 NA
ATOM     26  C   UNL d   1       1.378   3.487   2.804  0.00  0.00     0.281 C 
ATOM     27  N   UNL d   1       0.162   3.168   3.382  0.00  0.00    -0.215 NA
ATOM     28  O   UNL d   1       1.427   4.165   1.779  0.00  0.00    -0.260 OA
ATOM     29  H   UNL d   1      -0.334   2.841   2.553  0.00  0.00     0.138 HD
ATOM     30  H   UNL d   1       2.165   1.918   3.724  0.00  0.00     0.138 HD
BRANCH  27  31
ATOM     31  C   UNL d   1      -0.606   4.297   3.801  0.00  0.00     0.016 A 
ATOM     32  C   UNL d   1      -1.015   5.287   2.891  0.00  0.00     0.025 A 
ATOM     33  C   UNL d   1      -1.674   6.423   3.350  0.00  0.00     0.025 A 
ATOM     34  C   UNL d   1      -1.960   6.550   4.705  0.00  0.00     0.034 A 
ATOM     35  C   UNL d   1      -1.627   5.526   5.599  0.00  0.00     0.025 A 
ATOM     36 CL   UNL d   1      -2.695   7.988   5.291  0.00  0.00    -0.084 Cl
ATOM     37  C   UNL d   1      -0.944   4.400   5.154  0.00  0.00     0.025 A 
ENDBRANCH  27  31
ENDBRANCH   1  25
TORSDOF 10
