REMARK  5 active torsions:
REMARK  status: ('A' for Active; 'I' for Inactive)
REMARK    1  A    between atoms: C_9  and  N_1 
REMARK    2  A    between atoms: C_13  and  N_2 
REMARK    3  A    between atoms: C_11  and  O_16 
REMARK    4  A    between atoms: C_21  and  C_13 
REMARK    5  A    between atoms: O_16  and  C_22 
ROOT
ATOM      1  N   UNL d   1       0.919  -1.396   0.076  0.00  0.00    -0.246 N 
ATOM      2  N   UNL d   1       2.101   0.691  -0.028  0.00  0.00    -0.260 N 
ATOM      3  C   UNL d   1       2.151  -0.719   0.089  0.00  0.00     0.338 A 
ATOM      4  C   UNL d   1      -0.259  -0.689  -0.030  0.00  0.00     0.150 A 
ATOM      5  C   UNL d   1      -0.243   0.672  -0.096  0.00  0.00     0.147 A 
ATOM      6  C   UNL d   1       0.937   1.454  -0.119  0.00  0.00     0.282 A 
ATOM      7  N   UNL d   1      -1.542  -1.163  -0.033  0.00  0.00    -0.336 N 
ATOM      8  HN  UNL d   1      -1.845  -2.136  -0.004  1.00  0.00     0.168 HD
ATOM      9  N   UNL d   1      -1.553   1.060  -0.122  0.00  0.00    -0.345 N 
ATOM     10  C   UNL d   1      -2.300  -0.085  -0.083  0.00  0.00     0.182 A 
ATOM     11  O   UNL d   1       3.234  -1.308   0.161  0.00  0.00    -0.246 OA
ATOM     12  O   UNL d   1       0.902   2.679  -0.226  0.00  0.00    -0.265 OA
ATOM     13  H   UNL d   1      -1.893   2.012  -0.148  0.00  0.00     0.167 HD
ENDROOT
BRANCH   2  14
ATOM     14  C   UNL d   1       3.370   1.404  -0.061  0.00  0.00     0.175 C 
BRANCH  14  15
ATOM     15  C   UNL d   1       3.820   1.820   1.323  0.00  0.00    -0.040 A 
ATOM     16  C   UNL d   1       4.641   0.984   2.092  0.00  0.00     0.011 A 
ATOM     17  C   UNL d   1       4.999   1.335   3.401  0.00  0.00     0.037 A 
ATOM     18  C   UNL d   1       4.562   2.540   3.946  0.00  0.00     0.078 A 
ATOM     19  C   UNL d   1       3.735   3.369   3.183  0.00  0.00     0.037 A 
ATOM     20  C   UNL d   1       3.370   3.020   1.883  0.00  0.00     0.011 A 
BRANCH  18  21
ATOM     21  O   UNL d   1       4.825   3.024   5.189  0.00  0.00    -0.255 OA
BRANCH  21  22
ATOM     22  C   UNL d   1       5.933   2.539   5.929  0.00  0.00     0.530 C 
ATOM     23  F   UNL d   1       6.898   1.985   5.167  0.00  0.00    -0.144 F 
ATOM     24  F   UNL d   1       6.484   3.584   6.589  0.00  0.00    -0.144 F 
ATOM     25  F   UNL d   1       5.515   1.639   6.843  0.00  0.00    -0.144 F 
ENDBRANCH  21  22
ENDBRANCH  18  21
ENDBRANCH  14  15
ENDBRANCH   2  14
BRANCH   1  26
ATOM     26  C   UNL d   1       0.849  -2.811   0.124  0.00  0.00     0.051 A 
ATOM     27  C   UNL d   1       1.332  -3.542   1.228  0.00  0.00    -0.035 A 
ATOM     28  C   UNL d   1       1.772  -2.900   2.514  0.00  0.00     0.050 C 
ATOM     29  C   UNL d   1       1.375  -4.946   1.150  0.00  0.00     0.009 A 
ATOM     30  C   UNL d   1       0.937  -5.615   0.007  0.00  0.00     0.001 A 
ATOM     31  C   UNL d   1       0.425  -4.893  -1.066  0.00  0.00     0.002 A 
ATOM     32  C   UNL d   1       0.370  -3.500  -1.004  0.00  0.00     0.031 A 
ENDBRANCH   1  26
TORSDOF 5
