REMARK  9 active torsions:
REMARK  status: ('A' for Active; 'I' for Inactive)
REMARK    1  A    between atoms: C_9  and  N_1 
REMARK    2  A    between atoms: S_10  and  C_2 
REMARK    3  A    between atoms: C_8  and  C_11 
REMARK    4  A    between atoms: C_20  and  S_10 
REMARK    5  A    between atoms: C_12  and  C_20 
REMARK       I    between atoms: N_13  and  C_12 
REMARK    6  A    between atoms: C_23  and  N_13 
REMARK    7  A    between atoms: O_24  and  C_25 
REMARK    8  A    between atoms: C_28  and  O_24 
REMARK    9  A    between atoms: C_31  and  C_28 
ROOT
ATOM      1  N   UNL d   1      -0.374  -1.300  -0.200  0.00  0.00    -0.279 N 
ATOM      2  C   UNL d   1       0.885  -0.764  -0.432  0.00  0.00     0.168 C 
ATOM      3  N   UNL d   1       0.870   0.539  -0.286  0.00  0.00    -0.278 N 
ATOM      4  HN  UNL d   1       1.677   1.161  -0.339  1.00  0.00     0.189 HD
ATOM      5  N   UNL d   1      -0.418   0.912  -0.051  0.00  0.00    -0.287 N 
ATOM      6  HN  UNL d   1      -0.743   1.867   0.100  1.00  0.00     0.188 HD
ATOM      7  C   UNL d   1      -1.176  -0.168  -0.050  0.00  0.00     0.101 C 
ATOM      8  C   UNL d   1      -2.642  -0.133   0.168  0.00  0.00     0.091 C 
ENDROOT
BRANCH   2   9
ATOM      9  S   UNL d   1       2.243  -1.564  -1.162  0.00  0.00    -0.083 SA
BRANCH   9  10
ATOM     10  C   UNL d   1       1.542  -2.119  -2.735  0.00  0.00     0.185 C 
BRANCH  10  11
ATOM     11  C   UNL d   1       1.062  -1.053  -3.711  0.00  0.00     0.231 C 
ATOM     12  N   UNL d   1       1.301   0.266  -3.387  0.00  0.00    -0.327 N 
ATOM     13  H   UNL d   1       1.836   0.446  -2.541  0.00  0.00     0.169 HD
ATOM     14  O   UNL d   1       0.495  -1.434  -4.737  0.00  0.00    -0.272 OA
BRANCH  12  15
ATOM     15  C   UNL d   1       0.815   1.411  -4.058  0.00  0.00     0.034 A 
ATOM     16  C   UNL d   1      -0.077   1.365  -5.132  0.00  0.00     0.030 A 
ATOM     17  C   UNL d   1      -0.561   2.540  -5.715  0.00  0.00     0.018 A 
ATOM     18  C   UNL d   1      -0.158   3.794  -5.242  0.00  0.00     0.048 A 
ATOM     19  C   UNL d   1       0.753   3.843  -4.177  0.00  0.00     0.018 A 
ATOM     20  C   UNL d   1       1.226   2.664  -3.586  0.00  0.00     0.030 A 
BRANCH  18  21
ATOM     21  C   UNL d   1      -0.697   5.065  -5.850  0.00  0.00     0.417 C 
ATOM     22  F   UNL d   1      -1.616   4.853  -6.834  0.00  0.00    -0.166 F 
ATOM     23  F   UNL d   1      -1.315   5.862  -4.934  0.00  0.00    -0.166 F 
ATOM     24  F   UNL d   1       0.279   5.831  -6.413  0.00  0.00    -0.166 F 
ENDBRANCH  18  21
ENDBRANCH  12  15
ENDBRANCH  10  11
ENDBRANCH   9  10
ENDBRANCH   2   9
BRANCH   1  25
ATOM     25  C   UNL d   1      -0.752  -2.674  -0.161  0.00  0.00     0.043 A 
ATOM     26  C   UNL d   1       0.124  -3.640   0.356  0.00  0.00     0.033 A 
ATOM     27  C   UNL d   1      -0.236  -4.994   0.354  0.00  0.00     0.039 A 
ATOM     28  C   UNL d   1      -1.473  -5.401  -0.147  0.00  0.00     0.069 A 
ATOM     29  C   UNL d   1      -2.336  -4.441  -0.675  0.00  0.00     0.039 A 
ATOM     30  C   UNL d   1      -1.984  -3.087  -0.675  0.00  0.00     0.033 A 
BRANCH  28  31
ATOM     31  O   UNL d   1      -1.728  -6.744  -0.078  0.00  0.00    -0.347 OA
BRANCH  31  32
ATOM     32  C   UNL d   1      -3.095  -7.120  -0.272  0.00  0.00     0.214 C 
BRANCH  32  33
ATOM     33  C   UNL d   1      -3.329  -8.557   0.128  0.00  0.00    -0.034 A 
ATOM     34  C   UNL d   1      -4.495  -8.900   0.831  0.00  0.00     0.009 A 
ATOM     35  C   UNL d   1      -4.761 -10.227   1.162  0.00  0.00     0.001 A 
ATOM     36  C   UNL d   1      -3.871 -11.228   0.787  0.00  0.00     0.000 A 
ATOM     37  C   UNL d   1      -2.715 -10.906   0.079  0.00  0.00     0.001 A 
ATOM     38  C   UNL d   1      -2.446  -9.575  -0.254  0.00  0.00     0.009 A 
ENDBRANCH  32  33
ENDBRANCH  31  32
ENDBRANCH  28  31
ENDBRANCH   1  25
TORSDOF 9
