REMARK  7 active torsions:
REMARK  status: ('A' for Active; 'I' for Inactive)
REMARK    1  A    between atoms: C_15  and  N_3 
REMARK    2  A    between atoms: C_17  and  C_10 
REMARK    3  A    between atoms: S_19  and  C_11 
REMARK       I    between atoms: N_14  and  C_16 
REMARK    4  A    between atoms: C_18  and  N_14 
REMARK    5  A    between atoms: C_22  and  C_15 
REMARK    6  A    between atoms: C_16  and  C_23 
REMARK    7  A    between atoms: C_23  and  S_19 
ROOT
ATOM      1  C   UNL d   1      -0.488  -1.204   0.139  0.00  0.00     0.105 A 
ATOM      2  C   UNL d   1      -0.964  -2.546   0.035  0.00  0.00     0.193 A 
ATOM      3  N   UNL d   1       0.809  -0.767   0.077  0.00  0.00    -0.284 N 
ATOM      4  N   UNL d   1       0.901   0.595   0.061  0.00  0.00    -0.301 N 
ATOM      5  HN  UNL d   1       1.747   1.161   0.002  1.00  0.00     0.187 HD
ATOM      6  C   UNL d   1      -1.261  -0.073   0.234  0.00  0.00     0.063 A 
ATOM      7  O   UNL d   1      -2.220  -2.901   0.469  0.00  0.00    -0.266 OA
ATOM      8  N   UNL d   1      -0.377  -3.526  -0.619  0.00  0.00    -0.275 N 
ATOM      9  HN  UNL d   1       0.565  -3.519  -1.011  1.00  0.00     0.189 HD
ATOM     10  C   UNL d   1      -0.365   1.024   0.141  0.00  0.00     0.036 A 
ATOM     11  C   UNL d   1      -2.357  -4.169  -0.022  0.00  0.00     0.204 A 
ATOM     12  N   UNL d   1      -1.285  -4.569  -0.671  0.00  0.00    -0.272 N 
ATOM     13  HN  UNL d   1      -1.150  -5.473  -1.124  1.00  0.00     0.189 HD
ENDROOT
BRANCH   3  14
ATOM     14  C   UNL d   1       2.046  -1.536  -0.048  0.00  0.00     0.187 C 
BRANCH  14  15
ATOM     15  C   UNL d   1       2.606  -1.986   1.281  0.00  0.00    -0.038 A 
ATOM     16  C   UNL d   1       2.751  -3.355   1.564  0.00  0.00     0.015 A 
ATOM     17  C   UNL d   1       3.285  -3.788   2.787  0.00  0.00    -0.061 A 
ATOM     18  C   UNL d   1       3.427  -5.250   3.094  0.00  0.00     0.048 C 
ATOM     19  C   UNL d   1       3.705  -2.837   3.723  0.00  0.00     0.007 A 
ATOM     20  C   UNL d   1       3.585  -1.476   3.448  0.00  0.00     0.001 A 
ATOM     21  C   UNL d   1       3.038  -1.053   2.236  0.00  0.00     0.009 A 
ENDBRANCH  14  15
ENDBRANCH   3  14
BRANCH  11  22
ATOM     22  S   UNL d   1      -3.852  -5.051   0.071  0.00  0.00    -0.075 SA
BRANCH  22  23
ATOM     23  C   UNL d   1      -4.657  -4.287  -1.365  0.00  0.00     0.186 C 
BRANCH  23  24
ATOM     24  C   UNL d   1      -6.084  -4.736  -1.634  0.00  0.00     0.231 C 
ATOM     25  N   UNL d   1      -6.480  -5.923  -1.055  0.00  0.00    -0.325 N 
ATOM     26  H   UNL d   1      -6.040  -6.157  -0.171  0.00  0.00     0.169 HD
ATOM     27  O   UNL d   1      -6.805  -4.058  -2.367  0.00  0.00    -0.272 OA
BRANCH  25  28
ATOM     28  C   UNL d   1      -7.707  -6.567  -1.330  0.00  0.00     0.056 A 
ATOM     29  C   UNL d   1      -8.427  -7.168  -0.288  0.00  0.00     0.060 A 
ATOM     30 CL   UNL d   1      -7.925  -6.980   1.357  0.00  0.00    -0.082 Cl
ATOM     31  C   UNL d   1      -9.601  -7.878  -0.550  0.00  0.00     0.026 A 
ATOM     32  C   UNL d   1     -10.050  -8.020  -1.863  0.00  0.00     0.002 A 
ATOM     33  C   UNL d   1      -9.345  -7.419  -2.906  0.00  0.00     0.002 A 
ATOM     34  C   UNL d   1      -8.188  -6.681  -2.644  0.00  0.00     0.031 A 
ENDBRANCH  25  28
ENDBRANCH  23  24
ENDBRANCH  22  23
ENDBRANCH  11  22
BRANCH  10  35
ATOM     35  C   UNL d   1      -0.731   2.498   0.068  0.00  0.00    -0.007 C 
ATOM     36  C   UNL d   1      -1.555   2.907   1.307  0.00  0.00     0.021 C 
ATOM     37  C   UNL d   1       0.514   3.405  -0.003  0.00  0.00     0.021 C 
ATOM     38  C   UNL d   1      -1.581   2.760  -1.195  0.00  0.00     0.021 C 
ENDBRANCH  10  35
TORSDOF 7
