REMARK  3 active torsions:
REMARK  status: ('A' for Active; 'I' for Inactive)
REMARK    1  A    between atoms: S_8  and  C_1 
REMARK    2  A    between atoms: C_5  and  C_2 
REMARK    3  A    between atoms: C_16  and  S_8 
ROOT
ATOM      1  C   UNL d   1       1.077   0.785   0.030  0.00  0.00     0.051 A 
ATOM      2  C   UNL d   1      -0.300   1.167  -0.004  0.00  0.00     0.076 A 
ATOM      3  N   UNL d   1      -1.080   0.069   0.042  0.00  0.00    -0.299 N 
ATOM      4  HN  UNL d   1      -2.099   0.030   0.065  1.00  0.00     0.187 HD
ATOM      5  N   UNL d   1      -0.223  -0.962   0.050  0.00  0.00    -0.310 N 
ATOM      6  C   UNL d   1       1.084  -0.589   0.047  0.00  0.00     0.128 A 
ATOM      7  H   UNL d   1      -0.606  -1.901   0.055  0.00  0.00     0.186 HD
ENDROOT
BRANCH   2   8
ATOM      8  C   UNL d   1      -0.915   2.500  -0.060  0.00  0.00    -0.004 A 
ATOM      9  C   UNL d   1      -2.140   2.736   0.586  0.00  0.00     0.053 A 
ATOM     10  C   UNL d   1      -2.735   3.999   0.533  0.00  0.00     0.103 A 
ATOM     11  O   UNL d   1      -3.944   4.142   1.165  0.00  0.00    -0.346 OA
ATOM     12  C   UNL d   1      -2.099   5.050  -0.135  0.00  0.00     0.102 A 
ATOM     13  C   UNL d   1      -4.619   5.328   0.729  0.00  0.00     0.202 C 
ATOM     14  C   UNL d   1      -3.669   6.515   0.733  0.00  0.00     0.202 C 
ATOM     15  O   UNL d   1      -2.607   6.320  -0.207  0.00  0.00    -0.346 OA
ATOM     16  C   UNL d   1      -0.894   4.825  -0.791  0.00  0.00     0.040 A 
ATOM     17  C   UNL d   1      -0.312   3.555  -0.764  0.00  0.00     0.017 A 
ENDBRANCH   2   8
BRANCH   1  18
ATOM     18  S   UNL d   1       2.507   1.784   0.013  0.00  0.00    -0.087 SA
BRANCH  18  19
ATOM     19  C   UNL d   1       2.831   2.063   1.742  0.00  0.00     0.005 A 
ATOM     20  C   UNL d   1       4.115   1.790   2.230  0.00  0.00     0.020 A 
ATOM     21  C   UNL d   1       4.429   2.024   3.571  0.00  0.00     0.025 A 
ATOM     22  C   UNL d   1       3.461   2.538   4.430  0.00  0.00     0.034 A 
ATOM     23  C   UNL d   1       2.184   2.829   3.955  0.00  0.00     0.025 A 
ATOM     24 CL   UNL d   1       3.847   2.824   6.081  0.00  0.00    -0.084 Cl
ATOM     25  C   UNL d   1       1.872   2.597   2.612  0.00  0.00     0.020 A 
ENDBRANCH  18  19
ENDBRANCH   1  18
TORSDOF 3
