REMARK  10 active torsions:
REMARK  status: ('A' for Active; 'I' for Inactive)
REMARK       I    between atoms: N_3  and  C_1 
REMARK    1  A    between atoms: O_9  and  C_1 
REMARK       I    between atoms: N_5  and  C_2 
REMARK    2  A    between atoms: C_4  and  C_2 
REMARK    3  A    between atoms: C_4  and  N_3 
REMARK    4  A    between atoms: C_13  and  C_4 
REMARK    5  A    between atoms: N_8  and  N_5 
REMARK    6  A    between atoms: C_6  and  N_8 
REMARK    7  A    between atoms: C_7  and  C_6 
REMARK    8  A    between atoms: C_16  and  C_7 
REMARK    9  A    between atoms: C_15  and  O_9 
REMARK   10  A    between atoms: C_17  and  C_13 
ROOT
ATOM      1  C   UNL d   1       0.957  -2.395  -1.638  0.00  0.00     0.163 C 
ENDROOT
BRANCH   1   2
ATOM      2  C   UNL d   1       0.184  -3.289  -2.638  0.00  0.00     0.068 C 
BRANCH   2   3
ATOM      3  C   UNL d   1       0.888  -4.592  -2.951  0.00  0.00    -0.056 A 
ATOM      4  C   UNL d   1       0.374  -5.813  -2.491  0.00  0.00     0.007 A 
ATOM      5  C   UNL d   1       1.033  -7.010  -2.776  0.00  0.00     0.001 A 
ATOM      6  C   UNL d   1       2.207  -6.999  -3.528  0.00  0.00     0.000 A 
ATOM      7  C   UNL d   1       2.723  -5.793  -3.995  0.00  0.00     0.001 A 
ATOM      8  C   UNL d   1       2.067  -4.594  -3.709  0.00  0.00     0.007 A 
ENDBRANCH   2   3
ENDBRANCH   1   2
BRANCH   1   9
ATOM      9  N   UNL d   1       1.093  -3.087  -0.353  0.00  0.00    -0.224 NA
ATOM     10  C   UNL d   1       2.206  -2.915   0.412  0.00  0.00     0.339 C 
ATOM     11  O   UNL d   1       2.788  -1.851   0.571  0.00  0.00    -0.245 OA
ATOM     12  H   UNL d   1       0.874  -4.075  -0.373  0.00  0.00     0.133 HD
BRANCH  10  13
ATOM     13  O   UNL d   1       2.526  -4.117   0.927  0.00  0.00    -0.298 OA
BRANCH  13  14
ATOM     14  C   UNL d   1       3.607  -4.337   1.874  0.00  0.00     0.061 C 
ATOM     15  C   UNL d   1       3.161  -3.837   3.254  0.00  0.00     0.046 C 
ATOM     16  C   UNL d   1       3.776  -5.867   1.905  0.00  0.00     0.046 C 
ATOM     17  C   UNL d   1       4.944  -3.726   1.438  0.00  0.00     0.046 C 
ENDBRANCH  13  14
ENDBRANCH  10  13
ENDBRANCH   1   9
BRANCH   1  18
ATOM     18  C   UNL d   1       0.256  -1.020  -1.645  0.00  0.00     0.254 C 
ATOM     19  N   UNL d   1      -0.201  -0.509  -0.439  0.00  0.00    -0.268 N 
ATOM     20  H   UNL d   1       0.362  -0.738   0.381  0.00  0.00     0.190 HD
ATOM     21  O   UNL d   1       0.089  -0.399  -2.698  0.00  0.00    -0.270 OA
BRANCH  19  22
ATOM     22  N   UNL d   1      -0.679   0.829  -0.528  0.00  0.00    -0.291 N 
ATOM     23  H   UNL d   1      -0.502   1.224  -1.462  0.00  0.00     0.187 HD
BRANCH  22  24
ATOM     24  C   UNL d   1      -1.890   1.227  -0.035  0.00  0.00     0.094 C 
ATOM     25  S   UNL d   1      -2.707   2.423  -0.898  0.00  0.00    -0.064 SA
BRANCH  24  26
ATOM     26  C   UNL d   1      -2.415   0.820   1.333  0.00  0.00     0.103 C 
BRANCH  26  27
ATOM     27  C   UNL d   1      -2.296  -0.625   1.773  0.00  0.00     0.128 C 
ATOM     28  O   UNL d   1      -2.858  -0.742   3.103  0.00  0.00    -0.385 OA
ATOM     29  C   UNL d   1      -3.655  -1.932   3.162  0.00  0.00     0.168 C 
ATOM     30  C   UNL d   1      -3.322  -2.727   1.921  0.00  0.00     0.029 C 
ATOM     31  C   UNL d   1      -3.053  -1.630   0.920  0.00  0.00     0.034 C 
ENDBRANCH  26  27
ENDBRANCH  24  26
ENDBRANCH  22  24
ENDBRANCH  19  22
ENDBRANCH   1  18
TORSDOF 10
