REMARK  5 active torsions:
REMARK  status: ('A' for Active; 'I' for Inactive)
REMARK    1  A    between atoms: C_7  and  C_1 
REMARK    2  A    between atoms: C_10  and  C_6 
REMARK       I    between atoms: C_9  and  N_12 
REMARK    3  A    between atoms: C_16  and  C_9 
REMARK    4  A    between atoms: C_11  and  C_10 
REMARK       I    between atoms: N_15  and  C_11 
REMARK    5  A    between atoms: N_12  and  N_15 
ROOT
ATOM      1  C   UNL d   1       1.077  -2.220  -0.195  0.00  0.00     0.191 C 
ENDROOT
BRANCH   1   2
ATOM      2  C   UNL d   1       0.361  -0.962   0.081  0.00  0.00     0.157 A 
ATOM      3  N   UNL d   1       0.530  -0.079   1.037  0.00  0.00    -0.321 N 
ATOM      4  C   UNL d   1      -0.578   0.744   0.894  0.00  0.00     0.156 A 
ATOM      5  HN  UNL d   1       1.288  -0.013   1.717  1.00  0.00     0.169 HD
ATOM      6  N   UNL d   1      -1.355   0.413  -0.153  0.00  0.00    -0.241 N 
ATOM      7  O   UNL d   1      -0.738  -0.714  -0.686  0.00  0.00    -0.222 OA
ATOM      8  HN  UNL d   1      -2.200   0.880  -0.480  1.00  0.00     0.196 HD
BRANCH   4   9
ATOM      9  C   UNL d   1      -0.908   1.798   1.851  0.00  0.00     0.094 A 
ATOM     10  N   UNL d   1       0.030   2.120   2.784  0.00  0.00    -0.360 N 
ATOM     11  C   UNL d   1      -0.342   3.042   3.702  0.00  0.00     0.105 A 
ATOM     12  HN  UNL d   1       0.956   1.693   2.791  1.00  0.00     0.165 HD
ATOM     13  C   UNL d   1      -1.598   3.624   3.708  0.00  0.00     0.104 A 
ATOM     14  N   UNL d   1      -2.537   3.323   2.784  0.00  0.00    -0.372 N 
ATOM     15  C   UNL d   1      -2.162   2.401   1.857  0.00  0.00     0.121 A 
ATOM     16  HN  UNL d   1      -3.460   3.756   2.782  1.00  0.00     0.164 HD
ENDBRANCH   4   9
ENDBRANCH   1   2
BRANCH   1  17
ATOM     17  C   UNL d   1       2.572  -2.176   0.011  0.00  0.00     0.243 C 
ATOM     18  N   UNL d   1       3.196  -0.965   0.195  0.00  0.00    -0.267 N 
ATOM     19  H   UNL d   1       2.703  -0.092   0.399  0.00  0.00     0.190 HD
ATOM     20  O   UNL d   1       3.232  -3.222  -0.028  0.00  0.00    -0.271 OA
BRANCH  18  21
ATOM     21  N   UNL d   1       4.582  -0.978   0.432  0.00  0.00    -0.263 N 
ATOM     22  C   UNL d   1       5.332   0.091  -0.015  0.00  0.00     0.270 C 
ATOM     23  O   UNL d   1       4.844   1.113  -0.491  0.00  0.00    -0.266 OA
ATOM     24  H   UNL d   1       4.993  -1.909   0.514  0.00  0.00     0.190 HD
BRANCH  22  25
ATOM     25  C   UNL d   1       6.811  -0.058   0.090  0.00  0.00     0.033 A 
ATOM     26  C   UNL d   1       7.624   0.636  -0.817  0.00  0.00     0.019 A 
ATOM     27  C   UNL d   1       9.016   0.550  -0.726  0.00  0.00     0.025 A 
ATOM     28  C   UNL d   1       9.598  -0.221   0.279  0.00  0.00     0.034 A 
ATOM     29  C   UNL d   1       8.800  -0.912   1.190  0.00  0.00     0.025 A 
ATOM     30 CL   UNL d   1      11.311  -0.309   0.406  0.00  0.00    -0.084 Cl
ATOM     31  C   UNL d   1       7.406  -0.832   1.099  0.00  0.00     0.019 A 
ENDBRANCH  22  25
ENDBRANCH  18  21
ENDBRANCH   1  17
TORSDOF 5
