REMARK  2 active torsions:
REMARK  status: ('A' for Active; 'I' for Inactive)
REMARK       I    between atoms: N_2  and  C_1 
REMARK       I    between atoms: N_4  and  C_1 
REMARK    1  A    between atoms: N_3  and  C_6 
REMARK    2  A    between atoms: C_5  and  N_4 
ROOT
ATOM      1  C   UNL d   1       0.860   0.037   0.105  0.00  0.00     0.322 C 
ATOM      2  N   UNL d   1       0.114  -1.061   0.542  0.00  0.00    -0.334 N 
ATOM      3  N   UNL d   1       0.674   0.400  -1.209  0.00  0.00    -0.309 N 
ATOM      4  C   UNL d   1      -1.734  -2.871   1.909  0.00  0.00     0.091 C 
ATOM      5  C   UNL d   1      -2.064  -2.249   0.551  0.00  0.00     0.045 C 
ATOM      6  C   UNL d   1      -0.676  -2.070   2.672  0.00  0.00     0.045 C 
ATOM      7  C   UNL d   1      -0.833  -1.847  -0.253  0.00  0.00     0.129 C 
ATOM      8  C   UNL d   1       0.513  -1.655   1.819  0.00  0.00     0.129 C 
ATOM      9  O   UNL d   1       1.617   0.626   0.874  0.00  0.00    -0.247 OA
ATOM     10  H   UNL d   1       0.147  -0.228  -1.790  0.00  0.00     0.170 HD
ENDROOT
BRANCH   3  11
ATOM     11  C   UNL d   1       1.198   1.534  -1.872  0.00  0.00     0.039 A 
ATOM     12  C   UNL d   1       2.054   2.465  -1.280  0.00  0.00     0.053 A 
ATOM     13  C   UNL d   1       2.478   3.586  -1.996  0.00  0.00     0.037 A 
ATOM     14 CL   UNL d   1       3.527   4.730  -1.247  0.00  0.00    -0.084 Cl
ATOM     15  C   UNL d   1       2.057   3.799  -3.304  0.00  0.00     0.048 A 
ATOM     16  C   UNL d   1       1.220   2.864  -3.901  0.00  0.00     0.037 A 
ATOM     17  C   UNL d   1       0.797   1.733  -3.200  0.00  0.00     0.053 A 
ATOM     18 CL   UNL d   1       0.684   3.110  -5.519  0.00  0.00    -0.084 Cl
ENDBRANCH   3  11
BRANCH   4  19
ATOM     19  N   UNL d   1      -1.464  -4.306   1.817  0.00  0.00    -0.362 N 
ATOM     20  C   UNL d   1      -0.381  -4.922   1.248  0.00  0.00     0.091 A 
ATOM     21  C   UNL d   1      -0.565  -6.287   1.332  0.00  0.00     0.019 A 
ATOM     22  C   UNL d   1      -1.804  -6.509   1.967  0.00  0.00     0.019 A 
ATOM     23  C   UNL d   1      -2.338  -5.272   2.259  0.00  0.00     0.091 A 
ENDBRANCH   4  19
TORSDOF 2
