REMARK  4 active torsions:
REMARK  status: ('A' for Active; 'I' for Inactive)
REMARK       I    between atoms: N_4  and  C_1 
REMARK    1  A    between atoms: C_5  and  C_1 
REMARK    2  A    between atoms: N_3  and  C_5 
REMARK    3  A    between atoms: C_6  and  N_3 
REMARK    4  A    between atoms: N_8  and  N_4 
ROOT
ATOM      1  N   UNL d   1       2.986   0.573  -1.214  0.00  0.00    -0.284 NA
ATOM      2  H   UNL d   1       2.464   1.399  -1.520  0.00  0.00     0.128 HD
ENDROOT
BRANCH   1   3
ATOM      3  C   UNL d   1       2.432   0.043   0.038  0.00  0.00     0.196 C 
BRANCH   3   4
ATOM      4  C   UNL d   1       1.058   0.658   0.328  0.00  0.00     0.244 C 
ATOM      5  O   UNL d   1       0.549   1.544  -0.360  0.00  0.00    -0.271 OA
ATOM      6  N   UNL d   1       0.463   0.158   1.484  0.00  0.00    -0.293 N 
ATOM      7  H   UNL d   1       0.840  -0.668   1.947  0.00  0.00     0.183 HD
BRANCH   6   8
ATOM      8  N   UNL d   1      -0.813   0.623   1.866  0.00  0.00    -0.247 NA
ATOM      9  H   UNL d   1      -1.212   1.111   1.051  0.00  0.00     0.143 HD
ATOM     10  H   UNL d   1      -0.684   1.371   2.554  0.00  0.00     0.143 HD
ENDBRANCH   6   8
ENDBRANCH   3   4
ENDBRANCH   1   3
BRANCH   1  11
ATOM     11  C   UNL d   1       4.372   0.739  -1.296  0.00  0.00     0.008 A 
ATOM     12  C   UNL d   1       5.276  -0.148  -0.693  0.00  0.00     0.026 A 
ATOM     13  C   UNL d   1       6.656   0.036  -0.819  0.00  0.00     0.044 A 
ATOM     14  C   UNL d   1       7.139   1.091  -1.579  0.00  0.00     0.116 A 
ATOM     15  C   UNL d   1       6.268   1.952  -2.232  0.00  0.00     0.044 A 
ATOM     16  F   UNL d   1       8.460   1.273  -1.694  0.00  0.00    -0.206 F 
ATOM     17  C   UNL d   1       4.889   1.764  -2.103  0.00  0.00     0.026 A 
ENDBRANCH   1  11
TORSDOF 4
