REMARK  5 active torsions:
REMARK  status: ('A' for Active; 'I' for Inactive)
REMARK    1  A    between atoms: C_2  and  C_1 
REMARK       I    between atoms: N_8  and  C_2 
REMARK    2  A    between atoms: C_11  and  N_8 
REMARK    3  A    between atoms: C_9  and  C_11 
REMARK    4  A    between atoms: C_12  and  C_9 
REMARK    5  A    between atoms: O_10  and  C_12 
ROOT
ATOM      1  C   UNL d   1       0.963   2.917   1.155  0.00  0.00     0.258 C 
ATOM      2  O   UNL d   1       0.894   3.431   2.268  0.00  0.00    -0.267 OA
ATOM      3  N   UNL d   1       0.823   3.658  -0.003  0.00  0.00    -0.356 N 
ATOM      4  H   UNL d   1       0.919   3.175  -0.886  0.00  0.00     0.162 HD
ENDROOT
BRANCH   1   5
ATOM      5  C   UNL d   1       1.191   1.488   0.963  0.00  0.00     0.072 A 
ATOM      6  S   UNL d   1       1.308   0.773  -0.594  0.00  0.00    -0.097 SA
ATOM      7  C   UNL d   1       1.550  -0.786   0.060  0.00  0.00     0.050 A 
ATOM      8  C   UNL d   1       1.543  -0.776   1.437  0.00  0.00     0.009 A 
ATOM      9  C   UNL d   1       1.335   0.534   1.956  0.00  0.00     0.025 A 
ENDBRANCH   1   5
BRANCH   3  10
ATOM     10  C   UNL d   1       0.567   5.083   0.003  0.00  0.00     0.125 C 
BRANCH  10  11
ATOM     11  C   UNL d   1       1.861   5.894  -0.009  0.00  0.00     0.046 C 
BRANCH  11  12
ATOM     12  C   UNL d   1       1.583   7.393  -0.047  0.00  0.00     0.168 C 
BRANCH  12  13
ATOM     13  O   UNL d   1       0.833   7.761   1.106  0.00  0.00    -0.396 OA
ATOM     14  C   UNL d   1       0.530   9.148   1.129  0.00  0.00     0.201 C 
ENDBRANCH  12  13
ENDBRANCH  11  12
ENDBRANCH  10  11
ENDBRANCH   3  10
TORSDOF 5
