REMARK  8 active torsions:
REMARK  status: ('A' for Active; 'I' for Inactive)
REMARK       I    between atoms: N_3  and  C_1 
REMARK       I    between atoms: N_15  and  C_1 
REMARK    1  A    between atoms: C_2  and  N_3 
REMARK    2  A    between atoms: C_4  and  C_19 
REMARK    3  A    between atoms: O_18  and  C_8 
REMARK    4  A    between atoms: O_17  and  C_9 
REMARK    5  A    between atoms: C_20  and  N_15 
REMARK    6  A    between atoms: S_16  and  C_21 
REMARK    7  A    between atoms: C_19  and  S_16 
REMARK    8  A    between atoms: C_21  and  C_20 
ROOT
ATOM      1  C   UNL d   1       1.131  -0.025  -0.009  0.00  0.00     0.320 C 
ATOM      2  N   UNL d   1       0.528  -1.266  -0.036  0.00  0.00    -0.309 N 
ATOM      3  O   UNL d   1       0.571   1.062  -0.027  0.00  0.00    -0.247 OA
ATOM      4  N   UNL d   1       2.508  -0.125  -0.004  0.00  0.00    -0.342 N 
ATOM      5  H   UNL d   1       1.148  -2.062  -0.100  0.00  0.00     0.170 HD
ATOM      6  H   UNL d   1       2.920  -0.937   0.429  0.00  0.00     0.164 HD
ENDROOT
BRANCH   2   7
ATOM      7  C   UNL d   1      -0.862  -1.545  -0.038  0.00  0.00     0.041 A 
ATOM      8  C   UNL d   1      -1.838  -0.545   0.000  0.00  0.00     0.066 A 
ATOM      9  C   UNL d   1      -3.195  -0.867   0.088  0.00  0.00     0.073 A 
ATOM     10  C   UNL d   1      -3.588  -2.205   0.082  0.00  0.00     0.073 A 
ATOM     11  C   UNL d   1      -2.635  -3.217  -0.030  0.00  0.00     0.073 A 
ATOM     12  C   UNL d   1      -1.274  -2.884  -0.063  0.00  0.00     0.066 A 
BRANCH   9  13
ATOM     13  O   UNL d   1      -4.222   0.034   0.191  0.00  0.00    -0.356 OA
ATOM     14  C   UNL d   1      -3.857   1.411   0.225  0.00  0.00     0.210 C 
ENDBRANCH   9  13
BRANCH  11  15
ATOM     15  O   UNL d   1      -2.920  -4.555  -0.091  0.00  0.00    -0.356 OA
ATOM     16  C   UNL d   1      -4.242  -4.884  -0.518  0.00  0.00     0.210 C 
ENDBRANCH  11  15
ENDBRANCH   2   7
BRANCH   4  17
ATOM     17  C   UNL d   1       3.335   1.074  -0.052  0.00  0.00     0.134 C 
BRANCH  17  18
ATOM     18  C   UNL d   1       3.685   1.657   1.323  0.00  0.00     0.094 C 
BRANCH  18  19
ATOM     19  S   UNL d   1       4.789   0.521   2.245  0.00  0.00    -0.161 SA
BRANCH  19  20
ATOM     20  C   UNL d   1       5.098   1.534   3.729  0.00  0.00     0.139 C 
BRANCH  20  21
ATOM     21  C   UNL d   1       5.942   2.723   3.451  0.00  0.00     0.061 A 
ATOM     22  O   UNL d   1       5.288   3.916   3.318  0.00  0.00    -0.326 OA
ATOM     23  C   UNL d   1       6.234   4.867   3.108  0.00  0.00     0.142 A 
ATOM     24  C   UNL d   1       7.489   4.307   3.109  0.00  0.00     0.027 A 
ATOM     25  C   UNL d   1       7.303   2.921   3.330  0.00  0.00     0.035 A 
ENDBRANCH  20  21
ENDBRANCH  19  20
ENDBRANCH  18  19
ENDBRANCH  17  18
ENDBRANCH   4  17
TORSDOF 8
