REMARK  3 active torsions:
REMARK  status: ('A' for Active; 'I' for Inactive)
REMARK    1  A    between atoms: C_11  and  C_3 
REMARK    2  A    between atoms: N_4  and  C_12 
REMARK    3  A    between atoms: C_18  and  C_5 
ROOT
ATOM      1  C   UNL d   1      -0.040  -2.637  -0.052  0.00  0.00     0.013 A 
ATOM      2  C   UNL d   1      -0.479  -5.374  -0.093  0.00  0.00     0.128 A 
ATOM      3  N   UNL d   1      -1.366  -4.565  -0.733  0.00  0.00    -0.350 N 
ATOM      4  HN  UNL d   1      -2.177  -4.945  -1.221  1.00  0.00     0.166 HD
ATOM      5  C   UNL d   1      -1.123  -3.230  -0.694  0.00  0.00     0.104 A 
ATOM      6  C   UNL d   1       0.869  -3.502   0.567  0.00  0.00     0.019 A 
ATOM      7  C   UNL d   1       0.650  -4.883   0.558  0.00  0.00     0.051 A 
ENDROOT
BRANCH   1   8
ATOM      8  C   UNL d   1       0.177  -1.186  -0.031  0.00  0.00     0.086 A 
ATOM      9  N   UNL d   1       1.361  -0.609   0.023  0.00  0.00    -0.352 N 
ATOM     10  C   UNL d   1       1.245   0.776   0.007  0.00  0.00     0.024 A 
ATOM     11  HN  UNL d   1       2.246  -1.114   0.071  1.00  0.00     0.166 HD
ATOM     12  C   UNL d   1      -0.063   1.228  -0.009  0.00  0.00     0.077 A 
ATOM     13  S   UNL d   1      -1.151  -0.088  -0.025  0.00  0.00    -0.081 SA
BRANCH  10  14
ATOM     14  C   UNL d   1       2.499   1.640  -0.011  0.00  0.00    -0.008 C 
ATOM     15  C   UNL d   1       3.778   0.777   0.012  0.00  0.00     0.021 C 
ATOM     16  C   UNL d   1       2.525   2.498  -1.292  0.00  0.00     0.021 C 
ATOM     17  C   UNL d   1       2.528   2.571   1.216  0.00  0.00     0.021 C 
ENDBRANCH  10  14
ENDBRANCH   1   8
BRANCH   2  18
ATOM     18  N   UNL d   1      -0.740  -6.768  -0.086  0.00  0.00    -0.235 N 
ATOM     19  N   UNL d   1       0.024  -7.678   0.575  0.00  0.00    -0.287 N 
ATOM     20  C   UNL d   1      -0.636  -8.813   0.333  0.00  0.00     0.199 A 
ATOM     21  HN  UNL d   1       0.877  -7.532   1.115  1.00  0.00     0.188 HD
ATOM     22  N   UNL d   1      -1.746  -8.698  -0.450  0.00  0.00    -0.346 N 
ATOM     23  C   UNL d   1      -1.787  -7.409  -0.701  0.00  0.00     0.209 A 
ATOM     24  HN  UNL d   1      -2.385  -9.429  -0.762  1.00  0.00     0.167 HD
ENDBRANCH   2  18
TORSDOF 3
