REMARK  7 active torsions:
REMARK  status: ('A' for Active; 'I' for Inactive)
REMARK    1  A    between atoms: C_4  and  C_1 
REMARK       I    between atoms: C_8  and  N_2 
REMARK    2  A    between atoms: N_3  and  C_5 
REMARK    3  A    between atoms: C_24  and  C_8 
REMARK    4  A    between atoms: C_10  and  C_25 
REMARK    5  A    between atoms: O_23  and  C_10 
REMARK    6  A    between atoms: S_22  and  C_24 
REMARK    7  A    between atoms: C_25  and  S_22 
ROOT
ATOM      1  N   UNL d   1      -1.074  -4.478   6.835  0.00  0.00    -0.348 N 
ATOM      2  N   UNL d   1      -0.422  -2.667   4.766  0.00  0.00    -0.364 N 
ATOM      3  C   UNL d   1      -1.369  -5.102   8.031  0.00  0.00     0.229 C 
ATOM      4  C   UNL d   1      -2.140  -3.771   6.088  0.00  0.00     0.145 C 
ATOM      5  C   UNL d   1       0.222  -4.561   6.133  0.00  0.00     0.145 C 
ATOM      6  C   UNL d   1      -1.665  -2.417   5.502  0.00  0.00     0.144 C 
ATOM      7  C   UNL d   1       0.662  -3.189   5.602  0.00  0.00     0.144 C 
ATOM      8  O   UNL d   1      -2.470  -4.986   8.586  0.00  0.00    -0.273 OA
ENDROOT
BRANCH   2   9
ATOM      9  C   UNL d   1      -0.112  -1.947   3.636  0.00  0.00     0.103 A 
ATOM     10  C   UNL d   1       0.770  -2.501   2.703  0.00  0.00     0.049 A 
ATOM     11  C   UNL d   1       1.079  -1.820   1.534  0.00  0.00     0.021 A 
ATOM     12  C   UNL d   1       0.506  -0.576   1.298  0.00  0.00     0.063 A 
ATOM     13  C   UNL d   1      -0.377  -0.097   2.256  0.00  0.00     0.106 A 
ATOM     14  N   UNL d   1      -0.701  -0.758   3.397  0.00  0.00    -0.352 N 
ATOM     15  HN  UNL d   1      -1.373  -0.365   4.057  1.00  0.00     0.166 HD
BRANCH  12  16
ATOM     16  C   UNL d   1       0.828   0.197   0.060  0.00  0.00     0.418 C 
ATOM     17  F   UNL d   1       0.224   1.415  -0.002  0.00  0.00    -0.166 F 
ATOM     18  F   UNL d   1       0.463  -0.462  -1.074  0.00  0.00    -0.166 F 
ATOM     19  F   UNL d   1       2.163   0.436  -0.065  0.00  0.00    -0.166 F 
ENDBRANCH  12  16
ENDBRANCH   2   9
BRANCH   3  20
ATOM     20  C   UNL d   1      -0.279  -5.891   8.744  0.00  0.00     0.177 C 
BRANCH  20  21
ATOM     21  S   UNL d   1       0.674  -4.790   9.844  0.00  0.00    -0.149 SA
BRANCH  21  22
ATOM     22  C   UNL d   1      -0.648  -4.176  10.945  0.00  0.00     0.184 C 
BRANCH  22  23
ATOM     23  C   UNL d   1      -1.339  -5.291  11.698  0.00  0.00     0.149 C 
ATOM     24  O   UNL d   1      -0.913  -5.787  12.733  0.00  0.00    -0.649 OA
BRANCH  23  25
ATOM     25  O   UNL d   1      -2.478  -5.738  11.112  0.00  0.00    -0.776 OA
ATOM     26  H   UNL d   1      -2.696  -5.319  10.242  0.00  0.00     0.167 HD
ENDBRANCH  23  25
ENDBRANCH  22  23
ENDBRANCH  21  22
ENDBRANCH  20  21
ENDBRANCH   3  20
TORSDOF 7
