REMARK  7 active torsions:
REMARK  status: ('A' for Active; 'I' for Inactive)
REMARK    1  A    between atoms: C_6  and  C_1 
REMARK    2  A    between atoms: C_12  and  C_2 
REMARK    3  A    between atoms: S_14  and  C_5 
REMARK    4  A    between atoms: O_15  and  C_6 
REMARK    5  A    between atoms: O_16  and  C_12 
REMARK    6  A    between atoms: O_17  and  C_12 
REMARK    7  A    between atoms: C_18  and  S_14 
ROOT
ATOM      1  C   UNL d   1      -1.060   5.066   1.103  0.00  0.00    -0.107 C 
ATOM      2  C   UNL d   1      -1.024   6.253   1.296  0.00  0.00     0.013 C 
ATOM      3  C   UNL d   1      -1.099   3.616   0.865  0.00  0.00     0.175 C 
ENDROOT
BRANCH   3   4
ATOM      4  S   UNL d   1       0.168   3.118  -0.330  0.00  0.00    -0.082 SA
BRANCH   4   5
ATOM      5  C   UNL d   1       0.009   1.366  -0.173  0.00  0.00     0.145 A 
ATOM      6  N   UNL d   1      -1.212   0.818  -0.105  0.00  0.00    -0.346 N 
ATOM      7  C   UNL d   1      -1.261  -0.530  -0.025  0.00  0.00     0.110 A 
ATOM      8  HN  UNL d   1      -2.059   1.387  -0.114  1.00  0.00     0.167 HD
ATOM      9  C   UNL d   1      -0.143  -1.341  -0.003  0.00  0.00     0.080 A 
ATOM     10  C   UNL d   1       1.074  -0.691   0.000  0.00  0.00     0.085 A 
ATOM     11  N   UNL d   1       1.150   0.665  -0.124  0.00  0.00    -0.335 N 
ATOM     12  HN  UNL d   1       2.054   1.134  -0.178  1.00  0.00     0.168 HD
BRANCH   9  13
ATOM     13  C   UNL d   1      -0.331  -2.792   0.086  0.00  0.00     0.179 C 
ATOM     14  O   UNL d   1      -1.178  -3.285   0.810  0.00  0.00    -0.646 OA
BRANCH  13  15
ATOM     15  O   UNL d   1       0.471  -3.514  -0.717  0.00  0.00    -0.773 OA
ATOM     16  H   UNL d   1       1.063  -3.021  -1.332  0.00  0.00     0.167 HD
ENDBRANCH  13  15
ENDBRANCH   9  13
BRANCH  10  17
ATOM     17  C   UNL d   1       2.389  -1.454   0.138  0.00  0.00     0.310 C 
BRANCH  17  18
ATOM     18  O   UNL d   1       2.673  -1.941  -1.187  0.00  0.00    -0.360 OA
ATOM     19  C   UNL d   1       3.969  -2.522  -1.291  0.00  0.00     0.205 C 
ENDBRANCH  17  18
BRANCH  17  20
ATOM     20  O   UNL d   1       3.445  -0.631   0.640  0.00  0.00    -0.360 OA
ATOM     21  C   UNL d   1       3.279  -0.291   2.011  0.00  0.00     0.205 C 
ENDBRANCH  17  20
ENDBRANCH  10  17
ENDBRANCH   4   5
ENDBRANCH   3   4
TORSDOF 7
