REMARK  6 active torsions:
REMARK  status: ('A' for Active; 'I' for Inactive)
REMARK    1  A    between atoms: C_8  and  S_1 
REMARK    2  A    between atoms: O_10  and  S_1 
REMARK    3  A    between atoms: S_2  and  C_7 
REMARK    4  A    between atoms: O_9  and  S_2 
REMARK    5  A    between atoms: C_22  and  O_9 
REMARK    6  A    between atoms: C_23  and  O_10 
ROOT
ATOM      1  C   UNL d   1      -0.317  -0.805  -3.872  0.00  0.00    -0.041 A 
ATOM      2  C   UNL d   1      -1.209  -0.986  -6.048  0.00  0.00    -0.041 A 
ATOM      3  C   UNL d   1      -0.997   0.381  -5.757  0.00  0.00    -0.019 A 
ATOM      4  C   UNL d   1      -0.449   0.492  -4.419  0.00  0.00    -0.019 A 
ATOM      5  C   UNL d   1      -2.016  -0.415  -8.220  0.00  0.00     0.087 A 
ATOM      6  C   UNL d   1       0.520   0.118  -1.838  0.00  0.00     0.087 A 
ATOM      7  C   UNL d   1      -0.781  -1.846  -4.874  0.00  0.00     0.078 A 
ATOM      8  C   UNL d   1      -1.715  -1.402  -7.271  0.00  0.00     0.034 A 
ATOM      9  C   UNL d   1       0.161  -1.011  -2.586  0.00  0.00     0.034 A 
ATOM     10  C   UNL d   1      -1.297   1.354  -6.699  0.00  0.00     0.014 A 
ATOM     11  C   UNL d   1      -0.090   1.606  -3.675  0.00  0.00     0.014 A 
ATOM     12  C   UNL d   1      -1.805   0.950  -7.942  0.00  0.00     0.027 A 
ATOM     13  C   UNL d   1       0.393   1.417  -2.372  0.00  0.00     0.027 A 
ENDROOT
BRANCH   5  14
ATOM     14  S   UNL d   1      -2.503  -0.910  -9.868  0.00  0.00     0.303 S 
ATOM     15  O   UNL d   1      -2.137   0.182 -10.752  0.00  0.00    -0.193 OA
ATOM     16  O   UNL d   1      -1.950  -2.238 -10.074  0.00  0.00    -0.193 OA
BRANCH  14  17
ATOM     17  O   UNL d   1      -4.131  -1.015  -9.802  0.00  0.00    -0.229 OA
BRANCH  17  18
ATOM     18  C   UNL d   1      -4.869  -1.458 -10.878  0.00  0.00     0.089 A 
ATOM     19  C   UNL d   1      -4.351  -1.736 -12.145  0.00  0.00     0.038 A 
ATOM     20  C   UNL d   1      -5.186  -2.202 -13.165  0.00  0.00     0.003 A 
ATOM     21  C   UNL d   1      -6.546  -2.387 -12.928  0.00  0.00     0.000 A 
ATOM     22  C   UNL d   1      -7.073  -2.098 -11.671  0.00  0.00     0.003 A 
ATOM     23  C   UNL d   1      -6.238  -1.633 -10.650  0.00  0.00     0.038 A 
ENDBRANCH  17  18
ENDBRANCH  14  17
ENDBRANCH   5  14
BRANCH   6  24
ATOM     24  S   UNL d   1       1.017  -0.080  -0.130  0.00  0.00     0.303 S 
ATOM     25  O   UNL d   1       0.444  -1.336   0.325  0.00  0.00    -0.193 OA
ATOM     26  O   UNL d   1       0.689   1.164   0.542  0.00  0.00    -0.193 OA
BRANCH  24  27
ATOM     27  O   UNL d   1       2.639  -0.237  -0.209  0.00  0.00    -0.229 OA
BRANCH  27  28
ATOM     28  C   UNL d   1       3.423  -0.322   0.917  0.00  0.00     0.089 A 
ATOM     29  C   UNL d   1       2.952  -0.360   2.232  0.00  0.00     0.038 A 
ATOM     30  C   UNL d   1       3.852  -0.423   3.301  0.00  0.00     0.003 A 
ATOM     31  C   UNL d   1       5.225  -0.456   3.065  0.00  0.00     0.000 A 
ATOM     32  C   UNL d   1       5.700  -0.435   1.756  0.00  0.00     0.003 A 
ATOM     33  C   UNL d   1       4.802  -0.370   0.687  0.00  0.00     0.038 A 
ENDBRANCH  27  28
ENDBRANCH  24  27
ENDBRANCH   6  24
TORSDOF 6
