REMARK  3 active torsions:
REMARK  status: ('A' for Active; 'I' for Inactive)
REMARK    1  A    between atoms: C_7  and  C_1 
REMARK    2  A    between atoms: C_9  and  N_4 
REMARK    3  A    between atoms: S_11  and  C_5 
REMARK       I    between atoms: N_8  and  C_7 
ROOT
ATOM      1  C   UNL d   1      -0.234   1.185   0.043  0.00  0.00     0.084 A 
ATOM      2  N   UNL d   1       1.050  -0.702   0.291  0.00  0.00    -0.287 N 
ATOM      3  HN  UNL d   1       1.847  -1.325   0.420  1.00  0.00     0.188 HD
ATOM      4  N   UNL d   1      -0.249  -1.044   0.128  0.00  0.00    -0.266 N 
ATOM      5  C   UNL d   1       1.057   0.632   0.244  0.00  0.00     0.102 A 
ATOM      6  C   UNL d   1      -1.052   0.070   0.065  0.00  0.00     0.136 A 
ENDROOT
BRANCH   1   7
ATOM      7  C   UNL d   1      -0.630   2.584  -0.038  0.00  0.00     0.258 C 
ATOM      8  N   UNL d   1      -1.715   2.951  -0.850  0.00  0.00    -0.348 N 
ATOM      9  C   UNL d   1      -2.366   2.140  -1.879  0.00  0.00     0.126 C 
ATOM     10  C   UNL d   1      -2.141   4.351  -0.845  0.00  0.00     0.126 C 
ATOM     11  C   UNL d   1      -3.878   2.147  -1.655  0.00  0.00     0.020 C 
ATOM     12  C   UNL d   1      -4.411   3.580  -1.666  0.00  0.00     0.003 C 
ATOM     13  C   UNL d   1      -3.655   4.457  -0.667  0.00  0.00     0.020 C 
ATOM     14  O   UNL d   1      -0.032   3.432   0.624  0.00  0.00    -0.267 OA
ENDBRANCH   1   7
BRANCH   5  15
ATOM     15  S   UNL d   1       2.549   1.537   0.407  0.00  0.00    -0.114 SA
ATOM     16  C   UNL d   1       3.800   0.255   0.213  0.00  0.00     0.097 C 
ENDBRANCH   5  15
BRANCH   4  17
ATOM     17  C   UNL d   1      -0.651  -2.406   0.030  0.00  0.00     0.056 A 
ATOM     18  C   UNL d   1      -1.971  -2.748  -0.297  0.00  0.00     0.031 A 
ATOM     19  C   UNL d   1      -2.345  -4.090  -0.395  0.00  0.00     0.002 A 
ATOM     20  C   UNL d   1      -1.410  -5.097  -0.165  0.00  0.00     0.000 A 
ATOM     21  C   UNL d   1      -0.094  -4.765   0.152  0.00  0.00     0.002 A 
ATOM     22  C   UNL d   1       0.290  -3.424   0.245  0.00  0.00     0.031 A 
ENDBRANCH   4  17
TORSDOF 3
