REMARK  3 active torsions:
REMARK  status: ('A' for Active; 'I' for Inactive)
REMARK    1  A    between atoms: N_8  and  C_1 
REMARK    2  A    between atoms: N_4  and  N_8 
REMARK    3  A    between atoms: C_12  and  C_9 
ROOT
ATOM      1  N   UNL d   1      -0.030  -2.274  -0.272  0.00  0.00    -0.203 NA
ATOM      2  H   UNL d   1       0.620  -2.577   0.459  0.00  0.00     0.153 HD
ENDROOT
BRANCH   1   3
ATOM      3  N   UNL d   1      -1.252  -2.865  -0.280  0.00  0.00    -0.326 N 
ATOM      4  C   UNL d   1      -1.248  -4.145  -0.070  0.00  0.00     0.131 C 
ATOM      5  HN  UNL d   1      -2.112  -2.340  -0.440  1.00  0.00     0.180 HD
BRANCH   4   6
ATOM      6  C   UNL d   1      -2.497  -4.932  -0.071  0.00  0.00     0.048 A 
ATOM      7  N   UNL d   1      -2.347  -6.251   0.205  0.00  0.00    -0.365 N 
ATOM      8  C   UNL d   1      -3.478  -6.992   0.204  0.00  0.00     0.088 A 
ATOM      9  HN  UNL d   1      -1.433  -6.661   0.401  1.00  0.00     0.165 HD
ATOM     10  C   UNL d   1      -4.740  -6.477  -0.054  0.00  0.00     0.017 A 
ATOM     11  C   UNL d   1      -4.860  -5.121  -0.333  0.00  0.00     0.004 A 
ATOM     12  C   UNL d   1      -3.717  -4.327  -0.343  0.00  0.00     0.031 A 
ENDBRANCH   4   6
ENDBRANCH   1   3
BRANCH   1  13
ATOM     13  C   UNL d   1      -0.009  -0.858  -0.431  0.00  0.00     0.073 A 
ATOM     14  C   UNL d   1       0.916  -0.103   0.317  0.00  0.00     0.073 A 
ATOM     15 CL   UNL d   1       1.982  -0.853   1.453  0.00  0.00    -0.081 Cl
ATOM     16  C   UNL d   1       0.967   1.277   0.160  0.00  0.00     0.113 A 
ATOM     17  N   UNL d   1       0.177   1.968  -0.691  0.00  0.00    -0.372 N 
ATOM     18  C   UNL d   1      -0.696   1.232  -1.418  0.00  0.00     0.113 A 
ATOM     19  HN  UNL d   1       0.235   2.982  -0.780  1.00  0.00     0.164 HD
ATOM     20  C   UNL d   1      -0.827  -0.154  -1.335  0.00  0.00     0.073 A 
ATOM     21 CL   UNL d   1      -1.957  -0.896  -2.414  0.00  0.00    -0.081 Cl
ENDBRANCH   1  13
TORSDOF 3
