REMARK  4 active torsions:
REMARK  status: ('A' for Active; 'I' for Inactive)
REMARK    1  A    between atoms: C_7  and  N_2 
REMARK    2  A    between atoms: C_8  and  N_3 
REMARK    3  A    between atoms: N_12  and  C_4 
REMARK    4  A    between atoms: C_14  and  C_8 
ROOT
ATOM      1  C   UNL d   1      -0.755   1.127  -0.234  0.00  0.00     0.338 A 
ATOM      2  N   UNL d   1      -1.399  -0.118  -0.058  0.00  0.00    -0.254 N 
ATOM      3  N   UNL d   1       0.627   1.132  -0.053  0.00  0.00    -0.262 N 
ATOM      4  C   UNL d   1      -0.694  -1.300   0.164  0.00  0.00     0.094 A 
ATOM      5  C   UNL d   1       1.379  -0.002   0.130  0.00  0.00     0.254 A 
ATOM      6  C   UNL d   1       0.643  -1.261   0.234  0.00  0.00     0.117 A 
ATOM      7  O   UNL d   1      -1.362   2.165  -0.514  0.00  0.00    -0.246 OA
ATOM      8  O   UNL d   1       2.609  -0.036   0.190  0.00  0.00    -0.268 OA
ENDROOT
BRANCH   2   9
ATOM      9  C   UNL d   1      -2.835  -0.107  -0.057  0.00  0.00     0.048 A 
ATOM     10  C   UNL d   1      -3.539  -0.567   1.064  0.00  0.00     0.072 A 
ATOM     11  C   UNL d   1      -4.929  -0.568   1.054  0.00  0.00     0.118 A 
ATOM     12  F   UNL d   1      -5.596  -0.985   2.138  0.00  0.00    -0.206 F 
ATOM     13  C   UNL d   1      -5.639  -0.147  -0.064  0.00  0.00     0.042 A 
ATOM     14  C   UNL d   1      -4.948   0.302  -1.188  0.00  0.00     0.005 A 
ATOM     15  C   UNL d   1      -3.550   0.335  -1.180  0.00  0.00     0.030 A 
ENDBRANCH   2   9
BRANCH   4  16
ATOM     16  N   UNL d   1      -1.327  -2.533   0.253  0.00  0.00    -0.288 NA
ATOM     17  H   UNL d   1      -2.202  -2.557  -0.266  0.00  0.00     0.125 HD
ATOM     18  H   UNL d   1      -0.735  -3.328   0.028  0.00  0.00     0.125 HD
ENDBRANCH   4  16
BRANCH   3  19
ATOM     19  C   UNL d   1       1.325   2.413  -0.075  0.00  0.00     0.175 C 
BRANCH  19  20
ATOM     20  C   UNL d   1       1.349   3.076   1.290  0.00  0.00    -0.040 A 
ATOM     21  C   UNL d   1       2.379   2.804   2.203  0.00  0.00     0.009 A 
ATOM     22  C   UNL d   1       2.380   3.398   3.468  0.00  0.00     0.001 A 
ATOM     23  C   UNL d   1       1.352   4.263   3.836  0.00  0.00     0.000 A 
ATOM     24  C   UNL d   1       0.324   4.541   2.938  0.00  0.00     0.001 A 
ATOM     25  C   UNL d   1       0.322   3.951   1.673  0.00  0.00     0.009 A 
ENDBRANCH  19  20
ENDBRANCH   3  19
TORSDOF 4
