REMARK  4 active torsions:
REMARK  status: ('A' for Active; 'I' for Inactive)
REMARK    1  A    between atoms: C_6  and  C_1 
REMARK    2  A    between atoms: C_3  and  C_5 
REMARK    3  A    between atoms: C_10  and  C_4 
REMARK    4  A    between atoms: O_11  and  C_6 
ROOT
ATOM      1  C   UNL d   1      -0.257  -1.052   0.028  0.00  0.00     0.151 A 
ATOM      2  O   UNL d   1       1.035  -0.586   0.056  0.00  0.00    -0.296 OA
ATOM      3  C   UNL d   1       0.966   0.769   0.057  0.00  0.00     0.130 A 
ATOM      4  C   UNL d   1      -1.129   0.024   0.013  0.00  0.00     0.047 A 
ATOM      5  C   UNL d   1      -0.338   1.197   0.031  0.00  0.00     0.050 A 
ENDROOT
BRANCH   3   6
ATOM      6  C   UNL d   1       2.179   1.495   0.068  0.00  0.00    -0.036 C 
ATOM      7  C   UNL d   1       3.175   2.167   0.053  0.00  0.00    -0.059 C 
BRANCH   7   8
ATOM      8  C   UNL d   1       4.324   3.018  -0.003  0.00  0.00     0.018 A 
ATOM      9  C   UNL d   1       4.163   4.405   0.050  0.00  0.00     0.020 A 
ATOM     10  C   UNL d   1       5.276   5.244  -0.041  0.00  0.00     0.001 A 
ATOM     11  C   UNL d   1       6.551   4.697  -0.182  0.00  0.00     0.000 A 
ATOM     12  C   UNL d   1       6.715   3.312  -0.225  0.00  0.00     0.001 A 
ATOM     13  C   UNL d   1       5.603   2.472  -0.134  0.00  0.00     0.020 A 
ENDBRANCH   7   8
ENDBRANCH   3   6
BRANCH   1  14
ATOM     14  C   UNL d   1      -0.529  -2.472   0.016  0.00  0.00     0.317 C 
ATOM     15  O   UNL d   1      -1.649  -2.971  -0.006  0.00  0.00    -0.257 OA
BRANCH  14  16
ATOM     16  O   UNL d   1       0.633  -3.186   0.032  0.00  0.00    -0.321 OA
ATOM     17  C   UNL d   1       0.446  -4.600   0.021  0.00  0.00     0.213 C 
ENDBRANCH  14  16
ENDBRANCH   1  14
TORSDOF 4
