REMARK  5 active torsions:
REMARK  status: ('A' for Active; 'I' for Inactive)
REMARK    1  A    between atoms: C_4  and  C_1 
REMARK       I    between atoms: C_2  and  N_5 
REMARK    2  A    between atoms: O_7  and  C_2 
REMARK    3  A    between atoms: N_5  and  C_3 
REMARK    4  A    between atoms: O_13  and  C_4 
REMARK    5  A    between atoms: C_11  and  O_7 
ROOT
ATOM      1  C   UNL d   1       1.831  -0.923  -0.254  0.00  0.00     0.065 A 
ATOM      2  C   UNL d   1       2.756   0.126  -0.423  0.00  0.00     0.053 A 
ATOM      3  C   UNL d   1       0.447  -0.655  -0.240  0.00  0.00     0.039 A 
ATOM      4  C   UNL d   1       2.252   1.427  -0.609  0.00  0.00     0.032 A 
ATOM      5  C   UNL d   1      -0.019   0.643  -0.418  0.00  0.00     0.012 A 
ATOM      6  C   UNL d   1       0.878   1.688  -0.600  0.00  0.00     0.021 A 
ATOM      7 BR   UNL d   1      -1.878   0.981  -0.459  0.00  0.00    -0.051 Br
ENDROOT
BRANCH   2   8
ATOM      8  N   UNL d   1       4.166   0.026  -0.461  0.00  0.00    -0.302 N 
ATOM      9  C   UNL d   1       5.017  -0.843   0.170  0.00  0.00     0.365 C 
ATOM     10  O   UNL d   1       6.221  -0.820  -0.060  0.00  0.00    -0.238 OA
ATOM     11  H   UNL d   1       4.678   0.780  -0.901  0.00  0.00     0.171 HD
BRANCH   9  12
ATOM     12  O   UNL d   1       4.423  -1.570   1.139  0.00  0.00    -0.294 OA
BRANCH  12  13
ATOM     13  C   UNL d   1       5.200  -2.301   2.123  0.00  0.00     0.061 C 
ATOM     14  C   UNL d   1       4.146  -2.771   3.135  0.00  0.00     0.046 C 
ATOM     15  C   UNL d   1       5.894  -3.520   1.508  0.00  0.00     0.046 C 
ATOM     16  C   UNL d   1       6.197  -1.382   2.841  0.00  0.00     0.046 C 
ENDBRANCH  12  13
ENDBRANCH   9  12
ENDBRANCH   2   8
BRANCH   1  17
ATOM     17  C   UNL d   1       2.163  -2.361  -0.215  0.00  0.00     0.178 C 
ATOM     18  O   UNL d   1       1.626  -3.197   0.491  0.00  0.00    -0.646 OA
BRANCH  17  19
ATOM     19  O   UNL d   1       3.027  -2.701  -1.184  0.00  0.00    -0.773 OA
ATOM     20  H   UNL d   1       3.118  -3.672  -1.093  0.00  0.00     0.167 HD
ENDBRANCH  17  19
ENDBRANCH   1  17
TORSDOF 5
