REMARK  9 active torsions:
REMARK  status: ('A' for Active; 'I' for Inactive)
REMARK    1  A    between atoms: C_2  and  C_4 
REMARK    2  A    between atoms: O_10  and  C_3 
REMARK    3  A    between atoms: S_9  and  C_5 
REMARK    4  A    between atoms: C_6  and  C_19 
REMARK    5  A    between atoms: C_7  and  C_21 
REMARK    6  A    between atoms: C_15  and  S_9 
REMARK    7  A    between atoms: C_19  and  O_10 
REMARK    8  A    between atoms: O_17  and  C_14 
REMARK    9  A    between atoms: C_21  and  O_17 
ROOT
ATOM      1  C   UNL d   1      -0.659  -0.020   0.025  0.00  0.00     0.112 C 
ATOM      2  C   UNL d   1      -0.012   1.239  -0.066  0.00  0.00     0.109 C 
ATOM      3  C   UNL d   1       1.400   1.289  -0.031  0.00  0.00     0.042 C 
ATOM      4  C   UNL d   1      -2.062  -0.088   0.274  0.00  0.00     0.105 C 
ATOM      5  N   UNL d   1      -3.215  -0.153   0.420  0.00  0.00    -0.191 NA
ATOM      6  C   UNL d   1       0.091  -1.214  -0.034  0.00  0.00     0.092 C 
ATOM      7  C   UNL d   1       2.134   0.096   0.009  0.00  0.00     0.025 C 
ATOM      8  C   UNL d   1       1.486  -1.141  -0.010  0.00  0.00     0.040 C 
ENDROOT
BRANCH   2   9
ATOM      9  O   UNL d   1      -0.638   2.468  -0.157  0.00  0.00    -0.339 OA
BRANCH   9  10
ATOM     10  C   UNL d   1      -1.897   2.555  -0.842  0.00  0.00     0.293 C 
BRANCH  10  11
ATOM     11  C   UNL d   1      -2.149   3.917  -1.484  0.00  0.00     0.408 C 
ATOM     12  F   UNL d   1      -1.108   4.766  -1.362  0.00  0.00    -0.169 F 
ATOM     13  F   UNL d   1      -2.405   3.775  -2.808  0.00  0.00    -0.169 F 
ATOM     14  F   UNL d   1      -3.233   4.516  -0.935  0.00  0.00    -0.169 F 
ENDBRANCH  10  11
ENDBRANCH   9  10
ENDBRANCH   2   9
BRANCH   6  15
ATOM     15  O   UNL d   1      -0.371  -2.510  -0.071  0.00  0.00    -0.341 OA
BRANCH  15  16
ATOM     16  C   UNL d   1      -1.633  -2.778  -0.707  0.00  0.00     0.293 C 
BRANCH  16  17
ATOM     17  C   UNL d   1      -1.717  -4.175  -1.323  0.00  0.00     0.408 C 
ATOM     18  F   UNL d   1      -0.618  -4.922  -1.094  0.00  0.00    -0.169 F 
ATOM     19  F   UNL d   1      -2.782  -4.854  -0.834  0.00  0.00    -0.169 F 
ATOM     20  F   UNL d   1      -1.882  -4.094  -2.666  0.00  0.00    -0.169 F 
ENDBRANCH  16  17
ENDBRANCH  15  16
ENDBRANCH   6  15
BRANCH   3  21
ATOM     21  S   UNL d   1       2.334   2.811  -0.178  0.00  0.00    -0.070 SA
BRANCH  21  22
ATOM     22  C   UNL d   1       2.026   3.679   1.354  0.00  0.00     0.074 A 
ATOM     23  N   UNL d   1       1.643   2.990   2.453  0.00  0.00    -0.359 N 
ATOM     24  C   UNL d   1       1.517   3.686   3.613  0.00  0.00     0.105 A 
ATOM     25  HN  UNL d   1       1.455   1.989   2.413  1.00  0.00     0.166 HD
ATOM     26  C   UNL d   1       1.767   5.046   3.744  0.00  0.00     0.063 A 
ATOM     27  C   UNL d   1       2.140   5.739   2.591  0.00  0.00     0.020 A 
ATOM     28  C   UNL d   1       2.277   5.049   1.387  0.00  0.00     0.038 A 
BRANCH  26  29
ATOM     29  C   UNL d   1       1.669   5.731   5.074  0.00  0.00     0.418 C 
ATOM     30  F   UNL d   1       1.367   4.890   6.101  0.00  0.00    -0.166 F 
ATOM     31  F   UNL d   1       2.835   6.342   5.427  0.00  0.00    -0.166 F 
ATOM     32  F   UNL d   1       0.719   6.705   5.096  0.00  0.00    -0.166 F 
ENDBRANCH  26  29
ENDBRANCH  21  22
ENDBRANCH   3  21
TORSDOF 9
