REMARK  6 active torsions:
REMARK  status: ('A' for Active; 'I' for Inactive)
REMARK    1  A    between atoms: N_2  and  C_1 
REMARK    2  A    between atoms: N_6  and  C_1 
REMARK    3  A    between atoms: C_7  and  N_2 
REMARK    4  A    between atoms: C_3  and  C_12 
REMARK    5  A    between atoms: C_12  and  N_6 
REMARK    6  A    between atoms: O_14  and  C_13 
ROOT
ATOM      1  C   UNL d   1       1.031   0.049   0.021  0.00  0.00     0.172 C 
ATOM      2  S   UNL d   1       2.636  -0.026   0.480  0.00  0.00    -0.041 SA
ENDROOT
BRANCH   1   3
ATOM      3  N   UNL d   1       0.342   1.144  -0.451  0.00  0.00    -0.333 N 
ATOM      4  H   UNL d   1      -0.533   1.308   0.037  0.00  0.00     0.168 HD
BRANCH   3   5
ATOM      5  C   UNL d   1       0.899   2.266  -1.104  0.00  0.00     0.036 A 
ATOM      6  C   UNL d   1       1.931   2.114  -2.035  0.00  0.00     0.066 A 
ATOM      7  C   UNL d   1       2.521   3.229  -2.631  0.00  0.00     0.070 A 
ATOM      8  C   UNL d   1       2.036   4.502  -2.322  0.00  0.00     0.037 A 
ATOM      9  C   UNL d   1       0.957   4.656  -1.451  0.00  0.00     0.005 A 
ATOM     10  C   UNL d   1       0.376   3.536  -0.853  0.00  0.00     0.029 A 
BRANCH   7  11
ATOM     11  O   UNL d   1       3.567   3.195  -3.513  0.00  0.00    -0.356 OA
ATOM     12  C   UNL d   1       4.146   1.917  -3.758  0.00  0.00     0.210 C 
ENDBRANCH   7  11
ENDBRANCH   3   5
ENDBRANCH   1   3
BRANCH   1  13
ATOM     13  N   UNL d   1       0.275  -1.086   0.171  0.00  0.00    -0.361 N 
ATOM     14  H   UNL d   1       0.794  -1.888   0.509  0.00  0.00     0.162 HD
BRANCH  13  15
ATOM     15  C   UNL d   1      -0.891  -1.377  -0.636  0.00  0.00     0.187 C 
BRANCH  15  16
ATOM     16  C   UNL d   1      -1.434  -2.731  -0.361  0.00  0.00     0.070 A 
ATOM     17  O   UNL d   1      -1.271  -3.260   0.886  0.00  0.00    -0.325 OA
ATOM     18  C   UNL d   1      -1.924  -4.452   0.902  0.00  0.00     0.142 A 
ATOM     19  C   UNL d   1      -2.504  -4.702  -0.322  0.00  0.00     0.027 A 
ATOM     20  C   UNL d   1      -2.171  -3.599  -1.141  0.00  0.00     0.036 A 
ENDBRANCH  15  16
ENDBRANCH  13  15
ENDBRANCH   1  13
TORSDOF 6
