REMARK  6 active torsions:
REMARK  status: ('A' for Active; 'I' for Inactive)
REMARK       I    between atoms: N_2  and  C_1 
REMARK    1  A    between atoms: C_3  and  C_1 
REMARK    2  A    between atoms: C_4  and  N_2 
REMARK    3  A    between atoms: N_5  and  C_3 
REMARK    4  A    between atoms: C_15  and  N_5 
REMARK    5  A    between atoms: C_7  and  C_15 
REMARK    6  A    between atoms: O_20  and  C_10 
ROOT
ATOM      1  C   UNL d   1       1.169   0.151  -0.078  0.00  0.00     0.283 C 
ATOM      2  N   UNL d   1       0.470  -0.216   1.066  0.00  0.00    -0.319 N 
ATOM      3  O   UNL d   1       2.374   0.313  -0.173  0.00  0.00    -0.265 OA
ATOM      4  H   UNL d   1      -0.533  -0.192   0.986  0.00  0.00     0.169 HD
ENDROOT
BRANCH   1   5
ATOM      5  C   UNL d   1       0.332   0.436  -1.323  0.00  0.00     0.165 C 
ATOM      6  S   UNL d   1      -0.981  -0.533  -1.652  0.00  0.00    -0.055 SA
BRANCH   5   7
ATOM      7  N   UNL d   1       0.718   1.444  -2.176  0.00  0.00    -0.370 N 
ATOM      8  H   UNL d   1       0.337   1.424  -3.116  0.00  0.00     0.161 HD
BRANCH   7   9
ATOM      9  C   UNL d   1       1.751   2.432  -1.908  0.00  0.00     0.185 C 
BRANCH   9  10
ATOM     10  C   UNL d   1       1.573   3.554  -2.861  0.00  0.00     0.070 A 
ATOM     11  O   UNL d   1       1.800   3.275  -4.178  0.00  0.00    -0.325 OA
ATOM     12  C   UNL d   1       1.573   4.420  -4.870  0.00  0.00     0.142 A 
ATOM     13  C   UNL d   1       1.197   5.432  -4.018  0.00  0.00     0.027 A 
ATOM     14  C   UNL d   1       1.194   4.872  -2.717  0.00  0.00     0.036 A 
ENDBRANCH   9  10
ENDBRANCH   7   9
ENDBRANCH   5   7
ENDBRANCH   1   5
BRANCH   2  15
ATOM     15  C   UNL d   1       1.057  -0.655   2.279  0.00  0.00     0.070 A 
ATOM     16  C   UNL d   1       2.387  -1.136   2.254  0.00  0.00     0.056 A 
ATOM     17  C   UNL d   1       3.034  -1.590   3.401  0.00  0.00     0.036 A 
ATOM     18 CL   UNL d   1       4.649  -2.174   3.303  0.00  0.00    -0.084 Cl
ATOM     19  C   UNL d   1       2.378  -1.579   4.617  0.00  0.00     0.026 A 
ATOM     20  C   UNL d   1       1.057  -1.132   4.663  0.00  0.00     0.041 A 
ATOM     21  C   UNL d   1       0.376  -0.680   3.516  0.00  0.00     0.095 A 
BRANCH  21  22
ATOM     22  O   UNL d   1      -0.893  -0.302   3.852  0.00  0.00    -0.354 OA
ATOM     23  C   UNL d   1      -1.809   0.214   2.913  0.00  0.00     0.210 C 
ENDBRANCH  21  22
ENDBRANCH   2  15
TORSDOF 6
