REMARK  9 active torsions:
REMARK  status: ('A' for Active; 'I' for Inactive)
REMARK    1  A    between atoms: C_2  and  N_1 
REMARK    2  A    between atoms: C_3  and  C_18 
REMARK       I    between atoms: N_8  and  C_3 
REMARK    3  A    between atoms: C_20  and  N_4 
REMARK    4  A    between atoms: N_5  and  N_8 
REMARK    5  A    between atoms: C_19  and  C_14 
REMARK    6  A    between atoms: S_16  and  C_24 
REMARK    7  A    between atoms: C_18  and  S_16 
REMARK    8  A    between atoms: C_21  and  C_20 
REMARK    9  A    between atoms: C_24  and  C_21 
ROOT
ATOM      1  C   UNL d   1       2.404  -1.364  -3.758  0.00  0.00     0.076 C 
ENDROOT
BRANCH   1   2
ATOM      2  S   UNL d   1       3.285  -2.922  -4.147  0.00  0.00    -0.160 SA
BRANCH   2   3
ATOM      3  C   UNL d   1       3.384  -2.740  -5.958  0.00  0.00     0.178 C 
BRANCH   3   4
ATOM      4  C   UNL d   1       3.997  -3.932  -6.683  0.00  0.00     0.245 C 
ATOM      5  N   UNL d   1       4.489  -4.948  -5.880  0.00  0.00    -0.270 N 
ATOM      6  H   UNL d   1       4.390  -4.877  -4.872  0.00  0.00     0.190 HD
ATOM      7  O   UNL d   1       4.037  -3.938  -7.915  0.00  0.00    -0.271 OA
BRANCH   5   8
ATOM      8  N   UNL d   1       4.981  -6.077  -6.455  0.00  0.00    -0.308 N 
ATOM      9  C   UNL d   1       5.396  -7.010  -5.658  0.00  0.00     0.118 C 
ATOM     10  HN  UNL d   1       5.023  -6.185  -7.468  1.00  0.00     0.186 HD
BRANCH   9  11
ATOM     11  C   UNL d   1       5.908  -8.289  -6.197  0.00  0.00    -0.019 A 
ATOM     12  C   UNL d   1       5.942  -8.504  -7.580  0.00  0.00     0.013 A 
ATOM     13  C   UNL d   1       6.398  -9.722  -8.085  0.00  0.00     0.001 A 
ATOM     14  C   UNL d   1       6.820 -10.723  -7.213  0.00  0.00     0.000 A 
ATOM     15  C   UNL d   1       6.793 -10.509  -5.834  0.00  0.00     0.001 A 
ATOM     16  C   UNL d   1       6.337  -9.290  -5.321  0.00  0.00     0.013 A 
ENDBRANCH   9  11
ENDBRANCH   5   8
ENDBRANCH   3   4
ENDBRANCH   2   3
ENDBRANCH   1   2
BRANCH   1  17
ATOM     17  C   UNL d   1       2.273  -1.255  -2.242  0.00  0.00     0.040 C 
BRANCH  17  18
ATOM     18  C   UNL d   1       1.508  -0.008  -1.773  0.00  0.00     0.273 C 
BRANCH  18  19
ATOM     19  N   UNL d   1       0.116   0.103  -2.240  0.00  0.00     0.091 N 
ATOM     20  C   UNL d   1      -0.735  -1.048  -1.848  0.00  0.00     0.292 C 
ATOM     21  C   UNL d   1      -0.992  -1.192  -0.329  0.00  0.00     0.153 C 
ATOM     22  N   UNL d   1      -1.535   0.062   0.211  0.00  0.00    -0.377 N 
ATOM     23  C   UNL d   1      -0.820   1.292  -0.160  0.00  0.00     0.153 C 
ATOM     24  C   UNL d   1      -0.523   1.329  -1.682  0.00  0.00     0.292 C 
BRANCH  22  25
ATOM     25  C   UNL d   1      -2.691   0.064   0.966  0.00  0.00     0.031 A 
ATOM     26  C   UNL d   1      -3.658   1.069   0.833  0.00  0.00     0.053 A 
ATOM     27  C   UNL d   1      -4.845   1.038   1.570  0.00  0.00     0.036 A 
ATOM     28 CL   UNL d   1      -6.018   2.278   1.348  0.00  0.00    -0.084 Cl
ATOM     29  C   UNL d   1      -5.094   0.008   2.470  0.00  0.00     0.024 A 
ATOM     30  C   UNL d   1      -4.146  -0.996   2.632  0.00  0.00     0.004 A 
ATOM     31  C   UNL d   1      -2.963  -0.964   1.885  0.00  0.00     0.029 A 
ENDBRANCH  22  25
ENDBRANCH  18  19
ENDBRANCH  17  18
ENDBRANCH   1  17
TORSDOF 9
