REMARK  3 active torsions:
REMARK  status: ('A' for Active; 'I' for Inactive)
REMARK    1  A    between atoms: C_10  and  C_5 
REMARK    2  A    between atoms: C_11  and  C_7 
REMARK    3  A    between atoms: C_12  and  C_8 
ROOT
ATOM      1  N   UNL d   1      -0.281   1.521  -0.029  0.00  0.00    -0.300 N 
ATOM      2  HN  UNL d   1      -0.447   2.519  -0.157  1.00  0.00     0.187 HD
ATOM      3  N   UNL d   1       1.038   1.155   0.055  0.00  0.00    -0.303 N 
ATOM      4  HN  UNL d   1       1.694   1.917   0.227  1.00  0.00     0.186 HD
ATOM      5  C   UNL d   1      -0.551  -1.579   0.045  0.00  0.00    -0.040 C 
ATOM      6  C   UNL d   1      -1.513  -0.668   0.187  0.00  0.00     0.040 C 
ATOM      7  C   UNL d   1      -1.340   0.794   0.030  0.00  0.00     0.059 C 
ATOM      8  C   UNL d   1       1.566  -0.021  -0.053  0.00  0.00     0.040 C 
ATOM      9  C   UNL d   1       0.895  -1.369  -0.200  0.00  0.00     0.099 C 
ENDROOT
BRANCH   5  10
ATOM     10  C   UNL d   1      -0.959  -2.997   0.059  0.00  0.00    -0.029 A 
ATOM     11  C   UNL d   1      -1.160  -3.671  -1.152  0.00  0.00     0.013 A 
ATOM     12  C   UNL d   1      -1.527  -5.019  -1.158  0.00  0.00     0.024 A 
ATOM     13  C   UNL d   1      -1.698  -5.691   0.052  0.00  0.00     0.034 A 
ATOM     14  C   UNL d   1      -1.508  -5.027   1.262  0.00  0.00     0.024 A 
ATOM     15 CL   UNL d   1      -2.140  -7.354   0.047  0.00  0.00    -0.084 Cl
ATOM     16  C   UNL d   1      -1.140  -3.677   1.264  0.00  0.00     0.013 A 
ENDBRANCH   5  10
BRANCH   7  17
ATOM     17  C   UNL d   1      -2.656   1.541  -0.038  0.00  0.00    -0.008 A 
ATOM     18  C   UNL d   1      -2.753   2.804   0.562  0.00  0.00     0.014 A 
ATOM     19  C   UNL d   1      -3.965   3.503   0.552  0.00  0.00     0.007 A 
ATOM     20  C   UNL d   1      -5.099   2.955  -0.058  0.00  0.00    -0.062 A 
ATOM     21  C   UNL d   1      -4.997   1.706  -0.681  0.00  0.00     0.007 A 
ATOM     22  C   UNL d   1      -6.397   3.709  -0.056  0.00  0.00     0.048 C 
ATOM     23  C   UNL d   1      -3.784   1.010  -0.682  0.00  0.00     0.014 A 
ENDBRANCH   7  17
BRANCH   8  24
ATOM     24  C   UNL d   1       3.080  -0.077  -0.049  0.00  0.00    -0.012 A 
ATOM     25  C   UNL d   1       3.820   0.912   0.610  0.00  0.00     0.014 A 
ATOM     26  C   UNL d   1       5.219   0.851   0.635  0.00  0.00     0.007 A 
ATOM     27  C   UNL d   1       5.901  -0.192  -0.006  0.00  0.00    -0.062 A 
ATOM     28  C   UNL d   1       5.165  -1.165  -0.683  0.00  0.00     0.007 A 
ATOM     29  C   UNL d   1       7.399  -0.265   0.038  0.00  0.00     0.048 C 
ATOM     30  C   UNL d   1       3.769  -1.107  -0.709  0.00  0.00     0.014 A 
ENDBRANCH   8  24
TORSDOF 3
