REMARK  10 active torsions:
REMARK  status: ('A' for Active; 'I' for Inactive)
REMARK    1  A    between atoms: N_2  and  S_1 
REMARK    2  A    between atoms: C_9  and  S_1 
REMARK    3  A    between atoms: C_3  and  N_2 
REMARK       I    between atoms: C_8  and  N_15 
REMARK    4  A    between atoms: C_16  and  C_8 
REMARK    5  A    between atoms: C_13  and  C_16 
REMARK    6  A    between atoms: C_17  and  C_13 
REMARK    7  A    between atoms: C_20  and  C_13 
REMARK    8  A    between atoms: C_14  and  C_17 
REMARK    9  A    between atoms: O_24  and  C_14 
REMARK   10  A    between atoms: N_15  and  C_23 
ROOT
ATOM      1  C   UNL d   1      -0.560   0.655   1.310  0.00  0.00     0.075 A 
ATOM      2  C   UNL d   1      -0.767   1.726   2.186  0.00  0.00     0.027 A 
ATOM      3  C   UNL d   1      -0.545  -0.646   1.811  0.00  0.00     0.027 A 
ATOM      4  C   UNL d   1      -0.997   0.184   4.071  0.00  0.00     0.034 A 
ATOM      5  C   UNL d   1      -0.980   1.488   3.554  0.00  0.00     0.031 A 
ATOM      6  C   UNL d   1      -0.754  -0.874   3.183  0.00  0.00     0.031 A 
ENDROOT
BRANCH   4   7
ATOM      7  N   UNL d   1      -1.316   0.021   5.452  0.00  0.00    -0.327 N 
ATOM      8  C   UNL d   1      -1.376  -1.172   6.149  0.00  0.00     0.222 C 
ATOM      9  O   UNL d   1      -1.031  -2.263   5.686  0.00  0.00    -0.273 OA
ATOM     10  H   UNL d   1      -1.526   0.866   5.967  0.00  0.00     0.169 HD
BRANCH   8  11
ATOM     11  C   UNL d   1      -1.920  -1.066   7.588  0.00  0.00     0.113 C 
BRANCH  11  12
ATOM     12  C   UNL d   1      -2.128  -2.486   8.188  0.00  0.00     0.037 C 
BRANCH  12  13
ATOM     13  C   UNL d   1      -0.842  -3.281   8.513  0.00  0.00     0.119 C 
BRANCH  13  14
ATOM     14  C   UNL d   1       0.220  -2.587   9.332  0.00  0.00     0.140 C 
ATOM     15  O   UNL d   1       0.143  -1.473   9.823  0.00  0.00    -0.650 OA
BRANCH  14  16
ATOM     16  O   UNL d   1       1.323  -3.367   9.471  0.00  0.00    -0.776 OA
ATOM     17  H   UNL d   1       1.259  -4.224   9.015  0.00  0.00     0.167 HD
ENDBRANCH  14  16
ENDBRANCH  13  14
ENDBRANCH  12  13
BRANCH  12  18
ATOM     18  C   UNL d   1      -3.177  -2.694   9.280  0.00  0.00    -0.053 A 
ATOM     19  C   UNL d   1      -3.977  -3.856   9.178  0.00  0.00     0.007 A 
ATOM     20  C   UNL d   1      -4.938  -4.179  10.134  0.00  0.00     0.001 A 
ATOM     21  C   UNL d   1      -5.120  -3.344  11.226  0.00  0.00     0.000 A 
ATOM     22  C   UNL d   1      -4.335  -2.196  11.357  0.00  0.00     0.001 A 
ATOM     23  C   UNL d   1      -3.364  -1.868  10.395  0.00  0.00     0.007 A 
ENDBRANCH  12  18
ENDBRANCH  11  12
ENDBRANCH   8  11
ENDBRANCH   4   7
BRANCH   1  24
ATOM     24  S   UNL d   1      -0.596   0.948  -0.446  0.00  0.00     0.247 S 
ATOM     25  O   UNL d   1      -0.961  -0.297  -1.093  0.00  0.00    -0.205 OA
ATOM     26  O   UNL d   1      -1.371   2.146  -0.697  0.00  0.00    -0.205 OA
BRANCH  24  27
ATOM     27  N   UNL d   1       1.004   1.220  -0.901  0.00  0.00    -0.165 NA
ATOM     28  H   UNL d   1       1.147   0.725  -1.781  0.00  0.00     0.147 HD
BRANCH  27  29
ATOM     29  C   UNL d   1       1.494   2.521  -0.852  0.00  0.00     0.117 A 
ATOM     30  N   UNL d   1       2.089   3.001   0.242  0.00  0.00    -0.249 N 
ATOM     31  O   UNL d   1       2.556   4.256  -0.105  0.00  0.00    -0.241 OA
ATOM     32  HN  UNL d   1       2.180   2.538   1.146  1.00  0.00     0.196 HD
ATOM     33  C   UNL d   1       2.224   4.522  -1.397  0.00  0.00     0.075 A 
ATOM     34  C   UNL d   1       1.543   3.446  -1.916  0.00  0.00     0.079 A 
ATOM     35  C   UNL d   1       2.659   5.829  -1.925  0.00  0.00     0.079 C 
ENDBRANCH  27  29
ENDBRANCH  24  27
ENDBRANCH   1  24
TORSDOF 10
