REMARK  3 active torsions:
REMARK  status: ('A' for Active; 'I' for Inactive)
REMARK    1  A    between atoms: C_4  and  C_1 
REMARK    2  A    between atoms: C_6  and  N_2 
REMARK    3  A    between atoms: O_14  and  C_5 
ROOT
ATOM      1  N   UNL d   1      -3.285  -2.552   0.064  0.00  0.00    -0.363 N 
ATOM      2  HN  UNL d   1      -3.832  -1.698   0.175  1.00  0.00     0.165 HD
ATOM      3  C   UNL d   1      -1.997  -2.498  -0.073  0.00  0.00     0.102 C 
ENDROOT
BRANCH   3   4
ATOM      4  C   UNL d   1      -1.280  -1.205  -0.045  0.00  0.00     0.014 A 
ATOM      5  C   UNL d   1      -1.958   0.020  -0.013  0.00  0.00     0.077 A 
ATOM      6  C   UNL d   1      -1.248   1.218   0.003  0.00  0.00     0.039 A 
ATOM      7  C   UNL d   1       0.148   1.196  -0.004  0.00  0.00     0.026 A 
ATOM      8  C   UNL d   1       0.822  -0.025  -0.029  0.00  0.00     0.035 A 
ATOM      9  C   UNL d   1       0.117  -1.229  -0.053  0.00  0.00     0.039 A 
ATOM     10 CL   UNL d   1       2.543  -0.048  -0.029  0.00  0.00    -0.084 Cl
BRANCH   5  11
ATOM     11  O   UNL d   1      -3.322   0.115   0.002  0.00  0.00    -0.360 OA
ATOM     12  H   UNL d   1      -3.674  -0.804   0.050  0.00  0.00     0.217 HD
ENDBRANCH   5  11
ENDBRANCH   3   4
BRANCH   1  13
ATOM     13  C   UNL d   1      -3.917  -3.815   0.056  0.00  0.00     0.071 A 
ATOM     14  C   UNL d   1      -3.405  -4.974   0.662  0.00  0.00     0.142 A 
ATOM     15  F   UNL d   1      -2.216  -4.948   1.286  0.00  0.00    -0.204 F 
ATOM     16  C   UNL d   1      -4.106  -6.179   0.645  0.00  0.00     0.044 A 
ATOM     17  C   UNL d   1      -5.355  -6.244   0.034  0.00  0.00     0.003 A 
ATOM     18  C   UNL d   1      -5.895  -5.101  -0.556  0.00  0.00     0.002 A 
ATOM     19  C   UNL d   1      -5.180  -3.899  -0.542  0.00  0.00     0.033 A 
ENDBRANCH   1  13
TORSDOF 3
