REMARK  10 active torsions:
REMARK  status: ('A' for Active; 'I' for Inactive)
REMARK    1  A    between atoms: O_14  and  C_1 
REMARK    2  A    between atoms: C_2  and  N_10 
REMARK    3  A    between atoms: N_12  and  C_2 
REMARK    4  A    between atoms: O_16  and  C_3 
REMARK    5  A    between atoms: O_15  and  C_4 
REMARK    6  A    between atoms: N_10  and  N_5 
REMARK    7  A    between atoms: C_13  and  C_11 
REMARK    8  A    between atoms: C_17  and  N_12 
REMARK    9  A    between atoms: C_19  and  C_17 
REMARK   10  A    between atoms: C_18  and  C_19 
ROOT
ATOM      1  N   UNL d   1      -3.723  -0.556   0.033  0.00  0.00    -0.309 N 
ATOM      2  HN  UNL d   1      -3.430  -1.368   0.577  1.00  0.00     0.186 HD
ATOM      3  C   UNL d   1      -2.876   0.341  -0.347  0.00  0.00     0.118 C 
ENDROOT
BRANCH   1   4
ATOM      4  N   UNL d   1      -5.022  -0.374  -0.323  0.00  0.00    -0.277 N 
ATOM      5  H   UNL d   1      -5.261   0.383  -0.949  0.00  0.00     0.189 HD
BRANCH   4   6
ATOM      6  C   UNL d   1      -5.995  -1.258   0.090  0.00  0.00     0.186 C 
ATOM      7  S   UNL d   1      -5.888  -2.300   1.394  0.00  0.00    -0.040 SA
BRANCH   6   8
ATOM      8  N   UNL d   1      -7.136  -1.299  -0.671  0.00  0.00    -0.366 N 
ATOM      9  H   UNL d   1      -7.751  -2.044  -0.349  0.00  0.00     0.161 HD
BRANCH   8  10
ATOM     10  C   UNL d   1      -7.160  -1.061  -2.108  0.00  0.00     0.126 C 
BRANCH  10  11
ATOM     11  C   UNL d   1      -8.552  -1.245  -2.724  0.00  0.00     0.058 C 
BRANCH  11  12
ATOM     12  C   UNL d   1      -9.100  -2.654  -2.668  0.00  0.00    -0.057 A 
ATOM     13  C   UNL d   1     -10.357  -2.897  -2.094  0.00  0.00     0.007 A 
ATOM     14  C   UNL d   1     -10.896  -4.185  -2.079  0.00  0.00     0.001 A 
ATOM     15  C   UNL d   1     -10.189  -5.245  -2.637  0.00  0.00     0.000 A 
ATOM     16  C   UNL d   1      -8.941  -5.019  -3.214  0.00  0.00     0.001 A 
ATOM     17  C   UNL d   1      -8.401  -3.730  -3.233  0.00  0.00     0.007 A 
ENDBRANCH  11  12
ENDBRANCH  10  11
ENDBRANCH   8  10
ENDBRANCH   6   8
ENDBRANCH   4   6
ENDBRANCH   1   4
BRANCH   3  18
ATOM     18  C   UNL d   1      -1.427   0.123  -0.137  0.00  0.00    -0.014 A 
ATOM     19  C   UNL d   1      -0.507   1.033  -0.648  0.00  0.00     0.052 A 
ATOM     20  C   UNL d   1       0.870   0.771  -0.566  0.00  0.00     0.105 A 
ATOM     21  C   UNL d   1       1.313  -0.416   0.049  0.00  0.00     0.135 A 
ATOM     22  C   UNL d   1       0.375  -1.288   0.649  0.00  0.00     0.105 A 
ATOM     23  C   UNL d   1      -0.989  -1.031   0.514  0.00  0.00     0.052 A 
BRANCH  20  24
ATOM     24  O   UNL d   1       1.611   1.770  -1.144  0.00  0.00    -0.353 OA
ATOM     25  C   UNL d   1       3.025   1.653  -1.173  0.00  0.00     0.210 C 
ENDBRANCH  20  24
BRANCH  21  26
ATOM     26  O   UNL d   1       2.658  -0.670   0.157  0.00  0.00    -0.351 OA
ATOM     27  C   UNL d   1       3.067  -1.900  -0.447  0.00  0.00     0.210 C 
ENDBRANCH  21  26
BRANCH  22  28
ATOM     28  O   UNL d   1       0.872  -2.368   1.339  0.00  0.00    -0.353 OA
ATOM     29  C   UNL d   1      -0.032  -3.049   2.205  0.00  0.00     0.210 C 
ENDBRANCH  22  28
ENDBRANCH   3  18
TORSDOF 10
