REMARK  4 active torsions:
REMARK  status: ('A' for Active; 'I' for Inactive)
REMARK    1  A    between atoms: C_2  and  C_1 
REMARK    2  A    between atoms: O_3  and  C_1 
REMARK    3  A    between atoms: C_5  and  O_3 
REMARK    4  A    between atoms: N_4  and  C_6 
ROOT
ATOM      1  C   UNL d   1      -0.969  -0.721  -0.747  0.00  0.00     0.106 A 
ATOM      2  C   UNL d   1      -1.610   0.539  -0.817  0.00  0.00     0.064 A 
ATOM      3  C   UNL d   1      -1.669  -1.917  -0.961  0.00  0.00     0.040 A 
ATOM      4  C   UNL d   1      -2.997   0.522  -1.054  0.00  0.00     0.032 A 
ATOM      5  C   UNL d   1      -3.040  -1.890  -1.195  0.00  0.00     0.003 A 
ATOM      6  C   UNL d   1      -3.705  -0.672  -1.234  0.00  0.00     0.002 A 
ENDROOT
BRANCH   1   7
ATOM      7  O   UNL d   1       0.448  -0.746  -0.611  0.00  0.00    -0.271 OA
BRANCH   7   8
ATOM      8  C   UNL d   1       1.078  -1.732   0.151  0.00  0.00     0.322 C 
ATOM      9  O   UNL d   1       0.509  -2.623   0.778  0.00  0.00    -0.257 OA
BRANCH   8  10
ATOM     10  C   UNL d   1       2.515  -1.575   0.100  0.00  0.00     0.150 A 
ATOM     11  O   UNL d   1       3.082  -0.461  -0.463  0.00  0.00    -0.317 OA
ATOM     12  C   UNL d   1       4.428  -0.595  -0.354  0.00  0.00     0.143 A 
ATOM     13  C   UNL d   1       4.751  -1.778   0.268  0.00  0.00     0.027 A 
ATOM     14  C   UNL d   1       3.519  -2.407   0.568  0.00  0.00     0.045 A 
ENDBRANCH   8  10
ENDBRANCH   7   8
ENDBRANCH   1   7
BRANCH   2  15
ATOM     15  N   UNL d   1      -0.908   1.733  -0.742  0.00  0.00    -0.375 N 
ATOM     16  C   UNL d   1      -1.402   2.963  -1.381  0.00  0.00     0.149 C 
ATOM     17  C   UNL d   1      -0.189   3.825  -1.774  0.00  0.00     0.187 C 
ATOM     18  O   UNL d   1       0.654   4.112  -0.643  0.00  0.00    -0.388 OA
ATOM     19  C   UNL d   1       1.119   2.888  -0.039  0.00  0.00     0.187 C 
ATOM     20  C   UNL d   1      -0.058   2.014   0.428  0.00  0.00     0.149 C 
ENDBRANCH   2  15
TORSDOF 4
