REMARK  2 active torsions:
REMARK  status: ('A' for Active; 'I' for Inactive)
REMARK    1  A    between atoms: C_12  and  N_1 
REMARK    2  A    between atoms: N_3  and  C_4 
ROOT
ATOM      1  N   UNL d   1       0.004   0.858   0.018  0.00  0.00    -0.251 N 
ATOM      2  C   UNL d   1      -1.120   0.068   0.144  0.00  0.00     0.255 A 
ATOM      3  C   UNL d   1      -0.719  -1.377   0.037  0.00  0.00     0.193 A 
ATOM      4  C   UNL d   1       1.146   0.088  -0.050  0.00  0.00     0.233 A 
ATOM      5  C   UNL d   1       0.791  -1.367   0.006  0.00  0.00     0.139 A 
ATOM      6  O   UNL d   1      -2.288   0.404   0.299  0.00  0.00    -0.270 OA
ATOM      7  O   UNL d   1       2.316   0.446  -0.105  0.00  0.00    -0.273 OA
ENDROOT
BRANCH   3   8
ATOM      8  N   UNL d   1      -1.340  -2.035  -1.103  0.00  0.00    -0.321 N 
ATOM      9  C   UNL d   1      -2.142  -3.163  -1.061  0.00  0.00     0.081 A 
ATOM     10  N   UNL d   1      -2.605  -3.450  -2.261  0.00  0.00    -0.344 N 
ATOM     11  C   UNL d   1      -2.481  -3.964   0.146  0.00  0.00     0.089 C 
ATOM     12  C   UNL d   1      -2.098  -2.505  -3.105  0.00  0.00     0.060 A 
ATOM     13  HN  UNL d   1      -3.220  -4.224  -2.509  1.00  0.00     0.167 HD
ATOM     14  C   UNL d   1      -1.269  -1.617  -2.423  0.00  0.00     0.063 A 
ATOM     15  C   UNL d   1      -2.307  -2.349  -4.484  0.00  0.00     0.032 A 
ATOM     16  C   UNL d   1      -0.605  -0.575  -3.088  0.00  0.00     0.032 A 
ATOM     17  C   UNL d   1      -0.820  -0.437  -4.465  0.00  0.00     0.002 A 
ATOM     18  C   UNL d   1      -1.664  -1.304  -5.154  0.00  0.00     0.002 A 
ENDBRANCH   3   8
BRANCH   1  19
ATOM     19  C   UNL d   1      -0.023   2.288  -0.086  0.00  0.00     0.045 A 
ATOM     20  C   UNL d   1      -1.163   3.032   0.270  0.00  0.00     0.033 A 
ATOM     21  C   UNL d   1      -1.216   4.421   0.101  0.00  0.00     0.044 A 
ATOM     22  C   UNL d   1      -0.125   5.090  -0.425  0.00  0.00     0.116 A 
ATOM     23  C   UNL d   1       1.022   4.397  -0.770  0.00  0.00     0.044 A 
ATOM     24  F   UNL d   1      -0.182   6.416  -0.605  0.00  0.00    -0.206 F 
ATOM     25  C   UNL d   1       1.075   3.007  -0.596  0.00  0.00     0.033 A 
ENDBRANCH   1  19
TORSDOF 2
