REMARK  3 active torsions:
REMARK  status: ('A' for Active; 'I' for Inactive)
REMARK    1  A    between atoms: C_4  and  C_1 
REMARK    2  A    between atoms: O_10  and  C_4 
REMARK    3  A    between atoms: O_11  and  C_5 
ROOT
ATOM      1  C   UNL d   1      -0.064  -0.043   1.373  0.00  0.00     0.094 C 
ATOM      2  C   UNL d   1      -0.052   1.088   0.335  0.00  0.00     0.002 C 
ATOM      3  C   UNL d   1      -0.029  -1.135   0.293  0.00  0.00     0.029 C 
ATOM      4  C   UNL d   1      -1.250  -0.784  -0.589  0.00  0.00     0.123 C 
ATOM      5  C   UNL d   1      -1.253   0.753  -0.577  0.00  0.00     0.037 C 
ATOM      6  C   UNL d   1       1.280  -0.767  -0.436  0.00  0.00     0.008 C 
ATOM      7  C   UNL d   1       1.241   0.771  -0.445  0.00  0.00     0.006 C 
ENDROOT
BRANCH   1   8
ATOM      8  C   UNL d   1      -1.255  -0.072   2.307  0.00  0.00     0.144 C 
ATOM      9  O   UNL d   1      -2.032  -1.007   2.417  0.00  0.00    -0.650 OA
BRANCH   8  10
ATOM     10  O   UNL d   1      -1.351   1.037   3.073  0.00  0.00    -0.776 OA
ATOM     11  H   UNL d   1      -0.629   1.680   2.941  0.00  0.00     0.167 HD
ENDBRANCH   8  10
ENDBRANCH   1   8
BRANCH   4  12
ATOM     12  O   UNL d   1      -1.160  -1.318  -1.896  0.00  0.00    -0.395 OA
ATOM     13  H   UNL d   1      -0.519  -0.801  -2.411  0.00  0.00     0.210 HD
ENDBRANCH   4  12
TORSDOF 3
