REMARK  2 active torsions:
REMARK  status: ('A' for Active; 'I' for Inactive)
REMARK    1  A    between atoms: C_12  and  C_2 
REMARK    2  A    between atoms: C_15  and  C_11 
ROOT
ATOM      1  N   UNL d   1       2.451  -0.528  -0.073  0.00  0.00    -0.234 N 
ATOM      2  C   UNL d   1       1.496  -1.553  -0.068  0.00  0.00     0.150 A 
ATOM      3  C   UNL d   1       2.047   0.823  -0.011  0.00  0.00     0.130 A 
ATOM      4  C   UNL d   1       0.193  -1.214  -0.027  0.00  0.00     0.007 A 
ATOM      5  C   UNL d   1      -0.111   0.246  -0.006  0.00  0.00     0.053 A 
ATOM      6  N   UNL d   1       0.738   1.217   0.005  0.00  0.00    -0.340 N 
ATOM      7  HN  UNL d   1       0.457   2.197   0.024  1.00  0.00     0.167 HD
ATOM      8  N   UNL d   1       3.807  -0.613  -0.127  0.00  0.00    -0.291 N 
ATOM      9  HN  UNL d   1       4.369  -1.458  -0.226  1.00  0.00     0.187 HD
ATOM     10  C   UNL d   1       3.195   1.569   0.052  0.00  0.00     0.082 A 
ATOM     11  C   UNL d   1       4.250   0.646  -0.024  0.00  0.00     0.069 A 
ATOM     12  C   UNL d   1      -1.099  -1.983  -0.002  0.00  0.00     0.082 A 
ATOM     13  C   UNL d   1      -1.561   0.384   0.002  0.00  0.00    -0.002 A 
ATOM     14  C   UNL d   1      -2.137  -0.892   0.004  0.00  0.00    -0.041 A 
ATOM     15  C   UNL d   1      -2.305   1.548   0.005  0.00  0.00     0.014 A 
ATOM     16  C   UNL d   1      -3.517  -1.018   0.011  0.00  0.00     0.008 A 
ATOM     17  C   UNL d   1      -3.692   1.421   0.010  0.00  0.00     0.001 A 
ATOM     18  C   UNL d   1      -4.293   0.149   0.013  0.00  0.00     0.001 A 
ENDROOT
BRANCH  11  19
ATOM     19  C   UNL d   1       5.710   0.999   0.004  0.00  0.00     0.033 A 
ATOM     20  S   UNL d   1       6.297   2.586   0.263  0.00  0.00    -0.100 SA
ATOM     21  C   UNL d   1       7.923   2.076   0.147  0.00  0.00     0.050 A 
ATOM     22  C   UNL d   1       8.022   0.725  -0.100  0.00  0.00     0.008 A 
ATOM     23  C   UNL d   1       6.740   0.099  -0.174  0.00  0.00     0.021 A 
ENDBRANCH  11  19
BRANCH   2  24
ATOM     24  C   UNL d   1       1.939  -2.966  -0.083  0.00  0.00     0.435 C 
ATOM     25  F   UNL d   1       3.272  -3.189  -0.068  0.00  0.00    -0.165 F 
ATOM     26  F   UNL d   1       1.431  -3.635   0.991  0.00  0.00    -0.165 F 
ATOM     27  F   UNL d   1       1.452  -3.613  -1.178  0.00  0.00    -0.165 F 
ENDBRANCH   2  24
TORSDOF 2
