REMARK  3 active torsions:
REMARK  status: ('A' for Active; 'I' for Inactive)
REMARK    1  A    between atoms: C_5  and  C_1 
REMARK    2  A    between atoms: N_3  and  C_6 
REMARK       I    between atoms: N_7  and  C_5 
REMARK    3  A    between atoms: C_10  and  N_7 
ROOT
ATOM      1  C   UNL d   1      -2.363  -0.273  -0.001  0.00  0.00     0.102 A 
ATOM      2  N   UNL d   1      -1.604   0.818  -0.392  0.00  0.00    -0.349 N 
ATOM      3  C   UNL d   1      -0.250   0.549  -0.313  0.00  0.00     0.076 A 
ATOM      4  C   UNL d   1       0.884   1.331  -0.629  0.00  0.00     0.130 A 
ATOM      5  C   UNL d   1      -1.453  -1.221   0.435  0.00  0.00     0.049 A 
ATOM      6  C   UNL d   1      -0.134  -0.743   0.196  0.00  0.00    -0.005 A 
ATOM      7  C   UNL d   1       2.155   0.752  -0.438  0.00  0.00     0.038 A 
ATOM      8  C   UNL d   1       1.148  -1.294   0.384  0.00  0.00     0.014 A 
ATOM      9  C   UNL d   1       2.282  -0.543   0.057  0.00  0.00     0.003 A 
ATOM     10  H   UNL d   1      -2.001   1.697  -0.704  0.00  0.00     0.166 HD
ENDROOT
BRANCH   1  11
ATOM     11  C   UNL d   1      -3.825  -0.213  -0.013  0.00  0.00     0.274 C 
ATOM     12  N   UNL d   1      -4.577  -1.395  -0.179  0.00  0.00    -0.315 N 
ATOM     13  C   UNL d   1      -4.029  -2.733  -0.397  0.00  0.00     0.160 C 
ATOM     14  O   UNL d   1      -4.363   0.882   0.145  0.00  0.00    -0.265 OA
BRANCH  12  15
ATOM     15  C   UNL d   1      -6.014  -1.339  -0.179  0.00  0.00     0.058 A 
ATOM     16  C   UNL d   1      -6.759  -0.560  -1.084  0.00  0.00     0.060 A 
ATOM     17 CL   UNL d   1      -6.029   0.339  -2.372  0.00  0.00    -0.082 Cl
ATOM     18  C   UNL d   1      -8.161  -0.612  -1.071  0.00  0.00     0.026 A 
ATOM     19  C   UNL d   1      -8.833  -1.445  -0.176  0.00  0.00     0.002 A 
ATOM     20  C   UNL d   1      -8.107  -2.233   0.712  0.00  0.00     0.002 A 
ATOM     21  C   UNL d   1      -6.710  -2.183   0.707  0.00  0.00     0.031 A 
ENDBRANCH  12  15
ENDBRANCH   1  11
BRANCH   4  22
ATOM     22  N   UNL d   1       0.804   2.706  -1.138  0.00  0.00    -0.113 N 
ATOM     23  O   UNL d   1      -0.329   3.189  -1.293  0.00  0.00    -0.532 OA
ATOM     24  O   UNL d   1       1.862   3.302  -1.381  0.00  0.00    -0.532 OA
ENDBRANCH   4  22
TORSDOF 3
