REMARK  3 active torsions:
REMARK  status: ('A' for Active; 'I' for Inactive)
REMARK    1  A    between atoms: C_2  and  S_1 
REMARK    2  A    between atoms: N_4  and  S_1 
REMARK    3  A    between atoms: C_18  and  N_8 
ROOT
ATOM      1  S   UNL d   1       1.109   0.067  -0.025  0.00  0.00     0.250 S 
ATOM      2  O   UNL d   1       0.592   1.136   0.801  0.00  0.00    -0.205 OA
ATOM      3  O   UNL d   1       1.153  -1.298   0.445  0.00  0.00    -0.205 OA
ENDROOT
BRANCH   1   4
ATOM      4  C   UNL d   1       2.825   0.483  -0.262  0.00  0.00     0.116 A 
ATOM      5  S   UNL d   1       3.335   0.821  -1.853  0.00  0.00    -0.074 SA
ATOM      6  C   UNL d   1       4.948   1.118  -1.366  0.00  0.00     0.042 A 
ATOM      7  C   UNL d   1       5.970   1.507  -2.299  0.00  0.00     0.117 A 
ATOM      8  C   UNL d   1       5.097   0.934  -0.004  0.00  0.00     0.024 A 
ATOM      9  O   UNL d   1       7.254   1.792  -1.908  0.00  0.00    -0.237 OA
ATOM     10  C   UNL d   1       5.908   1.676  -3.670  0.00  0.00     0.059 A 
ATOM     11  N   UNL d   1       8.023   2.145  -3.003  0.00  0.00    -0.272 N 
ATOM     12  C   UNL d   1       7.200   2.070  -4.048  0.00  0.00     0.117 A 
ATOM     13  HN  UNL d   1       9.008   2.407  -3.009  1.00  0.00     0.194 HD
ATOM     14  C   UNL d   1       3.875   0.565   0.631  0.00  0.00     0.034 A 
ENDBRANCH   1   4
BRANCH   1  15
ATOM     15  N   UNL d   1       0.314   0.102  -1.524  0.00  0.00    -0.203 NA
ATOM     16  C   UNL d   1      -0.276   1.419  -1.935  0.00  0.00     0.127 C 
ATOM     17  C   UNL d   1      -1.679   1.645  -1.324  0.00  0.00     0.138 C 
ATOM     18  N   UNL d   1      -2.543   0.480  -1.618  0.00  0.00    -0.378 N 
ATOM     19  C   UNL d   1      -1.995  -0.801  -1.137  0.00  0.00     0.138 C 
ATOM     20  C   UNL d   1      -0.625  -1.027  -1.802  0.00  0.00     0.127 C 
BRANCH  18  21
ATOM     21  C   UNL d   1      -3.911   0.676  -1.735  0.00  0.00     0.032 A 
ATOM     22  C   UNL d   1      -4.857  -0.104  -1.066  0.00  0.00     0.046 A 
ATOM     23  C   UNL d   1      -6.210   0.107  -1.302  0.00  0.00     0.089 A 
ATOM     24  N   UNL d   1      -6.693   1.030  -2.157  0.00  0.00    -0.375 N 
ATOM     25  C   UNL d   1      -5.776   1.777  -2.799  0.00  0.00     0.089 A 
ATOM     26  HN  UNL d   1      -7.694   1.154  -2.308  1.00  0.00     0.164 HD
ATOM     27  C   UNL d   1      -4.407   1.641  -2.619  0.00  0.00     0.046 A 
ENDBRANCH  18  21
ENDBRANCH   1  15
TORSDOF 3
