REMARK  5 active torsions:
REMARK  status: ('A' for Active; 'I' for Inactive)
REMARK    1  A    between atoms: C_5  and  S_1 
REMARK    2  A    between atoms: N_9  and  S_1 
REMARK       I    between atoms: C_2  and  N_4 
REMARK    3  A    between atoms: C_3  and  C_2 
REMARK    4  A    between atoms: N_4  and  N_10 
REMARK    5  A    between atoms: N_10  and  C_17 
ROOT
ATOM      1  C   UNL d   1       0.441  -1.227   1.159  0.00  0.00     0.074 A 
ATOM      2  C   UNL d   1       0.565  -2.555   0.750  0.00  0.00     0.026 A 
ATOM      3  C   UNL d   1       0.102  -0.924   2.477  0.00  0.00     0.026 A 
ATOM      4  C   UNL d   1       0.024  -3.315   3.004  0.00  0.00     0.027 A 
ATOM      5  C   UNL d   1      -0.093  -1.968   3.393  0.00  0.00     0.026 A 
ATOM      6  C   UNL d   1       0.365  -3.588   1.671  0.00  0.00     0.026 A 
ENDROOT
BRANCH   4   7
ATOM      7  N   UNL d   1      -0.020  -4.326   3.997  0.00  0.00    -0.203 NA
ATOM      8  H   UNL d   1      -0.507  -4.014   4.846  0.00  0.00     0.153 HD
BRANCH   7   9
ATOM      9  N   UNL d   1      -0.550  -5.556   3.556  0.00  0.00    -0.282 N 
ATOM     10  C   UNL d   1      -1.275  -6.315   4.466  0.00  0.00     0.273 C 
ATOM     11  O   UNL d   1      -1.578  -5.868   5.573  0.00  0.00    -0.266 OA
ATOM     12  H   UNL d   1      -0.064  -6.029   2.804  0.00  0.00     0.184 HD
BRANCH  10  13
ATOM     13  C   UNL d   1      -1.647  -7.653   4.015  0.00  0.00     0.073 A 
ATOM     14  S   UNL d   1      -1.313  -8.208   2.425  0.00  0.00    -0.097 SA
ATOM     15  C   UNL d   1      -2.092  -9.703   2.704  0.00  0.00     0.050 A 
ATOM     16  C   UNL d   1      -2.579  -9.799   3.988  0.00  0.00     0.009 A 
ATOM     17  C   UNL d   1      -2.316  -8.620   4.745  0.00  0.00     0.025 A 
ENDBRANCH  10  13
ENDBRANCH   7   9
ENDBRANCH   4   7
BRANCH   1  18
ATOM     18  S   UNL d   1       0.782   0.066  -0.002  0.00  0.00     0.239 S 
ATOM     19  O   UNL d   1       1.016  -0.512  -1.305  0.00  0.00    -0.206 OA
ATOM     20  O   UNL d   1       1.681   1.010   0.605  0.00  0.00    -0.206 OA
BRANCH  18  21
ATOM     21  N   UNL d   1      -0.704   0.841  -0.126  0.00  0.00    -0.225 NA
ATOM     22  H   UNL d   1      -1.219   0.485  -0.930  0.00  0.00     0.136 HD
ATOM     23  H   UNL d   1      -0.545   1.849  -0.167  0.00  0.00     0.136 HD
ENDBRANCH  18  21
ENDBRANCH   1  18
TORSDOF 5
