REMARK  2 active torsions:
REMARK  status: ('A' for Active; 'I' for Inactive)
REMARK    1  A    between atoms: N_11  and  C_5 
REMARK    2  A    between atoms: O_17  and  C_10 
ROOT
ATOM      1  C   UNL d   1      -0.001   0.725   0.001  0.00  0.00     0.134 C 
ATOM      2  C   UNL d   1       0.024  -0.638  -0.009  0.00  0.00     0.113 C 
ATOM      3  N   UNL d   1      -1.250   1.368  -0.069  0.00  0.00    -0.288 N 
ATOM      4  N   UNL d   1       1.250   1.403   0.077  0.00  0.00    -0.301 N 
ATOM      5  C   UNL d   1       2.436  -0.721  -0.024  0.00  0.00     0.204 C 
ATOM      6  N   UNL d   1      -2.423  -0.682   0.034  0.00  0.00    -0.270 N 
ATOM      7  C   UNL d   1      -2.475   0.690   0.031  0.00  0.00     0.332 C 
ATOM      8  C   UNL d   1      -1.258  -1.392  -0.040  0.00  0.00     0.268 C 
ATOM      9  C   UNL d   1       2.497   0.738  -0.017  0.00  0.00     0.284 C 
ATOM     10  C   UNL d   1       1.284  -1.387   0.001  0.00  0.00     0.124 C 
ATOM     11  O   UNL d   1      -3.551   1.290   0.094  0.00  0.00    -0.246 OA
ATOM     12  O   UNL d   1      -1.232  -2.625  -0.114  0.00  0.00    -0.267 OA
ATOM     13  O   UNL d   1       3.575   1.326  -0.071  0.00  0.00    -0.265 OA
ATOM     14  C   UNL d   1      -1.424   2.798  -0.290  0.00  0.00     0.163 C 
ATOM     15  C   UNL d   1       1.404   2.833   0.303  0.00  0.00     0.161 C 
ATOM     16  C   UNL d   1      -3.663  -1.441   0.046  0.00  0.00     0.164 C 
ENDROOT
BRANCH   5  17
ATOM     17  N   UNL d   1       3.661  -1.449  -0.009  0.00  0.00    -0.107 N 
ATOM     18  O   UNL d   1       4.135  -1.773  -1.107  0.00  0.00    -0.531 OA
ATOM     19  O   UNL d   1       4.153  -1.694   1.101  0.00  0.00    -0.531 OA
ENDBRANCH   5  17
BRANCH  10  20
ATOM     20  O   UNL d   1       1.249  -2.773   0.025  0.00  0.00    -0.357 OA
ATOM     21  H   UNL d   1       0.322  -3.101  -0.022  0.00  0.00     0.217 HD
ENDBRANCH  10  20
TORSDOF 2
