REMARK  8 active torsions:
REMARK  status: ('A' for Active; 'I' for Inactive)
REMARK    1  A    between atoms: N_2  and  S_1 
REMARK    2  A    between atoms: C_5  and  S_1 
REMARK       I    between atoms: C_4  and  N_2 
REMARK    3  A    between atoms: C_3  and  C_7 
REMARK       I    between atoms: N_14  and  C_4 
REMARK    4  A    between atoms: C_7  and  N_6 
REMARK    5  A    between atoms: N_10  and  C_26 
REMARK    6  A    between atoms: C_31  and  N_14 
REMARK    7  A    between atoms: C_26  and  C_27 
REMARK    8  A    between atoms: C_27  and  C_31 
ROOT
ATOM      1  C   UNL d   1      -0.187   2.042  -5.896  0.00  0.00     0.050 C 
ENDROOT
BRANCH   1   2
ATOM      2  C   UNL d   1       0.166   3.168  -6.871  0.00  0.00     0.274 C 
BRANCH   2   3
ATOM      3  N   UNL d   1      -0.348   2.980  -8.238  0.00  0.00     0.091 N 
ATOM      4  C   UNL d   1      -1.825   2.933  -8.312  0.00  0.00     0.302 C 
ATOM      5  C   UNL d   1      -2.531   4.292  -8.102  0.00  0.00     0.303 C 
ATOM      6  N   UNL d   1      -2.040   5.376  -8.976  0.00  0.00     0.096 N 
ATOM      7  C   UNL d   1      -0.564   5.435  -8.878  0.00  0.00     0.303 C 
ATOM      8  C   UNL d   1       0.140   4.072  -9.114  0.00  0.00     0.302 C 
BRANCH   6   9
ATOM      9  C   UNL d   1      -2.439   5.207 -10.386  0.00  0.00     0.316 C 
BRANCH   9  10
ATOM     10  C   UNL d   1      -3.925   5.234 -10.647  0.00  0.00     0.030 A 
ATOM     11  C   UNL d   1      -4.522   4.114 -11.245  0.00  0.00     0.126 A 
ATOM     12  F   UNL d   1      -3.789   3.020 -11.499  0.00  0.00    -0.205 F 
ATOM     13  C   UNL d   1      -5.868   4.096 -11.601  0.00  0.00     0.043 A 
ATOM     14  C   UNL d   1      -6.659   5.210 -11.349  0.00  0.00     0.005 A 
ATOM     15  C   UNL d   1      -6.098   6.327 -10.731  0.00  0.00     0.024 A 
ATOM     16  C   UNL d   1      -4.740   6.344 -10.387  0.00  0.00     0.045 A 
ATOM     17 CL   UNL d   1      -4.128   7.790  -9.664  0.00  0.00    -0.084 Cl
ENDBRANCH   9  10
ENDBRANCH   6   9
ENDBRANCH   2   3
ENDBRANCH   1   2
BRANCH   1  18
ATOM     18  C   UNL d   1       0.274   0.674  -6.393  0.00  0.00     0.126 C 
BRANCH  18  19
ATOM     19  N   UNL d   1      -0.001  -0.352  -5.406  0.00  0.00    -0.342 N 
ATOM     20  C   UNL d   1       0.909  -0.637  -4.435  0.00  0.00     0.329 C 
ATOM     21  N   UNL d   1       0.453  -1.544  -3.494  0.00  0.00    -0.232 N 
ATOM     22  O   UNL d   1       2.013  -0.112  -4.381  0.00  0.00    -0.246 OA
ATOM     23  H   UNL d   1      -0.504  -1.861  -3.474  0.00  0.00     0.183 HD
ATOM     24  H   UNL d   1      -0.893  -0.823  -5.422  0.00  0.00     0.164 HD
BRANCH  21  25
ATOM     25  S   UNL d   1       1.331  -1.961  -2.138  0.00  0.00     0.266 S 
ATOM     26  O   UNL d   1       2.537  -2.640  -2.554  0.00  0.00    -0.200 OA
ATOM     27  O   UNL d   1       0.388  -2.603  -1.242  0.00  0.00    -0.200 OA
BRANCH  25  28
ATOM     28  C   UNL d   1       1.744  -0.388  -1.426  0.00  0.00     0.080 A 
ATOM     29  C   UNL d   1       0.728   0.407  -0.888  0.00  0.00     0.026 A 
ATOM     30  C   UNL d   1       1.031   1.691  -0.435  0.00  0.00     0.008 A 
ATOM     31  C   UNL d   1       2.344   2.180  -0.508  0.00  0.00    -0.062 A 
ATOM     32  C   UNL d   1       3.357   1.357  -1.016  0.00  0.00     0.008 A 
ATOM     33  C   UNL d   1       2.647   3.581  -0.064  0.00  0.00     0.048 C 
ATOM     34  C   UNL d   1       3.062   0.071  -1.470  0.00  0.00     0.026 A 
ENDBRANCH  25  28
ENDBRANCH  21  25
ENDBRANCH  18  19
ENDBRANCH   1  18
TORSDOF 8
