REMARK  6 active torsions:
REMARK  status: ('A' for Active; 'I' for Inactive)
REMARK    1  A    between atoms: C_2  and  S_1 
REMARK    2  A    between atoms: N_4  and  S_1 
REMARK    3  A    between atoms: C_14  and  N_4 
REMARK       I    between atoms: C_6  and  N_13 
REMARK    4  A    between atoms: C_16  and  C_6 
REMARK    5  A    between atoms: C_20  and  C_7 
REMARK    6  A    between atoms: N_13  and  C_20 
ROOT
ATOM      1  C   UNL d   1       0.330   0.497  -1.704  0.00  0.00     0.120 A 
ATOM      2  S   UNL d   1       0.400   2.161  -2.106  0.00  0.00    -0.080 SA
ATOM      3  C   UNL d   1      -0.223  -0.242  -2.732  0.00  0.00     0.034 A 
ATOM      4  C   UNL d   1      -0.208   1.886  -3.687  0.00  0.00     0.002 A 
ATOM      5  C   UNL d   1      -0.533   0.555  -3.871  0.00  0.00     0.018 A 
ENDROOT
BRANCH   1   6
ATOM      6  S   UNL d   1       0.951   0.012  -0.097  0.00  0.00     0.269 S 
ATOM      7  O   UNL d   1       1.996   0.958   0.225  0.00  0.00    -0.200 OA
ATOM      8  O   UNL d   1       1.221  -1.405  -0.221  0.00  0.00    -0.200 OA
BRANCH   6   9
ATOM      9  N   UNL d   1      -0.276   0.250   1.041  0.00  0.00    -0.280 N 
ATOM     10  H   UNL d   1      -0.414   1.242   1.227  0.00  0.00     0.179 HD
BRANCH   9  11
ATOM     11  C   UNL d   1      -1.460  -0.534   0.937  0.00  0.00     0.045 A 
ATOM     12  C   UNL d   1      -2.561  -0.050   0.233  0.00  0.00     0.069 A 
ATOM     13  C   UNL d   1      -3.740  -0.794   0.202  0.00  0.00     0.104 A 
ATOM     14  O   UNL d   1      -4.794  -0.241  -0.480  0.00  0.00    -0.346 OA
ATOM     15  C   UNL d   1      -3.810  -2.034   0.846  0.00  0.00     0.102 A 
ATOM     16  C   UNL d   1      -6.031  -0.871  -0.126  0.00  0.00     0.202 C 
ATOM     17  C   UNL d   1      -5.890  -2.385  -0.118  0.00  0.00     0.202 C 
ATOM     18  O   UNL d   1      -4.940  -2.808   0.866  0.00  0.00    -0.346 OA
ATOM     19  C   UNL d   1      -2.699  -2.527   1.528  0.00  0.00     0.042 A 
ATOM     20  C   UNL d   1      -1.516  -1.783   1.562  0.00  0.00     0.033 A 
ENDBRANCH   9  11
ENDBRANCH   6   9
ENDBRANCH   1   6
BRANCH   4  21
ATOM     21  C   UNL d   1      -0.331   3.008  -4.673  0.00  0.00     0.169 C 
BRANCH  21  22
ATOM     22  N   UNL d   1      -1.621   3.630  -4.493  0.00  0.00    -0.352 N 
ATOM     23  C   UNL d   1      -2.235   4.304  -5.526  0.00  0.00     0.251 C 
ATOM     24  O   UNL d   1      -1.746   4.421  -6.644  0.00  0.00    -0.268 OA
ATOM     25  H   UNL d   1      -1.915   3.819  -3.546  0.00  0.00     0.163 HD
BRANCH  23  26
ATOM     26  C   UNL d   1      -3.560   4.911  -5.218  0.00  0.00     0.032 A 
ATOM     27  C   UNL d   1      -3.988   6.017  -5.966  0.00  0.00     0.018 A 
ATOM     28  C   UNL d   1      -5.249   6.577  -5.736  0.00  0.00     0.025 A 
ATOM     29  C   UNL d   1      -6.085   6.026  -4.765  0.00  0.00     0.034 A 
ATOM     30  C   UNL d   1      -5.668   4.923  -4.018  0.00  0.00     0.025 A 
ATOM     31 CL   UNL d   1      -7.648   6.691  -4.501  0.00  0.00    -0.084 Cl
ATOM     32  C   UNL d   1      -4.408   4.363  -4.245  0.00  0.00     0.018 A 
ENDBRANCH  23  26
ENDBRANCH  21  22
ENDBRANCH   4  21
TORSDOF 6
