REMARK  7 active torsions:
REMARK  status: ('A' for Active; 'I' for Inactive)
REMARK       I    between atoms: N_2  and  C_1 
REMARK    1  A    between atoms: C_4  and  C_1 
REMARK    2  A    between atoms: C_3  and  N_2 
REMARK       I    between atoms: N_11  and  C_4 
REMARK    3  A    between atoms: O_18  and  C_6 
REMARK    4  A    between atoms: C_17  and  N_11 
REMARK    5  A    between atoms: O_19  and  C_13 
REMARK    6  A    between atoms: C_14  and  C_15 
REMARK    7  A    between atoms: C_15  and  C_17 
ROOT
ATOM      1  C   UNL d   1       1.045   0.164   0.229  0.00  0.00     0.314 C 
ATOM      2  N   UNL d   1       0.411  -0.985  -0.195  0.00  0.00    -0.316 N 
ATOM      3  O   UNL d   1       2.212   0.311   0.566  0.00  0.00    -0.262 OA
ATOM      4  H   UNL d   1      -0.511  -0.863  -0.595  0.00  0.00     0.169 HD
ENDROOT
BRANCH   1   5
ATOM      5  C   UNL d   1       0.127   1.397   0.157  0.00  0.00     0.309 C 
ATOM      6  O   UNL d   1      -1.084   1.258   0.039  0.00  0.00    -0.262 OA
ATOM      7  N   UNL d   1       0.801   2.598   0.215  0.00  0.00    -0.353 N 
ATOM      8  H   UNL d   1       1.806   2.551   0.363  0.00  0.00     0.162 HD
BRANCH   7   9
ATOM      9  C   UNL d   1       0.110   3.867   0.315  0.00  0.00     0.129 C 
BRANCH   9  10
ATOM     10  C   UNL d   1      -0.215   4.213   1.765  0.00  0.00     0.076 C 
BRANCH  10  11
ATOM     11  C   UNL d   1      -1.039   5.467   1.856  0.00  0.00     0.010 A 
ATOM     12  N   UNL d   1      -0.366   6.641   1.925  0.00  0.00    -0.369 N 
ATOM     13  C   UNL d   1      -1.103   7.772   2.008  0.00  0.00     0.088 A 
ATOM     14  HN  UNL d   1       0.653   6.671   1.914  1.00  0.00     0.165 HD
ATOM     15  C   UNL d   1      -2.487   7.793   2.014  0.00  0.00     0.017 A 
ATOM     16  C   UNL d   1      -3.160   6.582   1.929  0.00  0.00     0.003 A 
ATOM     17  C   UNL d   1      -2.430   5.400   1.847  0.00  0.00     0.025 A 
ENDBRANCH  10  11
ENDBRANCH   9  10
ENDBRANCH   7   9
ENDBRANCH   1   5
BRANCH   2  18
ATOM     18  C   UNL d   1       1.019  -2.249  -0.306  0.00  0.00     0.071 A 
ATOM     19  C   UNL d   1       1.948  -2.663   0.662  0.00  0.00     0.069 A 
ATOM     20  C   UNL d   1       2.472  -3.957   0.642  0.00  0.00     0.070 A 
ATOM     21  C   UNL d   1       2.107  -4.822  -0.390  0.00  0.00     0.039 A 
ATOM     22  C   UNL d   1       1.195  -4.417  -1.363  0.00  0.00     0.042 A 
ATOM     23  C   UNL d   1       0.640  -3.135  -1.328  0.00  0.00     0.095 A 
BRANCH  20  24
ATOM     24  O   UNL d   1       3.322  -4.490   1.573  0.00  0.00    -0.356 OA
ATOM     25  C   UNL d   1       3.550  -3.715   2.746  0.00  0.00     0.210 C 
ENDBRANCH  20  24
BRANCH  23  26
ATOM     26  O   UNL d   1      -0.276  -2.879  -2.317  0.00  0.00    -0.354 OA
ATOM     27  C   UNL d   1      -0.142  -1.629  -2.991  0.00  0.00     0.210 C 
ENDBRANCH  23  26
ENDBRANCH   2  18
TORSDOF 7
