REMARK  2 active torsions:
REMARK  status: ('A' for Active; 'I' for Inactive)
REMARK       I    between atoms: N_2  and  C_1 
REMARK    1  A    between atoms: C_7  and  C_1 
REMARK    2  A    between atoms: C_3  and  N_2 
ROOT
ATOM      1  C   UNL d   1      -0.062  -0.798  -1.494  0.00  0.00     0.252 C 
ATOM      2  N   UNL d   1       0.240  -1.262  -0.224  0.00  0.00    -0.352 N 
ATOM      3  O   UNL d   1       0.180  -1.439  -2.514  0.00  0.00    -0.268 OA
ATOM      4  H   UNL d   1       0.306  -0.572   0.511  0.00  0.00     0.163 HD
ENDROOT
BRANCH   2   5
ATOM      5  C   UNL d   1       1.029  -2.483  -0.066  0.00  0.00     0.089 C 
ATOM      6  C   UNL d   1       1.424  -2.755   1.407  0.00  0.00     0.008 C 
ATOM      7  C   UNL d   1       2.528  -3.831   1.399  0.00  0.00     0.007 C 
ATOM      8  C   UNL d   1       0.221  -3.319   2.192  0.00  0.00     0.007 C 
ATOM      9  C   UNL d   1       2.048  -5.069   0.626  0.00  0.00     0.005 C 
ATOM     10  C   UNL d   1       0.548  -4.944   0.302  0.00  0.00    -0.013 C 
ATOM     11  C   UNL d   1       0.328  -3.741  -0.635  0.00  0.00     0.030 C 
ATOM     12  C   UNL d   1      -0.212  -4.672   1.609  0.00  0.00     0.005 C 
ENDBRANCH   2   5
BRANCH   1  13
ATOM     13  C   UNL d   1      -0.666   0.561  -1.614  0.00  0.00     0.032 A 
ATOM     14  C   UNL d   1      -0.537   1.225  -2.844  0.00  0.00     0.017 A 
ATOM     15  C   UNL d   1      -1.119   2.479  -3.041  0.00  0.00     0.001 A 
ATOM     16  C   UNL d   1      -1.838   3.078  -2.011  0.00  0.00     0.000 A 
ATOM     17  C   UNL d   1      -1.971   2.427  -0.783  0.00  0.00     0.001 A 
ATOM     18  C   UNL d   1      -1.388   1.171  -0.580  0.00  0.00     0.017 A 
ENDBRANCH   1  13
TORSDOF 2
