REMARK  1 active torsions:
REMARK  status: ('A' for Active; 'I' for Inactive)
REMARK    1  A    between atoms: C_6  and  C_3 
REMARK       I    between atoms: N_8  and  C_6 
ROOT
ATOM      1  C   UNL d   1      -2.648   1.093  -0.181  0.00  0.00     0.005 A 
ATOM      2  C   UNL d   1      -2.809  -0.315  -0.133  0.00  0.00     0.027 A 
ATOM      3  C   UNL d   1      -1.423   1.615   0.247  0.00  0.00     0.044 C 
ATOM      4  C   UNL d   1      -4.200  -0.650  -0.482  0.00  0.00     0.194 A 
ATOM      5  C   UNL d   1      -3.932   1.663  -0.603  0.00  0.00    -0.010 A 
ATOM      6  C   UNL d   1      -4.883   0.628  -0.726  0.00  0.00     0.026 A 
ATOM      7  O   UNL d   1      -4.688  -1.761  -0.534  0.00  0.00    -0.287 OA
ATOM      8  C   UNL d   1      -1.847  -1.216   0.282  0.00  0.00     0.016 C 
ATOM      9  C   UNL d   1      -0.483   0.708   0.795  0.00  0.00     0.018 C 
ATOM     10  C   UNL d   1      -4.362   2.956  -0.848  0.00  0.00     0.013 A 
ATOM     11  C   UNL d   1      -6.227   0.818  -0.995  0.00  0.00     0.016 A 
ATOM     12  C   UNL d   1      -0.665  -0.684   0.766  0.00  0.00     0.002 C 
ATOM     13  C   UNL d   1      -5.721   3.184  -1.135  0.00  0.00     0.001 A 
ATOM     14  C   UNL d   1      -6.649   2.128  -1.188  0.00  0.00     0.001 A 
ENDROOT
BRANCH   3  15
ATOM     15  C   UNL d   1      -1.122   3.074   0.359  0.00  0.00     0.254 C 
ATOM     16  N   UNL d   1       0.149   3.586  -0.005  0.00  0.00    -0.348 N 
ATOM     17  C   UNL d   1       0.424   4.987   0.330  0.00  0.00     0.126 C 
ATOM     18  C   UNL d   1       1.168   2.818  -0.735  0.00  0.00     0.126 C 
ATOM     19  C   UNL d   1       0.498   5.905  -0.890  0.00  0.00     0.020 C 
ATOM     20  C   UNL d   1       1.874   5.942  -1.548  0.00  0.00     0.002 C 
ATOM     21  C   UNL d   1       2.320   4.615  -2.146  0.00  0.00     0.002 C 
ATOM     22  C   UNL d   1       2.476   3.515  -1.106  0.00  0.00     0.020 C 
ATOM     23  O   UNL d   1      -2.001   3.786   0.843  0.00  0.00    -0.267 OA
ENDBRANCH   3  15
TORSDOF 1
