REMARK  9 active torsions:
REMARK  status: ('A' for Active; 'I' for Inactive)
REMARK    1  A    between atoms: C_11  and  N_9 
REMARK    2  A    between atoms: C_14  and  C_11 
REMARK    3  A    between atoms: C_21  and  C_14 
REMARK    4  A    between atoms: O_23  and  C_14 
REMARK    5  A    between atoms: C_17  and  C_24 
REMARK    6  A    between atoms: C_18  and  C_25 
REMARK    7  A    between atoms: N_22  and  C_21 
REMARK    8  A    between atoms: C_24  and  N_22 
REMARK    9  A    between atoms: C_25  and  N_22 
ROOT
ATOM      1  C   UNL d   1       0.452  -1.134  -0.346  0.00  0.00     0.145 A 
ATOM      2  C   UNL d   1       1.499  -0.265  -0.166  0.00  0.00     0.149 A 
ATOM      3  N   UNL d   1       0.301  -2.285   0.393  0.00  0.00    -0.287 N 
ATOM      4  N   UNL d   1       2.347  -1.748   1.486  0.00  0.00    -0.269 N 
ATOM      5  C   UNL d   1       1.260  -2.621   1.344  0.00  0.00     0.332 A 
ATOM      6  C   UNL d   1       2.535  -0.551   0.778  0.00  0.00     0.282 A 
ATOM      7  N   UNL d   1      -0.398  -0.728  -1.319  0.00  0.00    -0.336 N 
ATOM      8  HN  UNL d   1      -1.239  -1.198  -1.653  1.00  0.00     0.168 HD
ATOM      9  N   UNL d   1       1.251   0.770  -1.038  0.00  0.00    -0.333 N 
ATOM     10  C   UNL d   1       0.108   0.409  -1.734  0.00  0.00     0.185 A 
ATOM     11  O   UNL d   1       1.154  -3.648   2.022  0.00  0.00    -0.246 OA
ATOM     12  O   UNL d   1       3.522   0.156   0.939  0.00  0.00    -0.265 OA
ATOM     13  C   UNL d   1      -0.837  -3.167   0.220  0.00  0.00     0.163 C 
ATOM     14  C   UNL d   1       3.401  -2.121   2.410  0.00  0.00     0.164 C 
ENDROOT
BRANCH   9  15
ATOM     15  C   UNL d   1       1.772   2.117  -1.188  0.00  0.00     0.163 C 
BRANCH  15  16
ATOM     16  C   UNL d   1       3.168   2.555  -0.739  0.00  0.00     0.164 C 
BRANCH  16  17
ATOM     17  C   UNL d   1       4.348   1.990  -1.575  0.00  0.00     0.306 C 
BRANCH  17  18
ATOM     18  N   UNL d   1       4.439   2.293  -3.022  0.00  0.00     0.097 NA
BRANCH  18  19
ATOM     19  C   UNL d   1       4.412   3.714  -3.394  0.00  0.00     0.299 C 
BRANCH  19  20
ATOM     20  C   UNL d   1       5.503   4.680  -2.990  0.00  0.00    -0.007 C 
ATOM     21  C   UNL d   1       6.623   4.509  -2.275  0.00  0.00     0.008 C 
ENDBRANCH  19  20
ENDBRANCH  18  19
BRANCH  18  22
ATOM     22  C   UNL d   1       5.563   1.562  -3.634  0.00  0.00     0.299 C 
BRANCH  22  23
ATOM     23  C   UNL d   1       5.588   1.470  -5.138  0.00  0.00    -0.007 C 
ATOM     24  C   UNL d   1       4.539   1.504  -5.971  0.00  0.00     0.008 C 
ENDBRANCH  22  23
ENDBRANCH  18  22
ENDBRANCH  17  18
ENDBRANCH  16  17
BRANCH  16  25
ATOM     25  O   UNL d   1       3.187   3.998  -0.723  0.00  0.00    -0.392 OA
ATOM     26  H   UNL d   1       4.117   4.277  -0.641  0.00  0.00     0.210 HD
ENDBRANCH  16  25
ENDBRANCH  15  16
ENDBRANCH   9  15
TORSDOF 9
