REMARK  6 active torsions:
REMARK  status: ('A' for Active; 'I' for Inactive)
REMARK       I    between atoms: C_2  and  N_1 
REMARK       I    between atoms: N_8  and  C_2 
REMARK    1  A    between atoms: C_6  and  C_3 
REMARK    2  A    between atoms: C_4  and  C_10 
REMARK    3  A    between atoms: C_7  and  C_6 
REMARK       I    between atoms: N_11  and  C_7 
REMARK    4  A    between atoms: C_18  and  N_8 
REMARK    5  A    between atoms: C_21  and  N_11 
REMARK    6  A    between atoms: O_31  and  C_24 
ROOT
ATOM      1  N   UNL d   1      -1.481  -1.000   0.519  0.00  0.00    -0.318 N 
ATOM      2  C   UNL d   1      -2.323  -2.037   0.896  0.00  0.00     0.323 C 
ATOM      3  C   UNL d   1       0.011  -1.119   0.572  0.00  0.00     0.189 C 
ATOM      4  C   UNL d   1       0.681   0.117   1.228  0.00  0.00     0.241 C 
ATOM      5  N   UNL d   1      -3.666  -1.762   0.917  0.00  0.00    -0.309 N 
ATOM      6  N   UNL d   1       0.073   1.331   1.015  0.00  0.00    -0.358 N 
ATOM      7  O   UNL d   1      -1.870  -3.114   1.280  0.00  0.00    -0.247 OA
ATOM      8  O   UNL d   1       1.791   0.096   1.750  0.00  0.00    -0.271 OA
ATOM      9  C   UNL d   1      -1.918   0.286  -0.050  0.00  0.00     0.148 C 
ATOM     10  C   UNL d   1      -1.339   1.462   0.737  0.00  0.00     0.142 C 
ATOM     11  H   UNL d   1      -4.023  -1.129   0.220  0.00  0.00     0.170 HD
ATOM     12  H   UNL d   1       0.562   2.103   1.455  0.00  0.00     0.162 HD
ENDROOT
BRANCH   3  13
ATOM     13  C   UNL d   1       0.699  -2.410   1.027  0.00  0.00     0.138 C 
BRANCH  13  14
ATOM     14  C   UNL d   1       0.769  -2.797   2.500  0.00  0.00     0.224 C 
ATOM     15  N   UNL d   1      -0.164  -2.236   3.350  0.00  0.00    -0.327 N 
ATOM     16  H   UNL d   1      -0.921  -1.731   2.913  0.00  0.00     0.169 HD
ATOM     17  O   UNL d   1       1.602  -3.645   2.827  0.00  0.00    -0.273 OA
BRANCH  15  18
ATOM     18  C   UNL d   1      -0.393  -2.614   4.694  0.00  0.00     0.034 A 
ATOM     19  C   UNL d   1       0.496  -3.393   5.436  0.00  0.00     0.032 A 
ATOM     20  C   UNL d   1       0.143  -3.877   6.699  0.00  0.00     0.039 A 
ATOM     21  C   UNL d   1      -1.103  -3.574   7.240  0.00  0.00     0.068 A 
ATOM     22  C   UNL d   1      -1.952  -2.704   6.557  0.00  0.00     0.039 A 
ATOM     23  C   UNL d   1      -1.601  -2.227   5.288  0.00  0.00     0.032 A 
BRANCH  21  24
ATOM     24  O   UNL d   1      -1.553  -4.053   8.440  0.00  0.00    -0.356 OA
ATOM     25  C   UNL d   1      -1.205  -5.416   8.682  0.00  0.00     0.210 C 
ENDBRANCH  21  24
ENDBRANCH  15  18
ENDBRANCH  13  14
ENDBRANCH   3  13
BRANCH   5  26
ATOM     26  C   UNL d   1      -4.653  -2.445   1.670  0.00  0.00     0.036 A 
ATOM     27  C   UNL d   1      -4.361  -3.376   2.672  0.00  0.00     0.030 A 
ATOM     28  C   UNL d   1      -5.378  -3.918   3.469  0.00  0.00     0.018 A 
ATOM     29  C   UNL d   1      -6.711  -3.535   3.284  0.00  0.00     0.048 A 
ATOM     30  C   UNL d   1      -7.011  -2.642   2.246  0.00  0.00     0.018 A 
ATOM     31  C   UNL d   1      -5.992  -2.103   1.449  0.00  0.00     0.030 A 
BRANCH  29  32
ATOM     32  C   UNL d   1      -7.803  -4.034   4.200  0.00  0.00     0.417 C 
ATOM     33  F   UNL d   1      -7.362  -4.875   5.175  0.00  0.00    -0.166 F 
ATOM     34  F   UNL d   1      -8.432  -3.014   4.850  0.00  0.00    -0.166 F 
ATOM     35  F   UNL d   1      -8.780  -4.709   3.534  0.00  0.00    -0.166 F 
ENDBRANCH  29  32
ENDBRANCH   5  26
TORSDOF 6
