REMARK  7 active torsions:
REMARK  status: ('A' for Active; 'I' for Inactive)
REMARK    1  A    between atoms: C_4  and  N_1 
REMARK    2  A    between atoms: C_14  and  N_2 
REMARK    3  A    between atoms: C_16  and  C_4 
REMARK    4  A    between atoms: C_17  and  C_4 
REMARK    5  A    between atoms: C_5  and  C_14 
REMARK       I    between atoms: N_10  and  C_5 
REMARK    6  A    between atoms: C_22  and  N_10 
REMARK    7  A    between atoms: C_21  and  C_22 
ROOT
ATOM      1  N   UNL d   1      -1.706   0.209   0.189  0.00  0.00     0.105 N 
ATOM      2  N   UNL d   1       1.252  -0.115  -0.410  0.00  0.00     0.100 N 
ATOM      3  C   UNL d   1      -1.136  -0.995  -0.455  0.00  0.00     0.304 C 
ATOM      4  C   UNL d   1      -0.851   1.347  -0.247  0.00  0.00     0.304 C 
ATOM      5  C   UNL d   1       0.663   1.165   0.039  0.00  0.00     0.303 C 
ATOM      6  C   UNL d   1       0.352  -1.248  -0.130  0.00  0.00     0.303 C 
ENDROOT
BRANCH   2   7
ATOM      7  C   UNL d   1       1.663  -0.080  -1.828  0.00  0.00     0.374 C 
BRANCH   7   8
ATOM      8  C   UNL d   1       2.859   0.870  -2.043  0.00  0.00     0.246 C 
ATOM      9  N   UNL d   1       3.030   1.443  -3.272  0.00  0.00    -0.355 N 
ATOM     10  H   UNL d   1       3.824   2.071  -3.313  0.00  0.00     0.162 HD
ATOM     11  O   UNL d   1       3.683   1.148  -1.171  0.00  0.00    -0.272 OA
BRANCH   9  12
ATOM     12  C   UNL d   1       2.261   1.236  -4.477  0.00  0.00     0.161 C 
BRANCH  12  13
ATOM     13  C   UNL d   1       1.079   2.162  -4.641  0.00  0.00    -0.038 A 
ATOM     14  C   UNL d   1       0.349   2.087  -5.842  0.00  0.00     0.048 A 
ATOM     15  C   UNL d   1      -0.770   2.880  -5.985  0.00  0.00     0.105 A 
ATOM     16  O   UNL d   1      -1.586   2.909  -7.071  0.00  0.00    -0.323 OA
ATOM     17  C   UNL d   1      -1.182   3.736  -4.994  0.00  0.00     0.105 A 
ATOM     18  C   UNL d   1      -2.572   3.872  -6.641  0.00  0.00     0.352 A 
ATOM     19  O   UNL d   1      -2.314   4.410  -5.328  0.00  0.00    -0.323 OA
ATOM     20  C   UNL d   1      -0.489   3.858  -3.811  0.00  0.00     0.040 A 
ATOM     21  C   UNL d   1       0.654   3.067  -3.639  0.00  0.00     0.012 A 
ENDBRANCH  12  13
ENDBRANCH   9  12
ENDBRANCH   7   8
ENDBRANCH   2   7
BRANCH   1  22
ATOM     22  C   UNL d   1      -1.754   0.111   1.686  0.00  0.00     0.289 C 
BRANCH  22  23
ATOM     23  C   UNL d   1      -2.346   1.380   2.313  0.00  0.00    -0.021 A 
ATOM     24  C   UNL d   1      -3.647   1.808   1.997  0.00  0.00     0.010 A 
ATOM     25  C   UNL d   1      -4.165   2.977   2.548  0.00  0.00     0.001 A 
ATOM     26  C   UNL d   1      -3.390   3.743   3.416  0.00  0.00     0.000 A 
ATOM     27  C   UNL d   1      -2.095   3.339   3.735  0.00  0.00     0.001 A 
ATOM     28  C   UNL d   1      -1.577   2.162   3.191  0.00  0.00     0.010 A 
ENDBRANCH  22  23
BRANCH  22  29
ATOM     29  C   UNL d   1      -2.466  -1.132   2.246  0.00  0.00    -0.021 A 
ATOM     30  C   UNL d   1      -1.982  -1.733   3.425  0.00  0.00     0.010 A 
ATOM     31  C   UNL d   1      -2.610  -2.851   3.974  0.00  0.00     0.001 A 
ATOM     32  C   UNL d   1      -3.737  -3.389   3.357  0.00  0.00     0.000 A 
ATOM     33  C   UNL d   1      -4.242  -2.801   2.199  0.00  0.00     0.001 A 
ATOM     34  C   UNL d   1      -3.618  -1.675   1.653  0.00  0.00     0.010 A 
ENDBRANCH  22  29
ENDBRANCH   1  22
TORSDOF 7
