REMARK  3 active torsions:
REMARK  status: ('A' for Active; 'I' for Inactive)
REMARK    1  A    between atoms: C_9  and  N_1 
REMARK    2  A    between atoms: C_3  and  C_7 
REMARK    3  A    between atoms: C_17  and  C_9 
ROOT
ATOM      1  N   UNL d   1       0.860   1.261  -0.095  0.00  0.00    -0.312 N 
ATOM      2  C   UNL d   1      -0.483   0.749  -0.052  0.00  0.00     0.055 A 
ATOM      3  C   UNL d   1       1.978   0.505   0.275  0.00  0.00     0.234 C 
ATOM      4  C   UNL d   1      -1.588   1.616  -0.035  0.00  0.00     0.047 A 
ATOM      5  S   UNL d   1       0.585  -1.829  -0.079  0.00  0.00    -0.118 SA
ATOM      6  C   UNL d   1      -2.909   1.134   0.018  0.00  0.00     0.050 A 
ATOM      7  C   UNL d   1      -0.733  -0.636  -0.037  0.00  0.00     0.028 A 
ATOM      8  C   UNL d   1       1.747  -0.858   0.888  0.00  0.00     0.182 C 
ATOM      9  O   UNL d   1       3.128   0.954   0.222  0.00  0.00    -0.272 OA
ATOM     10  C   UNL d   1      -3.127  -0.248   0.012  0.00  0.00     0.017 A 
ATOM     11  C   UNL d   1      -2.046  -1.125  -0.025  0.00  0.00     0.021 A 
ENDROOT
BRANCH   1  12
ATOM     12  C   UNL d   1       1.115   2.600  -0.644  0.00  0.00     0.170 C 
BRANCH  12  13
ATOM     13  C   UNL d   1       0.963   3.744   0.337  0.00  0.00    -0.040 A 
ATOM     14  C   UNL d   1       1.359   3.634   1.677  0.00  0.00     0.009 A 
ATOM     15  C   UNL d   1       1.210   4.711   2.554  0.00  0.00     0.001 A 
ATOM     16  C   UNL d   1       0.683   5.917   2.097  0.00  0.00     0.000 A 
ATOM     17  C   UNL d   1       0.319   6.053   0.759  0.00  0.00     0.001 A 
ATOM     18  C   UNL d   1       0.465   4.976  -0.116  0.00  0.00     0.009 A 
ENDBRANCH  12  13
ENDBRANCH   1  12
BRANCH   6  19
ATOM     19  C   UNL d   1      -4.084   2.080   0.098  0.00  0.00     0.417 C 
ATOM     20  F   UNL d   1      -3.729   3.394   0.085  0.00  0.00    -0.166 F 
ATOM     21  F   UNL d   1      -4.953   1.918  -0.938  0.00  0.00    -0.166 F 
ATOM     22  F   UNL d   1      -4.816   1.901   1.232  0.00  0.00    -0.166 F 
ENDBRANCH   6  19
TORSDOF 3
