REMARK  5 active torsions:
REMARK  status: ('A' for Active; 'I' for Inactive)
REMARK    1  A    between atoms: C_4  and  C_3 
REMARK    2  A    between atoms: S_12  and  C_5 
REMARK    3  A    between atoms: C_16  and  S_12 
REMARK    4  A    between atoms: N_13  and  C_17 
REMARK    5  A    between atoms: C_17  and  C_16 
ROOT
ATOM      1  N   UNL d   1      -1.144   1.339   0.102  0.00  0.00    -0.352 N 
ATOM      2  HN  UNL d   1      -1.165   2.358   0.139  1.00  0.00     0.166 HD
ATOM      3  C   UNL d   1      -2.303   0.632   0.069  0.00  0.00     0.118 A 
ATOM      4  C   UNL d   1      -1.089  -1.449   0.058  0.00  0.00     0.015 A 
ATOM      5  C   UNL d   1      -2.305  -0.756   0.053  0.00  0.00     0.053 A 
ATOM      6  C   UNL d   1       0.026   0.688   0.085  0.00  0.00     0.044 A 
ATOM      7  C   UNL d   1       0.130  -0.722   0.056  0.00  0.00     0.007 A 
ATOM      8  C   UNL d   1       1.427  -1.291  -0.007  0.00  0.00     0.015 A 
ATOM      9  C   UNL d   1       1.179   1.457   0.076  0.00  0.00     0.030 A 
ATOM     10  C   UNL d   1       2.574  -0.496  -0.003  0.00  0.00     0.001 A 
ATOM     11  C   UNL d   1       2.450   0.885   0.038  0.00  0.00     0.002 A 
ENDROOT
BRANCH   4  12
ATOM     12  S   UNL d   1      -1.242  -3.236  -0.072  0.00  0.00    -0.127 SA
BRANCH  12  13
ATOM     13  C   UNL d   1      -0.467  -3.845   1.473  0.00  0.00     0.109 C 
BRANCH  13  14
ATOM     14  C   UNL d   1      -1.091  -3.306   2.761  0.00  0.00     0.277 C 
BRANCH  14  15
ATOM     15  N   UNL d   1      -0.445  -3.911   3.930  0.00  0.00     0.079 N 
ATOM     16  H   UNL d   1      -0.833  -3.505   4.781  0.00  0.00     0.312 HD
ATOM     17  H   UNL d   1       0.549  -3.683   3.935  0.00  0.00     0.312 HD
ENDBRANCH  14  15
ENDBRANCH  13  14
ENDBRANCH  12  13
ENDBRANCH   4  12
BRANCH   3  18
ATOM     18  C   UNL d   1      -3.632   1.372   0.027  0.00  0.00     0.432 C 
ATOM     19  F   UNL d   1      -3.522   2.731   0.032  0.00  0.00    -0.165 F 
ATOM     20  F   UNL d   1      -4.365   1.063  -1.083  0.00  0.00    -0.165 F 
ATOM     21  F   UNL d   1      -4.433   1.061   1.090  0.00  0.00    -0.165 F 
ENDBRANCH   3  18
TORSDOF 5
