REMARK  5 active torsions:
REMARK  status: ('A' for Active; 'I' for Inactive)
REMARK    1  A    between atoms: C_13  and  C_1 
REMARK    2  A    between atoms: C_5  and  N_15 
REMARK    3  A    between atoms: N_10  and  C_5 
REMARK    4  A    between atoms: N_15  and  N_8 
REMARK    5  A    between atoms: C_17  and  N_10 
ROOT
ATOM      1  N   UNL d   1      -4.244   1.070   0.623  0.00  0.00    -0.309 N 
ATOM      2  HN  UNL d   1      -3.572   1.817   0.796  1.00  0.00     0.186 HD
ATOM      3  C   UNL d   1      -3.935  -0.170   0.818  0.00  0.00     0.124 C 
ENDROOT
BRANCH   1   4
ATOM      4  N   UNL d   1      -5.500   1.340   0.179  0.00  0.00    -0.276 N 
ATOM      5  H   UNL d   1      -6.096   0.589  -0.149  0.00  0.00     0.189 HD
BRANCH   4   6
ATOM      6  C   UNL d   1      -5.990   2.623   0.199  0.00  0.00     0.191 C 
ATOM      7  S   UNL d   1      -5.462   3.841   1.226  0.00  0.00    -0.039 SA
BRANCH   6   8
ATOM      8  N   UNL d   1      -7.020   2.922  -0.648  0.00  0.00    -0.332 N 
ATOM      9  H   UNL d   1      -7.477   3.796  -0.404  0.00  0.00     0.168 HD
BRANCH   8  10
ATOM     10  C   UNL d   1      -7.323   2.427  -1.934  0.00  0.00     0.034 A 
ATOM     11  C   UNL d   1      -6.512   1.537  -2.647  0.00  0.00     0.037 A 
ATOM     12  C   UNL d   1      -6.833   1.142  -3.961  0.00  0.00    -0.043 A 
ATOM     13  C   UNL d   1      -5.898   0.215  -4.687  0.00  0.00     0.049 C 
ATOM     14  C   UNL d   1      -7.977   1.682  -4.564  0.00  0.00     0.017 A 
ATOM     15  C   UNL d   1      -8.783   2.584  -3.868  0.00  0.00     0.022 A 
ATOM     16 BR   UNL d   1      -8.474   1.256  -6.347  0.00  0.00    -0.051 Br
ATOM     17  C   UNL d   1      -8.456   2.954  -2.562  0.00  0.00     0.031 A 
ENDBRANCH   8  10
ENDBRANCH   6   8
ENDBRANCH   4   6
ENDBRANCH   1   4
BRANCH   3  18
ATOM     18  C   UNL d   1      -2.571  -0.567   1.227  0.00  0.00     0.054 C 
ATOM     19  C   UNL d   1      -2.283  -1.836   1.919  0.00  0.00     0.198 C 
ATOM     20  C   UNL d   1      -0.908  -1.986   2.437  0.00  0.00     0.049 A 
ATOM     21  O   UNL d   1      -3.136  -2.700   2.075  0.00  0.00    -0.286 OA
ATOM     22  C   UNL d   1      -0.577  -3.028   3.307  0.00  0.00     0.018 A 
ATOM     23  C   UNL d   1       0.055  -1.046   2.068  0.00  0.00     0.089 A 
ATOM     24  C   UNL d   1       0.722  -3.115   3.813  0.00  0.00     0.001 A 
ATOM     25  C   UNL d   1       1.687  -2.180   3.434  0.00  0.00     0.003 A 
ATOM     26  C   UNL d   1       1.357  -1.148   2.554  0.00  0.00     0.038 A 
ATOM     27  O   UNL d   1      -0.223   0.016   1.244  0.00  0.00    -0.321 OA
ATOM     28  C   UNL d   1      -1.540   0.239   0.935  0.00  0.00     0.159 C 
ENDBRANCH   3  18
TORSDOF 5
