REMARK  6 active torsions:
REMARK  status: ('A' for Active; 'I' for Inactive)
REMARK    1  A    between atoms: C_3  and  C_1 
REMARK    2  A    between atoms: C_8  and  C_2 
REMARK       I    between atoms: N_11  and  C_3 
REMARK    3  A    between atoms: N_7  and  C_6 
REMARK    4  A    between atoms: C_15  and  N_11 
REMARK    5  A    between atoms: C_12  and  S_13 
REMARK    6  A    between atoms: S_13  and  C_16 
ROOT
ATOM      1  C   UNL d   1       0.151  -2.340   0.778  0.00  0.00     0.261 C 
ATOM      2  N   UNL d   1      -0.306  -3.535   0.224  0.00  0.00    -0.322 N 
ATOM      3  O   UNL d   1      -0.427  -1.265   0.639  0.00  0.00    -0.267 OA
ATOM      4  H   UNL d   1       0.044  -4.375   0.660  0.00  0.00     0.169 HD
ENDROOT
BRANCH   2   5
ATOM      5  C   UNL d   1      -1.602  -3.652  -0.341  0.00  0.00     0.052 A 
ATOM      6  C   UNL d   1      -2.026  -2.985  -1.509  0.00  0.00     0.032 A 
ATOM      7  C   UNL d   1      -3.372  -3.109  -1.904  0.00  0.00     0.021 A 
ATOM      8  C   UNL d   1      -4.258  -3.928  -1.202  0.00  0.00     0.002 A 
ATOM      9  C   UNL d   1      -3.807  -4.654  -0.107  0.00  0.00     0.002 A 
ATOM     10  C   UNL d   1      -2.483  -4.527   0.314  0.00  0.00     0.031 A 
BRANCH   6  11
ATOM     11  S   UNL d   1      -0.899  -2.115  -2.617  0.00  0.00    -0.086 SA
BRANCH  11  12
ATOM     12  C   UNL d   1      -1.209  -2.969  -4.172  0.00  0.00     0.038 A 
ATOM     13  C   UNL d   1      -0.817  -4.288  -4.460  0.00  0.00     0.121 A 
ATOM     14  C   UNL d   1      -1.196  -4.945  -5.639  0.00  0.00     0.061 A 
ATOM     15  C   UNL d   1      -1.964  -4.261  -6.574  0.00  0.00     0.036 A 
ATOM     16  C   UNL d   1      -2.324  -2.932  -6.347  0.00  0.00     0.025 A 
ATOM     17 CL   UNL d   1      -2.476  -5.055  -8.010  0.00  0.00    -0.084 Cl
ATOM     18  C   UNL d   1      -1.946  -2.292  -5.159  0.00  0.00     0.023 A 
BRANCH  13  19
ATOM     19  N   UNL d   1       0.029  -5.020  -3.542  0.00  0.00    -0.114 N 
ATOM     20  O   UNL d   1       1.169  -4.582  -3.347  0.00  0.00    -0.532 OA
ATOM     21  O   UNL d   1      -0.435  -6.064  -3.067  0.00  0.00    -0.532 OA
ENDBRANCH  13  19
ENDBRANCH  11  12
ENDBRANCH   6  11
ENDBRANCH   2   5
BRANCH   1  22
ATOM     22  C   UNL d   1       1.364  -2.454   1.589  0.00  0.00     0.093 C 
ATOM     23  C   UNL d   1       2.406  -1.482   1.865  0.00  0.00     0.085 C 
ATOM     24  N   UNL d   1       3.391  -2.078   2.557  0.00  0.00    -0.259 N 
ATOM     25  O   UNL d   1       2.950  -3.314   2.916  0.00  0.00    -0.241 OA
ATOM     26  HN  UNL d   1       4.304  -1.678   2.773  1.00  0.00     0.195 HD
ATOM     27  C   UNL d   1       1.726  -3.534   2.387  0.00  0.00     0.090 C 
ATOM     28  C   UNL d   1       1.108  -4.804   2.821  0.00  0.00     0.080 C 
BRANCH  23  29
ATOM     29  C   UNL d   1       2.559  -0.058   1.494  0.00  0.00     0.015 A 
ATOM     30  C   UNL d   1       3.238   0.882   2.309  0.00  0.00     0.046 A 
ATOM     31 CL   UNL d   1       3.923   0.520   3.864  0.00  0.00    -0.083 Cl
ATOM     32  C   UNL d   1       3.373   2.222   1.911  0.00  0.00     0.025 A 
ATOM     33  C   UNL d   1       2.818   2.664   0.716  0.00  0.00     0.002 A 
ATOM     34  C   UNL d   1       2.143   1.761  -0.095  0.00  0.00     0.001 A 
ATOM     35  C   UNL d   1       2.033   0.415   0.279  0.00  0.00     0.015 A 
ENDBRANCH  23  29
ENDBRANCH   1  22
TORSDOF 6
