REMARK  2 active torsions:
REMARK  status: ('A' for Active; 'I' for Inactive)
REMARK    1  A    between atoms: C_7  and  C_2 
REMARK    2  A    between atoms: S_11  and  C_5 
ROOT
ATOM      1  C   UNL d   1      -0.297  -1.227  -0.069  0.00  0.00     0.110 A 
ATOM      2  C   UNL d   1       0.985  -0.638   0.048  0.00  0.00     0.105 A 
ATOM      3  N   UNL d   1       0.909   0.692   0.170  0.00  0.00    -0.294 N 
ATOM      4  HN  UNL d   1       1.675   1.353   0.306  1.00  0.00     0.187 HD
ATOM      5  C   UNL d   1      -1.189  -0.171  -0.024  0.00  0.00     0.109 A 
ATOM      6  N   UNL d   1      -0.409   0.961   0.072  0.00  0.00    -0.288 N 
ATOM      7  C   UNL d   1      -0.584  -2.613  -0.217  0.00  0.00     0.105 C 
ATOM      8  N   UNL d   1      -0.846  -3.742  -0.321  0.00  0.00    -0.191 NA
ATOM      9  C   UNL d   1      -0.786   2.357   0.044  0.00  0.00     0.178 C 
ENDROOT
BRANCH   2  10
ATOM     10  C   UNL d   1       2.300  -1.347   0.030  0.00  0.00     0.104 A 
ATOM     11  O   UNL d   1       2.460  -2.688  -0.177  0.00  0.00    -0.320 OA
ATOM     12  C   UNL d   1       3.791  -2.950  -0.136  0.00  0.00     0.142 A 
ATOM     13  C   UNL d   1       4.501  -1.800   0.112  0.00  0.00     0.027 A 
ATOM     14  C   UNL d   1       3.542  -0.763   0.209  0.00  0.00     0.041 A 
ENDBRANCH   2  10
BRANCH   5  15
ATOM     15  S   UNL d   1      -2.925  -0.045  -0.143  0.00  0.00    -0.114 SA
ATOM     16  C   UNL d   1      -3.556  -1.563   0.597  0.00  0.00     0.097 C 
ENDBRANCH   5  15
TORSDOF 2
