REMARK  2 active torsions:
REMARK  status: ('A' for Active; 'I' for Inactive)
REMARK    1  A    between atoms: C_2  and  S_1 
REMARK    2  A    between atoms: N_7  and  S_1 
ROOT
ATOM      1  C   UNL d   1       0.568   0.556  -1.537  0.00  0.00     0.092 A 
ATOM      2  C   UNL d   1       0.209  -0.387  -2.517  0.00  0.00     0.050 A 
ATOM      3  C   UNL d   1       0.616   1.918  -1.865  0.00  0.00     0.029 A 
ATOM      4  C   UNL d   1       0.299   2.320  -3.173  0.00  0.00     0.021 A 
ATOM      5  C   UNL d   1      -0.097   0.030  -3.810  0.00  0.00     0.035 A 
ATOM      6  I   UNL d   1       1.120   3.484  -0.556  0.00  0.00    -0.043 I 
ATOM      7  C   UNL d   1      -0.054   1.379  -4.143  0.00  0.00     0.025 A 
ATOM      8 CL   UNL d   1      -0.524  -1.130  -5.006  0.00  0.00    -0.084 Cl
ENDROOT
BRANCH   1   9
ATOM      9  S   UNL d   1       0.990  -0.072   0.063  0.00  0.00     0.240 S 
ATOM     10  O   UNL d   1       2.278   0.441   0.455  0.00  0.00    -0.206 OA
ATOM     11  O   UNL d   1       0.695  -1.488   0.104  0.00  0.00    -0.206 OA
BRANCH   9  12
ATOM     12  N   UNL d   1      -0.157   0.625   1.070  0.00  0.00    -0.225 NA
ATOM     13  H   UNL d   1       0.291   1.290   1.701  0.00  0.00     0.136 HD
ATOM     14  H   UNL d   1      -0.682  -0.107   1.550  0.00  0.00     0.136 HD
ENDBRANCH   9  12
ENDBRANCH   1   9
TORSDOF 2
