REMARK  6 active torsions:
REMARK  status: ('A' for Active; 'I' for Inactive)
REMARK    1  A    between atoms: C_2  and  C_1 
REMARK       I    between atoms: N_5  and  C_2 
REMARK    2  A    between atoms: N_3  and  C_4 
REMARK    3  A    between atoms: C_6  and  N_5 
REMARK    4  A    between atoms: C_12  and  N_5 
REMARK    5  A    between atoms: C_15  and  C_6 
REMARK    6  A    between atoms: C_16  and  C_15 
ROOT
ATOM      1  C   UNL d   1       2.417  -0.078  -0.071  0.00  0.00     0.260 C 
ATOM      2  N   UNL d   1       3.247  -1.229  -0.159  0.00  0.00    -0.313 N 
ATOM      3  O   UNL d   1       1.187  -0.108  -0.017  0.00  0.00    -0.267 OA
ENDROOT
BRANCH   2   4
ATOM      4  C   UNL d   1       4.731  -1.171  -0.165  0.00  0.00     0.138 C 
BRANCH   4   5
ATOM      5  C   UNL d   1       5.453  -1.937  -1.283  0.00  0.00     0.077 C 
BRANCH   5   6
ATOM      6  C   UNL d   1       5.115  -1.394  -2.643  0.00  0.00     0.010 A 
ATOM      7  N   UNL d   1       5.401  -0.088  -2.868  0.00  0.00    -0.369 N 
ATOM      8  C   UNL d   1       5.100   0.402  -4.090  0.00  0.00     0.088 A 
ATOM      9  HN  UNL d   1       5.824   0.497  -2.148  1.00  0.00     0.165 HD
ATOM     10  C   UNL d   1       4.550  -0.354  -5.111  0.00  0.00     0.017 A 
ATOM     11  C   UNL d   1       4.277  -1.693  -4.863  0.00  0.00     0.003 A 
ATOM     12  C   UNL d   1       4.557  -2.225  -3.610  0.00  0.00     0.025 A 
ENDBRANCH   5   6
ENDBRANCH   4   5
ENDBRANCH   2   4
BRANCH   2  13
ATOM     13  C   UNL d   1       2.639  -2.549  -0.197  0.00  0.00     0.037 A 
ATOM     14  C   UNL d   1       1.384  -2.769  -0.786  0.00  0.00     0.029 A 
ATOM     15  C   UNL d   1       0.814  -4.047  -0.846  0.00  0.00     0.002 A 
ATOM     16  C   UNL d   1       1.494  -5.143  -0.329  0.00  0.00     0.000 A 
ATOM     17  C   UNL d   1       2.739  -4.957   0.258  0.00  0.00     0.002 A 
ATOM     18  C   UNL d   1       3.299  -3.674   0.330  0.00  0.00     0.029 A 
ENDBRANCH   2  13
BRANCH   1  19
ATOM     19  C   UNL d   1       2.962   1.304   0.084  0.00  0.00     0.066 A 
ATOM     20  C   UNL d   1       2.337   2.401  -0.527  0.00  0.00     0.118 A 
ATOM     21  C   UNL d   1       2.727   3.727  -0.265  0.00  0.00     0.037 A 
ATOM     22  C   UNL d   1       3.777   3.967   0.621  0.00  0.00     0.009 A 
ATOM     23  C   UNL d   1       4.408   2.898   1.264  0.00  0.00    -0.061 A 
ATOM     24  C   UNL d   1       3.964   1.583   1.026  0.00  0.00     0.026 A 
ATOM     25  C   UNL d   1       5.540   3.163   2.215  0.00  0.00     0.048 C 
BRANCH  20  26
ATOM     26  N   UNL d   1       1.242   2.225  -1.461  0.00  0.00    -0.115 N 
ATOM     27  O   UNL d   1       1.498   1.631  -2.521  0.00  0.00    -0.532 OA
ATOM     28  O   UNL d   1       0.169   2.787  -1.191  0.00  0.00    -0.532 OA
ENDBRANCH  20  26
ENDBRANCH   1  19
TORSDOF 6
