REMARK  2 active torsions:
REMARK  status: ('A' for Active; 'I' for Inactive)
REMARK    1  A    between atoms: C_11  and  C_8 
REMARK    2  A    between atoms: C_18  and  C_10 
ROOT
ATOM      1  C   UNL d   1       0.254   0.554   0.063  0.00  0.00     0.172 A 
ATOM      2  N   UNL d   1       0.458  -0.784   0.003  0.00  0.00    -0.242 N 
ATOM      3  N   UNL d   1       1.352   1.255   0.069  0.00  0.00    -0.333 N 
ATOM      4  HN  UNL d   1       1.456   2.269   0.109  1.00  0.00     0.168 HD
ATOM      5  S   UNL d   1      -1.425   0.885   0.066  0.00  0.00    -0.037 SA
ATOM      6  N   UNL d   1      -0.591  -1.638  -0.056  0.00  0.00    -0.290 N 
ATOM      7  HN  UNL d   1      -0.559  -2.656  -0.097  1.00  0.00     0.188 HD
ATOM      8  C   UNL d   1       2.349   0.286   0.008  0.00  0.00     0.062 A 
ATOM      9  C   UNL d   1       1.801  -0.991  -0.022  0.00  0.00     0.149 A 
ATOM     10  C   UNL d   1      -1.653  -0.879  -0.050  0.00  0.00     0.070 A 
ENDROOT
BRANCH   8  11
ATOM     11  C   UNL d   1       3.770   0.611  -0.036  0.00  0.00    -0.008 A 
ATOM     12  C   UNL d   1       4.175   1.956   0.019  0.00  0.00     0.017 A 
ATOM     13  C   UNL d   1       5.530   2.297  -0.030  0.00  0.00     0.043 A 
ATOM     14  C   UNL d   1       6.485   1.295  -0.136  0.00  0.00     0.116 A 
ATOM     15  C   UNL d   1       6.112  -0.041  -0.193  0.00  0.00     0.043 A 
ATOM     16  F   UNL d   1       7.784   1.621  -0.184  0.00  0.00    -0.206 F 
ATOM     17  C   UNL d   1       4.757  -0.383  -0.143  0.00  0.00     0.017 A 
ENDBRANCH   8  11
BRANCH  10  18
ATOM     18  C   UNL d   1      -3.052  -1.414  -0.133  0.00  0.00     0.062 C 
ATOM     19  C   UNL d   1      -3.601  -1.732   1.246  0.00  0.00     0.012 C 
ENDBRANCH  10  18
TORSDOF 2
