REMARK  7 active torsions:
REMARK  status: ('A' for Active; 'I' for Inactive)
REMARK    1  A    between atoms: N_4  and  S_1 
REMARK    2  A    between atoms: C_8  and  S_1 
REMARK    3  A    between atoms: N_3  and  C_2 
REMARK    4  A    between atoms: C_9  and  N_4 
REMARK    5  A    between atoms: C_5  and  C_11 
REMARK    6  A    between atoms: C_6  and  S_7 
REMARK    7  A    between atoms: S_7  and  C_12 
ROOT
ATOM      1  C   UNL d   1       0.878  -1.521   2.210  0.00  0.00     0.040 A 
ATOM      2  C   UNL d   1       2.092  -2.193   1.960  0.00  0.00     0.027 A 
ATOM      3  C   UNL d   1      -0.102  -2.116   3.018  0.00  0.00     0.026 A 
ATOM      4  C   UNL d   1       2.335  -3.402   2.633  0.00  0.00     0.021 A 
ATOM      5  C   UNL d   1       0.150  -3.329   3.656  0.00  0.00     0.002 A 
ATOM      6  C   UNL d   1       1.381  -3.955   3.490  0.00  0.00     0.001 A 
ENDROOT
BRANCH   1   7
ATOM      7  N   UNL d   1       0.603  -0.191   1.724  0.00  0.00    -0.180 NA
ATOM      8  H   UNL d   1       0.066   0.345   2.401  0.00  0.00     0.146 HD
BRANCH   7   9
ATOM      9  S   UNL d   1      -0.043  -0.026   0.159  0.00  0.00     0.245 S 
ATOM     10  O   UNL d   1      -0.415  -1.317  -0.363  0.00  0.00    -0.206 OA
ATOM     11  O   UNL d   1       0.799   0.902  -0.566  0.00  0.00    -0.206 OA
BRANCH   9  12
ATOM     12  C   UNL d   1      -1.560   0.874   0.503  0.00  0.00     0.075 A 
ATOM     13  C   UNL d   1      -1.497   2.126   1.137  0.00  0.00     0.041 A 
ATOM     14  C   UNL d   1      -2.677   2.837   1.418  0.00  0.00     0.049 A 
ATOM     15  C   UNL d   1      -3.911   2.283   1.035  0.00  0.00     0.016 A 
ATOM     16  C   UNL d   1      -3.967   1.048   0.384  0.00  0.00     0.002 A 
ATOM     17  C   UNL d   1      -2.792   0.338   0.119  0.00  0.00     0.025 A 
BRANCH  14  18
ATOM     18  C   UNL d   1      -2.648   4.173   2.126  0.00  0.00     0.417 C 
ATOM     19  F   UNL d   1      -1.388   4.624   2.372  0.00  0.00    -0.166 F 
ATOM     20  F   UNL d   1      -3.272   5.156   1.422  0.00  0.00    -0.166 F 
ATOM     21  F   UNL d   1      -3.269   4.125   3.337  0.00  0.00    -0.166 F 
ENDBRANCH  14  18
ENDBRANCH   9  12
ENDBRANCH   7   9
ENDBRANCH   1   7
BRANCH   2  22
ATOM     22  S   UNL d   1       3.305  -1.672   0.751  0.00  0.00    -0.086 SA
BRANCH  22  23
ATOM     23  C   UNL d   1       4.489  -0.739   1.706  0.00  0.00     0.038 A 
ATOM     24  C   UNL d   1       5.829  -1.109   1.917  0.00  0.00     0.121 A 
ATOM     25  C   UNL d   1       6.760  -0.245   2.521  0.00  0.00     0.061 A 
ATOM     26  C   UNL d   1       6.341   1.016   2.924  0.00  0.00     0.036 A 
ATOM     27  C   UNL d   1       5.018   1.409   2.740  0.00  0.00     0.025 A 
ATOM     28 CL   UNL d   1       7.465   2.108   3.631  0.00  0.00    -0.084 Cl
ATOM     29  C   UNL d   1       4.104   0.540   2.132  0.00  0.00     0.023 A 
BRANCH  24  30
ATOM     30  N   UNL d   1       6.331  -2.406   1.504  0.00  0.00    -0.114 N 
ATOM     31  O   UNL d   1       5.817  -3.405   2.023  0.00  0.00    -0.532 OA
ATOM     32  O   UNL d   1       7.295  -2.414   0.726  0.00  0.00    -0.532 OA
ENDBRANCH  24  30
ENDBRANCH  22  23
ENDBRANCH   2  22
TORSDOF 7
