REMARK  4 active torsions:
REMARK  status: ('A' for Active; 'I' for Inactive)
REMARK    1  A    between atoms: C_6  and  C_1 
REMARK       I    between atoms: N_7  and  C_6 
REMARK    2  A    between atoms: C_8  and  N_7 
REMARK    3  A    between atoms: C_15  and  C_10 
REMARK    4  A    between atoms: C_20  and  C_15 
ROOT
ATOM      1  C   UNL d   1      -3.649   0.067  -1.009  0.00  0.00     0.272 C 
ATOM      2  N   UNL d   1      -4.425  -1.075  -1.058  0.00  0.00    -0.321 N 
ATOM      3  O   UNL d   1      -2.511   0.131  -0.552  0.00  0.00    -0.266 OA
ATOM      4  H   UNL d   1      -5.090  -1.078  -1.819  0.00  0.00     0.169 HD
ENDROOT
BRANCH   1   5
ATOM      5  C   UNL d   1      -4.270   1.228  -1.619  0.00  0.00     0.102 A 
ATOM      6  N   UNL d   1      -3.589   2.418  -1.742  0.00  0.00    -0.351 N 
ATOM      7  C   UNL d   1      -4.390   3.397  -2.276  0.00  0.00     0.044 A 
ATOM      8  H   UNL d   1      -2.633   2.546  -1.435  0.00  0.00     0.166 HD
ATOM      9  C   UNL d   1      -4.116   4.751  -2.502  0.00  0.00     0.037 A 
ATOM     10  C   UNL d   1      -5.619   2.812  -2.569  0.00  0.00    -0.001 A 
ATOM     11  C   UNL d   1      -5.138   5.544  -3.036  0.00  0.00    -0.059 A 
ATOM     12  C   UNL d   1      -4.933   7.020  -3.225  0.00  0.00     0.048 C 
ATOM     13  C   UNL d   1      -6.372   4.971  -3.357  0.00  0.00     0.014 A 
ATOM     14  C   UNL d   1      -6.640   3.599  -3.152  0.00  0.00    -0.049 A 
ATOM     15  C   UNL d   1      -7.997   3.070  -3.523  0.00  0.00     0.049 C 
ATOM     16  C   UNL d   1      -5.531   1.449  -2.150  0.00  0.00     0.049 A 
ENDBRANCH   1   5
BRANCH   2  17
ATOM     17  C   UNL d   1      -3.998  -2.346  -0.618  0.00  0.00     0.041 A 
ATOM     18  C   UNL d   1      -3.475  -2.625   0.663  0.00  0.00    -0.028 A 
ATOM     19  C   UNL d   1      -3.072  -3.954   0.928  0.00  0.00     0.010 A 
ATOM     20  C   UNL d   1      -3.192  -4.965  -0.028  0.00  0.00     0.001 A 
ATOM     21  C   UNL d   1      -3.756  -4.684  -1.262  0.00  0.00     0.002 A 
ATOM     22  C   UNL d   1      -4.174  -3.387  -1.547  0.00  0.00     0.030 A 
BRANCH  18  23
ATOM     23  C   UNL d   1      -3.447  -1.613   1.810  0.00  0.00     0.016 C 
ATOM     24  C   UNL d   1      -2.100  -1.619   2.553  0.00  0.00     0.015 C 
BRANCH  23  25
ATOM     25  C   UNL d   1      -4.597  -1.838   2.817  0.00  0.00     0.004 C 
ATOM     26  C   UNL d   1      -5.969  -1.497   2.245  0.00  0.00     0.006 C 
ENDBRANCH  23  25
ENDBRANCH  18  23
ENDBRANCH   2  17
TORSDOF 4
