REMARK  2 active torsions:
REMARK  status: ('A' for Active; 'I' for Inactive)
REMARK    1  A    between atoms: C_2  and  C_1 
REMARK    2  A    between atoms: C_12  and  C_7 
ROOT
ATOM      1  C   UNL d   1       1.480   0.615  -0.160  0.00  0.00     0.073 C 
ATOM      2  N   UNL d   1       1.488  -0.729   0.151  0.00  0.00    -0.347 N 
ATOM      3  HN  UNL d   1       2.326  -1.280   0.340  1.00  0.00     0.167 HD
ATOM      4  C   UNL d   1       0.255  -1.198   0.168  0.00  0.00     0.085 C 
ATOM      5  S   UNL d   1      -0.967   0.019   0.101  0.00  0.00    -0.081 SA
ATOM      6  C   UNL d   1       0.235   1.203  -0.213  0.00  0.00     0.084 C 
ENDROOT
BRANCH   1   7
ATOM      7  C   UNL d   1       2.752   1.329  -0.494  0.00  0.00     0.102 C 
ATOM      8  N   UNL d   1       2.809   2.250  -1.433  0.00  0.00    -0.348 N 
ATOM      9  C   UNL d   1       4.139   2.534  -1.702  0.00  0.00     0.050 C 
ATOM     10  HN  UNL d   1       2.006   2.683  -1.889  1.00  0.00     0.166 HD
ATOM     11  C   UNL d   1       4.630   3.272  -2.798  0.00  0.00     0.031 C 
ATOM     12  C   UNL d   1       5.054   2.011  -0.788  0.00  0.00     0.033 C 
ATOM     13  C   UNL d   1       6.009   3.475  -2.929  0.00  0.00     0.002 C 
ATOM     14  C   UNL d   1       6.883   3.055  -1.932  0.00  0.00     0.002 C 
ATOM     15  C   UNL d   1       6.421   2.326  -0.835  0.00  0.00     0.021 C 
ATOM     16  S   UNL d   1       4.236   0.921   0.257  0.00  0.00    -0.068 SA
ENDBRANCH   1   7
BRANCH   4  17
ATOM     17  C   UNL d   1      -0.055  -2.630   0.116  0.00  0.00     0.001 A 
ATOM     18  C   UNL d   1       0.887  -3.491  -0.479  0.00  0.00     0.054 A 
ATOM     19  C   UNL d   1       0.634  -4.846  -0.619  0.00  0.00     0.103 A 
ATOM     20  O   UNL d   1       1.591  -5.593  -1.258  0.00  0.00    -0.346 OA
ATOM     21  C   UNL d   1      -0.555  -5.392  -0.123  0.00  0.00     0.102 A 
ATOM     22  C   UNL d   1       1.072  -6.862  -1.669  0.00  0.00     0.202 C 
ATOM     23  C   UNL d   1       0.295  -7.509  -0.534  0.00  0.00     0.202 C 
ATOM     24  O   UNL d   1      -0.856  -6.725  -0.195  0.00  0.00    -0.346 OA
ATOM     25  C   UNL d   1      -1.500  -4.556   0.471  0.00  0.00     0.040 A 
ATOM     26  C   UNL d   1      -1.258  -3.185   0.589  0.00  0.00     0.017 A 
ENDBRANCH   4  17
TORSDOF 2
