REMARK  12 active torsions:
REMARK  status: ('A' for Active; 'I' for Inactive)
REMARK    1  A    between atoms: C_14  and  C_1 
REMARK    2  A    between atoms: C_13  and  C_2 
REMARK    3  A    between atoms: S_10  and  C_3 
REMARK    4  A    between atoms: S_9  and  C_4 
REMARK    5  A    between atoms: C_15  and  C_5 
REMARK    6  A    between atoms: C_16  and  C_6 
REMARK    7  A    between atoms: C_11  and  S_9 
REMARK    8  A    between atoms: C_12  and  S_10 
REMARK    9  A    between atoms: O_22  and  C_13 
REMARK   10  A    between atoms: O_21  and  C_14 
REMARK   11  A    between atoms: O_24  and  C_15 
REMARK   12  A    between atoms: O_23  and  C_16 
ROOT
ATOM      1  C   UNL d   1       1.337  -0.227  -0.127  0.00  0.00     0.056 C 
ATOM      2  C   UNL d   1      -1.445   0.053  -0.493  0.00  0.00     0.056 C 
ATOM      3  C   UNL d   1       0.556  -1.368  -0.324  0.00  0.00     0.023 C 
ATOM      4  C   UNL d   1      -0.673   1.190  -0.180  0.00  0.00     0.023 C 
ATOM      5  C   UNL d   1      -0.808  -1.198  -0.593  0.00  0.00     0.039 C 
ATOM      6  C   UNL d   1       0.717   1.032  -0.013  0.00  0.00     0.039 C 
ENDROOT
BRANCH   3   7
ATOM      7  S   UNL d   1       1.149  -3.060  -0.244  0.00  0.00    -0.088 SA
BRANCH   7   8
ATOM      8  C   UNL d   1       1.151  -3.344   1.534  0.00  0.00     0.022 A 
ATOM      9  C   UNL d   1       0.082  -3.891   2.275  0.00  0.00     0.054 A 
ATOM     10  C   UNL d   1       0.215  -4.088   3.667  0.00  0.00     0.020 A 
ATOM     11  C   UNL d   1       1.411  -3.786   4.314  0.00  0.00     0.001 A 
ATOM     12  C   UNL d   1       2.478  -3.276   3.587  0.00  0.00     0.001 A 
ATOM     13  C   UNL d   1       2.352  -3.058   2.211  0.00  0.00     0.020 A 
BRANCH   9  14
ATOM     14  C   UNL d   1      -1.226  -4.249   1.669  0.00  0.00     0.177 C 
ATOM     15  O   UNL d   1      -1.857  -3.523   0.919  0.00  0.00    -0.646 OA
BRANCH  14  16
ATOM     16  O   UNL d   1      -1.680  -5.462   2.062  0.00  0.00    -0.773 OA
ATOM     17  H   UNL d   1      -1.073  -5.990   2.620  0.00  0.00     0.167 HD
ENDBRANCH  14  16
ENDBRANCH   9  14
ENDBRANCH   7   8
ENDBRANCH   3   7
BRANCH   1  18
ATOM     18  C   UNL d   1       2.819  -0.237  -0.067  0.00  0.00     0.177 C 
ATOM     19  O   UNL d   1       3.453   0.516   0.650  0.00  0.00    -0.646 OA
BRANCH  18  20
ATOM     20  O   UNL d   1       3.401  -1.059  -0.965  0.00  0.00    -0.773 OA
ATOM     21  H   UNL d   1       2.792  -1.608  -1.498  0.00  0.00     0.167 HD
ENDBRANCH  18  20
ENDBRANCH   1  18
BRANCH   2  22
ATOM     22  C   UNL d   1      -2.907   0.127  -0.765  0.00  0.00     0.177 C 
ATOM     23  O   UNL d   1      -3.454   1.154  -1.156  0.00  0.00    -0.646 OA
BRANCH  22  24
ATOM     24  O   UNL d   1      -3.603  -1.015  -0.606  0.00  0.00    -0.773 OA
ATOM     25  H   UNL d   1      -3.179  -1.777  -0.158  0.00  0.00     0.167 HD
ENDBRANCH  22  24
ENDBRANCH   2  22
BRANCH   4  26
ATOM     26  S   UNL d   1      -1.313   2.848   0.113  0.00  0.00    -0.088 SA
BRANCH  26  27
ATOM     27  C   UNL d   1      -1.427   3.539  -1.541  0.00  0.00     0.022 A 
ATOM     28  C   UNL d   1      -2.572   4.191  -2.043  0.00  0.00     0.054 A 
ATOM     29  C   UNL d   1      -2.561   4.720  -3.349  0.00  0.00     0.020 A 
ATOM     30  C   UNL d   1      -1.424   4.632  -4.149  0.00  0.00     0.001 A 
ATOM     31  C   UNL d   1      -0.276   4.038  -3.644  0.00  0.00     0.001 A 
ATOM     32  C   UNL d   1      -0.276   3.503  -2.353  0.00  0.00     0.020 A 
BRANCH  28  33
ATOM     33  C   UNL d   1      -3.798   4.494  -1.258  0.00  0.00     0.177 C 
ATOM     34  O   UNL d   1      -4.351   5.582  -1.337  0.00  0.00    -0.646 OA
BRANCH  33  35
ATOM     35  O   UNL d   1      -4.289   3.487  -0.517  0.00  0.00    -0.773 OA
ATOM     36  H   UNL d   1      -3.871   2.610  -0.701  0.00  0.00     0.167 HD
ENDBRANCH  33  35
ENDBRANCH  28  33
ENDBRANCH  26  27
ENDBRANCH   4  26
TORSDOF 12
