REMARK  7 active torsions:
REMARK  status: ('A' for Active; 'I' for Inactive)
REMARK    1  A    between atoms: C_2  and  C_1 
REMARK       I    between atoms: N_4  and  C_1 
REMARK    2  A    between atoms: C_3  and  N_5 
REMARK    3  A    between atoms: N_6  and  C_3 
REMARK    4  A    between atoms: C_10  and  N_4 
REMARK    5  A    between atoms: N_5  and  C_11 
REMARK    6  A    between atoms: C_12  and  N_6 
REMARK    7  A    between atoms: O_15  and  C_8 
ROOT
ATOM      1  C   UNL d   1      -1.310  -0.542  -1.014  0.00  0.00     0.035 A 
ATOM      2  C   UNL d   1      -4.100  -0.250  -1.351  0.00  0.00     0.034 A 
ATOM      3  C   UNL d   1      -2.096   0.012  -0.006  0.00  0.00     0.032 A 
ATOM      4  C   UNL d   1      -1.943  -1.008  -2.172  0.00  0.00     0.032 A 
ATOM      5  C   UNL d   1      -3.476   0.166  -0.176  0.00  0.00     0.032 A 
ATOM      6  C   UNL d   1      -3.330  -0.862  -2.341  0.00  0.00     0.032 A 
ENDROOT
BRANCH   2   7
ATOM      7  N   UNL d   1      -5.452   0.104  -1.520  0.00  0.00    -0.333 N 
ATOM      8  H   UNL d   1      -5.819   0.775  -0.853  0.00  0.00     0.168 HD
BRANCH   7   9
ATOM      9  C   UNL d   1      -6.388  -0.368  -2.392  0.00  0.00     0.176 C 
ATOM     10  S   UNL d   1      -6.572  -1.966  -2.862  0.00  0.00    -0.041 SA
BRANCH   9  11
ATOM     11  N   UNL d   1      -7.346   0.523  -2.807  0.00  0.00    -0.333 N 
ATOM     12  H   UNL d   1      -8.150   0.065  -3.224  0.00  0.00     0.168 HD
BRANCH  11  13
ATOM     13  C   UNL d   1      -7.333   1.933  -2.885  0.00  0.00     0.034 A 
ATOM     14  C   UNL d   1      -6.193   2.723  -2.710  0.00  0.00     0.031 A 
ATOM     15  C   UNL d   1      -6.268   4.118  -2.817  0.00  0.00     0.026 A 
ATOM     16  C   UNL d   1      -7.481   4.728  -3.119  0.00  0.00     0.034 A 
ATOM     17  C   UNL d   1      -8.617   3.954  -3.334  0.00  0.00     0.026 A 
ATOM     18 CL   UNL d   1      -7.574   6.441  -3.237  0.00  0.00    -0.084 Cl
ATOM     19  C   UNL d   1      -8.540   2.561  -3.224  0.00  0.00     0.031 A 
ENDBRANCH  11  13
ENDBRANCH   9  11
ENDBRANCH   7   9
ENDBRANCH   2   7
BRANCH   1  20
ATOM     20  N   UNL d   1       0.100  -0.653  -0.937  0.00  0.00    -0.323 N 
ATOM     21  C   UNL d   1       0.906  -0.145   0.071  0.00  0.00     0.259 C 
ATOM     22  O   UNL d   1       0.531   0.517   1.034  0.00  0.00    -0.267 OA
ATOM     23  H   UNL d   1       0.538  -1.169  -1.686  0.00  0.00     0.169 HD
BRANCH  21  24
ATOM     24  C   UNL d   1       2.357  -0.480   0.017  0.00  0.00     0.065 A 
ATOM     25  C   UNL d   1       3.077  -0.555   1.224  0.00  0.00     0.081 A 
ATOM     26  C   UNL d   1       4.416  -0.935   1.234  0.00  0.00     0.037 A 
ATOM     27  C   UNL d   1       5.064  -1.217   0.034  0.00  0.00     0.003 A 
ATOM     28  C   UNL d   1       4.378  -1.094  -1.175  0.00  0.00     0.001 A 
ATOM     29  C   UNL d   1       3.029  -0.722  -1.188  0.00  0.00     0.020 A 
BRANCH  25  30
ATOM     30  O   UNL d   1       2.526  -0.268   2.446  0.00  0.00    -0.360 OA
ATOM     31  H   UNL d   1       1.652   0.155   2.287  0.00  0.00     0.217 HD
ENDBRANCH  25  30
ENDBRANCH  21  24
ENDBRANCH   1  20
TORSDOF 7
