REMARK  3 active torsions:
REMARK  status: ('A' for Active; 'I' for Inactive)
REMARK    1  A    between atoms: N_4  and  C_1 
REMARK    2  A    between atoms: N_2  and  C_8 
REMARK       I    between atoms: C_6  and  N_4 
REMARK    3  A    between atoms: C_10  and  C_6 
ROOT
ATOM      1  N   UNL d   1      -1.185  -1.261  -1.949  0.00  0.00    -0.351 N 
ATOM      2  C   UNL d   1      -2.396  -1.412  -2.607  0.00  0.00     0.252 C 
ATOM      3  O   UNL d   1      -3.473  -1.208  -2.047  0.00  0.00    -0.268 OA
ATOM      4  H   UNL d   1      -0.324  -1.379  -2.458  0.00  0.00     0.163 HD
ENDROOT
BRANCH   1   5
ATOM      5  C   UNL d   1      -1.090  -0.728  -0.587  0.00  0.00     0.101 C 
ATOM      6  C   UNL d   1       0.149  -1.234   0.221  0.00  0.00    -0.022 C 
ATOM      7  C   UNL d   1       0.202  -0.217   1.373  0.00  0.00     0.016 C 
ATOM      8  C   UNL d   1       1.472  -0.908  -0.512  0.00  0.00     0.011 C 
ATOM      9  C   UNL d   1       0.037  -2.667   0.703  0.00  0.00     0.017 C 
ATOM     10  C   UNL d   1       0.322   0.986   0.431  0.00  0.00    -0.004 C 
ATOM     11  C   UNL d   1      -0.948   0.836  -0.476  0.00  0.00    -0.023 C 
ATOM     12  C   UNL d   1       1.621   0.605  -0.303  0.00  0.00     0.006 C 
ATOM     13  C   UNL d   1      -0.819   1.574  -1.816  0.00  0.00     0.017 C 
ATOM     14  C   UNL d   1      -2.172   1.428   0.262  0.00  0.00     0.017 C 
ENDBRANCH   1   5
BRANCH   2  15
ATOM     15  C   UNL d   1      -2.389  -1.817  -4.057  0.00  0.00     0.034 A 
ATOM     16  C   UNL d   1      -1.226  -1.926  -4.832  0.00  0.00     0.053 A 
ATOM     17  C   UNL d   1      -1.319  -2.245  -6.200  0.00  0.00     0.103 A 
ATOM     18  C   UNL d   1      -2.559  -2.478  -6.809  0.00  0.00     0.036 A 
ATOM     19  C   UNL d   1      -3.715  -2.390  -6.038  0.00  0.00     0.003 A 
ATOM     20  C   UNL d   1      -3.629  -2.060  -4.680  0.00  0.00     0.017 A 
BRANCH  17  21
ATOM     21  N   UNL d   1      -0.097  -2.315  -7.015  0.00  0.00    -0.116 N 
ATOM     22  O   UNL d   1       0.979  -2.065  -6.452  0.00  0.00    -0.532 OA
ATOM     23  O   UNL d   1      -0.214  -2.614  -8.211  0.00  0.00    -0.532 OA
ENDBRANCH  17  21
ENDBRANCH   2  15
TORSDOF 3
