REMARK  3 active torsions:
REMARK  status: ('A' for Active; 'I' for Inactive)
REMARK    1  A    between atoms: S_7  and  C_1 
REMARK    2  A    between atoms: C_10  and  S_7 
REMARK    3  A    between atoms: C_9  and  C_10 
ROOT
ATOM      1  C   UNL d   1      -2.053  -0.872   0.001  0.00  0.00     0.113 A 
ATOM      2  N   UNL d   1      -0.991  -1.643   0.022  0.00  0.00    -0.344 N 
ATOM      3  HN  UNL d   1      -1.002  -2.662   0.044  1.00  0.00     0.167 HD
ATOM      4  S   UNL d   1      -1.771   0.814  -0.027  0.00  0.00    -0.063 SA
ATOM      5  C   UNL d   1       0.149  -0.853   0.011  0.00  0.00     0.050 A 
ATOM      6  C   UNL d   1      -0.073   0.526  -0.005  0.00  0.00     0.034 A 
ATOM      7  C   UNL d   1       1.479  -1.323   0.012  0.00  0.00     0.031 A 
ATOM      8  C   UNL d   1       0.985   1.450  -0.007  0.00  0.00     0.021 A 
ATOM      9  C   UNL d   1       2.541  -0.411   0.004  0.00  0.00     0.002 A 
ATOM     10  C   UNL d   1       2.293   0.958  -0.002  0.00  0.00     0.002 A 
ENDROOT
BRANCH   1  11
ATOM     11  S   UNL d   1      -3.669  -1.548  -0.029  0.00  0.00    -0.097 SA
BRANCH  11  12
ATOM     12  C   UNL d   1      -3.380  -3.118   0.828  0.00  0.00     0.159 C 
BRANCH  12  13
ATOM     13  C   UNL d   1      -2.919  -2.914   2.260  0.00  0.00     0.132 C 
ATOM     14  O   UNL d   1      -3.266  -1.959   2.956  0.00  0.00    -0.298 OA
ATOM     15  C   UNL d   1      -2.070  -4.014   2.845  0.00  0.00     0.091 C 
ENDBRANCH  12  13
ENDBRANCH  11  12
ENDBRANCH   1  11
TORSDOF 3
