REMARK  2 active torsions:
REMARK  status: ('A' for Active; 'I' for Inactive)
REMARK    1  A    between atoms: N_2  and  C_1 
REMARK    2  A    between atoms: O_11  and  C_3 
ROOT
ATOM      1  C   UNL d   1      -0.679   1.246  -0.000  0.00  0.00     0.154 A 
ATOM      2  C   UNL d   1      -1.365   0.036  -0.002  0.00  0.00     0.173 A 
ATOM      3  N   UNL d   1      -0.727  -1.155  -0.002  0.00  0.00    -0.344 N 
ATOM      4  HN  UNL d   1      -1.247  -2.033  -0.003  1.00  0.00     0.167 HD
ATOM      5  C   UNL d   1       0.723   1.239  -0.000  0.00  0.00     0.061 A 
ATOM      6  C   UNL d   1       1.384   0.017  -0.001  0.00  0.00     0.029 A 
ATOM      7  C   UNL d   1       0.628  -1.144  -0.001  0.00  0.00     0.109 A 
ATOM      8 BR   UNL d   1       3.266  -0.053  -0.004  0.00  0.00    -0.050 Br
ENDROOT
BRANCH   1   9
ATOM      9  N   UNL d   1      -1.388   2.515   0.002  0.00  0.00    -0.111 N 
ATOM     10  O   UNL d   1      -2.627   2.481   0.002  0.00  0.00    -0.532 OA
ATOM     11  O   UNL d   1      -0.713   3.554   0.004  0.00  0.00    -0.532 OA
ENDBRANCH   1   9
BRANCH   2  12
ATOM     12  O   UNL d   1      -2.721  -0.101  -0.004  0.00  0.00    -0.344 OA
ATOM     13  H   UNL d   1      -3.145   0.778  -0.005  0.00  0.00     0.219 HD
ENDBRANCH   2  12
TORSDOF 2
