REMARK  8 active torsions:
REMARK  status: ('A' for Active; 'I' for Inactive)
REMARK    1  A    between atoms: C_8  and  N_1 
REMARK    2  A    between atoms: S_9  and  C_2 
REMARK    3  A    between atoms: C_15  and  S_9 
REMARK    4  A    between atoms: C_10  and  C_15 
REMARK       I    between atoms: N_11  and  C_10 
REMARK    5  A    between atoms: C_18  and  N_11 
REMARK    6  A    between atoms: O_16  and  C_17 
REMARK    7  A    between atoms: C_19  and  O_16 
REMARK    8  A    between atoms: C_22  and  C_19 
ROOT
ATOM      1  N   UNL d   1      -0.424   0.944  -0.089  0.00  0.00    -0.286 N 
ATOM      2  C   UNL d   1      -0.550  -0.113   0.810  0.00  0.00     0.167 A 
ATOM      3  N   UNL d   1       0.045  -1.191   0.342  0.00  0.00    -0.279 N 
ATOM      4  HN  UNL d   1       0.074  -2.103   0.798  1.00  0.00     0.189 HD
ATOM      5  N   UNL d   1       0.612  -0.880  -0.853  0.00  0.00    -0.294 N 
ATOM      6  HN  UNL d   1       1.147  -1.509  -1.452  1.00  0.00     0.187 HD
ATOM      7  C   UNL d   1       0.343   0.380  -1.093  0.00  0.00     0.207 A 
ENDROOT
BRANCH   1   8
ATOM      8  C   UNL d   1      -0.877   2.307  -0.073  0.00  0.00     0.042 A 
ATOM      9  C   UNL d   1      -1.623   2.854   0.976  0.00  0.00     0.033 A 
ATOM     10  C   UNL d   1      -1.976   4.213   0.982  0.00  0.00     0.039 A 
ATOM     11  C   UNL d   1      -1.589   5.055  -0.055  0.00  0.00     0.069 A 
ATOM     12  C   UNL d   1      -0.918   4.512  -1.143  0.00  0.00     0.039 A 
ATOM     13  C   UNL d   1      -0.557   3.158  -1.149  0.00  0.00     0.033 A 
BRANCH  11  14
ATOM     14  O   UNL d   1      -1.914   6.376   0.096  0.00  0.00    -0.347 OA
BRANCH  14  15
ATOM     15  C   UNL d   1      -1.102   7.288  -0.649  0.00  0.00     0.214 C 
BRANCH  15  16
ATOM     16  C   UNL d   1      -1.115   8.669  -0.033  0.00  0.00    -0.034 A 
ATOM     17  C   UNL d   1       0.043   9.457  -0.097  0.00  0.00     0.009 A 
ATOM     18  C   UNL d   1       0.054  10.752   0.426  0.00  0.00     0.001 A 
ATOM     19  C   UNL d   1      -1.098  11.274   1.013  0.00  0.00     0.000 A 
ATOM     20  C   UNL d   1      -2.257  10.504   1.072  0.00  0.00     0.001 A 
ATOM     21  C   UNL d   1      -2.270   9.210   0.549  0.00  0.00     0.009 A 
ENDBRANCH  15  16
ENDBRANCH  14  15
ENDBRANCH  11  14
ENDBRANCH   1   8
BRANCH   2  22
ATOM     22  S   UNL d   1      -1.321  -0.115   2.366  0.00  0.00    -0.083 SA
BRANCH  22  23
ATOM     23  C   UNL d   1      -0.320  -1.389   3.194  0.00  0.00     0.185 C 
BRANCH  23  24
ATOM     24  C   UNL d   1      -0.613  -1.485   4.682  0.00  0.00     0.231 C 
ATOM     25  N   UNL d   1      -1.955  -1.440   5.016  0.00  0.00    -0.327 N 
ATOM     26  H   UNL d   1      -2.604  -1.335   4.248  0.00  0.00     0.169 HD
ATOM     27  O   UNL d   1       0.317  -1.675   5.467  0.00  0.00    -0.272 OA
BRANCH  25  28
ATOM     28  C   UNL d   1      -2.518  -1.565   6.306  0.00  0.00     0.034 A 
ATOM     29  C   UNL d   1      -1.764  -1.605   7.482  0.00  0.00     0.029 A 
ATOM     30  C   UNL d   1      -2.387  -1.764   8.723  0.00  0.00     0.002 A 
ATOM     31  C   UNL d   1      -3.772  -1.888   8.802  0.00  0.00     0.000 A 
ATOM     32  C   UNL d   1      -4.536  -1.828   7.639  0.00  0.00     0.002 A 
ATOM     33  C   UNL d   1      -3.913  -1.659   6.398  0.00  0.00     0.029 A 
ENDBRANCH  25  28
ENDBRANCH  23  24
ENDBRANCH  22  23
ENDBRANCH   2  22
TORSDOF 8
