REMARK  7 active torsions:
REMARK  status: ('A' for Active; 'I' for Inactive)
REMARK    1  A    between atoms: C_2  and  C_1 
REMARK       I    between atoms: N_11  and  C_2 
REMARK    2  A    between atoms: C_3  and  C_4 
REMARK    3  A    between atoms: O_19  and  C_5 
REMARK       I    between atoms: C_8  and  N_16 
REMARK       I    between atoms: N_18  and  C_8 
REMARK    4  A    between atoms: C_10  and  C_21 
REMARK    5  A    between atoms: N_16  and  N_11 
REMARK    6  A    between atoms: C_27  and  N_18 
REMARK    7  A    between atoms: C_21  and  O_19 
ROOT
ATOM      1  C   UNL d   1       0.121   1.065   0.114  0.00  0.00     0.107 C 
ATOM      2  C   UNL d   1       1.415   0.570   0.009  0.00  0.00     0.092 C 
ATOM      3  S   UNL d   1      -0.983  -0.219   0.445  0.00  0.00    -0.094 SA
ATOM      4  C   UNL d   1       1.457  -0.858   0.072  0.00  0.00     0.045 C 
ATOM      5  C   UNL d   1       0.209  -1.412   0.223  0.00  0.00     0.053 C 
ENDROOT
BRANCH   1   6
ATOM      6  C   UNL d   1      -0.320   2.457   0.031  0.00  0.00     0.279 C 
ATOM      7  N   UNL d   1      -1.567   2.749  -0.522  0.00  0.00    -0.261 N 
ATOM      8  H   UNL d   1      -1.726   3.730  -0.754  0.00  0.00     0.190 HD
ATOM      9  O   UNL d   1       0.364   3.409   0.416  0.00  0.00    -0.265 OA
BRANCH   7  10
ATOM     10  N   UNL d   1      -2.282   1.814  -1.290  0.00  0.00    -0.248 N 
ATOM     11  C   UNL d   1      -3.025   2.261  -2.373  0.00  0.00     0.339 C 
ATOM     12  N   UNL d   1      -3.679   1.198  -2.969  0.00  0.00    -0.308 N 
ATOM     13  O   UNL d   1      -3.043   3.438  -2.708  0.00  0.00    -0.245 OA
ATOM     14  H   UNL d   1      -3.408   0.283  -2.642  0.00  0.00     0.170 HD
ATOM     15  H   UNL d   1      -2.679   1.052  -0.750  0.00  0.00     0.192 HD
BRANCH  12  16
ATOM     16  C   UNL d   1      -4.585   1.228  -4.045  0.00  0.00     0.036 A 
ATOM     17  C   UNL d   1      -5.016   2.403  -4.661  0.00  0.00     0.029 A 
ATOM     18  C   UNL d   1      -5.941   2.352  -5.707  0.00  0.00     0.002 A 
ATOM     19  C   UNL d   1      -6.442   1.128  -6.146  0.00  0.00     0.000 A 
ATOM     20  C   UNL d   1      -6.012  -0.051  -5.542  0.00  0.00     0.002 A 
ATOM     21  C   UNL d   1      -5.085  -0.001  -4.497  0.00  0.00     0.029 A 
ENDBRANCH  12  16
ENDBRANCH   7  10
ENDBRANCH   1   6
BRANCH   2  22
ATOM     22  O   UNL d   1       2.464   1.417  -0.174  0.00  0.00    -0.344 OA
BRANCH  22  23
ATOM     23  C   UNL d   1       3.635   0.788  -0.695  0.00  0.00     0.234 C 
BRANCH  23  24
ATOM     24  C   UNL d   1       4.633   1.790  -1.232  0.00  0.00     0.055 A 
ATOM     25  N   UNL d   1       5.915   1.648  -0.780  0.00  0.00    -0.365 N 
ATOM     26  C   UNL d   1       6.868   2.447  -1.311  0.00  0.00     0.104 A 
ATOM     27  HN  UNL d   1       6.145   0.961  -0.063  1.00  0.00     0.165 HD
ATOM     28  C   UNL d   1       6.622   3.394  -2.291  0.00  0.00     0.064 A 
ATOM     29  C   UNL d   1       5.306   3.529  -2.744  0.00  0.00     0.043 A 
ATOM     30  C   UNL d   1       4.299   2.717  -2.221  0.00  0.00     0.059 A 
ATOM     31 CL   UNL d   1       2.716   2.861  -2.889  0.00  0.00    -0.082 Cl
BRANCH  28  32
ATOM     32  C   UNL d   1       7.754   4.204  -2.841  0.00  0.00     0.418 C 
ATOM     33  F   UNL d   1       7.371   5.086  -3.805  0.00  0.00    -0.166 F 
ATOM     34  F   UNL d   1       8.383   4.940  -1.887  0.00  0.00    -0.166 F 
ATOM     35  F   UNL d   1       8.716   3.428  -3.410  0.00  0.00    -0.166 F 
ENDBRANCH  28  32
ENDBRANCH  23  24
ENDBRANCH  22  23
ENDBRANCH   2  22
TORSDOF 7
