REMARK  2 active torsions:
REMARK  status: ('A' for Active; 'I' for Inactive)
REMARK    1  A    between atoms: C_11  and  C_5 
REMARK    2  A    between atoms: C_18  and  C_9 
ROOT
ATOM      1  C   UNL d   1      -0.335  -0.696   0.009  0.00  0.00     0.112 A 
ATOM      2  N   UNL d   1      -1.590  -1.096   0.025  0.00  0.00    -0.340 N 
ATOM      3  HN  UNL d   1      -1.930  -2.057   0.046  1.00  0.00     0.167 HD
ATOM      4  N   UNL d   1      -0.248   0.689  -0.010  0.00  0.00    -0.317 N 
ATOM      5  C   UNL d   1      -2.349   0.057   0.008  0.00  0.00     0.060 A 
ATOM      6  C   UNL d   1      -1.533   1.169  -0.015  0.00  0.00     0.128 A 
ATOM      7  C   UNL d   1       0.890  -1.422   0.020  0.00  0.00     0.056 A 
ATOM      8  C   UNL d   1       0.955   1.385  -0.016  0.00  0.00     0.098 A 
ATOM      9  C   UNL d   1       2.076  -0.768   0.012  0.00  0.00    -0.054 A 
ATOM     10  C   UNL d   1       2.110   0.698  -0.001  0.00  0.00     0.025 A 
ENDROOT
BRANCH   5  11
ATOM     11  C   UNL d   1      -3.806   0.052   0.013  0.00  0.00    -0.008 A 
ATOM     12  C   UNL d   1      -4.495  -1.169   0.093  0.00  0.00     0.017 A 
ATOM     13  C   UNL d   1      -5.893  -1.203   0.095  0.00  0.00     0.043 A 
ATOM     14  C   UNL d   1      -6.607  -0.013   0.017  0.00  0.00     0.116 A 
ATOM     15  C   UNL d   1      -5.950   1.206  -0.062  0.00  0.00     0.043 A 
ATOM     16  F   UNL d   1      -7.946  -0.044   0.016  0.00  0.00    -0.206 F 
ATOM     17  C   UNL d   1      -4.552   1.241  -0.065  0.00  0.00     0.017 A 
ENDBRANCH   5  11
BRANCH   9  18
ATOM     18  C   UNL d   1       3.394  -1.503   0.071  0.00  0.00     0.034 C 
ATOM     19  C   UNL d   1       4.277  -1.286  -1.152  0.00  0.00     0.010 C 
ENDBRANCH   9  18
TORSDOF 2
