REMARK  4 active torsions:
REMARK  status: ('A' for Active; 'I' for Inactive)
REMARK    1  A    between atoms: C_8  and  C_2 
REMARK    2  A    between atoms: O_14  and  C_7 
REMARK    3  A    between atoms: C_11  and  C_8 
REMARK    4  A    between atoms: O_15  and  C_9 
ROOT
ATOM      1  C   UNL d   1      -0.554   0.776   2.139  0.00  0.00     0.127 C 
ATOM      2  C   UNL d   1      -1.031   1.548   1.124  0.00  0.00    -0.048 C 
ATOM      3  C   UNL d   1       0.443   1.276   3.036  0.00  0.00     0.111 C 
ATOM      4  C   UNL d   1      -0.969  -0.556   2.436  0.00  0.00     0.111 C 
ATOM      5  N   UNL d   1       1.255   1.695   3.752  0.00  0.00    -0.191 NA
ATOM      6  N   UNL d   1      -1.258  -1.637   2.752  0.00  0.00    -0.191 NA
ATOM      7  C   UNL d   1      -0.543   2.979   0.921  0.00  0.00     0.046 C 
ENDROOT
BRANCH   2   8
ATOM      8  C   UNL d   1      -2.068   1.213   0.050  0.00  0.00     0.074 C 
BRANCH   8   9
ATOM      9  C   UNL d   1      -2.699  -0.153   0.048  0.00  0.00    -0.051 A 
ATOM     10  C   UNL d   1      -3.909  -0.382   0.728  0.00  0.00     0.047 A 
ATOM     11  C   UNL d   1      -4.472  -1.667   0.813  0.00  0.00     0.102 A 
ATOM     12  C   UNL d   1      -3.793  -2.742   0.211  0.00  0.00     0.101 A 
ATOM     13  C   UNL d   1      -2.607  -2.500  -0.498  0.00  0.00     0.040 A 
ATOM     14  C   UNL d   1      -2.070  -1.219  -0.597  0.00  0.00     0.010 A 
BRANCH  11  15
ATOM     15  O   UNL d   1      -5.637  -1.924   1.485  0.00  0.00    -0.353 OA
ATOM     16  C   UNL d   1      -6.388  -0.824   1.980  0.00  0.00     0.210 C 
ENDBRANCH  11  15
BRANCH  12  17
ATOM     17  O   UNL d   1      -4.108  -4.075   0.231  0.00  0.00    -0.353 OA
ATOM     18  C   UNL d   1      -5.408  -4.463   0.641  0.00  0.00     0.210 C 
ENDBRANCH  12  17
ENDBRANCH   8   9
ENDBRANCH   2   8
TORSDOF 4
