REMARK  5 active torsions:
REMARK  status: ('A' for Active; 'I' for Inactive)
REMARK    1  A    between atoms: C_7  and  C_1 
REMARK       I    between atoms: C_2  and  N_8 
REMARK    2  A    between atoms: O_6  and  C_2 
REMARK    3  A    between atoms: N_3  and  C_4 
REMARK    4  A    between atoms: C_5  and  O_6 
REMARK    5  A    between atoms: N_8  and  C_11 
ROOT
ATOM      1  C   UNL d   1      -1.159  -2.379   4.639  0.00  0.00     0.370 C 
ATOM      2  N   UNL d   1      -2.404  -2.527   5.203  0.00  0.00    -0.302 N 
ATOM      3  O   UNL d   1      -0.380  -3.324   4.698  0.00  0.00    -0.238 OA
ATOM      4  H   UNL d   1      -2.460  -3.466   5.582  0.00  0.00     0.171 HD
ENDROOT
BRANCH   1   5
ATOM      5  O   UNL d   1      -0.902  -1.188   3.987  0.00  0.00    -0.259 OA
BRANCH   5   6
ATOM      6  C   UNL d   1      -0.067  -1.346   2.863  0.00  0.00     0.107 A 
ATOM      7  C   UNL d   1       1.186  -0.701   2.724  0.00  0.00     0.064 A 
ATOM      8  C   UNL d   1       1.787  -0.832   1.451  0.00  0.00     0.032 A 
ATOM      9  C   UNL d   1       1.225  -1.586   0.411  0.00  0.00     0.002 A 
ATOM     10  C   UNL d   1       0.033  -2.260   0.610  0.00  0.00     0.003 A 
ATOM     11  C   UNL d   1      -0.621  -2.128   1.826  0.00  0.00     0.040 A 
BRANCH   7  12
ATOM     12  N   UNL d   1       1.859  -0.032   3.734  0.00  0.00    -0.375 N 
ATOM     13  C   UNL d   1       3.324   0.180   3.707  0.00  0.00     0.149 C 
ATOM     14  C   UNL d   1       3.894  -0.002   5.126  0.00  0.00     0.187 C 
ATOM     15  O   UNL d   1       3.241   0.854   6.078  0.00  0.00    -0.388 OA
ATOM     16  C   UNL d   1       1.825   0.593   6.094  0.00  0.00     0.187 C 
ATOM     17  C   UNL d   1       1.194   0.835   4.713  0.00  0.00     0.149 C 
ENDBRANCH   7  12
ENDBRANCH   5   6
ENDBRANCH   1   5
BRANCH   2  18
ATOM     18  C   UNL d   1      -3.571  -1.756   5.338  0.00  0.00     0.037 A 
ATOM     19  C   UNL d   1      -3.757  -0.425   4.945  0.00  0.00     0.045 A 
ATOM     20  C   UNL d   1      -4.978   0.237   5.238  0.00  0.00     0.050 A 
ATOM     21  C   UNL d   1      -6.016  -0.459   5.886  0.00  0.00     0.016 A 
ATOM     22  C   UNL d   1      -5.849  -1.788   6.239  0.00  0.00     0.003 A 
ATOM     23  C   UNL d   1      -4.639  -2.421   5.968  0.00  0.00     0.029 A 
BRANCH  20  24
ATOM     24  C   UNL d   1      -5.221   1.698   4.928  0.00  0.00     0.417 C 
ATOM     25  F   UNL d   1      -4.209   2.301   4.252  0.00  0.00    -0.166 F 
ATOM     26  F   UNL d   1      -5.408   2.433   6.062  0.00  0.00    -0.166 F 
ATOM     27  F   UNL d   1      -6.345   1.892   4.181  0.00  0.00    -0.166 F 
ENDBRANCH  20  24
ENDBRANCH   2  18
TORSDOF 5
