REMARK  7 active torsions:
REMARK  status: ('A' for Active; 'I' for Inactive)
REMARK    1  A    between atoms: C_2  and  S_1 
REMARK    2  A    between atoms: N_7  and  S_1 
REMARK    3  A    between atoms: C_11  and  C_5 
REMARK    4  A    between atoms: C_6  and  N_9 
REMARK    5  A    between atoms: C_13  and  N_7 
REMARK    6  A    between atoms: N_9  and  C_14 
REMARK    7  A    between atoms: O_21  and  C_11 
ROOT
ATOM      1  C   UNL d   1       0.865   0.304   2.627  0.00  0.00     0.044 A 
ATOM      2  C   UNL d   1       2.159  -0.197   2.867  0.00  0.00     0.035 A 
ATOM      3  C   UNL d   1      -0.091   0.321   3.642  0.00  0.00     0.026 A 
ATOM      4  C   UNL d   1       2.496  -0.593   4.168  0.00  0.00     0.026 A 
ATOM      5  C   UNL d   1       0.250  -0.108   4.924  0.00  0.00     0.002 A 
ATOM      6  C   UNL d   1       1.545  -0.550   5.189  0.00  0.00     0.002 A 
ENDROOT
BRANCH   1   7
ATOM      7  N   UNL d   1       0.535   0.752   1.308  0.00  0.00    -0.178 NA
ATOM      8  H   UNL d   1       1.212   0.418   0.618  0.00  0.00     0.146 HD
BRANCH   7   9
ATOM      9  S   UNL d   1       0.248   2.403   1.093  0.00  0.00     0.263 S 
ATOM     10  O   UNL d   1      -0.067   2.593  -0.306  0.00  0.00    -0.204 OA
ATOM     11  O   UNL d   1      -0.624   2.911   2.135  0.00  0.00    -0.204 OA
BRANCH   9  12
ATOM     12  C   UNL d   1       1.719   3.334   1.285  0.00  0.00     0.161 A 
ATOM     13  N   UNL d   1       2.994   2.808   1.495  0.00  0.00    -0.341 N 
ATOM     14  C   UNL d   1       3.785   3.866   1.532  0.00  0.00     0.183 A 
ATOM     15  HN  UNL d   1       3.256   1.827   1.597  1.00  0.00     0.167 HD
ATOM     16  N   UNL d   1       3.092   5.030   1.334  0.00  0.00    -0.354 N 
ATOM     17  C   UNL d   1       1.777   4.713   1.184  0.00  0.00     0.134 A 
ATOM     18  C   UNL d   1       3.654   6.357   1.267  0.00  0.00     0.156 C 
ENDBRANCH   9  12
ENDBRANCH   7   9
ENDBRANCH   1   7
BRANCH   2  19
ATOM     19  N   UNL d   1       3.120  -0.169   1.807  0.00  0.00    -0.260 NA
ATOM     20  H   UNL d   1       3.421   0.816   1.729  0.00  0.00     0.133 HD
BRANCH  19  21
ATOM     21  C   UNL d   1       4.184  -1.064   1.774  0.00  0.00     0.012 C 
ATOM     22  C   UNL d   1       4.155  -2.404   1.593  0.00  0.00     0.044 C 
ATOM     23  C   UNL d   1       5.469  -3.119   1.630  0.00  0.00     0.120 C 
ATOM     24  S   UNL d   1       6.682  -1.904   2.211  0.00  0.00    -0.159 SA
ATOM     25  C   UNL d   1       5.567  -0.496   1.999  0.00  0.00     0.126 C 
BRANCH  22  26
ATOM     26  C   UNL d   1       2.990  -3.294   1.387  0.00  0.00     0.291 C 
ATOM     27  O   UNL d   1       3.061  -4.509   1.537  0.00  0.00    -0.260 OA
BRANCH  26  28
ATOM     28  O   UNL d   1       1.883  -2.627   0.989  0.00  0.00    -0.323 OA
ATOM     29  C   UNL d   1       0.712  -3.438   0.902  0.00  0.00     0.213 C 
ENDBRANCH  26  28
ENDBRANCH  22  26
ENDBRANCH  19  21
ENDBRANCH   2  19
TORSDOF 7
