REMARK  4 active torsions:
REMARK  status: ('A' for Active; 'I' for Inactive)
REMARK       I    between atoms: N_2  and  C_5 
REMARK    1  A    between atoms: C_3  and  N_2 
REMARK    2  A    between atoms: N_14  and  C_3 
REMARK    3  A    between atoms: C_5  and  C_4 
REMARK    4  A    between atoms: C_16  and  N_14 
ROOT
ATOM      1  N   UNL d   1      -3.913  -2.687  -0.810  0.00  0.00    -0.299 N 
ATOM      2  C   UNL d   1      -3.922  -1.298  -0.788  0.00  0.00     0.257 C 
ATOM      3  O   UNL d   1      -2.938  -0.580  -0.639  0.00  0.00    -0.267 OA
ATOM      4  H   UNL d   1      -4.743  -3.163  -1.133  0.00  0.00     0.171 HD
ENDROOT
BRANCH   1   5
ATOM      5  C   UNL d   1      -2.961  -3.526  -0.249  0.00  0.00     0.179 C 
ATOM      6  S   UNL d   1      -1.694  -3.112   0.757  0.00  0.00    -0.040 SA
BRANCH   5   7
ATOM      7  N   UNL d   1      -3.191  -4.867  -0.451  0.00  0.00    -0.332 N 
ATOM      8  H   UNL d   1      -2.824  -5.436   0.314  0.00  0.00     0.168 HD
BRANCH   7   9
ATOM      9  C   UNL d   1      -3.018  -5.557  -1.690  0.00  0.00     0.056 A 
ATOM     10  C   UNL d   1      -2.844  -6.956  -1.652  0.00  0.00     0.060 A 
ATOM     11 CL   UNL d   1      -2.914  -7.821  -0.153  0.00  0.00    -0.082 Cl
ATOM     12  C   UNL d   1      -2.574  -7.683  -2.813  0.00  0.00     0.026 A 
ATOM     13  C   UNL d   1      -2.474  -7.020  -4.033  0.00  0.00     0.002 A 
ATOM     14  C   UNL d   1      -2.650  -5.637  -4.086  0.00  0.00     0.002 A 
ATOM     15  C   UNL d   1      -2.921  -4.904  -2.923  0.00  0.00     0.031 A 
ENDBRANCH   7   9
ENDBRANCH   5   7
ENDBRANCH   1   5
BRANCH   2  16
ATOM     16  C   UNL d   1      -5.203  -0.620  -1.117  0.00  0.00     0.034 A 
ATOM     17  C   UNL d   1      -5.105   0.467  -2.017  0.00  0.00     0.051 A 
ATOM     18  C   UNL d   1      -6.303   1.167  -2.227  0.00  0.00     0.086 A 
ATOM     19  C   UNL d   1      -7.546   0.803  -1.564  0.00  0.00     0.085 A 
ATOM     20  N   UNL d   1      -6.537   2.229  -3.006  0.00  0.00    -0.240 N 
ATOM     21  N   UNL d   1      -8.497   1.658  -1.958  0.00  0.00    -0.240 N 
ATOM     22  C   UNL d   1      -7.630  -0.281  -0.667  0.00  0.00     0.035 A 
ATOM     23  O   UNL d   1      -7.877   2.533  -2.835  0.00  0.00    -0.156 OA
ATOM     24  HN  UNL d   1      -9.476   1.665  -1.671  1.00  0.00     0.197 HD
ATOM     25  C   UNL d   1      -6.416  -0.980  -0.462  0.00  0.00     0.019 A 
ATOM     26  HN  UNL d   1      -5.868   2.715  -3.603  1.00  0.00     0.197 HD
ENDBRANCH   2  16
TORSDOF 4
