REMARK  2 active torsions:
REMARK  status: ('A' for Active; 'I' for Inactive)
REMARK       I    between atoms: N_2  and  C_1 
REMARK    1  A    between atoms: C_5  and  C_1 
REMARK    2  A    between atoms: C_6  and  N_2 
ROOT
ATOM      1  N   UNL d   1       2.011   0.007   2.835  0.00  0.00    -0.342 N 
ATOM      2  HN  UNL d   1       2.370   0.772   2.263  1.00  0.00     0.167 HD
ATOM      3  C   UNL d   1       0.948  -0.702   2.423  0.00  0.00     0.108 A 
ATOM      4  C   UNL d   1       2.597  -0.295   4.000  0.00  0.00     0.043 A 
ATOM      5  C   UNL d   1       2.141  -1.342   4.820  0.00  0.00    -0.009 A 
ATOM      6  C   UNL d   1       1.011  -2.052   4.396  0.00  0.00     0.017 A 
ATOM      7  C   UNL d   1       0.396  -1.717   3.191  0.00  0.00     0.049 A 
ATOM      8  C   UNL d   1       3.698   0.442   4.410  0.00  0.00     0.030 A 
ATOM      9  C   UNL d   1       2.817  -1.641   6.017  0.00  0.00     0.013 A 
ATOM     10  C   UNL d   1       4.365   0.157   5.601  0.00  0.00     0.002 A 
ATOM     11  C   UNL d   1       3.928  -0.893   6.405  0.00  0.00     0.001 A 
ENDROOT
BRANCH   3  12
ATOM     12  N   UNL d   1       0.376  -0.434   1.175  0.00  0.00    -0.308 N 
ATOM     13  C   UNL d   1       0.975   0.331   0.190  0.00  0.00     0.264 C 
ATOM     14  O   UNL d   1       2.090   0.841   0.275  0.00  0.00    -0.267 OA
ATOM     15  H   UNL d   1      -0.492  -0.889   0.940  0.00  0.00     0.170 HD
BRANCH  13  16
ATOM     16  C   UNL d   1       0.199   0.481  -1.039  0.00  0.00     0.072 A 
ATOM     17  S   UNL d   1      -1.350  -0.213  -1.267  0.00  0.00    -0.097 SA
ATOM     18  C   UNL d   1      -1.496   0.463  -2.833  0.00  0.00     0.050 A 
ATOM     19  C   UNL d   1      -0.381   1.184  -3.192  0.00  0.00     0.009 A 
ATOM     20  C   UNL d   1       0.599   1.186  -2.161  0.00  0.00     0.025 A 
ENDBRANCH  13  16
ENDBRANCH   3  12
TORSDOF 2
