REMARK  3 active torsions:
REMARK  status: ('A' for Active; 'I' for Inactive)
REMARK    1  A    between atoms: C_7  and  C_1 
REMARK    2  A    between atoms: C_6  and  C_2 
REMARK    3  A    between atoms: O_14  and  C_7 
ROOT
ATOM      1  C   UNL d   1      -0.754  -1.326   0.016  0.00  0.00     0.076 A 
ATOM      2  C   UNL d   1       0.686  -1.310   0.003  0.00  0.00     0.032 A 
ATOM      3  C   UNL d   1      -1.160   0.009  -0.011  0.00  0.00     0.022 A 
ATOM      4  C   UNL d   1       1.096   0.015  -0.001  0.00  0.00     0.019 A 
ATOM      5  N   UNL d   1      -0.031   0.792  -0.007  0.00  0.00    -0.362 N 
ATOM      6  C   UNL d   1      -2.498   0.660   0.004  0.00  0.00     0.069 C 
ATOM      7  C   UNL d   1       2.442   0.648  -0.014  0.00  0.00     0.069 C 
ATOM      8  H   UNL d   1      -0.030   1.804  -0.001  0.00  0.00     0.165 HD
ENDROOT
BRANCH   2   9
ATOM      9  C   UNL d   1       1.561  -2.494  -0.023  0.00  0.00     0.062 A 
ATOM     10  N   UNL d   1       2.753  -2.537   0.588  0.00  0.00    -0.300 N 
ATOM     11  N   UNL d   1       3.215  -3.766   0.314  0.00  0.00    -0.311 N 
ATOM     12  HN  UNL d   1       3.205  -1.804   1.134  1.00  0.00     0.187 HD
ATOM     13  C   UNL d   1       2.380  -4.501  -0.473  0.00  0.00     0.109 A 
ATOM     14  H   UNL d   1       4.115  -4.035   0.695  0.00  0.00     0.186 HD
ATOM     15  C   UNL d   1       1.298  -3.692  -0.726  0.00  0.00     0.050 A 
ENDBRANCH   2   9
BRANCH   1  16
ATOM     16  C   UNL d   1      -1.625  -2.498   0.085  0.00  0.00     0.295 C 
ATOM     17  O   UNL d   1      -1.331  -3.533   0.669  0.00  0.00    -0.259 OA
BRANCH  16  18
ATOM     18  O   UNL d   1      -2.792  -2.339  -0.611  0.00  0.00    -0.322 OA
ATOM     19  C   UNL d   1      -3.618  -3.503  -0.619  0.00  0.00     0.213 C 
ENDBRANCH  16  18
ENDBRANCH   1  16
TORSDOF 3
