REMARK  8 active torsions:
REMARK  status: ('A' for Active; 'I' for Inactive)
REMARK    1  A    between atoms: C_2  and  N_1 
REMARK       I    between atoms: C_3  and  N_1 
REMARK    2  A    between atoms: N_12  and  C_2 
REMARK    3  A    between atoms: O_13  and  C_3 
REMARK    4  A    between atoms: N_4  and  C_14 
REMARK    5  A    between atoms: C_16  and  N_12 
REMARK    6  A    between atoms: C_19  and  O_13 
REMARK    7  A    between atoms: C_14  and  C_15 
REMARK    8  A    between atoms: C_15  and  C_16 
ROOT
ATOM      1  N   UNL d   1      -0.986   1.014  -0.696  0.00  0.00    -0.367 N 
ATOM      2  H   UNL d   1      -0.711   1.075   0.284  0.00  0.00     0.161 HD
ENDROOT
BRANCH   1   3
ATOM      3  C   UNL d   1      -0.524  -0.071  -1.387  0.00  0.00     0.176 C 
ATOM      4  S   UNL d   1      -0.873  -0.451  -2.977  0.00  0.00    -0.041 SA
BRANCH   3   5
ATOM      5  N   UNL d   1       0.321  -0.904  -0.695  0.00  0.00    -0.279 N 
ATOM      6  C   UNL d   1       0.785  -0.780   0.591  0.00  0.00     0.366 C 
ATOM      7  O   UNL d   1       0.454   0.087   1.386  0.00  0.00    -0.238 OA
ATOM      8  H   UNL d   1       0.697  -1.683  -1.212  0.00  0.00     0.173 HD
BRANCH   6   9
ATOM      9  O   UNL d   1       1.675  -1.773   0.841  0.00  0.00    -0.304 OA
BRANCH   9  10
ATOM     10  C   UNL d   1       2.268  -1.752   2.148  0.00  0.00     0.176 C 
ATOM     11  C   UNL d   1       3.436  -0.784   2.180  0.00  0.00     0.034 C 
ENDBRANCH   9  10
ENDBRANCH   6   9
ENDBRANCH   3   5
ENDBRANCH   1   3
BRANCH   1  12
ATOM     12  C   UNL d   1      -1.817   2.095  -1.192  0.00  0.00     0.123 C 
BRANCH  12  13
ATOM     13  C   UNL d   1      -3.310   1.802  -1.044  0.00  0.00     0.050 C 
BRANCH  13  14
ATOM     14  C   UNL d   1      -4.094   2.943  -1.697  0.00  0.00     0.274 C 
BRANCH  14  15
ATOM     15  N   UNL d   1      -5.560   2.805  -1.692  0.00  0.00     0.093 N 
ATOM     16  C   UNL d   1      -6.048   1.588  -2.383  0.00  0.00     0.303 C 
ATOM     17  C   UNL d   1      -5.796   1.605  -3.908  0.00  0.00     0.146 C 
ATOM     18  C   UNL d   1      -6.360   0.353  -4.564  0.00  0.00     0.041 C 
ATOM     19  O   UNL d   1      -6.423   2.753  -4.510  0.00  0.00    -0.378 OA
ATOM     20  C   UNL d   1      -5.941   3.971  -3.916  0.00  0.00     0.146 C 
ATOM     21  C   UNL d   1      -6.176   3.970  -2.384  0.00  0.00     0.303 C 
ATOM     22  C   UNL d   1      -6.647   5.145  -4.579  0.00  0.00     0.041 C 
ENDBRANCH  14  15
ENDBRANCH  13  14
ENDBRANCH  12  13
ENDBRANCH   1  12
TORSDOF 8
