REMARK  5 active torsions:
REMARK  status: ('A' for Active; 'I' for Inactive)
REMARK    1  A    between atoms: S_16  and  C_2 
REMARK    2  A    between atoms: N_20  and  C_3 
REMARK    3  A    between atoms: C_11  and  N_15 
REMARK    4  A    between atoms: C_14  and  C_21 
REMARK       I    between atoms: N_15  and  C_14 
REMARK    5  A    between atoms: C_21  and  S_16 
ROOT
ATOM      1  C   UNL d   1       7.230  -0.570   1.656  0.00  0.00     0.227 C 
ATOM      2  N   UNL d   1       6.102  -0.557   0.870  0.00  0.00    -0.356 N 
ATOM      3  O   UNL d   1       7.958  -1.560   1.758  0.00  0.00    -0.273 OA
ATOM      4  H   UNL d   1       5.438   0.180   1.071  0.00  0.00     0.162 HD
ENDROOT
BRANCH   1   5
ATOM      5  C   UNL d   1       7.594   0.715   2.385  0.00  0.00     0.184 C 
BRANCH   5   6
ATOM      6  S   UNL d   1       6.439   2.096   2.153  0.00  0.00    -0.094 SA
BRANCH   6   7
ATOM      7  C   UNL d   1       5.409   1.869   3.543  0.00  0.00     0.130 A 
ATOM      8  S   UNL d   1       4.921   3.150   4.564  0.00  0.00    -0.027 SA
ATOM      9  C   UNL d   1       4.068   1.985   5.494  0.00  0.00     0.159 A 
ATOM     10  N   UNL d   1       4.163   0.760   5.025  0.00  0.00    -0.279 N 
ATOM     11  N   UNL d   1       4.944   0.688   3.884  0.00  0.00    -0.286 N 
ATOM     12  HN  UNL d   1       3.711  -0.048   5.453  1.00  0.00     0.189 HD
ATOM     13  HN  UNL d   1       5.134  -0.173   3.372  1.00  0.00     0.188 HD
BRANCH   9  14
ATOM     14  N   UNL d   1       3.389   2.330   6.604  0.00  0.00    -0.379 N 
ATOM     15  H   UNL d   1       3.636   3.193   7.072  0.00  0.00     0.158 HD
ATOM     16  H   UNL d   1       3.135   1.573   7.230  0.00  0.00     0.158 HD
ENDBRANCH   9  14
ENDBRANCH   6   7
ENDBRANCH   5   6
ENDBRANCH   1   5
BRANCH   2  17
ATOM     17  C   UNL d   1       5.605  -1.768   0.210  0.00  0.00     0.088 C 
ATOM     18  C   UNL d   1       6.530  -2.233  -0.942  0.00  0.00     0.061 C 
ATOM     19  C   UNL d   1       6.070  -1.803  -2.347  0.00  0.00     0.225 C 
ATOM     20  C   UNL d   1       6.050  -0.286  -2.519  0.00  0.00     0.038 C 
ATOM     21  N   UNL d   1       4.664  -2.216  -2.458  0.00  0.00     0.093 N 
ATOM     22  C   UNL d   1       4.676   0.136  -2.011  0.00  0.00     0.038 C 
ATOM     23  C   UNL d   1       3.960  -1.180  -1.688  0.00  0.00     0.225 C 
ATOM     24  C   UNL d   1       4.132  -1.596  -0.220  0.00  0.00     0.061 C 
ATOM     25  C   UNL d   1       4.193  -2.343  -3.829  0.00  0.00     0.310 C 
ENDBRANCH   2  17
TORSDOF 5
