REMARK  4 active torsions:
REMARK  status: ('A' for Active; 'I' for Inactive)
REMARK    1  A    between atoms: C_7  and  C_1 
REMARK    2  A    between atoms: O_9  and  C_2 
REMARK    3  A    between atoms: C_8  and  N_3 
REMARK    4  A    between atoms: C_11  and  C_7 
ROOT
ATOM      1  C   UNL d   1      -0.075  -1.352  -0.086  0.00  0.00     0.091 C 
ATOM      2  C   UNL d   1       1.193  -0.809  -0.246  0.00  0.00     0.178 C 
ATOM      3  N   UNL d   1       1.059   0.568  -0.058  0.00  0.00    -0.233 N 
ATOM      4  N   UNL d   1      -0.227   0.910   0.219  0.00  0.00    -0.295 N 
ATOM      5  HN  UNL d   1      -0.585   1.830   0.478  1.00  0.00     0.187 HD
ATOM      6  C   UNL d   1      -0.921  -0.225   0.077  0.00  0.00     0.041 C 
ATOM      7  C   UNL d   1      -2.407  -0.204   0.148  0.00  0.00     0.071 C 
ENDROOT
BRANCH   1   8
ATOM      8  C   UNL d   1      -0.471  -2.751  -0.114  0.00  0.00     0.198 C 
ATOM      9  O   UNL d   1      -1.558  -3.111  -0.560  0.00  0.00    -0.286 OA
BRANCH   8  10
ATOM     10  C   UNL d   1       0.457  -3.786   0.422  0.00  0.00     0.015 A 
ATOM     11  C   UNL d   1       0.499  -5.038  -0.205  0.00  0.00     0.015 A 
ATOM     12  C   UNL d   1       1.390  -6.015   0.244  0.00  0.00     0.001 A 
ATOM     13  C   UNL d   1       2.234  -5.749   1.323  0.00  0.00     0.000 A 
ATOM     14  C   UNL d   1       2.178  -4.514   1.966  0.00  0.00     0.001 A 
ATOM     15  C   UNL d   1       1.284  -3.537   1.527  0.00  0.00     0.015 A 
ENDBRANCH   8  10
ENDBRANCH   1   8
BRANCH   2  16
ATOM     16  O   UNL d   1       2.380  -1.376  -0.477  0.00  0.00    -0.344 OA
ATOM     17  H   UNL d   1       2.268  -2.327  -0.647  0.00  0.00     0.219 HD
ENDBRANCH   2  16
BRANCH   3  18
ATOM     18  C   UNL d   1       2.080   1.556  -0.106  0.00  0.00     0.059 A 
ATOM     19  C   UNL d   1       3.226   1.363  -0.890  0.00  0.00     0.031 A 
ATOM     20  C   UNL d   1       4.246   2.314  -0.892  0.00  0.00     0.002 A 
ATOM     21  C   UNL d   1       4.136   3.454  -0.101  0.00  0.00     0.000 A 
ATOM     22  C   UNL d   1       2.991   3.663   0.668  0.00  0.00     0.002 A 
ATOM     23  C   UNL d   1       1.952   2.729   0.651  0.00  0.00     0.031 A 
ENDBRANCH   3  18
TORSDOF 4
