REMARK  3 active torsions:
REMARK  status: ('A' for Active; 'I' for Inactive)
REMARK    1  A    between atoms: C_6  and  C_1 
REMARK    2  A    between atoms: N_13  and  C_2 
REMARK    3  A    between atoms: C_10  and  C_6 
ROOT
ATOM      1  C   UNL d   1       2.473   0.024   0.042  0.00  0.00     0.085 A 
ATOM      2  C   UNL d   1       1.626   1.121   0.003  0.00  0.00     0.060 A 
ATOM      3  C   UNL d   1       0.221   0.768   0.043  0.00  0.00     0.031 A 
ATOM      4  S   UNL d   1       1.597  -1.424   0.255  0.00  0.00    -0.065 SA
ATOM      5  C   UNL d   1       0.109  -0.621   0.127  0.00  0.00     0.088 A 
ATOM      6  N   UNL d   1      -1.018  -1.361   0.126  0.00  0.00    -0.354 N 
ATOM      7  HN  UNL d   1      -1.005  -2.380   0.181  1.00  0.00     0.166 HD
ATOM      8  C   UNL d   1      -1.011   1.487   0.004  0.00  0.00    -0.045 A 
ATOM      9  C   UNL d   1      -2.199   0.727   0.003  0.00  0.00     0.032 A 
ATOM     10  C   UNL d   1      -2.158  -0.658   0.049  0.00  0.00     0.006 A 
ATOM     11  C   UNL d   1      -1.187   2.982  -0.033  0.00  0.00     0.049 C 
ATOM     12  C   UNL d   1      -3.435  -1.446   0.024  0.00  0.00     0.068 C 
ENDROOT
BRANCH   1  13
ATOM     13  C   UNL d   1       3.933   0.024   0.009  0.00  0.00     0.201 C 
ATOM     14  O   UNL d   1       4.603   0.962   0.447  0.00  0.00    -0.286 OA
BRANCH  13  15
ATOM     15  C   UNL d   1       4.688  -1.108  -0.604  0.00  0.00     0.015 A 
ATOM     16  C   UNL d   1       5.933  -1.462  -0.063  0.00  0.00     0.017 A 
ATOM     17  C   UNL d   1       6.671  -2.509  -0.623  0.00  0.00     0.025 A 
ATOM     18  C   UNL d   1       6.169  -3.199  -1.725  0.00  0.00     0.034 A 
ATOM     19  C   UNL d   1       4.944  -2.841  -2.284  0.00  0.00     0.025 A 
ATOM     20 CL   UNL d   1       7.072  -4.493  -2.410  0.00  0.00    -0.084 Cl
ATOM     21  C   UNL d   1       4.211  -1.786  -1.736  0.00  0.00     0.017 A 
ENDBRANCH  13  15
ENDBRANCH   1  13
BRANCH   2  22
ATOM     22  N   UNL d   1       2.124   2.378  -0.104  0.00  0.00    -0.397 N 
ATOM     23  H   UNL d   1       3.124   2.523   0.069  0.00  0.00     0.156 HD
ATOM     24  H   UNL d   1       1.590   3.194   0.161  0.00  0.00     0.156 HD
ENDBRANCH   2  22
TORSDOF 3
