REMARK  8 active torsions:
REMARK  status: ('A' for Active; 'I' for Inactive)
REMARK    1  A    between atoms: C_3  and  C_1 
REMARK    2  A    between atoms: C_13  and  N_2 
REMARK    3  A    between atoms: N_7  and  O_12 
REMARK    4  A    between atoms: C_15  and  C_10 
REMARK    5  A    between atoms: N_25  and  C_10 
REMARK    6  A    between atoms: C_11  and  C_14 
REMARK    7  A    between atoms: O_12  and  C_11 
REMARK    8  A    between atoms: C_19  and  C_13 
ROOT
ATOM      1  C   UNL d   1      -3.682   3.572  -1.506  0.00  0.00     0.042 A 
ATOM      2  C   UNL d   1      -2.838   2.476  -1.247  0.00  0.00     0.026 A 
ATOM      3  C   UNL d   1      -1.821   2.114  -2.144  0.00  0.00    -0.039 A 
ATOM      4  C   UNL d   1      -3.498   4.318  -2.675  0.00  0.00     0.017 A 
ATOM      5  C   UNL d   1      -2.491   3.962  -3.576  0.00  0.00     0.002 A 
ATOM      6  C   UNL d   1      -1.665   2.864  -3.317  0.00  0.00     0.009 A 
ENDROOT
BRANCH   1   7
ATOM      7  C   UNL d   1      -4.784   3.837  -0.537  0.00  0.00     0.315 C 
ATOM      8  O   UNL d   1      -4.955   3.154   0.463  0.00  0.00    -0.257 OA
BRANCH   7   9
ATOM      9  O   UNL d   1      -5.568   4.885  -0.937  0.00  0.00    -0.193 OA
BRANCH   9  10
ATOM     10  N   UNL d   1      -6.912   4.472  -0.836  0.00  0.00    -0.246 N 
ATOM     11  C   UNL d   1      -7.753   5.458  -0.899  0.00  0.00     0.109 C 
ATOM     12  HN  UNL d   1      -7.194   3.498  -0.726  1.00  0.00     0.196 HD
BRANCH  11  13
ATOM     13  C   UNL d   1      -9.196   5.086  -1.030  0.00  0.00     0.004 A 
ATOM     14  C   UNL d   1      -9.663   3.889  -0.472  0.00  0.00     0.016 A 
ATOM     15  C   UNL d   1     -10.963   3.453  -0.740  0.00  0.00     0.024 A 
ATOM     16  C   UNL d   1     -11.789   4.210  -1.569  0.00  0.00     0.034 A 
ATOM     17  C   UNL d   1     -11.340   5.417  -2.106  0.00  0.00     0.024 A 
ATOM     18 CL   UNL d   1     -13.362   3.635  -1.964  0.00  0.00    -0.084 Cl
ATOM     19  C   UNL d   1     -10.043   5.861  -1.832  0.00  0.00     0.016 A 
ENDBRANCH  11  13
BRANCH  11  20
ATOM     20  N   UNL d   1      -7.406   6.789  -0.881  0.00  0.00    -0.286 NA
ATOM     21  H   UNL d   1      -6.477   6.938  -0.500  0.00  0.00     0.125 HD
ATOM     22  H   UNL d   1      -8.089   7.407  -0.453  0.00  0.00     0.125 HD
ENDBRANCH  11  20
ENDBRANCH   9  10
ENDBRANCH   7   9
ENDBRANCH   1   7
BRANCH   3  23
ATOM     23  C   UNL d   1      -0.894   0.957  -1.841  0.00  0.00     0.170 C 
BRANCH  23  24
ATOM     24  N   UNL d   1      -1.320  -0.326  -2.401  0.00  0.00    -0.320 N 
ATOM     25  C   UNL d   1      -2.110  -1.178  -1.640  0.00  0.00     0.110 A 
ATOM     26  C   UNL d   1      -2.413  -2.425  -2.046  0.00  0.00     0.063 A 
ATOM     27  C   UNL d   1      -1.914  -2.877  -3.332  0.00  0.00     0.023 A 
ATOM     28  C   UNL d   1      -1.165  -2.076  -4.101  0.00  0.00     0.075 A 
ATOM     29  C   UNL d   1      -0.811  -0.704  -3.644  0.00  0.00     0.247 A 
ATOM     30  O   UNL d   1      -0.091  -0.007  -4.354  0.00  0.00    -0.268 OA
BRANCH  26  31
ATOM     31  C   UNL d   1      -3.205  -3.371  -1.184  0.00  0.00     0.418 C 
ATOM     32  F   UNL d   1      -3.276  -4.626  -1.698  0.00  0.00    -0.166 F 
ATOM     33  F   UNL d   1      -2.658  -3.491   0.054  0.00  0.00    -0.166 F 
ATOM     34  F   UNL d   1      -4.482  -2.946  -1.010  0.00  0.00    -0.166 F 
ENDBRANCH  26  31
ENDBRANCH  23  24
ENDBRANCH   3  23
TORSDOF 8
