REMARK  6 active torsions:
REMARK  status: ('A' for Active; 'I' for Inactive)
REMARK    1  A    between atoms: C_2  and  C_1 
REMARK       I    between atoms: N_6  and  C_1 
REMARK    2  A    between atoms: O_13  and  C_3 
REMARK    3  A    between atoms: O_15  and  C_4 
REMARK    4  A    between atoms: O_14  and  C_5 
REMARK    5  A    between atoms: C_12  and  N_6 
REMARK    6  A    between atoms: C_21  and  C_16 
ROOT
ATOM      1  N   UNL d   1       1.090  -3.598   6.898  0.00  0.00    -0.197 NA
ATOM      2  C   UNL d   1       1.968  -2.978   6.464  0.00  0.00     0.063 C 
ATOM      3  C   UNL d   1       3.099  -2.195   5.933  0.00  0.00     0.162 C 
ENDROOT
BRANCH   3   4
ATOM      4  C   UNL d   1       2.727  -1.430   4.685  0.00  0.00    -0.045 A 
ATOM      5  C   UNL d   1       2.175  -0.144   4.755  0.00  0.00     0.010 A 
ATOM      6  C   UNL d   1       1.704   0.495   3.598  0.00  0.00     0.030 A 
ATOM      7  C   UNL d   1       1.770  -0.140   2.352  0.00  0.00     0.035 A 
ATOM      8  C   UNL d   1       2.390  -1.390   2.281  0.00  0.00     0.030 A 
ATOM      9  C   UNL d   1       2.858  -2.032   3.431  0.00  0.00     0.010 A 
BRANCH   7  10
ATOM     10  N   UNL d   1       1.167   0.499   1.239  0.00  0.00    -0.323 N 
ATOM     11  C   UNL d   1       1.063  -0.027  -0.039  0.00  0.00     0.256 C 
ATOM     12  O   UNL d   1       1.540  -1.090  -0.425  0.00  0.00    -0.267 OA
ATOM     13  H   UNL d   1       0.755   1.406   1.416  0.00  0.00     0.169 HD
BRANCH  11  14
ATOM     14  C   UNL d   1       0.317   0.769  -1.053  0.00  0.00     0.037 A 
ATOM     15  C   UNL d   1       0.680   0.590  -2.396  0.00  0.00     0.057 A 
ATOM     16  C   UNL d   1      -0.008   1.228  -3.436  0.00  0.00     0.105 A 
ATOM     17  C   UNL d   1      -1.094   2.075  -3.127  0.00  0.00     0.135 A 
ATOM     18  C   UNL d   1      -1.478   2.223  -1.771  0.00  0.00     0.105 A 
ATOM     19  C   UNL d   1      -0.762   1.590  -0.743  0.00  0.00     0.057 A 
BRANCH  16  20
ATOM     20  O   UNL d   1       0.331   1.046  -4.752  0.00  0.00    -0.353 OA
ATOM     21  C   UNL d   1       1.437   0.211  -5.072  0.00  0.00     0.210 C 
ENDBRANCH  16  20
BRANCH  17  22
ATOM     22  O   UNL d   1      -1.821   2.817  -4.022  0.00  0.00    -0.351 OA
ATOM     23  C   UNL d   1      -1.542   2.753  -5.412  0.00  0.00     0.210 C 
ENDBRANCH  17  22
BRANCH  18  24
ATOM     24  O   UNL d   1      -2.515   2.994  -1.294  0.00  0.00    -0.353 OA
ATOM     25  C   UNL d   1      -3.690   3.050  -2.099  0.00  0.00     0.210 C 
ENDBRANCH  18  24
ENDBRANCH  11  14
ENDBRANCH   7  10
ENDBRANCH   3   4
TORSDOF 6
