REMARK  2 active torsions:
REMARK  status: ('A' for Active; 'I' for Inactive)
REMARK    1  A    between atoms: C_2  and  C_1 
REMARK    2  A    between atoms: C_3  and  C_1 
ROOT
ATOM      1  C   UNL d   1       2.465  -0.030   0.015  0.00  0.00     0.192 C 
ATOM      2  O   UNL d   1       3.069   1.039   0.080  0.00  0.00    -0.287 OA
ENDROOT
BRANCH   1   3
ATOM      3  C   UNL d   1       0.976  -0.031   0.020  0.00  0.00     0.015 A 
ATOM      4  C   UNL d   1       0.305   1.082  -0.497  0.00  0.00     0.016 A 
ATOM      5  C   UNL d   1      -1.092   1.109  -0.528  0.00  0.00     0.007 A 
ATOM      6  C   UNL d   1      -1.834   0.026  -0.039  0.00  0.00    -0.062 A 
ATOM      7  C   UNL d   1      -1.159  -1.071   0.508  0.00  0.00     0.007 A 
ATOM      8  C   UNL d   1      -3.333   0.059  -0.091  0.00  0.00     0.048 C 
ATOM      9  C   UNL d   1       0.237  -1.094   0.551  0.00  0.00     0.016 A 
ENDBRANCH   1   3
BRANCH   1  10
ATOM     10  C   UNL d   1       3.242  -1.296  -0.058  0.00  0.00     0.015 A 
ATOM     11  C   UNL d   1       4.459  -1.375   0.625  0.00  0.00     0.016 A 
ATOM     12  C   UNL d   1       5.189  -2.566   0.618  0.00  0.00     0.007 A 
ATOM     13  C   UNL d   1       4.715  -3.686  -0.077  0.00  0.00    -0.062 A 
ATOM     14  C   UNL d   1       3.520  -3.586  -0.798  0.00  0.00     0.007 A 
ATOM     15  C   UNL d   1       5.488  -4.970  -0.046  0.00  0.00     0.048 C 
ATOM     16  C   UNL d   1       2.793  -2.393  -0.802  0.00  0.00     0.016 A 
ENDBRANCH   1  10
TORSDOF 2
