REMARK  4 active torsions:
REMARK  status: ('A' for Active; 'I' for Inactive)
REMARK       I    between atoms: N_3  and  C_1 
REMARK    1  A    between atoms: C_6  and  C_1 
REMARK    2  A    between atoms: C_2  and  O_7 
REMARK    3  A    between atoms: C_11  and  N_3 
REMARK    4  A    between atoms: O_7  and  C_16 
ROOT
ATOM      1  N   UNL d   1       3.519  -6.403  -3.642  0.00  0.00    -0.191 NA
ATOM      2  C   UNL d   1       3.006  -5.494  -3.138  0.00  0.00     0.099 C 
ATOM      3  C   UNL d   1       1.091  -2.163  -1.342  0.00  0.00     0.035 A 
ATOM      4  C   UNL d   1       2.353  -4.377  -2.524  0.00  0.00     0.044 A 
ATOM      5  C   UNL d   1       2.381  -2.536  -0.954  0.00  0.00     0.031 A 
ATOM      6  C   UNL d   1       0.424  -2.928  -2.307  0.00  0.00     0.031 A 
ATOM      7  C   UNL d   1       3.013  -3.635  -1.542  0.00  0.00     0.025 A 
ATOM      8  C   UNL d   1       1.056  -4.024  -2.902  0.00  0.00     0.025 A 
ENDROOT
BRANCH   3   9
ATOM      9  N   UNL d   1       0.418  -1.052  -0.804  0.00  0.00    -0.323 N 
ATOM     10  C   UNL d   1       0.987  -0.040  -0.050  0.00  0.00     0.256 C 
ATOM     11  O   UNL d   1       2.175   0.102   0.201  0.00  0.00    -0.267 OA
ATOM     12  H   UNL d   1      -0.544  -0.925  -1.099  0.00  0.00     0.169 HD
BRANCH  10  13
ATOM     13  C   UNL d   1       0.042   0.998   0.441  0.00  0.00     0.032 A 
ATOM     14  C   UNL d   1      -1.273   0.692   0.810  0.00  0.00     0.020 A 
ATOM     15  C   UNL d   1      -2.119   1.699   1.290  0.00  0.00     0.038 A 
ATOM     16  C   UNL d   1      -1.643   3.000   1.450  0.00  0.00     0.078 A 
ATOM     17  C   UNL d   1      -0.336   3.305   1.056  0.00  0.00     0.038 A 
ATOM     18  C   UNL d   1       0.507   2.310   0.563  0.00  0.00     0.020 A 
BRANCH  16  19
ATOM     19  O   UNL d   1      -2.342   4.061   1.936  0.00  0.00    -0.255 OA
BRANCH  19  20
ATOM     20  C   UNL d   1      -3.395   3.849   2.864  0.00  0.00     0.530 C 
ATOM     21  F   UNL d   1      -3.436   2.603   3.381  0.00  0.00    -0.144 F 
ATOM     22  F   UNL d   1      -3.239   4.714   3.892  0.00  0.00    -0.144 F 
ATOM     23  F   UNL d   1      -4.577   4.113   2.267  0.00  0.00    -0.144 F 
ENDBRANCH  19  20
ENDBRANCH  16  19
ENDBRANCH  10  13
ENDBRANCH   3   9
TORSDOF 4
