REMARK  3 active torsions:
REMARK  status: ('A' for Active; 'I' for Inactive)
REMARK    1  A    between atoms: C_2  and  S_1 
REMARK    2  A    between atoms: N_3  and  S_1 
REMARK    3  A    between atoms: C_4  and  N_3 
ROOT
ATOM      1  N   UNL d   1       0.266  -1.037  -1.066  0.00  0.00    -0.202 NA
ATOM      2  H   UNL d   1      -0.746  -1.188  -1.077  0.00  0.00     0.141 HD
ENDROOT
BRANCH   1   3
ATOM      3  S   UNL d   1       0.608   0.321  -0.095  0.00  0.00     0.248 S 
ATOM      4  O   UNL d   1       0.558  -0.115   1.281  0.00  0.00    -0.205 OA
ATOM      5  O   UNL d   1       1.771   0.991  -0.640  0.00  0.00    -0.205 OA
BRANCH   3   6
ATOM      6  C   UNL d   1      -0.727   1.488  -0.254  0.00  0.00     0.115 A 
ATOM      7  S   UNL d   1      -2.275   0.928   0.221  0.00  0.00    -0.089 SA
ATOM      8  C   UNL d   1      -3.012   2.411  -0.210  0.00  0.00     0.051 A 
ATOM      9  C   UNL d   1      -2.102   3.317  -0.708  0.00  0.00     0.009 A 
ATOM     10  C   UNL d   1      -0.779   2.787  -0.724  0.00  0.00     0.033 A 
ENDBRANCH   3   6
ENDBRANCH   1   3
BRANCH   1  11
ATOM     11  C   UNL d   1       0.847  -1.016  -2.439  0.00  0.00     0.163 C 
ATOM     12  C   UNL d   1       0.233   0.100  -3.282  0.00  0.00     0.236 C 
ATOM     13  N   UNL d   1       0.898   0.497  -4.402  0.00  0.00    -0.360 N 
ATOM     14  O   UNL d   1      -0.859   0.602  -3.021  0.00  0.00    -0.272 OA
ATOM     15  C   UNL d   1       1.939  -0.263  -5.051  0.00  0.00     0.122 C 
ATOM     16  H   UNL d   1       0.408   1.208  -4.935  0.00  0.00     0.162 HD
ATOM     17  C   UNL d   1       1.433  -1.643  -5.461  0.00  0.00     0.020 C 
ATOM     18  C   UNL d   1       1.459  -2.667  -4.323  0.00  0.00     0.004 C 
ATOM     19  C   UNL d   1       0.564  -2.364  -3.115  0.00  0.00     0.030 C 
ENDBRANCH   1  11
TORSDOF 3
