REMARK  2 active torsions:
REMARK  status: ('A' for Active; 'I' for Inactive)
REMARK    1  A    between atoms: N_3  and  S_1 
REMARK    2  A    between atoms: C_7  and  N_3 
ROOT
ATOM      1  N   UNL d   1       1.768   4.388   6.496  0.00  0.00    -0.191 NA
ATOM      2  C   UNL d   1       1.582   3.973   5.428  0.00  0.00     0.099 C 
ATOM      3  C   UNL d   1       0.907   2.334   1.581  0.00  0.00     0.022 A 
ATOM      4  C   UNL d   1       1.354   3.446   4.112  0.00  0.00     0.044 A 
ATOM      5  C   UNL d   1       0.060   3.402   3.579  0.00  0.00     0.024 A 
ATOM      6  C   UNL d   1       2.427   2.960   3.356  0.00  0.00     0.024 A 
ATOM      7  C   UNL d   1      -0.163   2.850   2.312  0.00  0.00     0.026 A 
ATOM      8  C   UNL d   1       2.205   2.417   2.086  0.00  0.00     0.026 A 
ENDROOT
BRANCH   3   9
ATOM      9  N   UNL d   1       0.665   1.724   0.317  0.00  0.00    -0.186 NA
ATOM     10  H   UNL d   1       1.193   0.862   0.154  0.00  0.00     0.145 HD
BRANCH   9  11
ATOM     11  S   UNL d   1       0.791   2.684  -1.069  0.00  0.00     0.210 S 
ATOM     12  O   UNL d   1       1.291   1.793  -2.098  0.00  0.00    -0.211 OA
ATOM     13  O   UNL d   1       1.461   3.927  -0.759  0.00  0.00    -0.211 OA
ATOM     14  C   UNL d   1      -0.920   3.015  -1.432  0.00  0.00     0.180 C 
ENDBRANCH   9  11
ENDBRANCH   3   9
TORSDOF 2
