REMARK  4 active torsions:
REMARK  status: ('A' for Active; 'I' for Inactive)
REMARK       I    between atoms: N_2  and  C_1 
REMARK    1  A    between atoms: C_7  and  C_1 
REMARK    2  A    between atoms: N_3  and  N_2 
REMARK    3  A    between atoms: C_4  and  N_3 
REMARK    4  A    between atoms: O_8  and  C_6 
ROOT
ATOM      1  C   UNL d   1       0.926  -0.244   0.305  0.00  0.00     0.236 C 
ATOM      2  N   UNL d   1       0.335  -1.480   0.055  0.00  0.00    -0.286 N 
ATOM      3  O   UNL d   1       0.314   0.725   0.729  0.00  0.00    -0.272 OA
ATOM      4  H   UNL d   1       0.778  -2.103  -0.612  0.00  0.00     0.184 HD
ENDROOT
BRANCH   2   5
ATOM      5  N   UNL d   1      -1.083  -1.557   0.072  0.00  0.00    -0.201 NA
ATOM      6  H   UNL d   1      -1.469  -1.015   0.853  0.00  0.00     0.153 HD
BRANCH   5   7
ATOM      7  C   UNL d   1      -1.601  -2.885   0.080  0.00  0.00     0.061 A 
ATOM      8  C   UNL d   1      -2.928  -3.188  -0.296  0.00  0.00     0.090 A 
ATOM      9  C   UNL d   1      -3.359  -4.531  -0.297  0.00  0.00     0.039 A 
ATOM     10  C   UNL d   1      -2.517  -5.575   0.073  0.00  0.00     0.003 A 
ATOM     11  C   UNL d   1      -1.226  -5.288   0.482  0.00  0.00     0.002 A 
ATOM     12  C   UNL d   1      -0.785  -3.963   0.503  0.00  0.00     0.028 A 
BRANCH   8  13
ATOM     13  O   UNL d   1      -3.927  -2.374  -0.752  0.00  0.00    -0.354 OA
ATOM     14  C   UNL d   1      -3.818  -0.965  -0.713  0.00  0.00     0.210 C 
ENDBRANCH   8  13
ENDBRANCH   5   7
ENDBRANCH   2   5
BRANCH   1  15
ATOM     15  C   UNL d   1       2.444  -0.259   0.020  0.00  0.00     0.079 C 
ATOM     16  C   UNL d   1       3.197  -1.153   1.015  0.00  0.00     0.014 C 
ATOM     17  C   UNL d   1       3.303  -0.520   2.401  0.00  0.00     0.001 C 
ATOM     18  C   UNL d   1       3.928   0.873   2.351  0.00  0.00     0.000 C 
ATOM     19  C   UNL d   1       3.224   1.785   1.353  0.00  0.00     0.001 C 
ATOM     20  C   UNL d   1       3.078   1.137  -0.023  0.00  0.00     0.014 C 
ENDBRANCH   1  15
TORSDOF 4
