REMARK  3 active torsions:
REMARK  status: ('A' for Active; 'I' for Inactive)
REMARK    1  A    between atoms: N_2  and  S_1 
REMARK    2  A    between atoms: C_8  and  S_1 
REMARK    3  A    between atoms: C_3  and  N_2 
ROOT
ATOM      1  C   UNL d   1       1.687  -0.326   0.806  0.00  0.00     0.079 A 
ATOM      2  N   UNL d   1       5.813  -2.705   3.342  0.00  0.00    -0.191 NA
ATOM      3  C   UNL d   1       4.949  -2.190   2.765  0.00  0.00     0.099 C 
ATOM      4  C   UNL d   1       2.593   0.446   1.547  0.00  0.00     0.027 A 
ATOM      5  C   UNL d   1       1.877  -1.705   0.679  0.00  0.00     0.027 A 
ATOM      6  C   UNL d   1       3.868  -1.551   2.066  0.00  0.00     0.044 A 
ATOM      7  C   UNL d   1       2.972  -2.314   1.304  0.00  0.00     0.024 A 
ATOM      8  C   UNL d   1       3.682  -0.168   2.175  0.00  0.00     0.024 A 
ENDROOT
BRANCH   1   9
ATOM      9  S   UNL d   1       0.137   0.399   0.318  0.00  0.00     0.259 S 
ATOM     10  O   UNL d   1      -0.871  -0.633   0.467  0.00  0.00    -0.201 OA
ATOM     11  O   UNL d   1       0.021   1.651   1.025  0.00  0.00    -0.201 OA
BRANCH   9  12
ATOM     12  N   UNL d   1       0.242   0.675  -1.331  0.00  0.00    -0.309 N 
ATOM     13  H   UNL d   1      -0.534   0.253  -1.839  0.00  0.00     0.172 HD
BRANCH  12  14
ATOM     14  C   UNL d   1       0.959   1.806  -1.923  0.00  0.00     0.109 C 
ATOM     15  C   UNL d   1       1.112   1.654  -3.477  0.00  0.00    -0.022 C 
ATOM     16  C   UNL d   1       1.601   3.064  -3.842  0.00  0.00     0.016 C 
ATOM     17  C   UNL d   1      -0.259   1.621  -4.207  0.00  0.00     0.011 C 
ATOM     18  C   UNL d   1       2.042   0.546  -3.932  0.00  0.00     0.017 C 
ATOM     19  C   UNL d   1       0.349   3.742  -3.277  0.00  0.00    -0.004 C 
ATOM     20  C   UNL d   1       0.288   3.219  -1.796  0.00  0.00    -0.022 C 
ATOM     21  C   UNL d   1      -0.730   3.078  -4.148  0.00  0.00     0.006 C 
ATOM     22  C   UNL d   1      -1.155   3.266  -1.266  0.00  0.00     0.017 C 
ATOM     23  C   UNL d   1       1.162   4.125  -0.902  0.00  0.00     0.017 C 
ENDBRANCH  12  14
ENDBRANCH   9  12
ENDBRANCH   1   9
TORSDOF 3
