REMARK  9 active torsions:
REMARK  status: ('A' for Active; 'I' for Inactive)
REMARK    1  A    between atoms: C_21  and  C_1 
REMARK    2  A    between atoms: O_20  and  C_7 
REMARK    3  A    between atoms: O_22  and  C_8 
REMARK    4  A    between atoms: O_23  and  C_9 
REMARK    5  A    between atoms: C_10  and  C_24 
REMARK       I    between atoms: N_15  and  C_10 
REMARK    6  A    between atoms: N_11  and  N_15 
REMARK    7  A    between atoms: C_16  and  C_18 
REMARK    8  A    between atoms: S_19  and  C_21 
REMARK    9  A    between atoms: C_24  and  S_19 
ROOT
ATOM      1  C   UNL d   1      -2.879   5.812   0.068  0.00  0.00     0.245 C 
ATOM      2  N   UNL d   1      -2.747   6.316   1.362  0.00  0.00    -0.270 N 
ATOM      3  O   UNL d   1      -2.624   6.449  -0.953  0.00  0.00    -0.271 OA
ATOM      4  H   UNL d   1      -3.000   5.769   2.176  0.00  0.00     0.190 HD
ENDROOT
BRANCH   2   5
ATOM      5  N   UNL d   1      -2.375   7.617   1.525  0.00  0.00    -0.308 N 
ATOM      6  C   UNL d   1      -2.300   8.066   2.736  0.00  0.00     0.118 C 
ATOM      7  HN  UNL d   1      -2.164   8.213   0.724  1.00  0.00     0.186 HD
BRANCH   6   8
ATOM      8  C   UNL d   1      -1.936   9.476   3.003  0.00  0.00    -0.014 A 
ATOM      9  C   UNL d   1      -1.641  10.340   1.946  0.00  0.00     0.052 A 
ATOM     10  C   UNL d   1      -1.322  11.686   2.185  0.00  0.00     0.105 A 
ATOM     11  C   UNL d   1      -1.279  12.183   3.508  0.00  0.00     0.135 A 
ATOM     12  C   UNL d   1      -1.556  11.285   4.572  0.00  0.00     0.105 A 
ATOM     13  C   UNL d   1      -1.894   9.951   4.308  0.00  0.00     0.052 A 
BRANCH  10  14
ATOM     14  O   UNL d   1      -0.964  12.504   1.139  0.00  0.00    -0.353 OA
ATOM     15  C   UNL d   1      -1.611  12.233  -0.107  0.00  0.00     0.210 C 
ENDBRANCH  10  14
BRANCH  11  16
ATOM     16  O   UNL d   1      -0.932  13.454   3.872  0.00  0.00    -0.351 OA
ATOM     17  C   UNL d   1      -1.023  14.559   2.987  0.00  0.00     0.210 C 
ENDBRANCH  11  16
BRANCH  12  18
ATOM     18  O   UNL d   1      -1.569  11.534   5.922  0.00  0.00    -0.353 OA
ATOM     19  C   UNL d   1      -1.351  12.843   6.407  0.00  0.00     0.210 C 
ENDBRANCH  12  18
ENDBRANCH   6   8
ENDBRANCH   2   5
BRANCH   1  20
ATOM     20  C   UNL d   1      -3.418   4.389   0.028  0.00  0.00     0.178 C 
BRANCH  20  21
ATOM     21  S   UNL d   1      -2.394   3.270  -0.983  0.00  0.00    -0.155 SA
BRANCH  21  22
ATOM     22  C   UNL d   1      -0.912   3.169   0.075  0.00  0.00     0.114 C 
BRANCH  22  23
ATOM     23  C   UNL d   1       0.159   2.237  -0.502  0.00  0.00    -0.036 A 
ATOM     24  C   UNL d   1       1.040   2.706  -1.524  0.00  0.00    -0.048 A 
ATOM     25  C   UNL d   1       1.958   1.807  -2.128  0.00  0.00    -0.049 A 
ATOM     26  C   UNL d   1       0.924   4.136  -2.013  0.00  0.00     0.049 C 
ATOM     27  C   UNL d   1       2.869   2.223  -3.267  0.00  0.00     0.049 C 
ATOM     28  C   UNL d   1       2.029   0.456  -1.684  0.00  0.00    -0.049 A 
ATOM     29  C   UNL d   1       1.234   0.013  -0.593  0.00  0.00    -0.049 A 
ATOM     30  C   UNL d   1       2.916  -0.514  -2.446  0.00  0.00     0.049 C 
ATOM     31  C   UNL d   1       0.266   0.888  -0.032  0.00  0.00    -0.048 A 
ATOM     32  C   UNL d   1       1.436  -1.399  -0.087  0.00  0.00     0.049 C 
ATOM     33  C   UNL d   1      -0.675   0.428   1.062  0.00  0.00     0.049 C 
ENDBRANCH  22  23
ENDBRANCH  21  22
ENDBRANCH  20  21
ENDBRANCH   1  20
TORSDOF 9
