REMARK  4 active torsions:
REMARK  status: ('A' for Active; 'I' for Inactive)
REMARK    1  A    between atoms: N_3  and  C_1 
REMARK    2  A    between atoms: N_5  and  C_1 
REMARK       I    between atoms: C_4  and  N_3 
REMARK    3  A    between atoms: C_12  and  C_4 
REMARK    4  A    between atoms: C_10  and  N_5 
ROOT
ATOM      1  C   UNL d   1      -0.100  -1.780   0.133  0.00  0.00     0.119 C 
ATOM      2  C   UNL d   1       0.090  -0.431   0.122  0.00  0.00     0.163 C 
ATOM      3  C   UNL d   1       1.402   0.128   0.040  0.00  0.00     0.114 C 
ATOM      4  C   UNL d   1      -0.992   0.486   0.151  0.00  0.00     0.114 C 
ATOM      5  N   UNL d   1       2.446   0.627  -0.026  0.00  0.00    -0.190 NA
ATOM      6  N   UNL d   1      -1.909   1.197   0.171  0.00  0.00    -0.190 NA
ENDROOT
BRANCH   1   7
ATOM      7  N   UNL d   1      -1.390  -2.324   0.179  0.00  0.00    -0.311 N 
ATOM      8  C   UNL d   1      -1.677  -3.685   0.142  0.00  0.00     0.256 C 
ATOM      9  O   UNL d   1      -0.826  -4.559  -0.005  0.00  0.00    -0.267 OA
ATOM     10  H   UNL d   1      -2.176  -1.692   0.300  0.00  0.00     0.170 HD
BRANCH   8  11
ATOM     11  C   UNL d   1      -3.104  -4.106   0.275  0.00  0.00     0.032 A 
ATOM     12  C   UNL d   1      -4.175  -3.332  -0.185  0.00  0.00     0.017 A 
ATOM     13  C   UNL d   1      -5.478  -3.844  -0.136  0.00  0.00     0.001 A 
ATOM     14  C   UNL d   1      -5.718  -5.121   0.373  0.00  0.00     0.000 A 
ATOM     15  C   UNL d   1      -4.660  -5.889   0.851  0.00  0.00     0.001 A 
ATOM     16  C   UNL d   1      -3.359  -5.384   0.801  0.00  0.00     0.017 A 
ENDBRANCH   8  11
ENDBRANCH   1   7
BRANCH   1  17
ATOM     17  N   UNL d   1       1.014  -2.622   0.055  0.00  0.00    -0.242 NA
ATOM     18  H   UNL d   1       0.772  -3.448  -0.513  0.00  0.00     0.135 HD
BRANCH  17  19
ATOM     19  C   UNL d   1       1.654  -3.188   1.210  0.00  0.00     0.035 A 
ATOM     20  C   UNL d   1       2.733  -4.080   1.035  0.00  0.00     0.055 A 
ATOM     21 CL   UNL d   1       3.322  -4.464  -0.547  0.00  0.00    -0.082 Cl
ATOM     22  C   UNL d   1       3.355  -4.683   2.131  0.00  0.00     0.026 A 
ATOM     23  C   UNL d   1       2.913  -4.403   3.422  0.00  0.00     0.002 A 
ATOM     24  C   UNL d   1       1.862  -3.508   3.616  0.00  0.00     0.002 A 
ATOM     25  C   UNL d   1       1.244  -2.896   2.521  0.00  0.00     0.025 A 
ENDBRANCH  17  19
ENDBRANCH   1  17
TORSDOF 4
