REMARK  5 active torsions:
REMARK  status: ('A' for Active; 'I' for Inactive)
REMARK    1  A    between atoms: C_8  and  N_1 
REMARK    2  A    between atoms: C_13  and  N_3 
REMARK    3  A    between atoms: C_11  and  C_8 
REMARK    4  A    between atoms: O_15  and  C_11 
REMARK    5  A    between atoms: C_18  and  O_15 
ROOT
ATOM      1  N   UNL d   1      -0.718   1.148   0.025  0.00  0.00    -0.255 N 
ATOM      2  C   UNL d   1      -1.413  -0.035  -0.204  0.00  0.00     0.332 C 
ATOM      3  N   UNL d   1      -0.667  -1.207  -0.034  0.00  0.00    -0.304 N 
ATOM      4  C   UNL d   1       0.655   1.241   0.170  0.00  0.00     0.274 C 
ATOM      5  C   UNL d   1       1.401  -0.030   0.156  0.00  0.00     0.128 C 
ATOM      6  C   UNL d   1       0.709  -1.172   0.095  0.00  0.00     0.124 C 
ATOM      7  C   UNL d   1       2.817  -0.024   0.249  0.00  0.00     0.106 C 
ATOM      8  N   UNL d   1       3.974  -0.089   0.315  0.00  0.00    -0.191 NA
ATOM      9  O   UNL d   1      -2.604  -0.037  -0.509  0.00  0.00    -0.246 OA
ATOM     10  O   UNL d   1       1.247   2.313   0.305  0.00  0.00    -0.266 OA
ENDROOT
BRANCH   1  11
ATOM     11  C   UNL d   1      -1.482   2.393   0.044  0.00  0.00     0.248 C 
BRANCH  11  12
ATOM     12  C   UNL d   1      -1.523   3.118  -1.292  0.00  0.00     0.277 C 
ATOM     13  O   UNL d   1      -2.181   4.137  -1.473  0.00  0.00    -0.263 OA
BRANCH  12  14
ATOM     14  O   UNL d   1      -0.767   2.500  -2.241  0.00  0.00    -0.321 OA
BRANCH  14  15
ATOM     15  C   UNL d   1      -0.914   3.000  -3.577  0.00  0.00     0.174 C 
ATOM     16  C   UNL d   1      -1.997   2.191  -4.262  0.00  0.00     0.034 C 
ENDBRANCH  14  15
ENDBRANCH  12  14
ENDBRANCH  11  12
ENDBRANCH   1  11
BRANCH   3  17
ATOM     17  C   UNL d   1      -1.342  -2.528  -0.014  0.00  0.00     0.086 C 
ATOM     18  C   UNL d   1      -2.444  -2.599   1.050  0.00  0.00     0.032 C 
ATOM     19  C   UNL d   1      -1.857  -2.951  -1.389  0.00  0.00     0.032 C 
ENDBRANCH   3  17
TORSDOF 5
