REMARK  5 active torsions:
REMARK  status: ('A' for Active; 'I' for Inactive)
REMARK    1  A    between atoms: O_20  and  C_1 
REMARK    2  A    between atoms: O_21  and  C_4 
REMARK    3  A    between atoms: O_22  and  C_5 
REMARK    4  A    between atoms: C_18  and  N_10 
REMARK    5  A    between atoms: C_15  and  C_14 
ROOT
ATOM      1  N   UNL d   1      -3.337   1.794  -0.146  0.00  0.00    -0.365 N 
ATOM      2  HN  UNL d   1      -2.635   2.533  -0.183  1.00  0.00     0.165 HD
ATOM      3  C   UNL d   1      -2.959   0.555  -0.164  0.00  0.00     0.100 C 
ENDROOT
BRANCH   1   4
ATOM      4  C   UNL d   1      -4.690   2.131  -0.078  0.00  0.00     0.032 A 
ATOM      5  C   UNL d   1      -5.133   3.210  -0.856  0.00  0.00     0.043 A 
ATOM      6  C   UNL d   1      -6.443   3.682  -0.747  0.00  0.00     0.000 A 
ATOM      7  C   UNL d   1      -6.946   4.769  -1.570  0.00  0.00     0.020 A 
ATOM      8  C   UNL d   1      -7.297   3.081   0.172  0.00  0.00     0.089 A 
ATOM      9  C   UNL d   1      -8.204   5.187  -1.407  0.00  0.00     0.083 A 
ATOM     10  C   UNL d   1      -9.102   4.615  -0.388  0.00  0.00     0.288 A 
ATOM     11  O   UNL d   1      -8.611   3.552   0.357  0.00  0.00    -0.275 OA
ATOM     12  O   UNL d   1     -10.231   5.066  -0.226  0.00  0.00    -0.260 OA
ATOM     13  C   UNL d   1      -6.887   2.004   0.953  0.00  0.00     0.040 A 
ATOM     14  C   UNL d   1      -5.581   1.530   0.823  0.00  0.00     0.032 A 
ENDBRANCH   1   4
BRANCH   3  15
ATOM     15  C   UNL d   1      -1.519   0.220  -0.150  0.00  0.00    -0.015 A 
ATOM     16  C   UNL d   1      -0.575   1.248  -0.178  0.00  0.00     0.052 A 
ATOM     17  C   UNL d   1       0.790   0.967  -0.120  0.00  0.00     0.105 A 
ATOM     18  C   UNL d   1       1.214  -0.366  -0.016  0.00  0.00     0.135 A 
ATOM     19  C   UNL d   1       0.257  -1.407   0.060  0.00  0.00     0.105 A 
ATOM     20  C   UNL d   1      -1.109  -1.110  -0.042  0.00  0.00     0.052 A 
BRANCH  17  21
ATOM     21  O   UNL d   1       1.565   2.096  -0.101  0.00  0.00    -0.353 OA
ATOM     22  C   UNL d   1       2.845   2.008  -0.706  0.00  0.00     0.210 C 
ENDBRANCH  17  21
BRANCH  18  23
ATOM     23  O   UNL d   1       2.549  -0.625   0.180  0.00  0.00    -0.351 OA
ATOM     24  C   UNL d   1       3.126  -1.455  -0.828  0.00  0.00     0.210 C 
ENDBRANCH  18  23
BRANCH  19  25
ATOM     25  O   UNL d   1       0.747  -2.677   0.254  0.00  0.00    -0.353 OA
ATOM     26  C   UNL d   1      -0.162  -3.667   0.718  0.00  0.00     0.210 C 
ENDBRANCH  19  25
ENDBRANCH   3  15
TORSDOF 5
