REMARK  5 active torsions:
REMARK  status: ('A' for Active; 'I' for Inactive)
REMARK    1  A    between atoms: N_6  and  C_1 
REMARK    2  A    between atoms: C_12  and  C_2 
REMARK       I    between atoms: C_5  and  N_6 
REMARK       I    between atoms: N_9  and  C_5 
REMARK    3  A    between atoms: C_10  and  C_15 
REMARK    4  A    between atoms: O_19  and  C_10 
REMARK    5  A    between atoms: C_23  and  O_19 
ROOT
ATOM      1  C   UNL d   1       1.678  -2.786  -0.167  0.00  0.00     0.323 C 
ATOM      2  N   UNL d   1       0.817  -2.798   0.916  0.00  0.00    -0.304 N 
ATOM      3  N   UNL d   1       2.943  -2.229   0.116  0.00  0.00    -0.334 N 
ATOM      4  O   UNL d   1       1.420  -3.311  -1.242  0.00  0.00    -0.247 OA
ATOM      5  C   UNL d   1       3.903  -2.284  -0.985  0.00  0.00     0.128 C 
ATOM      6  C   UNL d   1       3.141  -1.135   1.076  0.00  0.00     0.128 C 
ATOM      7  C   UNL d   1       5.599  -0.986   0.368  0.00  0.00     0.088 C 
ATOM      8  C   UNL d   1       5.350  -2.222  -0.499  0.00  0.00     0.034 C 
ATOM      9  C   UNL d   1       4.599  -0.997   1.534  0.00  0.00     0.034 C 
ATOM     10  H   UNL d   1       1.293  -2.820   1.805  0.00  0.00     0.171 HD
ENDROOT
BRANCH   2  11
ATOM     11  C   UNL d   1      -0.415  -3.460   0.918  0.00  0.00     0.097 C 
ATOM     12  C   UNL d   1      -0.888  -4.324   1.964  0.00  0.00     0.094 C 
ATOM     13  N   UNL d   1      -2.156  -4.693   1.737  0.00  0.00    -0.258 N 
ATOM     14  O   UNL d   1      -2.483  -4.186   0.504  0.00  0.00    -0.240 OA
ATOM     15  HN  UNL d   1      -2.756  -5.239   2.355  1.00  0.00     0.195 HD
ATOM     16  C   UNL d   1      -1.434  -3.487  -0.013  0.00  0.00     0.101 C 
ATOM     17  C   UNL d   1      -1.707  -2.939  -1.355  0.00  0.00     0.081 C 
BRANCH  12  18
ATOM     18  C   UNL d   1      -0.143  -4.906   3.080  0.00  0.00    -0.005 A 
ATOM     19  C   UNL d   1      -0.779  -5.186   4.297  0.00  0.00     0.014 A 
ATOM     20  C   UNL d   1      -0.100  -5.872   5.306  0.00  0.00     0.001 A 
ATOM     21  C   UNL d   1       1.220  -6.276   5.113  0.00  0.00     0.000 A 
ATOM     22  C   UNL d   1       1.868  -5.992   3.914  0.00  0.00     0.001 A 
ATOM     23  C   UNL d   1       1.188  -5.317   2.900  0.00  0.00     0.014 A 
ENDBRANCH  12  18
ENDBRANCH   2  11
BRANCH   7  24
ATOM     24  C   UNL d   1       5.515   0.293  -0.455  0.00  0.00     0.263 C 
ATOM     25  O   UNL d   1       4.791   1.244  -0.194  0.00  0.00    -0.265 OA
BRANCH  24  26
ATOM     26  O   UNL d   1       6.339   0.216  -1.537  0.00  0.00    -0.322 OA
BRANCH  26  27
ATOM     27  C   UNL d   1       6.109   1.163  -2.592  0.00  0.00     0.174 C 
ATOM     28  C   UNL d   1       7.239   2.168  -2.680  0.00  0.00     0.034 C 
ENDBRANCH  26  27
ENDBRANCH  24  26
ENDBRANCH   7  24
TORSDOF 5
