REMARK  6 active torsions:
REMARK  status: ('A' for Active; 'I' for Inactive)
REMARK    1  A    between atoms: N_2  and  S_1 
REMARK    2  A    between atoms: C_8  and  S_1 
REMARK       I    between atoms: C_4  and  N_2 
REMARK       I    between atoms: N_12  and  C_4 
REMARK    3  A    between atoms: C_11  and  N_7 
REMARK    4  A    between atoms: C_17  and  N_12 
REMARK    5  A    between atoms: C_14  and  C_16 
REMARK    6  A    between atoms: C_16  and  C_17 
ROOT
ATOM      1  N   UNL d   1       0.776  -1.046  -1.484  0.00  0.00    -0.113 N 
ATOM      2  HN  UNL d   1       0.544  -1.988  -1.800  1.00  0.00     0.197 HD
ATOM      3  C   UNL d   1       0.817  -0.120  -2.385  0.00  0.00     0.688 C 
ATOM      4  N   UNL d   1       1.130   1.209  -2.411  0.00  0.00    -0.191 N 
ATOM      5  N   UNL d   1       0.344  -0.560  -3.599  0.00  0.00    -0.225 N 
ATOM      6  H   UNL d   1       0.560   1.750  -3.047  0.00  0.00     0.184 HD
ATOM      7  H   UNL d   1       0.159  -1.559  -3.583  0.00  0.00     0.177 HD
ENDROOT
BRANCH   1   8
ATOM      8  S   UNL d   1       1.054  -0.856   0.088  0.00  0.00     0.276 S 
ATOM      9  O   UNL d   1       0.601   0.434   0.567  0.00  0.00    -0.200 OA
ATOM     10  O   UNL d   1       2.391  -1.345   0.375  0.00  0.00    -0.200 OA
BRANCH   8  11
ATOM     11  C   UNL d   1      -0.061  -2.021   0.871  0.00  0.00     0.080 A 
ATOM     12  C   UNL d   1      -1.192  -2.495   0.197  0.00  0.00     0.025 A 
ATOM     13  C   UNL d   1      -2.067  -3.364   0.853  0.00  0.00     0.002 A 
ATOM     14  C   UNL d   1      -1.812  -3.754   2.168  0.00  0.00     0.000 A 
ATOM     15  C   UNL d   1      -0.676  -3.286   2.833  0.00  0.00     0.002 A 
ATOM     16  C   UNL d   1       0.206  -2.421   2.184  0.00  0.00     0.025 A 
ENDBRANCH   8  11
ENDBRANCH   1   8
BRANCH   4  17
ATOM     17  C   UNL d   1       1.989   2.006  -1.639  0.00  0.00     0.050 A 
ATOM     18  C   UNL d   1       1.646   3.357  -1.450  0.00  0.00     0.053 A 
ATOM     19  C   UNL d   1       2.425   4.193  -0.649  0.00  0.00     0.036 A 
ATOM     20 CL   UNL d   1       1.968   5.839  -0.440  0.00  0.00    -0.084 Cl
ATOM     21  C   UNL d   1       3.563   3.704  -0.019  0.00  0.00     0.024 A 
ATOM     22  C   UNL d   1       3.924   2.369  -0.203  0.00  0.00     0.004 A 
ATOM     23  C   UNL d   1       3.143   1.531  -1.011  0.00  0.00     0.030 A 
ENDBRANCH   4  17
BRANCH   5  24
ATOM     24  C   UNL d   1       0.629  -0.052  -4.933  0.00  0.00     0.144 C 
BRANCH  24  25
ATOM     25  C   UNL d   1       2.088  -0.281  -5.330  0.00  0.00     0.077 C 
BRANCH  25  26
ATOM     26  C   UNL d   1       2.377   0.095  -6.765  0.00  0.00     0.010 A 
ATOM     27  N   UNL d   1       1.345   0.508  -7.541  0.00  0.00    -0.369 N 
ATOM     28  C   UNL d   1       1.615   0.823  -8.828  0.00  0.00     0.088 A 
ATOM     29  HN  UNL d   1       0.399   0.580  -7.168  1.00  0.00     0.165 HD
ATOM     30  C   UNL d   1       2.877   0.747  -9.389  0.00  0.00     0.017 A 
ATOM     31  C   UNL d   1       3.926   0.323  -8.583  0.00  0.00     0.003 A 
ATOM     32  C   UNL d   1       3.677  -0.010  -7.254  0.00  0.00     0.025 A 
ENDBRANCH  25  26
ENDBRANCH  24  25
ENDBRANCH   5  24
TORSDOF 6
