REMARK  5 active torsions:
REMARK  status: ('A' for Active; 'I' for Inactive)
REMARK    1  A    between atoms: N_6  and  C_1 
REMARK    2  A    between atoms: N_2  and  N_6 
REMARK    3  A    between atoms: O_14  and  C_4 
REMARK    4  A    between atoms: O_15  and  C_7 
REMARK    5  A    between atoms: C_12  and  C_11 
ROOT
ATOM      1  C   UNL d   1      -5.348  -1.405   0.775  0.00  0.00     0.102 A 
ATOM      2  C   UNL d   1      -6.102  -1.099   1.925  0.00  0.00     0.101 A 
ATOM      3  C   UNL d   1      -3.945  -1.393   0.857  0.00  0.00     0.052 A 
ATOM      4  C   UNL d   1      -5.451  -0.764   3.118  0.00  0.00     0.040 A 
ATOM      5  C   UNL d   1      -3.310  -1.065   2.060  0.00  0.00    -0.017 A 
ATOM      6  C   UNL d   1      -4.063  -0.752   3.191  0.00  0.00     0.016 A 
ENDROOT
BRANCH   5   7
ATOM      7  C   UNL d   1      -1.836  -1.028   2.128  0.00  0.00     0.118 C 
ATOM      8  N   UNL d   1      -1.238  -0.746   3.239  0.00  0.00    -0.309 N 
ATOM      9  HN  UNL d   1      -1.757  -0.550   4.095  1.00  0.00     0.186 HD
BRANCH   8  10
ATOM     10  N   UNL d   1       0.124  -0.725   3.205  0.00  0.00    -0.277 N 
ATOM     11  H   UNL d   1       0.630  -0.924   2.348  0.00  0.00     0.189 HD
BRANCH  10  12
ATOM     12  C   UNL d   1       0.835  -0.417   4.335  0.00  0.00     0.184 C 
ATOM     13  S   UNL d   1       2.491  -0.367   4.367  0.00  0.00    -0.040 SA
ATOM     14  N   UNL d   1       0.084  -0.153   5.433  0.00  0.00    -0.375 N 
ATOM     15  H   UNL d   1       0.497   0.050   6.330  0.00  0.00     0.158 HD
ATOM     16  H   UNL d   1      -0.918  -0.264   5.332  0.00  0.00     0.158 HD
ENDBRANCH  10  12
ENDBRANCH   8  10
ENDBRANCH   5   7
BRANCH   1  17
ATOM     17  O   UNL d   1      -6.033  -1.665  -0.382  0.00  0.00    -0.353 OA
ATOM     18  C   UNL d   1      -5.289  -1.950  -1.558  0.00  0.00     0.210 C 
ENDBRANCH   1  17
BRANCH   2  19
ATOM     19  O   UNL d   1      -7.467  -1.017   2.031  0.00  0.00    -0.353 OA
ATOM     20  C   UNL d   1      -8.233  -1.903   1.226  0.00  0.00     0.210 C 
ENDBRANCH   2  19
TORSDOF 5
