REMARK  1 active torsions:
REMARK  status: ('A' for Active; 'I' for Inactive)
REMARK    1  A    between atoms: C_8  and  N_3 
ROOT
ATOM      1  C   UNL d   1      -0.826  -1.032   0.156  0.00  0.00     0.283 C 
ATOM      2  C   UNL d   1       0.675  -1.040   0.093  0.00  0.00     0.105 C 
ATOM      3  N   UNL d   1      -1.171   0.322   0.283  0.00  0.00    -0.217 N 
ATOM      4  C   UNL d   1       1.111   0.381   0.001  0.00  0.00     0.276 C 
ATOM      5  N   UNL d   1      -0.037   1.125   0.152  0.00  0.00    -0.256 N 
ATOM      6  C   UNL d   1       1.472  -2.125   0.206  0.00  0.00    -0.066 C 
ATOM      7  O   UNL d   1      -1.553  -2.008   0.146  0.00  0.00    -0.265 OA
ATOM      8  O   UNL d   1       2.220   0.828  -0.212  0.00  0.00    -0.266 OA
ATOM      9  C   UNL d   1       2.974  -2.058   0.350  0.00  0.00     0.044 C 
ATOM     10  C   UNL d   1       0.978  -3.552   0.265  0.00  0.00     0.044 C 
ATOM     11  H   UNL d   1      -0.068   2.120   0.005  0.00  0.00     0.191 HD
ENDROOT
BRANCH   3  12
ATOM     12  C   UNL d   1      -2.357   0.820   0.886  0.00  0.00     0.060 A 
ATOM     13  C   UNL d   1      -3.245  -0.035   1.555  0.00  0.00     0.031 A 
ATOM     14  C   UNL d   1      -4.344   0.470   2.256  0.00  0.00     0.002 A 
ATOM     15  C   UNL d   1      -4.590   1.838   2.276  0.00  0.00     0.000 A 
ATOM     16  C   UNL d   1      -3.744   2.700   1.585  0.00  0.00     0.002 A 
ATOM     17  C   UNL d   1      -2.635   2.196   0.896  0.00  0.00     0.031 A 
ENDBRANCH   3  12
TORSDOF 1
