REMARK  3 active torsions:
REMARK  status: ('A' for Active; 'I' for Inactive)
REMARK    1  A    between atoms: S_21  and  C_1 
REMARK       I    between atoms: C_10  and  N_14 
REMARK    2  A    between atoms: C_15  and  C_10 
REMARK    3  A    between atoms: N_14  and  C_18 
ROOT
ATOM      1  C   UNL d   1       3.530   3.038  -0.203  0.00  0.00     0.256 C 
ATOM      2  N   UNL d   1       3.468   1.685   0.094  0.00  0.00    -0.323 N 
ATOM      3  O   UNL d   1       2.569   3.797  -0.282  0.00  0.00    -0.267 OA
ATOM      4  H   UNL d   1       4.334   1.199   0.274  0.00  0.00     0.169 HD
ENDROOT
BRANCH   2   5
ATOM      5  C   UNL d   1       2.292   0.896   0.169  0.00  0.00     0.036 A 
ATOM      6  C   UNL d   1       1.005   1.399  -0.060  0.00  0.00     0.051 A 
ATOM      7  C   UNL d   1      -0.089   0.513  -0.035  0.00  0.00     0.036 A 
ATOM      8  S   UNL d   1      -1.760   0.841  -0.299  0.00  0.00    -0.063 SA
ATOM      9  C   UNL d   1       0.068  -0.849   0.217  0.00  0.00     0.050 A 
ATOM     10  C   UNL d   1      -2.116  -0.817  -0.082  0.00  0.00     0.112 A 
ATOM     11  N   UNL d   1      -1.094  -1.598   0.187  0.00  0.00    -0.344 N 
ATOM     12  HN  UNL d   1      -1.150  -2.603   0.348  1.00  0.00     0.167 HD
ATOM     13  C   UNL d   1       1.362  -1.339   0.471  0.00  0.00     0.033 A 
ATOM     14  C   UNL d   1       2.458  -0.464   0.447  0.00  0.00     0.032 A 
BRANCH  10  15
ATOM     15  S   UNL d   1      -3.749  -1.440  -0.208  0.00  0.00    -0.109 SA
ATOM     16  C   UNL d   1      -3.443  -3.210  -0.021  0.00  0.00     0.097 C 
ENDBRANCH  10  15
ENDBRANCH   2   5
BRANCH   1  17
ATOM     17  C   UNL d   1       4.884   3.620  -0.456  0.00  0.00     0.034 A 
ATOM     18  C   UNL d   1       5.979   2.845  -0.869  0.00  0.00     0.049 A 
ATOM     19  C   UNL d   1       7.194   3.483  -1.208  0.00  0.00     0.064 A 
ATOM     20  N   UNL d   1       8.352   2.857  -1.655  0.00  0.00    -0.292 N 
ATOM     21  C   UNL d   1       7.277   4.875  -1.118  0.00  0.00     0.047 A 
ATOM     22  N   UNL d   1       9.314   3.724  -1.917  0.00  0.00    -0.061 NA
ATOM     23  HN  UNL d   1       8.448   1.848  -1.768  1.00  0.00     0.183 HD
ATOM     24  S   UNL d   1       8.862   5.308  -1.635  0.00  0.00     0.002 SA
ATOM     25  C   UNL d   1       6.205   5.667  -0.692  0.00  0.00     0.023 A 
ATOM     26  C   UNL d   1       5.012   5.014  -0.368  0.00  0.00     0.018 A 
ENDBRANCH   1  17
TORSDOF 3
