REMARK  3 active torsions:
REMARK  status: ('A' for Active; 'I' for Inactive)
REMARK    1  A    between atoms: C_6  and  C_2 
REMARK    2  A    between atoms: C_15  and  N_5 
REMARK    3  A    between atoms: C_16  and  C_10 
ROOT
ATOM      1  N   UNL d   1      -0.694   1.196   0.028  0.00  0.00    -0.270 N 
ATOM      2  C   UNL d   1       1.431  -0.006  -0.052  0.00  0.00     0.082 A 
ATOM      3  C   UNL d   1      -1.427   0.011   0.036  0.00  0.00     0.335 A 
ATOM      4  C   UNL d   1       0.687   1.278  -0.058  0.00  0.00     0.265 A 
ATOM      5  N   UNL d   1      -0.667  -1.174  -0.012  0.00  0.00    -0.274 N 
ATOM      6  C   UNL d   1       0.718  -1.140  -0.072  0.00  0.00     0.122 A 
ATOM      7  O   UNL d   1      -2.663   0.029   0.039  0.00  0.00    -0.246 OA
ATOM      8  O   UNL d   1       1.269   2.357  -0.166  0.00  0.00    -0.267 OA
ATOM      9  C   UNL d   1      -1.416   2.456   0.002  0.00  0.00     0.164 C 
ENDROOT
BRANCH   2  10
ATOM     10  C   UNL d   1       2.860  -0.063  -0.069  0.00  0.00     0.091 A 
ATOM     11  N   UNL d   1       3.586  -0.992  -0.673  0.00  0.00    -0.349 N 
ATOM     12  C   UNL d   1       4.945  -0.750  -0.522  0.00  0.00     0.050 A 
ATOM     13  HN  UNL d   1       3.196  -1.784  -1.184  1.00  0.00     0.166 HD
ATOM     14  C   UNL d   1       5.253   0.369   0.220  0.00  0.00     0.082 A 
ATOM     15  S   UNL d   1       3.822   1.085   0.814  0.00  0.00    -0.081 SA
BRANCH  12  16
ATOM     16  C   UNL d   1       5.941  -1.621  -1.135  0.00  0.00    -0.009 A 
ATOM     17  C   UNL d   1       5.614  -2.330  -2.300  0.00  0.00     0.015 A 
ATOM     18  C   UNL d   1       6.546  -3.180  -2.903  0.00  0.00     0.024 A 
ATOM     19  C   UNL d   1       7.810  -3.332  -2.339  0.00  0.00     0.034 A 
ATOM     20  C   UNL d   1       8.152  -2.639  -1.180  0.00  0.00     0.024 A 
ATOM     21 CL   UNL d   1       8.955  -4.384  -3.073  0.00  0.00    -0.084 Cl
ATOM     22  C   UNL d   1       7.219  -1.786  -0.579  0.00  0.00     0.015 A 
ENDBRANCH  12  16
ENDBRANCH   2  10
BRANCH   5  23
ATOM     23  C   UNL d   1      -1.372  -2.423  -0.015  0.00  0.00     0.043 A 
ATOM     24  C   UNL d   1      -1.081  -3.406  -0.972  0.00  0.00     0.030 A 
ATOM     25  C   UNL d   1      -1.828  -4.587  -1.017  0.00  0.00     0.002 A 
ATOM     26  C   UNL d   1      -2.837  -4.817  -0.082  0.00  0.00     0.000 A 
ATOM     27  C   UNL d   1      -3.107  -3.865   0.897  0.00  0.00     0.002 A 
ATOM     28  C   UNL d   1      -2.385  -2.670   0.923  0.00  0.00     0.030 A 
ENDBRANCH   5  23
TORSDOF 3
