REMARK  5 active torsions:
REMARK  status: ('A' for Active; 'I' for Inactive)
REMARK    1  A    between atoms: C_2  and  C_1 
REMARK    2  A    between atoms: C_7  and  C_1 
REMARK    3  A    between atoms: C_9  and  C_2 
REMARK    4  A    between atoms: N_5  and  N_3 
REMARK    5  A    between atoms: C_11  and  C_10 
ROOT
ATOM      1  C   UNL d   1       0.981   0.076  -0.211  0.00  0.00     0.109 C 
ATOM      2  N   UNL d   1       0.394   1.244  -0.158  0.00  0.00    -0.296 N 
ATOM      3  HN  UNL d   1       0.917   2.117  -0.093  1.00  0.00     0.187 HD
ENDROOT
BRANCH   1   4
ATOM      4  C   UNL d   1       0.191  -1.234  -0.252  0.00  0.00     0.210 C 
ATOM      5  O   UNL d   1       0.473  -2.062  -1.118  0.00  0.00    -0.285 OA
BRANCH   4   6
ATOM      6  C   UNL d   1      -0.944  -1.502   0.675  0.00  0.00     0.016 A 
ATOM      7  C   UNL d   1      -1.968  -2.349   0.224  0.00  0.00     0.015 A 
ATOM      8  C   UNL d   1      -3.145  -2.486   0.961  0.00  0.00     0.001 A 
ATOM      9  C   UNL d   1      -3.299  -1.790   2.158  0.00  0.00     0.000 A 
ATOM     10  C   UNL d   1      -2.261  -0.993   2.642  0.00  0.00     0.001 A 
ATOM     11  C   UNL d   1      -1.075  -0.861   1.913  0.00  0.00     0.015 A 
ENDBRANCH   4   6
ENDBRANCH   1   4
BRANCH   1  12
ATOM     12  C   UNL d   1       2.481   0.039  -0.321  0.00  0.00    -0.004 A 
ATOM     13  C   UNL d   1       3.213  -1.151  -0.419  0.00  0.00     0.014 A 
ATOM     14  C   UNL d   1       4.591  -1.118  -0.669  0.00  0.00     0.001 A 
ATOM     15  C   UNL d   1       5.254   0.100  -0.803  0.00  0.00     0.000 A 
ATOM     16  C   UNL d   1       4.548   1.291  -0.661  0.00  0.00     0.001 A 
ATOM     17  C   UNL d   1       3.172   1.260  -0.418  0.00  0.00     0.014 A 
ENDBRANCH   1  12
BRANCH   2  18
ATOM     18  N   UNL d   1      -0.989   1.208  -0.197  0.00  0.00    -0.311 N 
ATOM     19  C   UNL d   1      -1.514   2.284   0.294  0.00  0.00     0.118 C 
ATOM     20  HN  UNL d   1      -1.530   0.427  -0.569  1.00  0.00     0.186 HD
BRANCH  19  21
ATOM     21  C   UNL d   1      -2.974   2.412   0.468  0.00  0.00    -0.019 A 
ATOM     22  C   UNL d   1      -3.477   3.503   1.182  0.00  0.00     0.014 A 
ATOM     23  C   UNL d   1      -4.853   3.608   1.411  0.00  0.00     0.024 A 
ATOM     24  C   UNL d   1      -5.715   2.624   0.921  0.00  0.00     0.034 A 
ATOM     25  C   UNL d   1      -5.216   1.539   0.204  0.00  0.00     0.024 A 
ATOM     26 CL   UNL d   1      -7.404   2.748   1.218  0.00  0.00    -0.084 Cl
ATOM     27  C   UNL d   1      -3.842   1.431  -0.024  0.00  0.00     0.014 A 
ENDBRANCH  19  21
ENDBRANCH   2  18
TORSDOF 5
