REMARK  7 active torsions:
REMARK  status: ('A' for Active; 'I' for Inactive)
REMARK    1  A    between atoms: N_2  and  C_1 
REMARK    2  A    between atoms: N_4  and  C_1 
REMARK    3  A    between atoms: C_5  and  N_2 
REMARK    4  A    between atoms: N_8  and  N_4 
REMARK    5  A    between atoms: O_6  and  C_7 
REMARK    6  A    between atoms: C_9  and  O_6 
REMARK    7  A    between atoms: C_14  and  C_9 
ROOT
ATOM      1  C   UNL d   1       1.088   2.167   1.133  0.00  0.00     0.034 A 
ATOM      2  C   UNL d   1       2.254   4.584   1.929  0.00  0.00     0.069 A 
ATOM      3  C   UNL d   1       2.073   2.770   0.345  0.00  0.00     0.032 A 
ATOM      4  C   UNL d   1       0.614   2.831   2.264  0.00  0.00     0.032 A 
ATOM      5  C   UNL d   1       1.207   4.030   2.668  0.00  0.00     0.039 A 
ATOM      6  C   UNL d   1       2.651   3.977   0.739  0.00  0.00     0.039 A 
ENDROOT
BRANCH   1   7
ATOM      7  N   UNL d   1       0.540   0.912   0.818  0.00  0.00    -0.332 N 
ATOM      8  H   UNL d   1      -0.433   0.773   1.074  0.00  0.00     0.168 HD
BRANCH   7   9
ATOM      9  C   UNL d   1       1.068  -0.084   0.050  0.00  0.00     0.186 C 
ATOM     10  S   UNL d   1       0.060  -1.127  -0.775  0.00  0.00    -0.040 SA
BRANCH   9  11
ATOM     11  N   UNL d   1       2.426  -0.297   0.029  0.00  0.00    -0.300 N 
ATOM     12  H   UNL d   1       2.693  -1.124  -0.507  0.00  0.00     0.183 HD
BRANCH  11  13
ATOM     13  N   UNL d   1       3.236  -0.027   1.169  0.00  0.00    -0.248 NA
ATOM     14  H   UNL d   1       2.621   0.272   1.934  0.00  0.00     0.143 HD
ATOM     15  H   UNL d   1       3.806   0.794   0.959  0.00  0.00     0.143 HD
ENDBRANCH  11  13
ENDBRANCH   9  11
ENDBRANCH   7   9
ENDBRANCH   1   7
BRANCH   2  16
ATOM     16  O   UNL d   1       2.803   5.732   2.430  0.00  0.00    -0.347 OA
BRANCH  16  17
ATOM     17  C   UNL d   1       4.204   5.875   2.178  0.00  0.00     0.214 C 
BRANCH  17  18
ATOM     18  C   UNL d   1       4.727   7.077   2.924  0.00  0.00    -0.034 A 
ATOM     19  C   UNL d   1       5.779   6.955   3.843  0.00  0.00     0.009 A 
ATOM     20  C   UNL d   1       6.288   8.085   4.487  0.00  0.00     0.001 A 
ATOM     21  C   UNL d   1       5.753   9.344   4.217  0.00  0.00     0.000 A 
ATOM     22  C   UNL d   1       4.706   9.475   3.309  0.00  0.00     0.001 A 
ATOM     23  C   UNL d   1       4.196   8.350   2.666  0.00  0.00     0.009 A 
ENDBRANCH  17  18
ENDBRANCH  16  17
ENDBRANCH   2  16
TORSDOF 7
