REMARK  7 active torsions:
REMARK  status: ('A' for Active; 'I' for Inactive)
REMARK       I    between atoms: C_4  and  N_19 
REMARK       I    between atoms: N_7  and  C_4 
REMARK       I    between atoms: C_5  and  N_8 
REMARK    1  A    between atoms: O_21  and  C_5 
REMARK    2  A    between atoms: N_8  and  N_7 
REMARK    3  A    between atoms: C_25  and  C_10 
REMARK    4  A    between atoms: N_19  and  C_26 
REMARK    5  A    between atoms: C_27  and  O_21 
REMARK    6  A    between atoms: C_28  and  C_25 
REMARK    7  A    between atoms: C_26  and  C_28 
ROOT
ATOM      1  C   UNL d   1      -1.620  -0.649  -1.171  0.00  0.00    -0.003 A 
ATOM      2  C   UNL d   1      -2.455   0.502  -1.209  0.00  0.00    -0.018 A 
ATOM      3  C   UNL d   1      -1.188  -1.268  -2.375  0.00  0.00    -0.004 A 
ATOM      4  C   UNL d   1      -2.850   0.979  -2.478  0.00  0.00     0.014 A 
ATOM      5  C   UNL d   1      -1.205  -1.188   0.070  0.00  0.00    -0.024 A 
ATOM      6  C   UNL d   1      -2.845   1.106   0.020  0.00  0.00    -0.047 A 
ATOM      7  C   UNL d   1      -1.591  -0.751  -3.627  0.00  0.00    -0.024 A 
ATOM      8  C   UNL d   1      -0.347  -2.403  -2.331  0.00  0.00    -0.024 A 
ATOM      9  C   UNL d   1      -2.428   0.367  -3.662  0.00  0.00     0.013 A 
ATOM     10  C   UNL d   1      -2.438   0.535   1.236  0.00  0.00     0.009 A 
ATOM     11  C   UNL d   1      -1.628  -0.595   1.260  0.00  0.00     0.013 A 
ATOM     12  C   UNL d   1      -0.375  -2.315   0.093  0.00  0.00     0.013 A 
ATOM     13  C   UNL d   1       0.053  -2.914  -1.092  0.00  0.00     0.013 A 
ATOM     14  C   UNL d   1      -0.321  -2.485  -4.758  0.00  0.00     0.002 A 
ATOM     15  C   UNL d   1      -1.153  -1.369  -4.807  0.00  0.00     0.012 A 
ATOM     16  C   UNL d   1       0.082  -3.001  -3.529  0.00  0.00     0.012 A 
ENDROOT
BRANCH   6  17
ATOM     17  C   UNL d   1      -3.684   2.365   0.091  0.00  0.00     0.041 C 
BRANCH  17  18
ATOM     18  C   UNL d   1      -5.186   2.077   0.128  0.00  0.00     0.024 C 
BRANCH  18  19
ATOM     19  C   UNL d   1      -5.966   3.393   0.086  0.00  0.00     0.125 C 
BRANCH  19  20
ATOM     20  N   UNL d   1      -7.405   3.229   0.154  0.00  0.00    -0.342 N 
ATOM     21  C   UNL d   1      -8.258   2.720  -0.771  0.00  0.00     0.334 C 
ATOM     22  N   UNL d   1      -7.703   2.196  -1.899  0.00  0.00    -0.247 N 
ATOM     23  O   UNL d   1      -9.470   2.732  -0.565  0.00  0.00    -0.246 OA
ATOM     24  H   UNL d   1      -6.713   2.218  -2.109  0.00  0.00     0.192 HD
ATOM     25  H   UNL d   1      -7.893   3.626   0.948  0.00  0.00     0.164 HD
BRANCH  22  26
ATOM     26  N   UNL d   1      -8.509   1.476  -2.776  0.00  0.00    -0.241 N 
ATOM     27  C   UNL d   1      -7.982   1.066  -3.968  0.00  0.00     0.379 C 
ATOM     28  O   UNL d   1      -6.796   1.152  -4.265  0.00  0.00    -0.237 OA
ATOM     29  H   UNL d   1      -9.515   1.560  -2.665  0.00  0.00     0.192 HD
BRANCH  27  30
ATOM     30  O   UNL d   1      -8.978   0.641  -4.781  0.00  0.00    -0.303 OA
BRANCH  30  31
ATOM     31  C   UNL d   1      -8.633   0.537  -6.167  0.00  0.00     0.176 C 
ATOM     32  C   UNL d   1      -8.838   1.899  -6.806  0.00  0.00     0.034 C 
ENDBRANCH  30  31
ENDBRANCH  27  30
ENDBRANCH  22  26
ENDBRANCH  19  20
ENDBRANCH  18  19
ENDBRANCH  17  18
ENDBRANCH   6  17
TORSDOF 7
