REMARK  1 active torsions:
REMARK  status: ('A' for Active; 'I' for Inactive)
REMARK    1  A    between atoms: C_11  and  C_3 
ROOT
ATOM      1  N   UNL d   1       0.579   0.759  -0.029  0.00  0.00    -0.304 N 
ATOM      2  C   UNL d   1      -0.132  -0.415  -0.033  0.00  0.00     0.123 A 
ATOM      3  C   UNL d   1      -0.079   2.065  -0.023  0.00  0.00     0.225 C 
ATOM      4  N   UNL d   1       0.682  -1.452  -0.051  0.00  0.00    -0.340 N 
ATOM      5  HN  UNL d   1       0.424  -2.438  -0.091  1.00  0.00     0.167 HD
ATOM      6  N   UNL d   1      -1.540   2.057   0.159  0.00  0.00    -0.364 N 
ATOM      7  C   UNL d   1      -1.585  -0.396  -0.017  0.00  0.00     0.035 A 
ATOM      8  C   UNL d   1       1.918   0.469   0.027  0.00  0.00     0.065 A 
ATOM      9  C   UNL d   1      -2.242   0.851   0.025  0.00  0.00     0.043 A 
ATOM     10  C   UNL d   1       1.949  -0.925  -0.004  0.00  0.00     0.061 A 
ATOM     11  C   UNL d   1      -2.321  -1.587  -0.040  0.00  0.00     0.017 A 
ATOM     12  C   UNL d   1       3.076   1.250   0.098  0.00  0.00     0.032 A 
ATOM     13  C   UNL d   1      -3.641   0.866   0.085  0.00  0.00     0.030 A 
ATOM     14  C   UNL d   1       3.187  -1.585   0.022  0.00  0.00     0.032 A 
ATOM     15  C   UNL d   1      -3.713  -1.551   0.001  0.00  0.00     0.001 A 
ATOM     16  C   UNL d   1       4.300   0.572   0.127  0.00  0.00     0.002 A 
ATOM     17  C   UNL d   1      -4.372  -0.326   0.065  0.00  0.00     0.002 A 
ATOM     18  C   UNL d   1       4.358  -0.822   0.087  0.00  0.00     0.002 A 
ATOM     19  H   UNL d   1      -2.020   2.862  -0.230  0.00  0.00     0.162 HD
ENDROOT
BRANCH   3  20
ATOM     20  C   UNL d   1       0.258   2.866  -1.278  0.00  0.00    -0.014 A 
ATOM     21  C   UNL d   1       0.901   4.112  -1.164  0.00  0.00     0.036 A 
ATOM     22  C   UNL d   1       1.188   4.880  -2.299  0.00  0.00     0.056 A 
ATOM     23 CL   UNL d   1       1.987   6.394  -2.059  0.00  0.00    -0.083 Cl
ATOM     24  C   UNL d   1       0.825   4.416  -3.566  0.00  0.00     0.055 A 
ATOM     25  C   UNL d   1       0.190   3.177  -3.693  0.00  0.00     0.026 A 
ATOM     26 CL   UNL d   1       1.116   5.325  -5.005  0.00  0.00    -0.083 Cl
ATOM     27  C   UNL d   1      -0.090   2.408  -2.560  0.00  0.00     0.013 A 
ENDBRANCH   3  20
TORSDOF 1
