REMARK  3 active torsions:
REMARK  status: ('A' for Active; 'I' for Inactive)
REMARK       I    between atoms: N_5  and  C_1 
REMARK    1  A    between atoms: C_9  and  C_1 
REMARK    2  A    between atoms: N_4  and  C_9 
REMARK    3  A    between atoms: C_7  and  N_5 
ROOT
ATOM      1  C   UNL d   1       1.145  -0.060  -0.083  0.00  0.00     0.250 C 
ATOM      2  N   UNL d   1       0.480  -0.574   1.018  0.00  0.00    -0.326 N 
ATOM      3  O   UNL d   1       2.367   0.021  -0.217  0.00  0.00    -0.271 OA
ATOM      4  H   UNL d   1      -0.516  -0.725   0.929  0.00  0.00     0.169 HD
ENDROOT
BRANCH   2   5
ATOM      5  C   UNL d   1       1.093  -1.042   2.199  0.00  0.00     0.037 A 
ATOM      6  C   UNL d   1       2.401  -0.707   2.556  0.00  0.00     0.069 A 
ATOM      7  C   UNL d   1       2.978  -1.235   3.709  0.00  0.00     0.104 A 
ATOM      8  O   UNL d   1       4.272  -0.861   3.967  0.00  0.00    -0.346 OA
ATOM      9  C   UNL d   1       2.244  -2.087   4.535  0.00  0.00     0.102 A 
ATOM     10  C   UNL d   1       4.881  -1.732   4.922  0.00  0.00     0.202 C 
ATOM     11  C   UNL d   1       3.949  -1.970   6.099  0.00  0.00     0.202 C 
ATOM     12  O   UNL d   1       2.752  -2.640   5.682  0.00  0.00    -0.346 OA
ATOM     13  C   UNL d   1       0.932  -2.414   4.200  0.00  0.00     0.042 A 
ATOM     14  C   UNL d   1       0.351  -1.880   3.043  0.00  0.00     0.032 A 
ENDBRANCH   2   5
BRANCH   1  15
ATOM     15  C   UNL d   1       0.225   0.393  -1.218  0.00  0.00     0.375 C 
BRANCH  15  16
ATOM     16  N   UNL d   1      -0.084   1.840  -1.152  0.00  0.00     0.101 N 
ATOM     17  C   UNL d   1      -0.874   2.244  -2.341  0.00  0.00     0.299 C 
ATOM     18  C   UNL d   1      -0.066   2.266  -3.655  0.00  0.00     0.198 C 
ATOM     19  O   UNL d   1       1.097   3.094  -3.549  0.00  0.00    -0.388 OA
ATOM     20  C   UNL d   1       1.925   2.685  -2.450  0.00  0.00     0.198 C 
ATOM     21  C   UNL d   1       1.132   2.697  -1.133  0.00  0.00     0.299 C 
ENDBRANCH  15  16
ENDBRANCH   1  15
TORSDOF 3
