REMARK  5 active torsions:
REMARK  status: ('A' for Active; 'I' for Inactive)
REMARK       I    between atoms: N_2  and  C_1 
REMARK    1  A    between atoms: C_4  and  C_1 
REMARK    2  A    between atoms: C_3  and  N_2 
REMARK    3  A    between atoms: S_10  and  C_4 
REMARK    4  A    between atoms: C_12  and  C_4 
REMARK    5  A    between atoms: C_13  and  S_10 
ROOT
ATOM      1  C   UNL d   1       0.229   1.086  -0.361  0.00  0.00     0.177 C 
ENDROOT
BRANCH   1   2
ATOM      2  C   UNL d   1       1.085  -0.022   0.299  0.00  0.00     0.240 C 
ATOM      3  N   UNL d   1       2.367  -0.225  -0.199  0.00  0.00    -0.324 N 
ATOM      4  H   UNL d   1       2.778   0.532  -0.735  0.00  0.00     0.169 HD
ATOM      5  O   UNL d   1       0.705  -0.609   1.315  0.00  0.00    -0.272 OA
BRANCH   3   6
ATOM      6  C   UNL d   1       3.229  -1.274   0.213  0.00  0.00     0.058 A 
ATOM      7  C   UNL d   1       2.724  -2.478   0.725  0.00  0.00     0.057 A 
ATOM      8  C   UNL d   1       3.575  -3.502   1.152  0.00  0.00     0.058 A 
ATOM      9 CL   UNL d   1       2.853  -4.940   1.779  0.00  0.00    -0.082 Cl
ATOM     10  C   UNL d   1       4.959  -3.335   1.059  0.00  0.00     0.057 A 
ATOM     11  C   UNL d   1       5.482  -2.155   0.523  0.00  0.00     0.051 A 
ATOM     12 CL   UNL d   1       6.071  -4.549   1.583  0.00  0.00    -0.082 Cl
ATOM     13  C   UNL d   1       4.623  -1.138   0.092  0.00  0.00     0.062 A 
ATOM     14 CL   UNL d   1       5.322   0.310  -0.542  0.00  0.00    -0.082 Cl
ENDBRANCH   3   6
ENDBRANCH   1   2
BRANCH   1  15
ATOM     15  S   UNL d   1       0.803   1.528  -2.068  0.00  0.00    -0.111 SA
BRANCH  15  16
ATOM     16  C   UNL d   1       0.500   0.047  -3.009  0.00  0.00     0.001 A 
ATOM     17  C   UNL d   1      -0.773  -0.510  -3.163  0.00  0.00     0.020 A 
ATOM     18  C   UNL d   1      -0.959  -1.657  -3.940  0.00  0.00     0.025 A 
ATOM     19  C   UNL d   1       0.126  -2.233  -4.595  0.00  0.00     0.034 A 
ATOM     20  C   UNL d   1       1.392  -1.664  -4.485  0.00  0.00     0.025 A 
ATOM     21 CL   UNL d   1      -0.102  -3.639  -5.557  0.00  0.00    -0.084 Cl
ATOM     22  C   UNL d   1       1.576  -0.524  -3.699  0.00  0.00     0.020 A 
ENDBRANCH  15  16
ENDBRANCH   1  15
BRANCH   1  23
ATOM     23  C   UNL d   1      -1.296   0.947  -0.249  0.00  0.00    -0.035 A 
ATOM     24  C   UNL d   1      -1.934  -0.196   0.266  0.00  0.00     0.009 A 
ATOM     25  C   UNL d   1      -3.321  -0.245   0.437  0.00  0.00     0.001 A 
ATOM     26  C   UNL d   1      -4.110   0.834   0.057  0.00  0.00     0.000 A 
ATOM     27  C   UNL d   1      -3.512   1.959  -0.500  0.00  0.00     0.001 A 
ATOM     28  C   UNL d   1      -2.121   2.021  -0.640  0.00  0.00     0.009 A 
ENDBRANCH   1  23
TORSDOF 5
