REMARK  3 active torsions:
REMARK  status: ('A' for Active; 'I' for Inactive)
REMARK    1  A    between atoms: C_2  and  N_1 
REMARK    2  A    between atoms: N_3  and  C_9 
REMARK    3  A    between atoms: C_16  and  N_10 
ROOT
ATOM      1  C   UNL d   1      -3.820   0.070  -0.127  0.00  0.00     0.037 A 
ATOM      2  C   UNL d   1      -4.529  -0.562   0.930  0.00  0.00     0.039 A 
ATOM      3  C   UNL d   1      -4.634   0.580  -1.169  0.00  0.00    -0.033 A 
ATOM      4  C   UNL d   1      -6.717  -0.189  -0.046  0.00  0.00     0.054 A 
ATOM      5  C   UNL d   1      -5.935  -0.715   0.982  0.00  0.00    -0.032 A 
ATOM      6  C   UNL d   1      -6.053   0.456  -1.091  0.00  0.00     0.040 A 
ATOM      7  C   UNL d   1      -4.191   1.329  -2.402  0.00  0.00     0.050 C 
ATOM      8  C   UNL d   1      -6.558  -1.440   2.142  0.00  0.00     0.050 C 
ENDROOT
BRANCH   4   9
ATOM      9  N   UNL d   1      -8.114  -0.371  -0.151  0.00  0.00    -0.300 N 
ATOM     10  N   UNL d   1      -8.730   0.121   0.819  0.00  0.00    -0.300 N 
ATOM     11  HN  UNL d   1      -8.288   0.626   1.587  1.00  0.00     0.187 HD
ATOM     12  HN  UNL d   1      -8.569  -0.848  -0.930  1.00  0.00     0.187 HD
BRANCH  10  13
ATOM     13  C   UNL d   1     -10.119  -0.116   0.710  0.00  0.00     0.048 A 
ATOM     14  C   UNL d   1     -10.793  -0.761   1.752  0.00  0.00     0.032 A 
ATOM     15  C   UNL d   1     -12.180  -0.953   1.701  0.00  0.00     0.021 A 
ATOM     16  C   UNL d   1     -12.901  -0.490   0.600  0.00  0.00     0.011 A 
ATOM     17  C   UNL d   1     -12.244   0.149  -0.448  0.00  0.00     0.021 A 
ATOM     18 BR   UNL d   1     -14.773  -0.716   0.539  0.00  0.00    -0.051 Br
ATOM     19  C   UNL d   1     -10.860   0.340  -0.391  0.00  0.00     0.032 A 
ENDBRANCH  10  13
ENDBRANCH   4   9
BRANCH   1  20
ATOM     20  N   UNL d   1      -2.437   0.126  -0.061  0.00  0.00    -0.372 N 
ATOM     21  C   UNL d   1      -1.545   0.646  -1.105  0.00  0.00     0.162 A 
ATOM     22  C   UNL d   1      -0.167   0.405  -0.582  0.00  0.00    -0.032 A 
ATOM     23  C   UNL d   1       1.041   0.686  -1.203  0.00  0.00     0.009 A 
ATOM     24  C   UNL d   1      -0.220  -0.202   0.669  0.00  0.00    -0.032 A 
ATOM     25  C   UNL d   1       2.220   0.342  -0.542  0.00  0.00     0.001 A 
ATOM     26  C   UNL d   1       2.173  -0.270   0.721  0.00  0.00     0.001 A 
ATOM     27  C   UNL d   1       0.947  -0.545   1.336  0.00  0.00     0.009 A 
ATOM     28  C   UNL d   1      -1.648  -0.404   1.082  0.00  0.00     0.162 A 
ENDBRANCH   1  20
TORSDOF 3
