REMARK  4 active torsions:
REMARK  status: ('A' for Active; 'I' for Inactive)
REMARK    1  A    between atoms: C_2  and  C_1 
REMARK       I    between atoms: N_3  and  C_1 
REMARK    2  A    between atoms: C_7  and  N_4 
REMARK    3  A    between atoms: C_6  and  C_5 
REMARK    4  A    between atoms: O_16  and  C_6 
ROOT
ATOM      1  C   UNL d   1       0.698  -0.146   0.060  0.00  0.00     0.255 C 
ATOM      2  N   UNL d   1       0.199  -0.515  -1.188  0.00  0.00    -0.345 N 
ATOM      3  N   UNL d   1      -0.591  -1.324  -3.828  0.00  0.00    -0.378 N 
ATOM      4  O   UNL d   1       1.539  -0.808   0.668  0.00  0.00    -0.267 OA
ATOM      5  C   UNL d   1       0.509  -1.864  -1.688  0.00  0.00     0.146 C 
ATOM      6  C   UNL d   1      -0.889   0.179  -1.905  0.00  0.00     0.146 C 
ATOM      7  C   UNL d   1       0.609  -1.932  -3.223  0.00  0.00     0.143 C 
ATOM      8  C   UNL d   1      -0.790   0.077  -3.440  0.00  0.00     0.143 C 
ENDROOT
BRANCH   1   9
ATOM      9  C   UNL d   1       0.251   1.098   0.716  0.00  0.00     0.049 A 
ATOM     10  C   UNL d   1       1.147   2.094   1.147  0.00  0.00     0.053 A 
ATOM     11  C   UNL d   1       0.594   3.276   1.700  0.00  0.00     0.019 A 
ATOM     12  C   UNL d   1      -0.785   3.448   1.840  0.00  0.00     0.001 A 
ATOM     13  C   UNL d   1      -1.649   2.425   1.474  0.00  0.00     0.001 A 
ATOM     14  C   UNL d   1      -1.130   1.247   0.942  0.00  0.00     0.018 A 
BRANCH  10  15
ATOM     15  C   UNL d   1       2.641   2.094   1.049  0.00  0.00     0.177 C 
ATOM     16  O   UNL d   1       3.270   3.138   1.165  0.00  0.00    -0.646 OA
BRANCH  15  17
ATOM     17  O   UNL d   1       3.285   0.931   0.864  0.00  0.00    -0.773 OA
ATOM     18  H   UNL d   1       2.755   0.101   0.914  0.00  0.00     0.167 HD
ENDBRANCH  15  17
ENDBRANCH  10  15
ENDBRANCH   1   9
BRANCH   3  19
ATOM     19  C   UNL d   1      -1.257  -1.904  -4.892  0.00  0.00     0.032 A 
ATOM     20  C   UNL d   1      -1.876  -1.148  -5.894  0.00  0.00     0.046 A 
ATOM     21  C   UNL d   1      -2.594  -1.780  -6.902  0.00  0.00     0.089 A 
ATOM     22  N   UNL d   1      -2.741  -3.115  -6.995  0.00  0.00    -0.375 N 
ATOM     23  C   UNL d   1      -2.137  -3.841  -6.037  0.00  0.00     0.089 A 
ATOM     24  HN  UNL d   1      -3.278  -3.549  -7.746  1.00  0.00     0.164 HD
ATOM     25  C   UNL d   1      -1.401  -3.291  -4.994  0.00  0.00     0.046 A 
ENDBRANCH   3  19
TORSDOF 4
