REMARK  3 active torsions:
REMARK  status: ('A' for Active; 'I' for Inactive)
REMARK    1  A    between atoms: C_5  and  S_1 
REMARK    2  A    between atoms: N_8  and  S_1 
REMARK    3  A    between atoms: C_15  and  N_8 
ROOT
ATOM      1  N   UNL d   1       0.479   1.496  -0.263  0.00  0.00    -0.281 N 
ATOM      2  H   UNL d   1       0.005   0.789   0.296  0.00  0.00     0.179 HD
ENDROOT
BRANCH   1   3
ATOM      3  S   UNL d   1       0.343   1.325  -1.921  0.00  0.00     0.263 S 
ATOM      4  O   UNL d   1      -0.102  -0.032  -2.154  0.00  0.00    -0.200 OA
ATOM      5  O   UNL d   1      -0.382   2.455  -2.462  0.00  0.00    -0.200 OA
BRANCH   3   6
ATOM      6  C   UNL d   1       2.031   1.431  -2.475  0.00  0.00     0.081 A 
ATOM      7  C   UNL d   1       2.531   2.669  -2.898  0.00  0.00     0.052 A 
ATOM      8  C   UNL d   1       3.840   2.750  -3.371  0.00  0.00     0.074 A 
ATOM      9 CL   UNL d   1       4.459   4.272  -3.883  0.00  0.00    -0.081 Cl
ATOM     10  C   UNL d   1       4.633   1.603  -3.429  0.00  0.00     0.138 A 
ATOM     11  C   UNL d   1       4.131   0.370  -3.018  0.00  0.00     0.045 A 
ATOM     12  F   UNL d   1       5.893   1.665  -3.885  0.00  0.00    -0.204 F 
ATOM     13  C   UNL d   1       2.821   0.277  -2.542  0.00  0.00     0.028 A 
ENDBRANCH   3   6
ENDBRANCH   1   3
BRANCH   1  14
ATOM     14  C   UNL d   1       0.863   2.724   0.325  0.00  0.00     0.045 A 
ATOM     15  C   UNL d   1      -0.077   3.741   0.536  0.00  0.00     0.069 A 
ATOM     16  C   UNL d   1       0.403   4.864   1.206  0.00  0.00     0.106 A 
ATOM     17  O   UNL d   1      -0.292   5.987   1.564  0.00  0.00    -0.296 OA
ATOM     18  C   UNL d   1       1.707   5.022   1.648  0.00  0.00     0.068 A 
ATOM     19  C   UNL d   1       0.642   6.760   2.207  0.00  0.00     0.120 A 
ATOM     20  C   UNL d   1       0.190   8.064   2.735  0.00  0.00     0.098 C 
ATOM     21  N   UNL d   1       1.848   6.229   2.279  0.00  0.00    -0.338 N 
ATOM     22  HN  UNL d   1       2.686   6.625   2.704  1.00  0.00     0.168 HD
ATOM     23  C   UNL d   1       2.634   3.999   1.419  0.00  0.00     0.035 A 
ATOM     24  C   UNL d   1       2.188   2.845   0.762  0.00  0.00     0.032 A 
ENDBRANCH   1  14
TORSDOF 3
