REMARK  6 active torsions:
REMARK  status: ('A' for Active; 'I' for Inactive)
REMARK    1  A    between atoms: C_5  and  C_1 
REMARK    2  A    between atoms: O_8  and  C_2 
REMARK    3  A    between atoms: C_21  and  O_8 
REMARK    4  A    between atoms: C_9  and  C_12 
REMARK    5  A    between atoms: O_23  and  C_9 
REMARK    6  A    between atoms: O_26  and  C_20 
ROOT
ATOM      1  C   UNL d   1      -2.019  -1.772  -0.115  0.00  0.00     0.197 C 
ATOM      2  C   UNL d   1      -2.665  -0.590  -0.052  0.00  0.00     0.165 C 
ATOM      3  O   UNL d   1      -0.637  -1.911  -0.153  0.00  0.00    -0.302 OA
ATOM      4  C   UNL d   1      -1.840   0.655  -0.147  0.00  0.00     0.221 C 
ATOM      5  C   UNL d   1       0.145  -0.792  -0.074  0.00  0.00     0.093 A 
ATOM      6  C   UNL d   1      -0.384   0.490  -0.059  0.00  0.00     0.051 A 
ATOM      7  C   UNL d   1       1.526  -0.983  -0.035  0.00  0.00     0.074 A 
ATOM      8  C   UNL d   1       0.458   1.603   0.009  0.00  0.00     0.021 A 
ATOM      9  O   UNL d   1      -2.316   1.767  -0.315  0.00  0.00    -0.284 OA
ATOM     10  C   UNL d   1       2.363   0.127   0.021  0.00  0.00     0.068 A 
ATOM     11  C   UNL d   1       1.840   1.417   0.049  0.00  0.00     0.037 A 
ENDROOT
BRANCH   2  12
ATOM     12  O   UNL d   1      -4.058  -0.531  -0.031  0.00  0.00    -0.304 OA
BRANCH  12  13
ATOM     13  C   UNL d   1      -4.701   0.479   0.653  0.00  0.00     0.076 A 
ATOM     14  C   UNL d   1      -5.885   0.967   0.093  0.00  0.00     0.038 A 
ATOM     15  C   UNL d   1      -6.623   1.959   0.752  0.00  0.00     0.020 A 
ATOM     16  C   UNL d   1      -6.188   2.465   1.983  0.00  0.00     0.039 A 
ATOM     17  C   UNL d   1      -4.997   1.976   2.538  0.00  0.00     0.020 A 
ATOM     18  C   UNL d   1      -4.269   0.973   1.887  0.00  0.00     0.038 A 
BRANCH  16  19
ATOM     19  C   UNL d   1      -7.034   3.476   2.680  0.00  0.00     0.292 C 
ATOM     20  O   UNL d   1      -8.081   3.914   2.230  0.00  0.00    -0.259 OA
BRANCH  19  21
ATOM     21  O   UNL d   1      -6.497   3.790   3.887  0.00  0.00    -0.323 OA
ATOM     22  C   UNL d   1      -7.295   4.668   4.682  0.00  0.00     0.213 C 
ENDBRANCH  19  21
ENDBRANCH  16  19
ENDBRANCH  12  13
ENDBRANCH   2  12
BRANCH   1  23
ATOM     23  C   UNL d   1      -2.740  -3.086  -0.165  0.00  0.00     0.442 C 
ATOM     24  F   UNL d   1      -1.879  -4.139  -0.105  0.00  0.00    -0.164 F 
ATOM     25  F   UNL d   1      -3.608  -3.247   0.864  0.00  0.00    -0.164 F 
ATOM     26  F   UNL d   1      -3.443  -3.236  -1.317  0.00  0.00    -0.164 F 
ENDBRANCH   1  23
BRANCH  10  27
ATOM     27  O   UNL d   1       3.719  -0.005   0.041  0.00  0.00    -0.361 OA
ATOM     28  H   UNL d   1       3.950  -0.945  -0.037  0.00  0.00     0.217 HD
ENDBRANCH  10  27
TORSDOF 6
