REMARK  8 active torsions:
REMARK  status: ('A' for Active; 'I' for Inactive)
REMARK    1  A    between atoms: N_2  and  C_1 
REMARK    2  A    between atoms: N_10  and  C_1 
REMARK    3  A    between atoms: C_4  and  N_2 
REMARK    4  A    between atoms: O_17  and  C_3 
REMARK    5  A    between atoms: N_6  and  N_10 
REMARK    6  A    between atoms: O_18  and  C_8 
REMARK    7  A    between atoms: O_19  and  C_9 
REMARK    8  A    between atoms: C_13  and  C_12 
ROOT
ATOM      1  N   UNL d   1       0.969   1.693  -1.767  0.00  0.00    -0.307 N 
ATOM      2  HN  UNL d   1       0.383   2.185  -2.442  1.00  0.00     0.186 HD
ATOM      3  C   UNL d   1       2.256   1.792  -1.835  0.00  0.00     0.119 C 
ENDROOT
BRANCH   1   4
ATOM      4  N   UNL d   1       0.381   0.913  -0.772  0.00  0.00    -0.272 N 
ATOM      5  C   UNL d   1       1.125   0.516   0.422  0.00  0.00     0.180 C 
BRANCH   4   6
ATOM      6  C   UNL d   1      -0.960   0.496  -1.015  0.00  0.00     0.193 C 
ATOM      7  S   UNL d   1      -2.020   1.397  -1.976  0.00  0.00    -0.039 SA
BRANCH   6   8
ATOM      8  N   UNL d   1      -1.286  -0.706  -0.370  0.00  0.00    -0.331 N 
ATOM      9  H   UNL d   1      -0.788  -0.890   0.481  0.00  0.00     0.168 HD
BRANCH   8  10
ATOM     10  C   UNL d   1      -2.255  -1.692  -0.713  0.00  0.00     0.042 A 
ATOM     11  C   UNL d   1      -2.714  -2.617   0.258  0.00  0.00    -0.013 A 
ATOM     12  C   UNL d   1      -3.639  -3.611  -0.145  0.00  0.00     0.042 A 
ATOM     13  C   UNL d   1      -2.262  -2.600   1.698  0.00  0.00     0.052 C 
ATOM     14 CL   UNL d   1      -4.255  -4.791   0.967  0.00  0.00    -0.084 Cl
ATOM     15  C   UNL d   1      -4.091  -3.697  -1.462  0.00  0.00     0.024 A 
ATOM     16  C   UNL d   1      -3.610  -2.813  -2.412  0.00  0.00     0.004 A 
ATOM     17  C   UNL d   1      -2.691  -1.831  -2.039  0.00  0.00     0.030 A 
ENDBRANCH   8  10
ENDBRANCH   6   8
ENDBRANCH   4   6
ENDBRANCH   1   4
BRANCH   3  18
ATOM     18  C   UNL d   1       2.945   2.561  -2.894  0.00  0.00    -0.014 A 
ATOM     19  C   UNL d   1       2.266   3.068  -4.002  0.00  0.00     0.052 A 
ATOM     20  C   UNL d   1       2.969   3.698  -5.042  0.00  0.00     0.105 A 
ATOM     21  C   UNL d   1       4.370   3.810  -4.952  0.00  0.00     0.135 A 
ATOM     22  C   UNL d   1       5.038   3.383  -3.783  0.00  0.00     0.105 A 
ATOM     23  C   UNL d   1       4.325   2.729  -2.776  0.00  0.00     0.052 A 
BRANCH  20  24
ATOM     24  O   UNL d   1       2.143   4.106  -6.056  0.00  0.00    -0.353 OA
ATOM     25  C   UNL d   1       2.695   4.796  -7.166  0.00  0.00     0.210 C 
ENDBRANCH  20  24
BRANCH  21  26
ATOM     26  O   UNL d   1       5.076   4.411  -5.965  0.00  0.00    -0.351 OA
ATOM     27  C   UNL d   1       6.064   3.557  -6.548  0.00  0.00     0.210 C 
ENDBRANCH  21  26
BRANCH  22  28
ATOM     28  O   UNL d   1       6.391   3.623  -3.719  0.00  0.00    -0.353 OA
ATOM     29  C   UNL d   1       7.010   3.523  -2.442  0.00  0.00     0.210 C 
ENDBRANCH  22  28
ENDBRANCH   3  18
TORSDOF 8
