REMARK  6 active torsions:
REMARK  status: ('A' for Active; 'I' for Inactive)
REMARK    1  A    between atoms: C_4  and  C_1 
REMARK    2  A    between atoms: C_2  and  C_5 
REMARK       I    between atoms: C_3  and  N_7 
REMARK    3  A    between atoms: C_6  and  C_3 
REMARK       I    between atoms: N_10  and  C_6 
REMARK    4  A    between atoms: N_7  and  C_8 
REMARK    5  A    between atoms: C_21  and  N_10 
REMARK    6  A    between atoms: C_22  and  C_21 
ROOT
ATOM      1  C   UNL d   1       1.355   6.250   0.299  0.00  0.00     0.313 C 
ATOM      2  N   UNL d   1       1.141   4.998  -0.248  0.00  0.00    -0.319 N 
ATOM      3  O   UNL d   1       1.991   7.188  -0.158  0.00  0.00    -0.262 OA
ATOM      4  H   UNL d   1       0.496   4.414   0.277  0.00  0.00     0.169 HD
ENDROOT
BRANCH   2   5
ATOM      5  C   UNL d   1       1.789   4.438  -1.365  0.00  0.00     0.036 A 
ATOM      6  C   UNL d   1       2.850   5.063  -2.025  0.00  0.00     0.045 A 
ATOM      7  C   UNL d   1       3.534   4.423  -3.074  0.00  0.00     0.050 A 
ATOM      8  C   UNL d   1       3.129   3.140  -3.470  0.00  0.00     0.032 A 
ATOM      9  C   UNL d   1       2.061   2.496  -2.830  0.00  0.00     0.050 A 
ATOM     10  C   UNL d   1       1.391   3.160  -1.783  0.00  0.00     0.045 A 
BRANCH   7  11
ATOM     11  C   UNL d   1       4.707   5.115  -3.727  0.00  0.00     0.417 C 
ATOM     12  F   UNL d   1       5.306   4.365  -4.693  0.00  0.00    -0.166 F 
ATOM     13  F   UNL d   1       5.689   5.423  -2.835  0.00  0.00    -0.166 F 
ATOM     14  F   UNL d   1       4.358   6.286  -4.325  0.00  0.00    -0.166 F 
ENDBRANCH   7  11
BRANCH   9  15
ATOM     15  C   UNL d   1       1.641   1.102  -3.239  0.00  0.00     0.417 C 
ATOM     16  F   UNL d   1       2.516   0.504  -4.093  0.00  0.00    -0.166 F 
ATOM     17  F   UNL d   1       1.527   0.261  -2.175  0.00  0.00    -0.166 F 
ATOM     18  F   UNL d   1       0.433   1.084  -3.864  0.00  0.00    -0.166 F 
ENDBRANCH   9  15
ENDBRANCH   2   5
BRANCH   1  19
ATOM     19  C   UNL d   1       0.680   6.423   1.679  0.00  0.00     0.309 C 
ATOM     20  N   UNL d   1       0.840   7.670   2.238  0.00  0.00    -0.349 N 
ATOM     21  H   UNL d   1       1.318   8.380   1.688  0.00  0.00     0.163 HD
ATOM     22  O   UNL d   1       0.094   5.475   2.185  0.00  0.00    -0.262 OA
BRANCH  20  23
ATOM     23  C   UNL d   1       0.352   7.970   3.560  0.00  0.00     0.161 C 
BRANCH  23  24
ATOM     24  C   UNL d   1       0.735   9.347   4.039  0.00  0.00    -0.041 A 
ATOM     25  C   UNL d   1      -0.252  10.312   4.290  0.00  0.00     0.009 A 
ATOM     26  C   UNL d   1       0.088  11.562   4.812  0.00  0.00     0.001 A 
ATOM     27  C   UNL d   1       1.420  11.866   5.084  0.00  0.00     0.000 A 
ATOM     28  C   UNL d   1       2.413  10.925   4.824  0.00  0.00     0.001 A 
ATOM     29  C   UNL d   1       2.074   9.672   4.303  0.00  0.00     0.009 A 
ENDBRANCH  23  24
ENDBRANCH  20  23
ENDBRANCH   1  19
TORSDOF 6
