REMARK  6 active torsions:
REMARK  status: ('A' for Active; 'I' for Inactive)
REMARK       I    between atoms: N_4  and  C_1 
REMARK    1  A    between atoms: C_8  and  C_1 
REMARK    2  A    between atoms: C_12  and  N_4 
REMARK    3  A    between atoms: C_5  and  C_10 
REMARK    4  A    between atoms: O_13  and  C_5 
REMARK    5  A    between atoms: C_6  and  C_8 
REMARK    6  A    between atoms: C_10  and  C_6 
ROOT
ATOM      1  N   UNL d   1      -6.922  -0.301  -0.203  0.00  0.00    -0.191 NA
ATOM      2  C   UNL d   1      -5.774  -0.185  -0.075  0.00  0.00     0.099 C 
ATOM      3  C   UNL d   1      -4.354  -0.054   0.079  0.00  0.00     0.044 A 
ATOM      4  C   UNL d   1      -1.555   0.136   0.353  0.00  0.00     0.034 A 
ATOM      5  C   UNL d   1      -3.562   0.308  -1.013  0.00  0.00     0.025 A 
ATOM      6  C   UNL d   1      -3.748  -0.305   1.312  0.00  0.00     0.025 A 
ATOM      7  C   UNL d   1      -2.172   0.405  -0.873  0.00  0.00     0.031 A 
ATOM      8  C   UNL d   1      -2.356  -0.216   1.446  0.00  0.00     0.031 A 
ENDROOT
BRANCH   4   9
ATOM      9  N   UNL d   1      -0.156   0.135   0.534  0.00  0.00    -0.327 N 
ATOM     10  C   UNL d   1       0.785   0.627  -0.356  0.00  0.00     0.222 C 
ATOM     11  O   UNL d   1       0.534   1.338  -1.321  0.00  0.00    -0.273 OA
ATOM     12  H   UNL d   1       0.186  -0.213   1.425  0.00  0.00     0.169 HD
BRANCH  10  13
ATOM     13  C   UNL d   1       2.202   0.143  -0.060  0.00  0.00     0.112 C 
BRANCH  13  14
ATOM     14  C   UNL d   1       3.344   1.152  -0.364  0.00  0.00    -0.030 C 
ATOM     15  C   UNL d   1       4.690   0.482  -0.006  0.00  0.00     0.016 C 
ATOM     16  C   UNL d   1       3.416   1.482  -1.874  0.00  0.00     0.016 C 
BRANCH  14  17
ATOM     17  C   UNL d   1       3.175   2.487   0.407  0.00  0.00     0.119 C 
BRANCH  17  18
ATOM     18  C   UNL d   1       3.075   2.386   1.917  0.00  0.00     0.140 C 
ATOM     19  O   UNL d   1       3.211   1.370   2.579  0.00  0.00    -0.650 OA
BRANCH  18  20
ATOM     20  O   UNL d   1       2.797   3.579   2.492  0.00  0.00    -0.776 OA
ATOM     21  H   UNL d   1       2.694   4.311   1.854  0.00  0.00     0.167 HD
ENDBRANCH  18  20
ENDBRANCH  17  18
ENDBRANCH  14  17
ENDBRANCH  13  14
ENDBRANCH  10  13
ENDBRANCH   4   9
TORSDOF 6
