REMARK  5 active torsions:
REMARK  status: ('A' for Active; 'I' for Inactive)
REMARK    1  A    between atoms: C_6  and  N_1 
REMARK    2  A    between atoms: C_12  and  C_6 
REMARK    3  A    between atoms: N_9  and  C_13 
REMARK    4  A    between atoms: C_13  and  C_12 
REMARK    5  A    between atoms: O_20  and  C_12 
ROOT
ATOM      1  N   UNL d   1       0.014  -1.417   0.346  0.00  0.00    -0.343 N 
ATOM      2  C   UNL d   1       0.414   0.756  -0.041  0.00  0.00     0.005 A 
ATOM      3  C   UNL d   1      -0.818   0.654   0.665  0.00  0.00     0.005 A 
ATOM      4  C   UNL d   1       0.927  -0.540  -0.223  0.00  0.00     0.046 A 
ATOM      5  C   UNL d   1      -1.053  -0.698   0.896  0.00  0.00     0.046 A 
ATOM      6  C   UNL d   1       2.144  -0.729  -0.903  0.00  0.00     0.032 A 
ATOM      7  C   UNL d   1      -2.228  -1.138   1.542  0.00  0.00     0.032 A 
ATOM      8  C   UNL d   1       1.116   1.865  -0.563  0.00  0.00     0.038 A 
ATOM      9  C   UNL d   1      -1.769   1.604   1.099  0.00  0.00     0.038 A 
ATOM     10  C   UNL d   1       2.310   1.668  -1.247  0.00  0.00     0.035 A 
ATOM     11  C   UNL d   1      -2.929   1.170   1.739  0.00  0.00     0.035 A 
ATOM     12  C   UNL d   1       2.823   0.390  -1.409  0.00  0.00     0.026 A 
ATOM     13  C   UNL d   1      -3.159  -0.182   1.958  0.00  0.00     0.026 A 
ATOM     14 CL   UNL d   1      -4.100   2.324   2.251  0.00  0.00    -0.084 Cl
ATOM     15 CL   UNL d   1       3.147   3.021  -1.903  0.00  0.00    -0.084 Cl
ENDROOT
BRANCH   1  16
ATOM     16  C   UNL d   1      -0.070  -2.865   0.249  0.00  0.00     0.163 C 
BRANCH  16  17
ATOM     17  C   UNL d   1       1.135  -3.787   0.038  0.00  0.00     0.164 C 
BRANCH  17  18
ATOM     18  C   UNL d   1       2.122  -3.821   1.232  0.00  0.00     0.305 C 
BRANCH  18  19
ATOM     19  N   UNL d   1       3.275  -4.732   1.131  0.00  0.00     0.090 N 
ATOM     20  C   UNL d   1       3.866  -4.947  -0.180  0.00  0.00     0.272 C 
ATOM     21  C   UNL d   1       4.795  -6.136   0.013  0.00  0.00     0.032 C 
ATOM     22  C   UNL d   1       4.306  -6.847   1.267  0.00  0.00     0.032 C 
ATOM     23  C   UNL d   1       3.145  -6.019   1.802  0.00  0.00     0.272 C 
ENDBRANCH  18  19
ENDBRANCH  17  18
BRANCH  17  24
ATOM     24  O   UNL d   1       0.576  -5.103  -0.159  0.00  0.00    -0.392 OA
ATOM     25  H   UNL d   1       1.304  -5.739  -0.066  0.00  0.00     0.210 HD
ENDBRANCH  17  24
ENDBRANCH  16  17
ENDBRANCH   1  16
TORSDOF 5
