REMARK  2 active torsions:
REMARK  status: ('A' for Active; 'I' for Inactive)
REMARK    1  A    between atoms: C_2  and  N_1 
REMARK    2  A    between atoms: N_4  and  C_3 
REMARK       I    between atoms: C_8  and  N_4 
ROOT
ATOM      1  C   UNL d   1       0.388  -1.085   0.694  0.00  0.00     0.131 A 
ATOM      2  C   UNL d   1      -0.615  -1.590  -0.153  0.00  0.00     0.068 A 
ATOM      3  N   UNL d   1       0.410  -3.873   4.676  0.00  0.00    -0.191 NA
ATOM      4  C   UNL d   1       0.202  -3.386   3.645  0.00  0.00     0.099 C 
ATOM      5  C   UNL d   1       0.671  -1.681   1.941  0.00  0.00     0.061 A 
ATOM      6  C   UNL d   1      -1.364  -2.682   0.320  0.00  0.00     0.034 A 
ATOM      7  C   UNL d   1      -0.065  -2.784   2.370  0.00  0.00     0.047 A 
ATOM      8  C   UNL d   1      -1.091  -3.276   1.561  0.00  0.00     0.025 A 
ENDROOT
BRANCH   1   9
ATOM      9  N   UNL d   1       1.041   0.195   0.462  0.00  0.00    -0.113 N 
ATOM     10  O   UNL d   1       0.302   1.181   0.320  0.00  0.00    -0.532 OA
ATOM     11  O   UNL d   1       2.274   0.225   0.574  0.00  0.00    -0.532 OA
ENDBRANCH   1   9
BRANCH   2  12
ATOM     12  N   UNL d   1      -0.977  -1.133  -1.445  0.00  0.00    -0.325 N 
ATOM     13  C   UNL d   1      -0.158  -0.479  -2.346  0.00  0.00     0.218 C 
ATOM     14  O   UNL d   1       1.038  -0.268  -2.190  0.00  0.00    -0.274 OA
ATOM     15  C   UNL d   1      -0.878  -0.065  -3.605  0.00  0.00     0.117 C 
ATOM     16  H   UNL d   1      -1.839  -1.501  -1.831  0.00  0.00     0.169 HD
ENDBRANCH   2  12
TORSDOF 2
