REMARK  7 active torsions:
REMARK  status: ('A' for Active; 'I' for Inactive)
REMARK    1  A    between atoms: C_3  and  S_1 
REMARK    2  A    between atoms: N_8  and  S_1 
REMARK    3  A    between atoms: S_2  and  C_9 
REMARK    4  A    between atoms: N_13  and  S_2 
REMARK    5  A    between atoms: C_10  and  C_4 
REMARK    6  A    between atoms: C_11  and  N_8 
REMARK    7  A    between atoms: O_22  and  C_10 
ROOT
ATOM      1  N   UNL d   1       0.745   1.562   0.654  0.00  0.00    -0.179 NA
ATOM      2  H   UNL d   1       0.302   2.292   0.093  0.00  0.00     0.146 HD
ENDROOT
BRANCH   1   3
ATOM      3  S   UNL d   1      -0.080   0.115   0.360  0.00  0.00     0.268 S 
ATOM      4  O   UNL d   1      -1.439   0.283   0.829  0.00  0.00    -0.204 OA
ATOM      5  O   UNL d   1       0.193  -0.261  -1.012  0.00  0.00    -0.204 OA
BRANCH   3   6
ATOM      6  C   UNL d   1       0.581  -1.218   1.358  0.00  0.00     0.186 A 
ATOM      7  C   UNL d   1      -0.078  -2.141   2.160  0.00  0.00     0.071 A 
ATOM      8  C   UNL d   1       0.895  -2.974   2.783  0.00  0.00     0.072 A 
ATOM      9  C   UNL d   1       2.110  -2.532   2.296  0.00  0.00     0.067 A 
ATOM     10  O   UNL d   1       1.929  -1.489   1.438  0.00  0.00    -0.301 OA
ATOM     11  C   UNL d   1       3.511  -2.949   2.527  0.00  0.00     0.078 C 
BRANCH   8  12
ATOM     12  C   UNL d   1       0.691  -4.052   3.734  0.00  0.00     0.295 C 
ATOM     13  O   UNL d   1       1.600  -4.701   4.235  0.00  0.00    -0.259 OA
BRANCH  12  14
ATOM     14  O   UNL d   1      -0.633  -4.234   4.013  0.00  0.00    -0.322 OA
ATOM     15  C   UNL d   1      -0.901  -5.266   4.962  0.00  0.00     0.213 C 
ENDBRANCH  12  14
ENDBRANCH   8  12
ENDBRANCH   3   6
ENDBRANCH   1   3
BRANCH   1  16
ATOM     16  C   UNL d   1       0.967   1.963   2.009  0.00  0.00     0.030 A 
ATOM     17  C   UNL d   1      -0.069   2.494   2.784  0.00  0.00     0.050 A 
ATOM     18  C   UNL d   1       0.210   2.938   4.085  0.00  0.00     0.081 A 
ATOM     19  C   UNL d   1       1.502   2.853   4.610  0.00  0.00     0.026 A 
ATOM     20  C   UNL d   1       2.524   2.318   3.835  0.00  0.00     0.010 A 
ATOM     21  C   UNL d   1       2.277   1.899   2.519  0.00  0.00    -0.040 A 
ATOM     22  C   UNL d   1       3.438   1.401   1.703  0.00  0.00     0.050 C 
BRANCH  18  23
ATOM     23  S   UNL d   1      -1.051   3.735   5.063  0.00  0.00     0.260 S 
ATOM     24  O   UNL d   1      -0.377   4.554   6.046  0.00  0.00    -0.200 OA
ATOM     25  O   UNL d   1      -2.011   4.308   4.140  0.00  0.00    -0.200 OA
BRANCH  23  26
ATOM     26  N   UNL d   1      -1.787   2.433   5.875  0.00  0.00    -0.315 N 
ATOM     27  C   UNL d   1      -2.662   1.566   5.071  0.00  0.00     0.162 C 
ATOM     28  C   UNL d   1      -0.951   1.702   6.842  0.00  0.00     0.162 C 
ENDBRANCH  23  26
ENDBRANCH  18  23
ENDBRANCH   1  16
TORSDOF 7
