REMARK  6 active torsions:
REMARK  status: ('A' for Active; 'I' for Inactive)
REMARK    1  A    between atoms: C_13  and  C_1 
REMARK    2  A    between atoms: C_6  and  S_16 
REMARK    3  A    between atoms: S_21  and  C_7 
REMARK    4  A    between atoms: C_18  and  C_13 
REMARK    5  A    between atoms: S_16  and  C_18 
REMARK    6  A    between atoms: C_26  and  S_21 
ROOT
ATOM      1  C   UNL d   1       7.871  -9.582   0.930  0.00  0.00    -0.107 C 
ATOM      2  C   UNL d   1       7.952 -10.760   1.150  0.00  0.00     0.013 C 
ATOM      3  C   UNL d   1       7.759  -8.127   0.683  0.00  0.00     0.174 C 
ENDROOT
BRANCH   3   4
ATOM      4  S   UNL d   1       7.184  -7.282   2.177  0.00  0.00    -0.091 SA
BRANCH   4   5
ATOM      5  C   UNL d   1       6.811  -5.664   1.633  0.00  0.00     0.130 A 
ATOM      6  S   UNL d   1       6.481  -4.419   2.768  0.00  0.00    -0.038 SA
ATOM      7  C   UNL d   1       6.000  -3.436   1.448  0.00  0.00     0.129 A 
ATOM      8  N   UNL d   1       6.203  -3.984   0.268  0.00  0.00    -0.287 N 
ATOM      9  N   UNL d   1       6.680  -5.293   0.377  0.00  0.00    -0.287 N 
ATOM     10  HN  UNL d   1       6.033  -3.510  -0.619  1.00  0.00     0.188 HD
ATOM     11  HN  UNL d   1       6.900  -5.890  -0.421  1.00  0.00     0.188 HD
BRANCH   7  12
ATOM     12  S   UNL d   1       5.256  -1.874   1.716  0.00  0.00    -0.096 SA
BRANCH  12  13
ATOM     13  C   UNL d   1       4.825  -1.338   0.041  0.00  0.00     0.166 C 
BRANCH  13  14
ATOM     14  C   UNL d   1       3.943  -0.089   0.107  0.00  0.00     0.176 C 
ATOM     15  O   UNL d   1       4.505   1.010   0.190  0.00  0.00    -0.291 OA
BRANCH  14  16
ATOM     16  C   UNL d   1       2.472  -0.203   0.056  0.00  0.00     0.059 A 
ATOM     17  S   UNL d   1       1.708  -1.730   0.172  0.00  0.00    -0.085 SA
ATOM     18  C   UNL d   1       0.134  -1.087  -0.035  0.00  0.00     0.016 A 
ATOM     19  C   UNL d   1      -1.080  -1.806  -0.071  0.00  0.00     0.021 A 
ATOM     20  C   UNL d   1       0.171   0.299  -0.174  0.00  0.00    -0.010 A 
ATOM     21  C   UNL d   1      -2.277  -1.112  -0.275  0.00  0.00     0.025 A 
ATOM     22  C   UNL d   1      -2.263   0.264  -0.439  0.00  0.00     0.035 A 
ATOM     23  C   UNL d   1      -1.062   0.974  -0.388  0.00  0.00     0.037 A 
ATOM     24 CL   UNL d   1      -3.739   1.107  -0.708  0.00  0.00    -0.084 Cl
ATOM     25  C   UNL d   1       1.525   0.817  -0.068  0.00  0.00    -0.029 A 
ATOM     26  C   UNL d   1       1.811   2.290  -0.131  0.00  0.00     0.050 C 
ENDBRANCH  14  16
ENDBRANCH  13  14
ENDBRANCH  12  13
ENDBRANCH   7  12
ENDBRANCH   4   5
ENDBRANCH   3   4
TORSDOF 6
