REMARK  4 active torsions:
REMARK  status: ('A' for Active; 'I' for Inactive)
REMARK       I    between atoms: N_2  and  C_1 
REMARK       I    between atoms: N_3  and  C_1 
REMARK    1  A    between atoms: C_5  and  N_3 
REMARK       I    between atoms: C_4  and  N_7 
REMARK    2  A    between atoms: O_9  and  C_4 
REMARK    3  A    between atoms: N_7  and  C_18 
REMARK    4  A    between atoms: C_15  and  O_9 
ROOT
ATOM      1  C   UNL d   1       1.077   0.327   0.519  0.00  0.00     0.323 C 
ATOM      2  N   UNL d   1       0.973  -1.060   0.645  0.00  0.00    -0.334 N 
ATOM      3  N   UNL d   1       1.165   0.757  -0.788  0.00  0.00    -0.306 N 
ATOM      4  O   UNL d   1       1.169   1.063   1.498  0.00  0.00    -0.247 OA
ATOM      5  C   UNL d   1       1.191  -1.659   1.952  0.00  0.00     0.129 C 
ATOM      6  C   UNL d   1       0.209  -1.911  -0.259  0.00  0.00     0.129 C 
ATOM      7  C   UNL d   1      -1.179  -2.199   0.315  0.00  0.00     0.045 C 
ATOM      8  C   UNL d   1      -0.125  -1.869   2.679  0.00  0.00     0.045 C 
ATOM      9  C   UNL d   1      -1.217  -2.525   1.820  0.00  0.00     0.089 C 
ATOM     10  H   UNL d   1       1.530   0.062  -1.427  0.00  0.00     0.171 HD
ENDROOT
BRANCH   3  11
ATOM     11  C   UNL d   1       1.386   2.097  -1.189  0.00  0.00     0.075 A 
ATOM     12  C   UNL d   1       2.104   2.312  -2.375  0.00  0.00     0.146 A 
ATOM     13  C   UNL d   1       2.434   3.591  -2.808  0.00  0.00     0.086 A 
ATOM     14  F   UNL d   1       2.527   1.256  -3.090  0.00  0.00    -0.204 F 
ATOM     15  C   UNL d   1       2.007   4.677  -2.059  0.00  0.00     0.119 A 
ATOM     16  C   UNL d   1       1.252   4.499  -0.903  0.00  0.00     0.044 A 
ATOM     17  F   UNL d   1       2.327   5.916  -2.454  0.00  0.00    -0.206 F 
ATOM     18  C   UNL d   1       0.941   3.206  -0.464  0.00  0.00     0.036 A 
ENDBRANCH   3  11
BRANCH   9  19
ATOM     19  N   UNL d   1      -1.450  -3.928   2.162  0.00  0.00    -0.332 N 
ATOM     20  C   UNL d   1      -0.808  -5.085   1.847  0.00  0.00     0.361 C 
ATOM     21  O   UNL d   1      -1.152  -6.127   2.383  0.00  0.00    -0.238 OA
ATOM     22  H   UNL d   1      -2.145  -4.101   2.876  0.00  0.00     0.165 HD
BRANCH  20  23
ATOM     23  O   UNL d   1       0.164  -4.959   0.915  0.00  0.00    -0.294 OA
BRANCH  23  24
ATOM     24  C   UNL d   1       0.855  -6.161   0.460  0.00  0.00     0.061 C 
ATOM     25  C   UNL d   1      -0.116  -7.191  -0.139  0.00  0.00     0.046 C 
ATOM     26  C   UNL d   1       1.800  -5.686  -0.655  0.00  0.00     0.046 C 
ATOM     27  C   UNL d   1       1.701  -6.774   1.585  0.00  0.00     0.046 C 
ENDBRANCH  23  24
ENDBRANCH  20  23
ENDBRANCH   9  19
TORSDOF 4
