REMARK  4 active torsions:
REMARK  status: ('A' for Active; 'I' for Inactive)
REMARK    1  A    between atoms: C_2  and  S_1 
REMARK    2  A    between atoms: N_10  and  S_1 
REMARK    3  A    between atoms: S_18  and  C_4 
REMARK    4  A    between atoms: C_17  and  N_10 
ROOT
ATOM      1  C   UNL d   1       0.949   7.136   2.122  0.00  0.00     0.112 A 
ATOM      2  N   UNL d   1       2.010   6.368   2.072  0.00  0.00    -0.344 N 
ATOM      3  HN  UNL d   1       2.937   6.626   2.411  1.00  0.00     0.167 HD
ATOM      4  S   UNL d   1      -0.491   6.475   1.471  0.00  0.00    -0.063 SA
ATOM      5  C   UNL d   1       0.350   5.023   1.099  0.00  0.00     0.036 A 
ATOM      6  C   UNL d   1       1.686   5.156   1.490  0.00  0.00     0.050 A 
ATOM      7  C   UNL d   1      -0.127   3.858   0.488  0.00  0.00     0.051 A 
ATOM      8  C   UNL d   1       0.761   2.800   0.274  0.00  0.00     0.044 A 
ATOM      9  C   UNL d   1       2.567   4.074   1.263  0.00  0.00     0.033 A 
ATOM     10  C   UNL d   1       2.094   2.900   0.657  0.00  0.00     0.032 A 
ENDROOT
BRANCH   8  11
ATOM     11  N   UNL d   1       0.244   1.658  -0.407  0.00  0.00    -0.280 N 
ATOM     12  H   UNL d   1       0.738   1.370  -1.252  0.00  0.00     0.179 HD
BRANCH  11  13
ATOM     13  S   UNL d   1      -0.264   0.317   0.488  0.00  0.00     0.269 S 
ATOM     14  O   UNL d   1      -0.718  -0.668  -0.471  0.00  0.00    -0.200 OA
ATOM     15  O   UNL d   1       0.752  -0.009   1.467  0.00  0.00    -0.200 OA
BRANCH  13  16
ATOM     16  C   UNL d   1      -1.700   0.758   1.441  0.00  0.00     0.121 A 
ATOM     17  S   UNL d   1      -3.046   1.351   0.558  0.00  0.00    -0.069 SA
ATOM     18  C   UNL d   1      -3.945   1.568   1.976  0.00  0.00     0.052 A 
ATOM     19 BR   UNL d   1      -5.687   2.257   1.987  0.00  0.00    -0.043 Br
ATOM     20  C   UNL d   1      -3.275   1.185   3.113  0.00  0.00     0.028 A 
ATOM     21  C   UNL d   1      -1.968   0.709   2.794  0.00  0.00     0.035 A 
ENDBRANCH  13  16
ENDBRANCH  11  13
ENDBRANCH   8  11
BRANCH   1  22
ATOM     22  S   UNL d   1       0.989   8.746   2.813  0.00  0.00    -0.109 SA
ATOM     23  C   UNL d   1       2.716   8.847   3.327  0.00  0.00     0.097 C 
ENDBRANCH   1  22
TORSDOF 4
