REMARK  8 active torsions:
REMARK  status: ('A' for Active; 'I' for Inactive)
REMARK    1  A    between atoms: C_3  and  CA_1 
REMARK    2  A    between atoms: N_4  and  CA_1 
REMARK    3  A    between atoms: C_8  and  C_2 
REMARK    4  A    between atoms: OXT_14  and  C_3 
REMARK       I    between atoms: C_5  and  N_4 
REMARK    5  A    between atoms: O_17  and  C_6 
REMARK    6  A    between atoms: O_10  and  C_7 
REMARK    7  A    between atoms: C_16  and  O_10 
REMARK    8  A    between atoms: C_18  and  C_16 
ROOT
ATOM      1  C   UNL d   1       2.884  -3.993  -0.107  0.00  0.00     0.102 A 
ATOM      2  C   UNL d   1       2.526  -4.732  -1.249  0.00  0.00     0.102 A 
ATOM      3  C   UNL d   1       1.079  -2.427  -0.560  0.00  0.00    -0.031 A 
ATOM      4  C   UNL d   1       2.139  -2.857   0.240  0.00  0.00     0.051 A 
ATOM      5  C   UNL d   1       1.488  -4.274  -2.068  0.00  0.00     0.040 A 
ATOM      6  C   UNL d   1       0.763  -3.131  -1.724  0.00  0.00     0.014 A 
ENDROOT
BRANCH   3   7
ATOM      7  C   UNL d   1       0.369  -1.174  -0.283  0.00  0.00     0.048 C 
ATOM      8  CA  UNL d   1      -0.762  -1.004   0.429  0.00  0.00     0.110 C 
BRANCH   8   9
ATOM      9  C   UNL d   1      -1.512   0.291   0.344  0.00  0.00     0.193 C 
ATOM     10  O   UNL d   1      -2.716   0.334   0.568  0.00  0.00    -0.645 OA
BRANCH   9  11
ATOM     11  OXT UNL d   1      -0.787   1.389   0.054  0.00  0.00    -0.772 OA
ATOM     12  HXT UNL d   1       0.179   1.274   0.107  0.00  0.00     0.167 HD
ENDBRANCH   9  11
ENDBRANCH   8   9
BRANCH   8  13
ATOM     13  N   UNL d   1      -1.436  -1.992   1.132  0.00  0.00    -0.322 N 
ATOM     14  C   UNL d   1      -0.876  -2.782   2.116  0.00  0.00     0.218 C 
ATOM     15  O   UNL d   1       0.273  -2.683   2.537  0.00  0.00    -0.274 OA
ATOM     16  C   UNL d   1      -1.841  -3.788   2.691  0.00  0.00     0.117 C 
ATOM     17  H   UNL d   1      -2.421  -1.771   1.286  0.00  0.00     0.169 HD
ENDBRANCH   8  13
ENDBRANCH   3   7
BRANCH   1  18
ATOM     18  O   UNL d   1       3.956  -4.444   0.626  0.00  0.00    -0.353 OA
ATOM     19  C   UNL d   1       4.590  -3.472   1.454  0.00  0.00     0.210 C 
ENDBRANCH   1  18
BRANCH   2  20
ATOM     20  O   UNL d   1       3.251  -5.870  -1.520  0.00  0.00    -0.344 OA
BRANCH  20  21
ATOM     21  C   UNL d   1       2.604  -6.815  -2.377  0.00  0.00     0.214 C 
BRANCH  21  22
ATOM     22  C   UNL d   1       3.171  -8.209  -2.240  0.00  0.00    -0.034 A 
ATOM     23  C   UNL d   1       3.798  -8.639  -1.065  0.00  0.00     0.009 A 
ATOM     24  C   UNL d   1       4.219  -9.963  -0.933  0.00  0.00     0.001 A 
ATOM     25  C   UNL d   1       4.008 -10.872  -1.969  0.00  0.00     0.000 A 
ATOM     26  C   UNL d   1       3.382 -10.458  -3.142  0.00  0.00     0.001 A 
ATOM     27  C   UNL d   1       2.962  -9.134  -3.275  0.00  0.00     0.009 A 
ENDBRANCH  21  22
ENDBRANCH  20  21
ENDBRANCH   2  20
TORSDOF 8
