REMARK  4 active torsions:
REMARK  status: ('A' for Active; 'I' for Inactive)
REMARK    1  A    between atoms: N_2  and  C_1 
REMARK    2  A    between atoms: N_3  and  C_6 
REMARK    3  A    between atoms: N_7  and  C_5 
REMARK    4  A    between atoms: C_14  and  N_7 
ROOT
ATOM      1  C   UNL d   1       1.352  -0.312   0.158  0.00  0.00     0.131 A 
ATOM      2  C   UNL d   1       0.452  -1.388   0.210  0.00  0.00     0.074 A 
ATOM      3  C   UNL d   1       0.937   1.019  -0.037  0.00  0.00     0.066 A 
ATOM      4  C   UNL d   1      -0.912  -1.122   0.069  0.00  0.00     0.105 A 
ATOM      5  C   UNL d   1      -0.446   1.245  -0.141  0.00  0.00     0.034 A 
ATOM      6  C   UNL d   1      -1.367   0.191  -0.095  0.00  0.00     0.038 A 
ENDROOT
BRANCH   3   7
ATOM      7  N   UNL d   1       1.852   2.094  -0.091  0.00  0.00    -0.354 N 
ATOM      8  H   UNL d   1       2.623   1.935  -0.741  0.00  0.00     0.166 HD
BRANCH   7   9
ATOM      9  C   UNL d   1       1.608   3.454   0.181  0.00  0.00     0.032 A 
ATOM     10  C   UNL d   1       0.891   3.843   1.321  0.00  0.00     0.029 A 
ATOM     11  C   UNL d   1       0.585   5.183   1.555  0.00  0.00     0.002 A 
ATOM     12  C   UNL d   1       0.984   6.156   0.639  0.00  0.00     0.000 A 
ATOM     13  C   UNL d   1       1.698   5.784  -0.498  0.00  0.00     0.002 A 
ATOM     14  C   UNL d   1       2.011   4.440  -0.725  0.00  0.00     0.029 A 
ENDBRANCH   7   9
ENDBRANCH   3   7
BRANCH   1  15
ATOM     15  N   UNL d   1       2.759  -0.607   0.353  0.00  0.00    -0.113 N 
ATOM     16  O   UNL d   1       3.069  -1.225   1.379  0.00  0.00    -0.532 OA
ATOM     17  O   UNL d   1       3.539  -0.244  -0.541  0.00  0.00    -0.532 OA
ENDBRANCH   1  15
BRANCH   4  18
ATOM     18  N   UNL d   1      -1.879  -2.228   0.082  0.00  0.00    -0.116 N 
ATOM     19  O   UNL d   1      -1.428  -3.378   0.156  0.00  0.00    -0.532 OA
ATOM     20  O   UNL d   1      -3.081  -1.943   0.009  0.00  0.00    -0.532 OA
ENDBRANCH   4  18
TORSDOF 4
