REMARK  6 active torsions:
REMARK  status: ('A' for Active; 'I' for Inactive)
REMARK    1  A    between atoms: N_5  and  C_1 
REMARK    2  A    between atoms: N_6  and  C_2 
REMARK    3  A    between atoms: C_9  and  N_5 
REMARK    4  A    between atoms: C_10  and  N_6 
REMARK    5  A    between atoms: O_15  and  C_13 
REMARK    6  A    between atoms: O_16  and  C_14 
ROOT
ATOM      1  C   UNL d   1       0.684  -1.409  -0.113  0.00  0.00     0.118 A 
ATOM      2  C   UNL d   1      -0.689  -1.438  -0.107  0.00  0.00     0.118 A 
ATOM      3  C   UNL d   1       0.712   0.062   0.052  0.00  0.00     0.253 A 
ATOM      4  C   UNL d   1      -0.780   0.035  -0.026  0.00  0.00     0.253 A 
ATOM      5  O   UNL d   1       1.506   0.958   0.132  0.00  0.00    -0.281 OA
ATOM      6  O   UNL d   1      -1.622   0.885   0.048  0.00  0.00    -0.281 OA
ENDROOT
BRANCH   1   7
ATOM      7  N   UNL d   1       1.665  -2.279  -0.203  0.00  0.00    -0.351 N 
ATOM      8  H   UNL d   1       2.421  -2.311   0.475  0.00  0.00     0.166 HD
BRANCH   7   9
ATOM      9  C   UNL d   1       1.880  -3.186  -1.274  0.00  0.00     0.035 A 
ATOM     10  C   UNL d   1       1.060  -3.206  -2.410  0.00  0.00     0.066 A 
ATOM     11  C   UNL d   1       1.305  -4.086  -3.466  0.00  0.00     0.070 A 
ATOM     12  C   UNL d   1       2.380  -4.970  -3.378  0.00  0.00     0.037 A 
ATOM     13  C   UNL d   1       3.211  -4.963  -2.258  0.00  0.00     0.005 A 
ATOM     14  C   UNL d   1       2.959  -4.073  -1.211  0.00  0.00     0.029 A 
BRANCH  11  15
ATOM     15  O   UNL d   1       0.568  -4.162  -4.618  0.00  0.00    -0.356 OA
ATOM     16  C   UNL d   1      -0.523  -3.253  -4.727  0.00  0.00     0.210 C 
ENDBRANCH  11  15
ENDBRANCH   7   9
ENDBRANCH   1   7
BRANCH   2  17
ATOM     17  N   UNL d   1      -1.641  -2.345  -0.140  0.00  0.00    -0.351 N 
ATOM     18  H   UNL d   1      -2.454  -2.245  -0.741  0.00  0.00     0.166 HD
BRANCH  17  19
ATOM     19  C   UNL d   1      -1.776  -3.407   0.789  0.00  0.00     0.035 A 
ATOM     20  C   UNL d   1      -0.885  -3.550   1.866  0.00  0.00     0.066 A 
ATOM     21  C   UNL d   1      -0.959  -4.627   2.744  0.00  0.00     0.070 A 
ATOM     22  C   UNL d   1      -1.958  -5.577   2.556  0.00  0.00     0.037 A 
ATOM     23  C   UNL d   1      -2.874  -5.443   1.509  0.00  0.00     0.005 A 
ATOM     24  C   UNL d   1      -2.779  -4.365   0.626  0.00  0.00     0.029 A 
BRANCH  21  25
ATOM     25  O   UNL d   1      -0.111  -4.844   3.796  0.00  0.00    -0.356 OA
ATOM     26  C   UNL d   1       0.919  -3.877   3.986  0.00  0.00     0.210 C 
ENDBRANCH  21  25
ENDBRANCH  17  19
ENDBRANCH   2  17
TORSDOF 6
