REMARK  6 active torsions:
REMARK  status: ('A' for Active; 'I' for Inactive)
REMARK    1  A    between atoms: C_11  and  N_1 
REMARK    2  A    between atoms: N_2  and  C_10 
REMARK       I    between atoms: C_3  and  N_8 
REMARK       I    between atoms: N_9  and  C_3 
REMARK    3  A    between atoms: N_4  and  N_9 
REMARK    4  A    between atoms: N_8  and  N_6 
REMARK    5  A    between atoms: C_19  and  C_14 
REMARK    6  A    between atoms: C_15  and  C_18 
ROOT
ATOM      1  C   UNL d   1      -3.017   2.622  -4.617  0.00  0.00     0.353 C 
ATOM      2  N   UNL d   1      -3.525   3.052  -3.384  0.00  0.00    -0.250 N 
ATOM      3  N   UNL d   1      -3.741   3.171  -5.679  0.00  0.00    -0.250 N 
ATOM      4  O   UNL d   1      -2.059   1.863  -4.748  0.00  0.00    -0.244 OA
ATOM      5  H   UNL d   1      -4.304   3.684  -3.363  0.00  0.00     0.192 HD
ATOM      6  H   UNL d   1      -4.540   3.743  -5.473  0.00  0.00     0.192 HD
ENDROOT
BRANCH   2   7
ATOM      7  N   UNL d   1      -2.963   2.607  -2.225  0.00  0.00    -0.300 N 
ATOM      8  C   UNL d   1      -3.410   2.968  -1.058  0.00  0.00     0.032 C 
ATOM      9  C   UNL d   1      -4.574   3.908  -0.814  0.00  0.00     0.070 C 
ATOM     10  HN  UNL d   1      -2.168   1.970  -2.275  1.00  0.00     0.186 HD
BRANCH   8  11
ATOM     11  C   UNL d   1      -2.727   2.387   0.160  0.00  0.00    -0.012 A 
ATOM     12  C   UNL d   1      -1.653   1.498  -0.021  0.00  0.00     0.016 A 
ATOM     13  C   UNL d   1      -1.026   0.893   1.076  0.00  0.00     0.037 A 
ATOM     14  C   UNL d   1      -1.472   1.180   2.369  0.00  0.00     0.102 A 
ATOM     15  C   UNL d   1      -2.524   2.083   2.570  0.00  0.00     0.037 A 
ATOM     16  C   UNL d   1      -3.146   2.684   1.466  0.00  0.00     0.016 A 
BRANCH  14  17
ATOM     17  N   UNL d   1      -0.848   0.520   3.524  0.00  0.00    -0.116 N 
ATOM     18  O   UNL d   1      -1.284   0.797   4.650  0.00  0.00    -0.532 OA
ATOM     19  O   UNL d   1       0.073  -0.280   3.304  0.00  0.00    -0.532 OA
ENDBRANCH  14  17
ENDBRANCH   8  11
ENDBRANCH   2   7
BRANCH   3  20
ATOM     20  N   UNL d   1      -3.415   2.876  -6.973  0.00  0.00    -0.300 N 
ATOM     21  C   UNL d   1      -4.104   3.362  -7.966  0.00  0.00     0.032 C 
ATOM     22  C   UNL d   1      -5.304   4.281  -7.830  0.00  0.00     0.070 C 
ATOM     23  HN  UNL d   1      -2.620   2.266  -7.164  1.00  0.00     0.186 HD
BRANCH  21  24
ATOM     24  C   UNL d   1      -3.691   2.995  -9.375  0.00  0.00    -0.012 A 
ATOM     25  C   UNL d   1      -2.611   2.120  -9.585  0.00  0.00     0.016 A 
ATOM     26  C   UNL d   1      -2.230   1.748 -10.884  0.00  0.00     0.037 A 
ATOM     27  C   UNL d   1      -2.933   2.255 -11.985  0.00  0.00     0.102 A 
ATOM     28  C   UNL d   1      -4.001   3.137 -11.792  0.00  0.00     0.037 A 
ATOM     29  C   UNL d   1      -4.372   3.505 -10.494  0.00  0.00     0.016 A 
BRANCH  27  30
ATOM     30  N   UNL d   1      -2.561   1.857 -13.349  0.00  0.00    -0.116 N 
ATOM     31  O   UNL d   1      -1.625   1.055 -13.482  0.00  0.00    -0.532 OA
ATOM     32  O   UNL d   1      -3.210   2.342 -14.287  0.00  0.00    -0.532 OA
ENDBRANCH  27  30
ENDBRANCH  21  24
ENDBRANCH   3  20
TORSDOF 6
