REMARK  3 active torsions:
REMARK  status: ('A' for Active; 'I' for Inactive)
REMARK       I    between atoms: N_2  and  C_1 
REMARK    1  A    between atoms: C_7  and  C_1 
REMARK    2  A    between atoms: C_4  and  N_2 
REMARK    3  A    between atoms: N_3  and  C_5 
ROOT
ATOM      1  C   UNL d   1       0.841  -2.336   0.047  0.00  0.00     0.061 A 
ATOM      2  C   UNL d   1       1.920  -2.448   0.965  0.00  0.00     0.057 A 
ATOM      3  C   UNL d   1       0.389  -3.448  -0.681  0.00  0.00     0.032 A 
ATOM      4  C   UNL d   1       2.519  -3.716   1.077  0.00  0.00     0.031 A 
ATOM      5  C   UNL d   1       1.011  -4.684  -0.547  0.00  0.00     0.002 A 
ATOM      6  C   UNL d   1       2.078  -4.818   0.329  0.00  0.00     0.002 A 
ENDROOT
BRANCH   1   7
ATOM      7  N   UNL d   1       0.289  -1.062  -0.227  0.00  0.00    -0.321 N 
ATOM      8  C   UNL d   1      -1.042  -0.841  -0.515  0.00  0.00     0.256 C 
ATOM      9  O   UNL d   1      -1.942  -1.674  -0.460  0.00  0.00    -0.267 OA
ATOM     10  H   UNL d   1       0.869  -0.276   0.044  0.00  0.00     0.169 HD
BRANCH   8  11
ATOM     11  C   UNL d   1      -1.401   0.552  -0.855  0.00  0.00     0.032 A 
ATOM     12  C   UNL d   1      -0.654   1.268  -1.796  0.00  0.00     0.017 A 
ATOM     13  C   UNL d   1      -1.090   2.531  -2.203  0.00  0.00     0.001 A 
ATOM     14  C   UNL d   1      -2.256   3.078  -1.662  0.00  0.00     0.000 A 
ATOM     15  C   UNL d   1      -2.989   2.370  -0.710  0.00  0.00     0.001 A 
ATOM     16  C   UNL d   1      -2.566   1.102  -0.310  0.00  0.00     0.017 A 
ENDBRANCH   8  11
ENDBRANCH   1   7
BRANCH   2  17
ATOM     17  N   UNL d   1       2.357  -1.361   1.728  0.00  0.00    -0.375 N 
ATOM     18  C   UNL d   1       1.372  -0.563   2.495  0.00  0.00     0.149 C 
ATOM     19  C   UNL d   1       1.573  -0.683   4.012  0.00  0.00     0.187 C 
ATOM     20  O   UNL d   1       2.933  -0.448   4.400  0.00  0.00    -0.388 OA
ATOM     21  C   UNL d   1       3.787  -1.410   3.768  0.00  0.00     0.187 C 
ATOM     22  C   UNL d   1       3.737  -1.267   2.238  0.00  0.00     0.149 C 
ENDBRANCH   2  17
TORSDOF 3
