REMARK  5 active torsions:
REMARK  status: ('A' for Active; 'I' for Inactive)
REMARK    1  A    between atoms: C_11  and  C_1 
REMARK       I    between atoms: C_5  and  N_8 
REMARK    2  A    between atoms: C_6  and  C_5 
REMARK    3  A    between atoms: N_8  and  C_11 
REMARK    4  A    between atoms: O_20  and  C_10 
REMARK    5  A    between atoms: O_22  and  C_13 
ROOT
ATOM      1  C   UNL d   1       4.310  -3.739  -0.163  0.00  0.00     0.252 C 
ATOM      2  N   UNL d   1       3.530  -2.609  -0.241  0.00  0.00    -0.353 N 
ATOM      3  O   UNL d   1       5.535  -3.718  -0.099  0.00  0.00    -0.268 OA
ATOM      4  H   UNL d   1       2.568  -2.685  -0.540  0.00  0.00     0.163 HD
ENDROOT
BRANCH   2   5
ATOM      5  C   UNL d   1       4.103  -1.289  -0.119  0.00  0.00     0.162 C 
BRANCH   5   6
ATOM      6  C   UNL d   1       4.360  -0.723  -1.480  0.00  0.00    -0.022 A 
ATOM      7  C   UNL d   1       3.405   0.032  -2.267  0.00  0.00    -0.009 A 
ATOM      8  C   UNL d   1       3.954   0.444  -3.486  0.00  0.00     0.015 A 
ATOM      9  C   UNL d   1       2.061   0.397  -1.992  0.00  0.00     0.037 A 
ATOM     10  C   UNL d   1       3.210   1.192  -4.422  0.00  0.00     0.021 A 
ATOM     11  S   UNL d   1       5.585  -0.074  -3.652  0.00  0.00    -0.101 SA
ATOM     12  C   UNL d   1       1.889   1.530  -4.123  0.00  0.00     0.025 A 
ATOM     13  C   UNL d   1       1.324   1.137  -2.920  0.00  0.00     0.035 A 
ATOM     14 CL   UNL d   1      -0.305   1.560  -2.561  0.00  0.00    -0.084 Cl
ATOM     15  C   UNL d   1       5.571  -0.842  -2.135  0.00  0.00     0.060 A 
ENDBRANCH   5   6
ENDBRANCH   2   5
BRANCH   1  16
ATOM     16  C   UNL d   1       3.591  -5.042  -0.128  0.00  0.00     0.034 A 
ATOM     17  C   UNL d   1       2.345  -5.165   0.501  0.00  0.00     0.056 A 
ATOM     18  C   UNL d   1       1.753  -6.425   0.653  0.00  0.00     0.102 A 
ATOM     19  C   UNL d   1       2.405  -7.571   0.149  0.00  0.00     0.101 A 
ATOM     20  C   UNL d   1       3.635  -7.437  -0.501  0.00  0.00     0.040 A 
ATOM     21  C   UNL d   1       4.233  -6.179  -0.627  0.00  0.00     0.020 A 
BRANCH  18  22
ATOM     22  O   UNL d   1       0.561  -6.645   1.298  0.00  0.00    -0.353 OA
ATOM     23  C   UNL d   1      -0.091  -5.533   1.895  0.00  0.00     0.210 C 
ENDBRANCH  18  22
BRANCH  19  24
ATOM     24  O   UNL d   1       1.767  -8.768   0.363  0.00  0.00    -0.353 OA
ATOM     25  C   UNL d   1       2.425  -9.954  -0.059  0.00  0.00     0.210 C 
ENDBRANCH  19  24
ENDBRANCH   1  16
TORSDOF 5
