REMARK  8 active torsions:
REMARK  status: ('A' for Active; 'I' for Inactive)
REMARK    1  A    between atoms: N_14  and  C_1 
REMARK    2  A    between atoms: C_7  and  C_2 
REMARK    3  A    between atoms: C_11  and  N_3 
REMARK       I    between atoms: N_9  and  C_7 
REMARK    4  A    between atoms: C_8  and  N_10 
REMARK    5  A    between atoms: N_13  and  C_8 
REMARK    6  A    between atoms: N_10  and  N_9 
REMARK    7  A    between atoms: C_16  and  N_13 
REMARK    8  A    between atoms: C_17  and  C_16 
ROOT
ATOM      1  C   UNL d   1      -0.721  -2.567   0.194  0.00  0.00     0.274 C 
ATOM      2  N   UNL d   1       0.094  -3.554  -0.338  0.00  0.00    -0.264 N 
ATOM      3  O   UNL d   1      -1.805  -2.775   0.729  0.00  0.00    -0.266 OA
ATOM      4  H   UNL d   1       1.082  -3.314  -0.436  0.00  0.00     0.190 HD
ENDROOT
BRANCH   1   5
ATOM      5  C   UNL d   1      -0.166  -1.221   0.131  0.00  0.00     0.090 A 
ATOM      6  C   UNL d   1       1.052  -0.750  -0.344  0.00  0.00     0.118 A 
ATOM      7  N   UNL d   1       1.067   0.632  -0.059  0.00  0.00    -0.245 N 
ATOM      8  N   UNL d   1      -0.045   1.012   0.623  0.00  0.00    -0.303 N 
ATOM      9  C   UNL d   1      -0.802  -0.080   0.661  0.00  0.00     0.128 A 
ATOM     10  HN  UNL d   1      -0.253   1.929   1.017  1.00  0.00     0.186 HD
BRANCH   6  11
ATOM     11  N   UNL d   1       2.110  -1.438  -0.879  0.00  0.00    -0.286 NA
ATOM     12  H   UNL d   1       1.921  -1.938  -1.750  0.00  0.00     0.125 HD
ATOM     13  H   UNL d   1       2.998  -0.952  -0.968  0.00  0.00     0.125 HD
ENDBRANCH   6  11
BRANCH   7  14
ATOM     14  C   UNL d   1       2.042   1.618  -0.387  0.00  0.00     0.058 A 
ATOM     15  C   UNL d   1       2.819   1.525  -1.547  0.00  0.00     0.031 A 
ATOM     16  C   UNL d   1       3.784   2.499  -1.819  0.00  0.00     0.002 A 
ATOM     17  C   UNL d   1       3.978   3.563  -0.936  0.00  0.00     0.000 A 
ATOM     18  C   UNL d   1       3.181   3.679   0.200  0.00  0.00     0.002 A 
ATOM     19  C   UNL d   1       2.201   2.721   0.466  0.00  0.00     0.031 A 
ENDBRANCH   7  14
ENDBRANCH   1   5
BRANCH   2  20
ATOM     20  N   UNL d   1      -0.209  -4.920  -0.225  0.00  0.00    -0.274 N 
ATOM     21  H   UNL d   1       0.417  -5.491   0.339  0.00  0.00     0.189 HD
BRANCH  20  22
ATOM     22  C   UNL d   1      -1.207  -5.550  -0.938  0.00  0.00     0.186 C 
ATOM     23  S   UNL d   1      -2.555  -4.882  -1.658  0.00  0.00    -0.040 SA
BRANCH  22  24
ATOM     24  N   UNL d   1      -1.020  -6.902  -1.105  0.00  0.00    -0.362 N 
ATOM     25  H   UNL d   1      -1.815  -7.313  -1.583  0.00  0.00     0.162 HD
BRANCH  24  26
ATOM     26  C   UNL d   1       0.258  -7.442  -1.542  0.00  0.00     0.160 C 
BRANCH  26  27
ATOM     27  C   UNL d   1       1.081  -8.058  -0.444  0.00  0.00    -0.041 A 
ATOM     28  C   UNL d   1       0.489  -8.747   0.624  0.00  0.00     0.009 A 
ATOM     29  C   UNL d   1       1.279  -9.378   1.586  0.00  0.00     0.001 A 
ATOM     30  C   UNL d   1       2.668  -9.336   1.487  0.00  0.00     0.000 A 
ATOM     31  C   UNL d   1       3.270  -8.664   0.426  0.00  0.00     0.001 A 
ATOM     32  C   UNL d   1       2.481  -8.033  -0.536  0.00  0.00     0.009 A 
ENDBRANCH  26  27
ENDBRANCH  24  26
ENDBRANCH  22  24
ENDBRANCH  20  22
ENDBRANCH   2  20
TORSDOF 8
