REMARK  4 active torsions:
REMARK  status: ('A' for Active; 'I' for Inactive)
REMARK       I    between atoms: N_2  and  C_1 
REMARK    1  A    between atoms: C_3  and  C_1 
REMARK    2  A    between atoms: N_4  and  N_2 
REMARK    3  A    between atoms: C_8  and  N_4 
REMARK    4  A    between atoms: C_18  and  C_12 
ROOT
ATOM      1  C   UNL d   1       0.958   0.084   0.201  0.00  0.00     0.266 C 
ATOM      2  N   UNL d   1       0.948   1.464   0.333  0.00  0.00    -0.283 N 
ATOM      3  O   UNL d   1       1.489  -0.673   1.011  0.00  0.00    -0.266 OA
ATOM      4  H   UNL d   1       0.904   2.032  -0.509  0.00  0.00     0.184 HD
ENDROOT
BRANCH   2   5
ATOM      5  N   UNL d   1       1.746   2.000   1.354  0.00  0.00    -0.203 NA
ATOM      6  H   UNL d   1       2.038   1.278   2.026  0.00  0.00     0.153 HD
BRANCH   5   7
ATOM      7  C   UNL d   1       1.239   3.156   1.993  0.00  0.00     0.027 A 
ATOM      8  C   UNL d   1       0.160   3.908   1.500  0.00  0.00     0.028 A 
ATOM      9  C   UNL d   1      -0.218   5.109   2.110  0.00  0.00     0.044 A 
ATOM     10  C   UNL d   1       0.497   5.579   3.202  0.00  0.00     0.116 A 
ATOM     11  C   UNL d   1       1.578   4.867   3.703  0.00  0.00     0.044 A 
ATOM     12  F   UNL d   1       0.148   6.741   3.770  0.00  0.00    -0.206 F 
ATOM     13  C   UNL d   1       1.947   3.662   3.096  0.00  0.00     0.028 A 
ENDBRANCH   5   7
ENDBRANCH   2   5
BRANCH   1  14
ATOM     14  C   UNL d   1       0.300  -0.445  -1.026  0.00  0.00     0.033 A 
ATOM     15  C   UNL d   1       0.749  -1.650  -1.576  0.00  0.00     0.017 A 
ATOM     16  C   UNL d   1       0.120  -2.185  -2.705  0.00  0.00     0.008 A 
ATOM     17  C   UNL d   1      -0.975  -1.531  -3.286  0.00  0.00    -0.059 A 
ATOM     18  C   UNL d   1      -1.414  -0.319  -2.737  0.00  0.00     0.008 A 
ATOM     19  C   UNL d   1      -0.785   0.221  -1.612  0.00  0.00     0.017 A 
BRANCH  17  20
ATOM     20  C   UNL d   1      -1.680  -2.123  -4.481  0.00  0.00     0.034 C 
ATOM     21  C   UNL d   1      -1.100  -1.634  -5.798  0.00  0.00     0.010 C 
ENDBRANCH  17  20
ENDBRANCH   1  14
TORSDOF 4
