REMARK  3 active torsions:
REMARK  status: ('A' for Active; 'I' for Inactive)
REMARK    1  A    between atoms: C_9  and  C_2 
REMARK    2  A    between atoms: S_14  and  C_6 
REMARK    3  A    between atoms: C_10  and  C_11 
ROOT
ATOM      1  C   UNL d   1       0.010  -0.364   1.047  0.00  0.00     0.116 A 
ATOM      2  C   UNL d   1       0.873  -0.781   0.056  0.00  0.00     0.132 A 
ATOM      3  N   UNL d   1      -1.038  -0.157  -0.955  0.00  0.00    -0.253 N 
ATOM      4  HN  UNL d   1      -1.738   0.039  -1.671  1.00  0.00     0.195 HD
ATOM      5  O   UNL d   1       0.237  -0.651  -1.147  0.00  0.00    -0.235 OA
ATOM      6  C   UNL d   1      -1.163   0.010   0.363  0.00  0.00     0.114 A 
ATOM      7  C   UNL d   1       0.275  -0.351   2.445  0.00  0.00     0.105 C 
ATOM      8  N   UNL d   1       0.537  -0.346   3.574  0.00  0.00    -0.191 NA
ENDROOT
BRANCH   2   9
ATOM      9  C   UNL d   1       2.230  -1.310  -0.013  0.00  0.00     0.001 A 
ATOM     10  C   UNL d   1       2.615  -2.148  -1.068  0.00  0.00     0.015 A 
ATOM     11  C   UNL d   1       3.897  -2.709  -1.115  0.00  0.00     0.009 A 
ATOM     12  C   UNL d   1       4.845  -2.453  -0.111  0.00  0.00    -0.051 A 
ATOM     13  C   UNL d   1       4.466  -1.570   0.912  0.00  0.00     0.009 A 
ATOM     14  C   UNL d   1       3.181  -1.017   0.967  0.00  0.00     0.015 A 
BRANCH  12  15
ATOM     15  C   UNL d   1       6.209  -3.164  -0.124  0.00  0.00    -0.024 C 
ATOM     16  C   UNL d   1       7.096  -2.792   1.087  0.00  0.00     0.019 C 
ATOM     17  C   UNL d   1       5.986  -4.692  -0.077  0.00  0.00     0.019 C 
ATOM     18  C   UNL d   1       6.996  -2.812  -1.402  0.00  0.00     0.019 C 
ENDBRANCH  12  15
ENDBRANCH   2   9
BRANCH   6  19
ATOM     19  S   UNL d   1      -2.638   0.615   1.084  0.00  0.00    -0.113 SA
ATOM     20  C   UNL d   1      -3.690   0.857  -0.370  0.00  0.00     0.097 C 
ENDBRANCH   6  19
TORSDOF 3
