REMARK  3 active torsions:
REMARK  status: ('A' for Active; 'I' for Inactive)
REMARK    1  A    between atoms: C_4  and  C_12 
REMARK    2  A    between atoms: C_6  and  C_9 
REMARK       I    between atoms: N_10  and  C_6 
REMARK    3  A    between atoms: C_21  and  N_10 
ROOT
ATOM      1  C   UNL d   1      -3.833   1.022   0.067  0.00  0.00     0.256 C 
ATOM      2  N   UNL d   1      -4.024   2.389   0.182  0.00  0.00    -0.323 N 
ATOM      3  O   UNL d   1      -2.803   0.479  -0.324  0.00  0.00    -0.267 OA
ATOM      4  H   UNL d   1      -4.864   2.722   0.632  0.00  0.00     0.169 HD
ENDROOT
BRANCH   1   5
ATOM      5  C   UNL d   1      -4.971   0.124   0.453  0.00  0.00     0.034 A 
ATOM      6  C   UNL d   1      -6.280   0.580   0.670  0.00  0.00     0.049 A 
ATOM      7  C   UNL d   1      -7.303  -0.347   0.983  0.00  0.00     0.064 A 
ATOM      8  N   UNL d   1      -8.638  -0.043   1.224  0.00  0.00    -0.292 N 
ATOM      9  C   UNL d   1      -6.987  -1.706   1.058  0.00  0.00     0.047 A 
ATOM     10  N   UNL d   1      -9.353  -1.124   1.483  0.00  0.00    -0.061 NA
ATOM     11  HN  UNL d   1      -9.021   0.902   1.204  1.00  0.00     0.183 HD
ATOM     12  S   UNL d   1      -8.451  -2.530   1.439  0.00  0.00     0.002 SA
ATOM     13  C   UNL d   1      -5.695  -2.190   0.838  0.00  0.00     0.023 A 
ATOM     14  C   UNL d   1      -4.701  -1.252   0.537  0.00  0.00     0.018 A 
ENDBRANCH   1   5
BRANCH   2  15
ATOM     15  C   UNL d   1      -3.144   3.402  -0.272  0.00  0.00     0.035 A 
ATOM     16  C   UNL d   1      -1.944   3.148  -0.941  0.00  0.00     0.030 A 
ATOM     17  C   UNL d   1      -1.149   4.197  -1.417  0.00  0.00     0.018 A 
ATOM     18  C   UNL d   1      -1.538   5.529  -1.237  0.00  0.00     0.048 A 
ATOM     19  C   UNL d   1      -2.731   5.787  -0.546  0.00  0.00     0.018 A 
ATOM     20  C   UNL d   1      -3.524   4.735  -0.069  0.00  0.00     0.030 A 
BRANCH  18  21
ATOM     21  C   UNL d   1      -0.709   6.662  -1.787  0.00  0.00     0.417 C 
ATOM     22  F   UNL d   1       0.410   6.252  -2.447  0.00  0.00    -0.166 F 
ATOM     23  F   UNL d   1      -1.403   7.428  -2.674  0.00  0.00    -0.166 F 
ATOM     24  F   UNL d   1      -0.277   7.514  -0.816  0.00  0.00    -0.166 F 
ENDBRANCH  18  21
ENDBRANCH   2  15
TORSDOF 3
