REMARK  1 active torsions:
REMARK  status: ('A' for Active; 'I' for Inactive)
REMARK    1  A    between atoms: C_2  and  C_1 
ROOT
ATOM      1  C   UNL d   1      -1.491   0.221   0.120  0.00  0.00    -0.007 C 
ATOM      2  C   UNL d   1      -0.742   1.021   1.224  0.00  0.00     0.017 C 
ATOM      3  C   UNL d   1      -0.943   0.711  -1.251  0.00  0.00     0.017 C 
ATOM      4  C   UNL d   1      -1.129  -1.278   0.289  0.00  0.00     0.017 C 
ATOM      5  C   UNL d   1       0.576   0.491  -1.352  0.00  0.00    -0.013 C 
ATOM      6  C   UNL d   1       0.391  -1.494   0.189  0.00  0.00    -0.013 C 
ATOM      7  C   UNL d   1       0.781   0.805   1.131  0.00  0.00    -0.013 C 
ATOM      8  C   UNL d   1       1.092  -0.691   1.294  0.00  0.00     0.009 C 
ATOM      9  C   UNL d   1       0.880  -1.006  -1.185  0.00  0.00     0.009 C 
ATOM     10  C   UNL d   1       1.281   1.281  -0.240  0.00  0.00     0.009 C 
ENDROOT
BRANCH   1  11
ATOM     11  C   UNL d   1      -3.034   0.418   0.201  0.00  0.00     0.083 C 
ATOM     12  O   UNL d   1      -3.393   1.832   0.067  0.00  0.00    -0.309 OA
ATOM     13  C   UNL d   1      -4.168   1.811   1.182  0.00  0.00     0.262 C 
ATOM     14  C   UNL d   1      -3.736   0.389   1.584  0.00  0.00     0.150 C 
ATOM     15  O   UNL d   1      -4.902   2.670   1.608  0.00  0.00    -0.265 OA
ATOM     16  C   UNL d   1      -3.849  -0.399  -0.818  0.00  0.00     0.048 C 
ENDBRANCH   1  11
TORSDOF 1
