REMARK  6 active torsions:
REMARK  status: ('A' for Active; 'I' for Inactive)
REMARK    1  A    between atoms: C_16  and  C_2 
REMARK    2  A    between atoms: S_14  and  C_5 
REMARK    3  A    between atoms: C_9  and  C_18 
REMARK    4  A    between atoms: C_18  and  S_14 
REMARK    5  A    between atoms: C_19  and  C_20 
REMARK    6  A    between atoms: O_29  and  C_27 
ROOT
ATOM      1  N   UNL d   1       0.817  -0.053   0.028  0.00  0.00    -0.315 N 
ATOM      2  C   UNL d   1      -0.038   1.030  -0.071  0.00  0.00     0.134 A 
ATOM      3  N   UNL d   1      -1.278   0.565  -0.033  0.00  0.00    -0.283 N 
ATOM      4  HN  UNL d   1      -2.124   1.135  -0.040  1.00  0.00     0.188 HD
ATOM      5  C   UNL d   1       0.016  -1.166   0.037  0.00  0.00     0.162 A 
ATOM      6  N   UNL d   1      -1.243  -0.808   0.017  0.00  0.00    -0.278 N 
ATOM      7  HN  UNL d   1      -2.049  -1.432   0.036  1.00  0.00     0.189 HD
ATOM      8  C   UNL d   1       2.250  -0.047   0.174  0.00  0.00     0.160 C 
ENDROOT
BRANCH   5   9
ATOM      9  S   UNL d   1       0.621  -2.788   0.082  0.00  0.00    -0.088 SA
BRANCH   9  10
ATOM     10  C   UNL d   1      -0.927  -3.740  -0.033  0.00  0.00     0.122 C 
BRANCH  10  11
ATOM     11  C   UNL d   1      -0.627  -5.222  -0.028  0.00  0.00    -0.030 A 
ATOM     12  C   UNL d   1      -0.473  -5.976   1.231  0.00  0.00     0.005 A 
ATOM     13  C   UNL d   1      -0.232  -7.353   1.164  0.00  0.00     0.092 A 
ATOM     14  C   UNL d   1      -0.565  -5.400   2.506  0.00  0.00     0.017 A 
ATOM     15  C   UNL d   1      -0.086  -8.145   2.306  0.00  0.00     0.074 A 
ATOM     16  O   UNL d   1      -0.126  -8.026  -0.067  0.00  0.00    -0.275 OA
ATOM     17  C   UNL d   1      -0.189  -7.547   3.551  0.00  0.00     0.068 A 
ATOM     18  C   UNL d   1      -0.427  -6.181   3.663  0.00  0.00     0.037 A 
ATOM     19  C   UNL d   1      -0.285  -7.352  -1.262  0.00  0.00     0.288 A 
ATOM     20  C   UNL d   1      -0.550  -5.907  -1.179  0.00  0.00     0.091 A 
ATOM     21  O   UNL d   1      -0.210  -7.911  -2.349  0.00  0.00    -0.260 OA
BRANCH  17  22
ATOM     22  O   UNL d   1      -0.050  -8.338   4.652  0.00  0.00    -0.361 OA
ATOM     23  H   UNL d   1      -0.155  -7.790   5.447  0.00  0.00     0.217 HD
ENDBRANCH  17  22
ENDBRANCH  10  11
ENDBRANCH   9  10
ENDBRANCH   5   9
BRANCH   2  24
ATOM     24  C   UNL d   1       0.317   2.454  -0.146  0.00  0.00     0.009 A 
ATOM     25  C   UNL d   1       1.426   2.926  -0.854  0.00  0.00     0.016 A 
ATOM     26  C   UNL d   1       1.757   4.289  -0.854  0.00  0.00     0.009 A 
ATOM     27  C   UNL d   1       0.970   5.242  -0.183  0.00  0.00    -0.051 A 
ATOM     28  C   UNL d   1      -0.177   4.768   0.471  0.00  0.00     0.009 A 
ATOM     29  C   UNL d   1      -0.496   3.400   0.488  0.00  0.00     0.016 A 
BRANCH  27  30
ATOM     30  C   UNL d   1       1.381   6.726  -0.178  0.00  0.00    -0.024 C 
ATOM     31  C   UNL d   1       0.379   7.647   0.556  0.00  0.00     0.019 C 
ATOM     32  C   UNL d   1       2.745   6.878   0.531  0.00  0.00     0.019 C 
ATOM     33  C   UNL d   1       1.508   7.254  -1.624  0.00  0.00     0.019 C 
ENDBRANCH  27  30
ENDBRANCH   2  24
TORSDOF 6
