REMARK  5 active torsions:
REMARK  status: ('A' for Active; 'I' for Inactive)
REMARK    1  A    between atoms: C_4  and  C_1 
REMARK    2  A    between atoms: C_2  and  C_8 
REMARK    3  A    between atoms: C_12  and  C_3 
REMARK    4  A    between atoms: C_6  and  C_4 
REMARK    5  A    between atoms: N_9  and  C_5 
ROOT
ATOM      1  C   UNL d   1       0.944  -1.445   2.137  0.00  0.00     0.014 A 
ATOM      2  C   UNL d   1       2.439  -2.793   4.088  0.00  0.00     0.018 A 
ATOM      3  C   UNL d   1       1.972  -0.782   2.824  0.00  0.00     0.017 A 
ATOM      4  C   UNL d   1       0.645  -2.774   2.459  0.00  0.00     0.017 A 
ATOM      5  C   UNL d   1       2.720  -1.457   3.791  0.00  0.00     0.021 A 
ATOM      6  C   UNL d   1       1.395  -3.447   3.429  0.00  0.00     0.021 A 
ENDROOT
BRANCH   2   7
ATOM      7  C   UNL d   1       3.214  -3.486   5.069  0.00  0.00    -0.061 C 
ATOM      8  C   UNL d   1       3.854  -4.073   5.899  0.00  0.00    -0.061 C 
BRANCH   8   9
ATOM      9  C   UNL d   1       4.587  -4.785   6.900  0.00  0.00     0.018 A 
ATOM     10  C   UNL d   1       5.601  -4.147   7.618  0.00  0.00     0.020 A 
ATOM     11  C   UNL d   1       6.291  -4.838   8.617  0.00  0.00     0.001 A 
ATOM     12  C   UNL d   1       5.969  -6.166   8.897  0.00  0.00     0.000 A 
ATOM     13  C   UNL d   1       4.963  -6.807   8.175  0.00  0.00     0.001 A 
ATOM     14  C   UNL d   1       4.273  -6.118   7.176  0.00  0.00     0.020 A 
ENDBRANCH   8   9
ENDBRANCH   2   7
BRANCH   1  15
ATOM     15  C   UNL d   1       0.145  -0.770   1.076  0.00  0.00     0.183 C 
ATOM     16  O   UNL d   1      -1.021  -1.088   0.875  0.00  0.00    -0.288 OA
BRANCH  15  17
ATOM     17  C   UNL d   1       0.856   0.246   0.252  0.00  0.00     0.072 C 
ATOM     18  C   UNL d   1       0.183   1.107  -0.522  0.00  0.00     0.088 C 
BRANCH  18  19
ATOM     19  N   UNL d   1       0.673   2.114  -1.345  0.00  0.00    -0.398 N 
ATOM     20  C   UNL d   1       2.091   2.399  -1.558  0.00  0.00     0.148 C 
ATOM     21  C   UNL d   1      -0.226   3.000  -2.089  0.00  0.00     0.148 C 
ENDBRANCH  18  19
ENDBRANCH  15  17
ENDBRANCH   1  15
TORSDOF 5
