REMARK  4 active torsions:
REMARK  status: ('A' for Active; 'I' for Inactive)
REMARK    1  A    between atoms: C_10  and  C_1 
REMARK    2  A    between atoms: C_11  and  C_1 
REMARK    3  A    between atoms: C_16  and  C_10 
REMARK    4  A    between atoms: C_17  and  C_11 
ROOT
ATOM      1  N   UNL d   1      -0.184   3.571   4.656  0.00  0.00    -0.197 NA
ATOM      2  C   UNL d   1      -0.169   2.829   3.762  0.00  0.00     0.059 C 
ATOM      3  C   UNL d   1      -0.151   1.905   2.624  0.00  0.00     0.125 C 
ENDROOT
BRANCH   3   4
ATOM      4  C   UNL d   1      -0.088   2.685   1.303  0.00  0.00     0.033 C 
BRANCH   4   5
ATOM      5  C   UNL d   1      -0.044   1.799   0.034  0.00  0.00     0.017 A 
ATOM      6  C   UNL d   1       1.161   0.853   0.060  0.00  0.00    -0.034 A 
ATOM      7  C   UNL d   1       0.721  -0.490   0.070  0.00  0.00    -0.018 A 
ATOM      8  C   UNL d   1       2.513   1.169   0.047  0.00  0.00     0.009 A 
ATOM      9  C   UNL d   1       1.637  -1.528   0.070  0.00  0.00     0.013 A 
ATOM     10  C   UNL d   1      -0.727  -0.515   0.047  0.00  0.00    -0.018 A 
ATOM     11  C   UNL d   1       3.000  -1.216   0.057  0.00  0.00     0.001 A 
ATOM     12  C   UNL d   1       3.433   0.119   0.044  0.00  0.00     0.001 A 
ATOM     13  C   UNL d   1      -1.213   0.811   0.003  0.00  0.00    -0.034 A 
ATOM     14  C   UNL d   1      -1.605  -1.585   0.044  0.00  0.00     0.013 A 
ATOM     15  C   UNL d   1      -2.574   1.078  -0.076  0.00  0.00     0.009 A 
ATOM     16  C   UNL d   1      -3.456  -0.003  -0.090  0.00  0.00     0.001 A 
ATOM     17  C   UNL d   1      -2.977  -1.322  -0.022  0.00  0.00     0.001 A 
BRANCH   5  18
ATOM     18  C   UNL d   1      -0.026   2.702  -1.233  0.00  0.00     0.033 C 
BRANCH  18  19
ATOM     19  C   UNL d   1      -0.014   1.923  -2.567  0.00  0.00     0.125 C 
ATOM     20  C   UNL d   1       0.018   2.830  -3.754  0.00  0.00     0.059 C 
ATOM     21  N   UNL d   1       0.043   3.520  -4.684  0.00  0.00    -0.197 NA
ENDBRANCH  18  19
ENDBRANCH   5  18
ENDBRANCH   4   5
ENDBRANCH   3   4
TORSDOF 4
