REMARK  2 active torsions:
REMARK  status: ('A' for Active; 'I' for Inactive)
REMARK    1  A    between atoms: C_2  and  N_1 
REMARK    2  A    between atoms: N_12  and  C_3 
ROOT
ATOM      1  C   UNL d   1      -0.719   2.443   0.064  0.00  0.00     0.060 A 
ATOM      2  C   UNL d   1      -1.579   2.925   1.078  0.00  0.00     0.036 A 
ATOM      3  C   UNL d   1      -2.045   4.246   0.982  0.00  0.00     0.067 A 
ATOM      4  C   UNL d   1      -0.243   3.325  -0.928  0.00  0.00     0.035 A 
ATOM      5  C   UNL d   1      -1.578   5.096  -0.015  0.00  0.00     0.118 A 
ATOM      6  C   UNL d   1      -0.671   4.652  -0.962  0.00  0.00     0.044 A 
ATOM      7  F   UNL d   1      -2.010   6.362  -0.057  0.00  0.00    -0.206 F 
ENDROOT
BRANCH   1   8
ATOM      8  N   UNL d   1      -0.306   1.082  -0.003  0.00  0.00    -0.315 N 
ATOM      9  C   UNL d   1      -0.990  -0.036   0.422  0.00  0.00     0.188 A 
ATOM     10  N   UNL d   1      -0.300  -1.145   0.265  0.00  0.00    -0.360 N 
ATOM     11  C   UNL d   1       0.861  -0.756  -0.339  0.00  0.00     0.106 A 
ATOM     12  HN  UNL d   1      -0.573  -2.089   0.536  1.00  0.00     0.166 HD
ATOM     13  C   UNL d   1       0.869   0.603  -0.547  0.00  0.00     0.115 A 
ENDBRANCH   1   8
BRANCH   2  14
ATOM     14  N   UNL d   1      -2.098   2.128   2.113  0.00  0.00    -0.301 NA
ATOM     15  H   UNL d   1      -1.437   1.446   2.478  0.00  0.00     0.124 HD
ATOM     16  H   UNL d   1      -2.514   2.658   2.874  0.00  0.00     0.124 HD
ENDBRANCH   2  14
TORSDOF 2
