REMARK  5 active torsions:
REMARK  status: ('A' for Active; 'I' for Inactive)
REMARK    1  A    between atoms: O_10  and  C_2 
REMARK    2  A    between atoms: C_11  and  C_2 
REMARK    3  A    between atoms: C_8  and  N_3 
REMARK    4  A    between atoms: C_16  and  C_11 
REMARK    5  A    between atoms: C_17  and  C_16 
ROOT
ATOM      1  C   UNL d   1      -2.405   0.769  -0.186  0.00  0.00     0.272 C 
ATOM      2  C   UNL d   1      -2.400  -0.668   0.378  0.00  0.00     0.204 C 
ATOM      3  N   UNL d   1      -1.196   1.448   0.089  0.00  0.00    -0.279 N 
ATOM      4  C   UNL d   1      -1.169  -1.394  -0.157  0.00  0.00     0.205 C 
ATOM      5  C   UNL d   1       0.060   0.746   0.130  0.00  0.00     0.056 A 
ATOM      6  C   UNL d   1       0.092  -0.645  -0.050  0.00  0.00     0.041 A 
ATOM      7  O   UNL d   1      -3.400   1.285  -0.688  0.00  0.00    -0.269 OA
ATOM      8  O   UNL d   1      -1.151  -2.525  -0.624  0.00  0.00    -0.288 OA
ATOM      9  C   UNL d   1       1.299   1.405   0.214  0.00  0.00     0.031 A 
ATOM     10  C   UNL d   1       1.298  -1.361  -0.129  0.00  0.00     0.017 A 
ATOM     11  C   UNL d   1       2.506   0.693   0.147  0.00  0.00     0.002 A 
ATOM     12  C   UNL d   1       2.507  -0.686  -0.025  0.00  0.00     0.001 A 
ENDROOT
BRANCH   2  13
ATOM     13  O   UNL d   1      -2.324  -0.578   1.817  0.00  0.00    -0.373 OA
ATOM     14  H   UNL d   1      -1.619   0.047   2.057  0.00  0.00     0.211 HD
ENDBRANCH   2  13
BRANCH   2  15
ATOM     15  C   UNL d   1      -3.714  -1.411   0.053  0.00  0.00     0.056 C 
BRANCH  15  16
ATOM     16  C   UNL d   1      -3.822  -2.782   0.748  0.00  0.00     0.004 C 
BRANCH  16  17
ATOM     17  C   UNL d   1      -5.129  -3.500   0.428  0.00  0.00    -0.004 C 
ATOM     18  C   UNL d   1      -5.130  -4.888   1.055  0.00  0.00     0.005 C 
ENDBRANCH  16  17
ENDBRANCH  15  16
ENDBRANCH   2  15
BRANCH   3  19
ATOM     19  C   UNL d   1      -1.245   2.837   0.407  0.00  0.00     0.042 A 
ATOM     20  C   UNL d   1      -0.780   3.276   1.659  0.00  0.00     0.030 A 
ATOM     21  C   UNL d   1      -0.894   4.617   2.034  0.00  0.00     0.002 A 
ATOM     22  C   UNL d   1      -1.472   5.534   1.161  0.00  0.00     0.000 A 
ATOM     23  C   UNL d   1      -1.954   5.108  -0.076  0.00  0.00     0.002 A 
ATOM     24  C   UNL d   1      -1.857   3.762  -0.445  0.00  0.00     0.030 A 
ENDBRANCH   3  19
TORSDOF 5
