REMARK  6 active torsions:
REMARK  status: ('A' for Active; 'I' for Inactive)
REMARK    1  A    between atoms: C_3  and  C_1 
REMARK    2  A    between atoms: C_2  and  C_4 
REMARK       I    between atoms: N_13  and  C_3 
REMARK    3  A    between atoms: C_4  and  O_14 
REMARK    4  A    between atoms: C_15  and  N_13 
REMARK    5  A    between atoms: O_14  and  C_16 
REMARK    6  A    between atoms: C_16  and  C_15 
ROOT
ATOM      1  C   UNL d   1       0.371  -3.786   0.130  0.00  0.00     0.149 C 
ENDROOT
BRANCH   1   2
ATOM      2  N   UNL d   1       0.788  -2.430  -0.181  0.00  0.00    -0.355 N 
ATOM      3  C   UNL d   1       1.997  -1.906   0.258  0.00  0.00     0.272 C 
ATOM      4  O   UNL d   1       2.748  -2.594   0.956  0.00  0.00    -0.269 OA
ATOM      5  H   UNL d   1       0.203  -1.872  -0.798  0.00  0.00     0.162 HD
BRANCH   3   6
ATOM      6  C   UNL d   1       2.342  -0.447  -0.162  0.00  0.00     0.269 C 
ATOM      7 CL   UNL d   1       1.087   0.233  -1.243  0.00  0.00    -0.073 Cl
ATOM      8 CL   UNL d   1       3.899  -0.469  -1.029  0.00  0.00    -0.073 Cl
ATOM      9 CL   UNL d   1       2.455   0.551   1.307  0.00  0.00    -0.073 Cl
ENDBRANCH   3   6
ENDBRANCH   1   2
BRANCH   1  10
ATOM     10  C   UNL d   1       0.915  -4.817  -0.862  0.00  0.00     0.198 C 
BRANCH  10  11
ATOM     11  O   UNL d   1       0.543  -6.152  -0.473  0.00  0.00    -0.316 OA
BRANCH  11  12
ATOM     12  C   UNL d   1      -0.686  -6.592  -0.883  0.00  0.00     0.314 C 
ATOM     13  O   UNL d   1      -1.461  -5.870  -1.510  0.00  0.00    -0.260 OA
BRANCH  12  14
ATOM     14  C   UNL d   1      -0.993  -8.035  -0.450  0.00  0.00     0.276 C 
ATOM     15 CL   UNL d   1       0.393  -8.847   0.326  0.00  0.00    -0.073 Cl
ATOM     16 CL   UNL d   1      -2.358  -7.977   0.703  0.00  0.00    -0.073 Cl
ATOM     17 CL   UNL d   1      -1.468  -8.966  -1.899  0.00  0.00    -0.073 Cl
ENDBRANCH  12  14
ENDBRANCH  11  12
ENDBRANCH  10  11
ENDBRANCH   1  10
TORSDOF 6
