REMARK  5 active torsions:
REMARK  status: ('A' for Active; 'I' for Inactive)
REMARK    1  A    between atoms: N_3  and  C_1 
REMARK       I    between atoms: C_7  and  N_3 
REMARK    2  A    between atoms: C_12  and  C_7 
REMARK    3  A    between atoms: C_9  and  C_13 
REMARK    4  A    between atoms: O_14  and  C_9 
REMARK    5  A    between atoms: C_13  and  C_12 
ROOT
ATOM      1  N   UNL d   1      -0.557  -2.514   0.078  0.00  0.00    -0.312 N 
ATOM      2  C   UNL d   1      -1.819  -2.896   0.469  0.00  0.00     0.223 C 
ATOM      3  O   UNL d   1      -2.715  -2.178   0.907  0.00  0.00    -0.273 OA
ATOM      4  H   UNL d   1       0.131  -3.245  -0.068  0.00  0.00     0.170 HD
ENDROOT
BRANCH   1   5
ATOM      5  C   UNL d   1      -0.068  -1.217   0.023  0.00  0.00     0.125 A 
ATOM      6  N   UNL d   1      -0.735  -0.007   0.013  0.00  0.00    -0.281 N 
ATOM      7  N   UNL d   1       0.106   1.054   0.033  0.00  0.00    -0.308 N 
ATOM      8  C   UNL d   1      -2.137   0.289  -0.171  0.00  0.00     0.179 C 
ATOM      9  C   UNL d   1       1.318   0.513  -0.046  0.00  0.00     0.111 A 
ATOM     10  HN  UNL d   1      -0.135   2.044   0.095  1.00  0.00     0.186 HD
ATOM     11  C   UNL d   1       1.270  -0.886  -0.083  0.00  0.00     0.068 A 
ENDBRANCH   1   5
BRANCH   2  12
ATOM     12  C   UNL d   1      -2.041  -4.393   0.325  0.00  0.00     0.113 C 
BRANCH  12  13
ATOM     13  C   UNL d   1      -3.522  -4.705   0.164  0.00  0.00     0.119 C 
BRANCH  13  14
ATOM     14  C   UNL d   1      -4.046  -4.117  -1.121  0.00  0.00     0.139 C 
ATOM     15  O   UNL d   1      -4.033  -4.711  -2.190  0.00  0.00    -0.650 OA
BRANCH  14  16
ATOM     16  O   UNL d   1      -4.475  -2.842  -1.000  0.00  0.00    -0.776 OA
ATOM     17  H   UNL d   1      -4.289  -2.450  -0.114  0.00  0.00     0.167 HD
ENDBRANCH  14  16
ENDBRANCH  13  14
ENDBRANCH  12  13
ENDBRANCH   2  12
TORSDOF 5
