REMARK  2 active torsions:
REMARK  status: ('A' for Active; 'I' for Inactive)
REMARK    1  A    between atoms: C_8  and  C_1 
REMARK    2  A    between atoms: O_9  and  C_3 
ROOT
ATOM      1  C   UNL d   1      -1.484  -1.423   0.004  0.00  0.00     0.076 A 
ATOM      2  C   UNL d   1      -2.000  -0.012  -0.005  0.00  0.00     0.261 A 
ATOM      3  C   UNL d   1      -0.160  -1.659  -0.022  0.00  0.00     0.094 A 
ATOM      4  N   UNL d   1      -1.069   1.022  -0.002  0.00  0.00    -0.317 N 
ATOM      5  C   UNL d   1       0.804  -0.544  -0.020  0.00  0.00     0.025 A 
ATOM      6  C   UNL d   1       0.336   0.779  -0.005  0.00  0.00     0.050 A 
ATOM      7  O   UNL d   1      -3.215   0.188  -0.015  0.00  0.00    -0.267 OA
ATOM      8  C   UNL d   1      -1.567   2.389   0.003  0.00  0.00     0.159 C 
ATOM      9  C   UNL d   1       2.191  -0.782  -0.021  0.00  0.00     0.016 A 
ATOM     10  C   UNL d   1       1.266   1.834   0.006  0.00  0.00     0.031 A 
ATOM     11  C   UNL d   1       3.103   0.275  -0.007  0.00  0.00     0.001 A 
ATOM     12  C   UNL d   1       2.639   1.583   0.006  0.00  0.00     0.002 A 
ENDROOT
BRANCH   1  13
ATOM     13  C   UNL d   1      -2.471  -2.523   0.057  0.00  0.00    -0.018 A 
ATOM     14  C   UNL d   1      -2.904  -3.019   1.294  0.00  0.00     0.012 A 
ATOM     15  C   UNL d   1      -3.876  -4.020   1.352  0.00  0.00     0.001 A 
ATOM     16  C   UNL d   1      -4.420  -4.532   0.176  0.00  0.00     0.000 A 
ATOM     17  C   UNL d   1      -3.986  -4.053  -1.060  0.00  0.00     0.001 A 
ATOM     18  C   UNL d   1      -3.010  -3.055  -1.121  0.00  0.00     0.012 A 
ENDBRANCH   1  13
BRANCH   3  19
ATOM     19  O   UNL d   1       0.402  -2.923  -0.042  0.00  0.00    -0.359 OA
ATOM     20  H   UNL d   1      -0.307  -3.586  -0.099  0.00  0.00     0.217 HD
ENDBRANCH   3  19
TORSDOF 2
