REMARK  5 active torsions:
REMARK  status: ('A' for Active; 'I' for Inactive)
REMARK    1  A    between atoms: O_13  and  C_9 
REMARK    2  A    between atoms: C_21  and  C_10 
REMARK    3  A    between atoms: C_11  and  C_17 
REMARK       I    between atoms: N_12  and  C_11 
REMARK    4  A    between atoms: C_15  and  N_12 
REMARK    5  A    between atoms: C_17  and  O_13 
ROOT
ATOM      1  C   UNL d   1       0.207   0.786  -0.074  0.00  0.00     0.092 A 
ATOM      2  C   UNL d   1       0.377  -0.582   0.126  0.00  0.00     0.005 A 
ATOM      3  C   UNL d   1      -0.780  -1.471  -0.057  0.00  0.00    -0.043 C 
ATOM      4  O   UNL d   1      -1.063   1.335  -0.349  0.00  0.00    -0.275 OA
ATOM      5  C   UNL d   1      -2.196   0.541  -0.354  0.00  0.00     0.288 C 
ATOM      6  C   UNL d   1      -1.982  -0.911  -0.270  0.00  0.00     0.090 C 
ATOM      7  C   UNL d   1       1.266   1.699   0.016  0.00  0.00     0.075 A 
ATOM      8  C   UNL d   1       1.653  -1.015   0.497  0.00  0.00     0.024 A 
ATOM      9  C   UNL d   1       2.545   1.257   0.365  0.00  0.00     0.078 A 
ATOM     10  C   UNL d   1       2.732  -0.109   0.645  0.00  0.00    -0.024 A 
ATOM     11  O   UNL d   1      -3.325   1.003  -0.458  0.00  0.00    -0.260 OA
ATOM     12  C   UNL d   1      -0.637  -2.965  -0.043  0.00  0.00     0.049 C 
ENDROOT
BRANCH   9  13
ATOM     13  O   UNL d   1       3.655   2.067   0.474  0.00  0.00    -0.341 OA
BRANCH  13  14
ATOM     14  C   UNL d   1       3.450   3.450   0.211  0.00  0.00     0.278 C 
BRANCH  14  15
ATOM     15  C   UNL d   1       4.688   4.352   0.324  0.00  0.00     0.246 C 
ATOM     16  N   UNL d   1       5.880   3.677   0.518  0.00  0.00    -0.325 N 
ATOM     17  H   UNL d   1       5.802   2.670   0.608  0.00  0.00     0.169 HD
ATOM     18  O   UNL d   1       4.552   5.568   0.222  0.00  0.00    -0.271 OA
BRANCH  16  19
ATOM     19  C   UNL d   1       7.179   4.234   0.579  0.00  0.00     0.035 A 
ATOM     20  C   UNL d   1       7.448   5.601   0.449  0.00  0.00     0.036 A 
ATOM     21  C   UNL d   1       8.764   6.095   0.482  0.00  0.00    -0.060 A 
ATOM     22  C   UNL d   1       9.035   7.558   0.280  0.00  0.00     0.048 C 
ATOM     23  C   UNL d   1       9.822   5.203   0.644  0.00  0.00     0.007 A 
ATOM     24  C   UNL d   1       9.569   3.840   0.790  0.00  0.00     0.003 A 
ATOM     25  C   UNL d   1       8.256   3.358   0.760  0.00  0.00     0.029 A 
ENDBRANCH  16  19
ENDBRANCH  14  15
ENDBRANCH  13  14
ENDBRANCH   9  13
BRANCH  10  26
ATOM     26  C   UNL d   1       4.062  -0.651   1.118  0.00  0.00     0.037 C 
ATOM     27  C   UNL d   1       4.933  -1.139  -0.027  0.00  0.00     0.010 C 
ENDBRANCH  10  26
TORSDOF 5
