REMARK  4 active torsions:
REMARK  status: ('A' for Active; 'I' for Inactive)
REMARK    1  A    between atoms: C_4  and  C_1 
REMARK    2  A    between atoms: C_6  and  C_1 
REMARK    3  A    between atoms: N_2  and  C_3 
REMARK    4  A    between atoms: N_11  and  C_5 
ROOT
ATOM      1  C   UNL d   1       3.239   0.991   0.135  0.00  0.00     0.130 A 
ATOM      2  C   UNL d   1       2.305  -0.039   0.070  0.00  0.00     0.080 A 
ATOM      3  N   UNL d   1       2.692  -1.306  -0.247  0.00  0.00    -0.363 N 
ATOM      4  HN  UNL d   1       2.014  -2.067  -0.275  1.00  0.00     0.165 HD
ATOM      5  C   UNL d   1       4.588   0.741  -0.144  0.00  0.00     0.040 A 
ATOM      6  C   UNL d   1       3.997  -1.533  -0.524  0.00  0.00     0.088 A 
ATOM      7  C   UNL d   1       4.971  -0.550  -0.492  0.00  0.00     0.020 A 
ENDROOT
BRANCH   2   8
ATOM      8  C   UNL d   1       0.844   0.098   0.261  0.00  0.00     0.054 C 
ATOM      9  C   UNL d   1       0.157   0.278  -0.887  0.00  0.00     0.102 C 
BRANCH   9  10
ATOM     10  N   UNL d   1      -1.177   0.391  -1.260  0.00  0.00    -0.398 N 
ATOM     11  C   UNL d   1      -2.283  -0.229  -0.532  0.00  0.00     0.148 C 
ATOM     12  C   UNL d   1      -1.564   0.983  -2.543  0.00  0.00     0.148 C 
ENDBRANCH   9  10
BRANCH   8  13
ATOM     13  C   UNL d   1       0.264   0.027   1.650  0.00  0.00     0.159 C 
ATOM     14  O   UNL d   1      -0.929  -0.169   1.876  0.00  0.00    -0.293 OA
ATOM     15  C   UNL d   1       1.185   0.267   2.825  0.00  0.00     0.097 C 
ENDBRANCH   8  13
ENDBRANCH   2   8
BRANCH   1  16
ATOM     16  N   UNL d   1       2.857   2.326   0.514  0.00  0.00    -0.113 N 
ATOM     17  O   UNL d   1       2.047   2.917  -0.206  0.00  0.00    -0.532 OA
ATOM     18  O   UNL d   1       3.401   2.790   1.525  0.00  0.00    -0.532 OA
ENDBRANCH   1  16
TORSDOF 4
