REMARK  2 active torsions:
REMARK  status: ('A' for Active; 'I' for Inactive)
REMARK    1  A    between atoms: C_2  and  S_1 
REMARK    2  A    between atoms: N_7  and  S_1 
ROOT
ATOM      1  C   UNL d   1       0.458  -1.724   0.337  0.00  0.00     0.090 A 
ATOM      2  C   UNL d   1       1.180  -2.845  -0.082  0.00  0.00     0.029 A 
ATOM      3  C   UNL d   1      -0.715  -1.900   1.095  0.00  0.00     0.027 A 
ATOM      4  C   UNL d   1       0.727  -4.127   0.283  0.00  0.00     0.026 A 
ATOM      5  I   UNL d   1       2.927  -2.810  -1.246  0.00  0.00    -0.043 I 
ATOM      6  C   UNL d   1      -1.161  -3.175   1.441  0.00  0.00     0.008 A 
ATOM      7  C   UNL d   1      -0.442  -4.300   1.039  0.00  0.00    -0.061 A 
ATOM      8  C   UNL d   1      -0.907  -5.680   1.404  0.00  0.00     0.048 C 
ENDROOT
BRANCH   1   9
ATOM      9  S   UNL d   1       0.917  -0.052  -0.018  0.00  0.00     0.240 S 
ATOM     10  O   UNL d   1       0.059   0.838   0.737  0.00  0.00    -0.206 OA
ATOM     11  O   UNL d   1       1.112   0.112  -1.435  0.00  0.00    -0.206 OA
BRANCH   9  12
ATOM     12  N   UNL d   1       2.418   0.118   0.724  0.00  0.00    -0.225 NA
ATOM     13  H   UNL d   1       2.322   0.654   1.584  0.00  0.00     0.136 HD
ATOM     14  H   UNL d   1       3.073   0.532   0.057  0.00  0.00     0.136 HD
ENDBRANCH   9  12
ENDBRANCH   1   9
TORSDOF 2
