REMARK  1 active torsions:
REMARK  status: ('A' for Active; 'I' for Inactive)
REMARK    1  A    between atoms: C_12  and  C_7 
ROOT
ATOM      1  N   UNL d   1       2.259  -0.905  -0.310  0.00  0.00    -0.291 N 
ATOM      2  C   UNL d   1       1.101  -1.511   0.133  0.00  0.00     0.261 C 
ATOM      3  C   UNL d   1       2.652   0.404  -0.394  0.00  0.00     0.254 C 
ATOM      4  C   UNL d   1      -0.199  -0.811   0.120  0.00  0.00     0.065 A 
ATOM      5  O   UNL d   1       0.652   1.429   0.576  0.00  0.00    -0.336 OA
ATOM      6  C   UNL d   1      -0.366   0.552   0.353  0.00  0.00     0.085 A 
ATOM      7  C   UNL d   1       1.604   1.502  -0.486  0.00  0.00     0.220 C 
ATOM      8  O   UNL d   1       1.155  -2.676   0.525  0.00  0.00    -0.267 OA
ATOM      9  O   UNL d   1       3.860   0.662  -0.411  0.00  0.00    -0.270 OA
ATOM     10  C   UNL d   1      -1.333  -1.606  -0.116  0.00  0.00     0.020 A 
ATOM     11  C   UNL d   1      -1.651   1.108   0.384  0.00  0.00     0.038 A 
ATOM     12  C   UNL d   1      -2.609  -1.041  -0.133  0.00  0.00     0.001 A 
ATOM     13  C   UNL d   1      -2.768   0.316   0.125  0.00  0.00     0.003 A 
ATOM     14  H   UNL d   1       3.053  -1.529  -0.235  0.00  0.00     0.172 HD
ENDROOT
BRANCH   7  15
ATOM     15  C   UNL d   1       0.977   1.641  -1.889  0.00  0.00     0.038 C 
ATOM     16  C   UNL d   1       1.998   1.867  -2.992  0.00  0.00     0.008 C 
ENDBRANCH   7  15
TORSDOF 1
