REMARK  6 active torsions:
REMARK  status: ('A' for Active; 'I' for Inactive)
REMARK    1  A    between atoms: C_12  and  C_1 
REMARK    2  A    between atoms: C_7  and  C_23 
REMARK       I    between atoms: N_8  and  C_7 
REMARK    3  A    between atoms: C_11  and  N_8 
REMARK    4  A    between atoms: S_10  and  C_12 
REMARK    5  A    between atoms: C_23  and  S_10 
REMARK    6  A    between atoms: O_24  and  C_13 
ROOT
ATOM      1  S   UNL d   1      -2.810   3.170   1.451  0.00  0.00    -0.155 SA
ENDROOT
BRANCH   1   2
ATOM      2  C   UNL d   1      -2.575   1.677   0.404  0.00  0.00     0.114 C 
BRANCH   2   3
ATOM      3  C   UNL d   1      -1.239   0.971   0.640  0.00  0.00    -0.036 C 
ATOM      4  C   UNL d   1      -1.151  -0.106   1.576  0.00  0.00    -0.048 C 
ATOM      5  C   UNL d   1       0.107  -0.703   1.843  0.00  0.00    -0.049 C 
ATOM      6  C   UNL d   1      -2.428  -0.622   2.205  0.00  0.00     0.049 C 
ATOM      7  C   UNL d   1       0.289  -1.829   2.842  0.00  0.00     0.049 C 
ATOM      8  C   UNL d   1       1.264  -0.260   1.139  0.00  0.00    -0.049 C 
ATOM      9  C   UNL d   1       1.155   0.717   0.115  0.00  0.00    -0.049 C 
ATOM     10  C   UNL d   1       2.619  -0.820   1.542  0.00  0.00     0.049 C 
ATOM     11  C   UNL d   1      -0.083   1.377  -0.093  0.00  0.00    -0.048 C 
ATOM     12  C   UNL d   1       2.377   1.036  -0.718  0.00  0.00     0.049 C 
ATOM     13  C   UNL d   1      -0.221   2.478  -1.124  0.00  0.00     0.049 C 
ENDBRANCH   2   3
ENDBRANCH   1   2
BRANCH   1  14
ATOM     14  C   UNL d   1      -4.478   3.594   0.875  0.00  0.00     0.177 C 
BRANCH  14  15
ATOM     15  C   UNL d   1      -5.166   4.741   1.600  0.00  0.00     0.231 C 
ATOM     16  N   UNL d   1      -4.351   5.777   2.024  0.00  0.00    -0.327 N 
ATOM     17  H   UNL d   1      -3.351   5.614   1.946  0.00  0.00     0.169 HD
ATOM     18  O   UNL d   1      -6.397   4.736   1.664  0.00  0.00    -0.272 OA
BRANCH  16  19
ATOM     19  C   UNL d   1      -4.762   7.035   2.531  0.00  0.00     0.034 A 
ATOM     20  C   UNL d   1      -6.098   7.400   2.725  0.00  0.00     0.032 A 
ATOM     21  C   UNL d   1      -6.448   8.688   3.158  0.00  0.00     0.039 A 
ATOM     22  C   UNL d   1      -5.462   9.642   3.393  0.00  0.00     0.068 A 
ATOM     23  C   UNL d   1      -4.125   9.270   3.250  0.00  0.00     0.039 A 
ATOM     24  C   UNL d   1      -3.775   7.981   2.825  0.00  0.00     0.032 A 
BRANCH  22  25
ATOM     25  O   UNL d   1      -5.673  10.942   3.753  0.00  0.00    -0.356 OA
ATOM     26  C   UNL d   1      -7.005  11.435   3.643  0.00  0.00     0.210 C 
ENDBRANCH  22  25
ENDBRANCH  16  19
ENDBRANCH  14  15
ENDBRANCH   1  14
TORSDOF 6
