REMARK  4 active torsions:
REMARK  status: ('A' for Active; 'I' for Inactive)
REMARK    1  A    between atoms: C_3  and  C_1 
REMARK    2  A    between atoms: C_7  and  C_2 
REMARK       I    between atoms: N_4  and  C_3 
REMARK    3  A    between atoms: O_16  and  C_10 
REMARK    4  A    between atoms: C_17  and  O_16 
ROOT
ATOM      1  C   UNL d   1      -0.255  -1.275   0.041  0.00  0.00     0.087 A 
ATOM      2  C   UNL d   1       0.336  -0.134   0.669  0.00  0.00     0.087 A 
ATOM      3  N   UNL d   1      -0.420   0.956   0.446  0.00  0.00    -0.259 N 
ATOM      4  HN  UNL d   1      -0.268   1.890   0.826  1.00  0.00     0.195 HD
ATOM      5  O   UNL d   1      -1.437   0.568  -0.392  0.00  0.00    -0.241 OA
ATOM      6  C   UNL d   1      -1.334  -0.758  -0.648  0.00  0.00     0.090 A 
ATOM      7  C   UNL d   1      -2.329  -1.310  -1.588  0.00  0.00     0.080 C 
ENDROOT
BRANCH   1   8
ATOM      8  C   UNL d   1       0.179  -2.656   0.033  0.00  0.00     0.238 C 
ATOM      9  N   UNL d   1      -0.823  -3.595   0.223  0.00  0.00    -0.244 NA
ATOM     10  C   UNL d   1      -0.588  -5.019   0.453  0.00  0.00     0.132 C 
ATOM     11  C   UNL d   1      -1.890  -3.506   1.221  0.00  0.00     0.132 C 
ATOM     12  C   UNL d   1      -1.838  -5.037   1.349  0.00  0.00     0.156 C 
ATOM     13  O   UNL d   1       1.354  -2.962  -0.144  0.00  0.00    -0.274 OA
BRANCH  12  14
ATOM     14  O   UNL d   1      -1.681  -5.520   2.704  0.00  0.00    -0.344 OA
BRANCH  14  15
ATOM     15  C   UNL d   1      -1.402  -6.851   2.881  0.00  0.00     0.069 A 
ATOM     16  C   UNL d   1      -0.531  -7.161   3.927  0.00  0.00     0.038 A 
ATOM     17  C   UNL d   1      -0.215  -8.491   4.206  0.00  0.00     0.026 A 
ATOM     18  C   UNL d   1      -0.784  -9.508   3.442  0.00  0.00     0.034 A 
ATOM     19  C   UNL d   1      -1.665  -9.204   2.405  0.00  0.00     0.026 A 
ATOM     20 CL   UNL d   1      -0.407 -11.151   3.788  0.00  0.00    -0.084 Cl
ATOM     21  C   UNL d   1      -1.979  -7.870   2.125  0.00  0.00     0.038 A 
ENDBRANCH  14  15
ENDBRANCH  12  14
ENDBRANCH   1   8
BRANCH   2  22
ATOM     22  C   UNL d   1       1.516  -0.036   1.529  0.00  0.00     0.054 A 
ATOM     23  C   UNL d   1       2.481   0.978   1.387  0.00  0.00     0.049 A 
ATOM     24 CL   UNL d   1       2.470   2.123   0.087  0.00  0.00    -0.083 Cl
ATOM     25  C   UNL d   1       3.541   1.093   2.303  0.00  0.00     0.025 A 
ATOM     26  C   UNL d   1       3.666   0.188   3.356  0.00  0.00     0.005 A 
ATOM     27  C   UNL d   1       2.736  -0.836   3.491  0.00  0.00     0.043 A 
ATOM     28  C   UNL d   1       1.674  -0.937   2.592  0.00  0.00     0.130 A 
ATOM     29  F   UNL d   1       0.777  -1.915   2.794  0.00  0.00    -0.205 F 
ENDBRANCH   2  22
TORSDOF 4
