REMARK  4 active torsions:
REMARK  status: ('A' for Active; 'I' for Inactive)
REMARK    1  A    between atoms: C_8  and  C_2 
REMARK    2  A    between atoms: S_9  and  C_5 
REMARK    3  A    between atoms: C_14  and  S_9 
REMARK    4  A    between atoms: C_13  and  C_14 
ROOT
ATOM      1  N   UNL d   1      -1.178  -0.078  -0.033  0.00  0.00    -0.320 N 
ATOM      2  C   UNL d   1      -0.396   1.048   0.011  0.00  0.00     0.132 A 
ATOM      3  N   UNL d   1       0.867   0.659   0.080  0.00  0.00    -0.283 N 
ATOM      4  HN  UNL d   1       1.677   1.277   0.138  1.00  0.00     0.188 HD
ATOM      5  C   UNL d   1      -0.331  -1.140   0.008  0.00  0.00     0.161 A 
ATOM      6  N   UNL d   1       0.907  -0.722   0.062  0.00  0.00    -0.278 N 
ATOM      7  HN  UNL d   1       1.744  -1.305   0.086  1.00  0.00     0.189 HD
ATOM      8  H   UNL d   1      -2.188  -0.138  -0.019  0.00  0.00     0.169 HD
ENDROOT
BRANCH   2   9
ATOM      9  C   UNL d   1      -0.898   2.421   0.019  0.00  0.00     0.009 A 
ATOM     10  C   UNL d   1      -0.081   3.448   0.519  0.00  0.00     0.017 A 
ATOM     11  C   UNL d   1      -0.527   4.773   0.546  0.00  0.00     0.025 A 
ATOM     12  C   UNL d   1      -1.794   5.084   0.061  0.00  0.00     0.034 A 
ATOM     13  C   UNL d   1      -2.616   4.082  -0.449  0.00  0.00     0.025 A 
ATOM     14 CL   UNL d   1      -2.346   6.713   0.087  0.00  0.00    -0.084 Cl
ATOM     15  C   UNL d   1      -2.171   2.754  -0.468  0.00  0.00     0.017 A 
ENDBRANCH   2   9
BRANCH   5  16
ATOM     16  S   UNL d   1      -0.903  -2.761  -0.074  0.00  0.00    -0.085 SA
BRANCH  16  17
ATOM     17  C   UNL d   1      -1.678  -2.971   1.551  0.00  0.00     0.160 C 
BRANCH  17  18
ATOM     18  C   UNL d   1      -2.959  -2.167   1.718  0.00  0.00     0.132 C 
ATOM     19  O   UNL d   1      -3.353  -1.320   0.914  0.00  0.00    -0.298 OA
ATOM     20  C   UNL d   1      -3.735  -2.421   2.986  0.00  0.00     0.091 C 
ENDBRANCH  17  18
ENDBRANCH  16  17
ENDBRANCH   5  16
TORSDOF 4
