REMARK  7 active torsions:
REMARK  status: ('A' for Active; 'I' for Inactive)
REMARK    1  A    between atoms: C_5  and  C_1 
REMARK    2  A    between atoms: N_4  and  C_2 
REMARK    3  A    between atoms: C_3  and  N_4 
REMARK    4  A    between atoms: N_6  and  C_3 
REMARK    5  A    between atoms: O_16  and  C_5 
REMARK    6  A    between atoms: C_9  and  N_6 
REMARK    7  A    between atoms: N_8  and  C_10 
ROOT
ATOM      1  N   UNL d   1       1.953   3.508  -0.084  0.00  0.00    -0.331 N 
ATOM      2  H   UNL d   1       2.605   3.222   0.630  0.00  0.00     0.168 HD
ENDROOT
BRANCH   1   3
ATOM      3  C   UNL d   1       2.213   4.766  -0.606  0.00  0.00     0.176 C 
ATOM      4  S   UNL d   1       1.149   6.062  -0.605  0.00  0.00    -0.041 SA
BRANCH   3   5
ATOM      5  N   UNL d   1       3.504   5.019  -1.037  0.00  0.00    -0.332 N 
ATOM      6  H   UNL d   1       3.724   6.008  -1.157  0.00  0.00     0.168 HD
BRANCH   5   7
ATOM      7  C   UNL d   1       4.430   4.132  -1.591  0.00  0.00     0.058 A 
ATOM      8  C   UNL d   1       5.726   4.479  -1.999  0.00  0.00     0.106 A 
ATOM      9  S   UNL d   1       6.581   3.096  -2.591  0.00  0.00    -0.094 SA
ATOM     10  C   UNL d   1       5.223   2.098  -2.467  0.00  0.00     0.053 A 
ATOM     11  C   UNL d   1       4.148   2.762  -1.929  0.00  0.00     0.038 A 
BRANCH   8  12
ATOM     12  C   UNL d   1       6.399   5.781  -2.010  0.00  0.00     0.302 C 
ATOM     13  O   UNL d   1       5.869   6.857  -1.761  0.00  0.00    -0.259 OA
BRANCH  12  14
ATOM     14  O   UNL d   1       7.711   5.636  -2.380  0.00  0.00    -0.322 OA
ATOM     15  C   UNL d   1       8.492   6.811  -2.607  0.00  0.00     0.213 C 
ENDBRANCH  12  14
ENDBRANCH   8  12
ENDBRANCH   5   7
ENDBRANCH   3   5
ENDBRANCH   1   3
BRANCH   1  16
ATOM     16  C   UNL d   1       0.700   2.814  -0.025  0.00  0.00     0.061 A 
ATOM     17  C   UNL d   1       0.419   1.900   1.036  0.00  0.00     0.057 A 
ATOM     18  C   UNL d   1      -0.853   1.285   1.038  0.00  0.00     0.031 A 
ATOM     19  C   UNL d   1      -1.797   1.520   0.037  0.00  0.00     0.002 A 
ATOM     20  C   UNL d   1      -1.491   2.373  -1.010  0.00  0.00     0.002 A 
ATOM     21  C   UNL d   1      -0.247   3.006  -1.046  0.00  0.00     0.032 A 
BRANCH  17  22
ATOM     22  N   UNL d   1       1.331   1.662   2.081  0.00  0.00    -0.375 N 
ATOM     23  C   UNL d   1       0.810   1.335   3.438  0.00  0.00     0.149 C 
ATOM     24  C   UNL d   1       0.784  -0.177   3.724  0.00  0.00     0.187 C 
ATOM     25  O   UNL d   1       2.060  -0.781   3.474  0.00  0.00    -0.388 OA
ATOM     26  C   UNL d   1       2.423  -0.594   2.099  0.00  0.00     0.187 C 
ATOM     27  C   UNL d   1       2.552   0.896   1.740  0.00  0.00     0.149 C 
ENDBRANCH  17  22
ENDBRANCH   1  16
TORSDOF 7
