REMARK  5 active torsions:
REMARK  status: ('A' for Active; 'I' for Inactive)
REMARK    1  A    between atoms: C_4  and  C_1 
REMARK    2  A    between atoms: C_5  and  C_1 
REMARK    3  A    between atoms: N_6  and  N_2 
REMARK    4  A    between atoms: C_12  and  N_6 
REMARK    5  A    between atoms: C_13  and  C_7 
ROOT
ATOM      1  N   UNL d   1       0.895  -1.966   0.937  0.00  0.00    -0.300 N 
ATOM      2  H   UNL d   1       0.441  -1.512   0.133  0.00  0.00     0.187 HD
ENDROOT
BRANCH   1   3
ATOM      3  N   UNL d   1       2.231  -1.778   1.148  0.00  0.00    -0.294 N 
ATOM      4  C   UNL d   1       2.784  -0.691   0.675  0.00  0.00     0.139 C 
ATOM      5  HN  UNL d   1       2.782  -2.466   1.660  1.00  0.00     0.187 HD
BRANCH   4   6
ATOM      6  C   UNL d   1       4.297  -0.601   0.849  0.00  0.00     0.177 C 
ATOM      7  O   UNL d   1       4.816   0.480   1.076  0.00  0.00    -0.291 OA
ATOM      8  C   UNL d   1       5.103  -1.864   0.730  0.00  0.00     0.098 C 
ENDBRANCH   4   6
BRANCH   4   9
ATOM      9  C   UNL d   1       1.974   0.394  -0.033  0.00  0.00     0.177 C 
ATOM     10  O   UNL d   1       1.029   0.056  -0.747  0.00  0.00    -0.291 OA
ATOM     11  C   UNL d   1       2.292   1.844   0.206  0.00  0.00     0.098 C 
ENDBRANCH   4   9
ENDBRANCH   1   3
BRANCH   1  12
ATOM     12  C   UNL d   1       0.308  -3.180   1.348  0.00  0.00     0.048 A 
ATOM     13  C   UNL d   1       0.801  -3.895   2.443  0.00  0.00     0.031 A 
ATOM     14  C   UNL d   1       0.163  -5.054   2.897  0.00  0.00     0.010 A 
ATOM     15  C   UNL d   1      -0.978  -5.552   2.251  0.00  0.00    -0.055 A 
ATOM     16  C   UNL d   1      -1.456  -4.859   1.132  0.00  0.00     0.010 A 
ATOM     17  C   UNL d   1      -0.822  -3.684   0.691  0.00  0.00     0.031 A 
BRANCH  15  18
ATOM     18  C   UNL d   1      -1.684  -6.801   2.752  0.00  0.00     0.010 C 
ATOM     19  C   UNL d   1      -0.753  -8.017   2.742  0.00  0.00     0.015 C 
ATOM     20  C   UNL d   1      -2.271  -6.593   4.154  0.00  0.00     0.015 C 
ENDBRANCH  15  18
ENDBRANCH   1  12
TORSDOF 5
