REMARK  7 active torsions:
REMARK  status: ('A' for Active; 'I' for Inactive)
REMARK    1  A    between atoms: C_5  and  C_1 
REMARK    2  A    between atoms: S_14  and  C_2 
REMARK    3  A    between atoms: C_11  and  C_5 
REMARK    4  A    between atoms: C_8  and  C_18 
REMARK       I    between atoms: N_13  and  C_8 
REMARK    5  A    between atoms: C_16  and  C_11 
REMARK    6  A    between atoms: C_20  and  N_13 
REMARK    7  A    between atoms: C_18  and  S_14 
ROOT
ATOM      1  C   UNL d   1       3.328  -6.381   0.165  0.00  0.00     0.144 A 
ATOM      2  N   UNL d   1       3.082  -5.082   0.371  0.00  0.00    -0.337 N 
ATOM      3  HN  UNL d   1       3.740  -4.488   0.875  1.00  0.00     0.168 HD
ATOM      4  N   UNL d   1       2.525  -7.229  -0.489  0.00  0.00    -0.347 N 
ATOM      5  HN  UNL d   1       2.765  -8.211  -0.620  1.00  0.00     0.167 HD
ATOM      6  C   UNL d   1       1.925  -4.595  -0.119  0.00  0.00     0.035 A 
ATOM      7  C   UNL d   1       1.383  -6.707  -0.963  0.00  0.00     0.092 A 
ATOM      8  C   UNL d   1       1.033  -5.385  -0.813  0.00  0.00     0.046 A 
ENDROOT
BRANCH   1   9
ATOM      9  S   UNL d   1       4.971  -6.902   0.567  0.00  0.00    -0.085 SA
BRANCH   9  10
ATOM     10  C   UNL d   1       5.434  -7.562  -1.053  0.00  0.00     0.185 C 
BRANCH  10  11
ATOM     11  C   UNL d   1       5.381  -6.597  -2.232  0.00  0.00     0.231 C 
ATOM     12  N   UNL d   1       5.218  -5.254  -1.954  0.00  0.00    -0.327 N 
ATOM     13  H   UNL d   1       5.188  -4.990  -0.973  0.00  0.00     0.169 HD
ATOM     14  O   UNL d   1       5.545  -7.063  -3.365  0.00  0.00    -0.272 OA
BRANCH  12  15
ATOM     15  C   UNL d   1       5.147  -4.190  -2.880  0.00  0.00     0.034 A 
ATOM     16  C   UNL d   1       5.068  -4.368  -4.263  0.00  0.00     0.029 A 
ATOM     17  C   UNL d   1       5.090  -3.268  -5.126  0.00  0.00     0.002 A 
ATOM     18  C   UNL d   1       5.179  -1.978  -4.613  0.00  0.00     0.000 A 
ATOM     19  C   UNL d   1       5.208  -1.785  -3.234  0.00  0.00     0.002 A 
ATOM     20  C   UNL d   1       5.178  -2.886  -2.371  0.00  0.00     0.029 A 
ENDBRANCH  12  15
ENDBRANCH  10  11
ENDBRANCH   9  10
ENDBRANCH   1   9
BRANCH   6  21
ATOM     21  C   UNL d   1       1.663  -3.164   0.096  0.00  0.00     0.031 C 
BRANCH  21  22
ATOM     22  C   UNL d   1       2.478  -2.380   0.820  0.00  0.00     0.021 C 
BRANCH  22  23
ATOM     23  C   UNL d   1       2.258  -0.987   1.042  0.00  0.00     0.010 A 
ATOM     24  C   UNL d   1       1.105  -0.230   1.253  0.00  0.00    -0.044 A 
ATOM     25  C   UNL d   1       1.420   1.157   1.479  0.00  0.00     0.015 A 
ATOM     26  C   UNL d   1      -0.310  -0.712   1.302  0.00  0.00     0.049 C 
ATOM     27  C   UNL d   1       2.767   1.416   1.449  0.00  0.00     0.051 A 
ATOM     28  S   UNL d   1       3.670   0.012   1.138  0.00  0.00    -0.102 SA
ENDBRANCH  22  23
ENDBRANCH  21  22
ENDBRANCH   6  21
TORSDOF 7
