REMARK  5 active torsions:
REMARK  status: ('A' for Active; 'I' for Inactive)
REMARK    1  A    between atoms: C_11  and  N_1 
REMARK    2  A    between atoms: N_7  and  C_2 
REMARK    3  A    between atoms: C_9  and  C_5 
REMARK    4  A    between atoms: N_6  and  C_8 
REMARK    5  A    between atoms: C_18  and  N_7 
ROOT
ATOM      1  N   UNL d   1      -0.058  -1.098  -0.064  0.00  0.00    -0.300 N 
ATOM      2  C   UNL d   1      -0.219   1.223   0.026  0.00  0.00     0.100 A 
ATOM      3  C   UNL d   1       0.719   0.059  -0.040  0.00  0.00     0.275 A 
ATOM      4  C   UNL d   1      -1.451   0.712   0.033  0.00  0.00     0.038 A 
ATOM      5  C   UNL d   1      -1.467  -0.780   0.053  0.00  0.00     0.151 A 
ATOM      6  O   UNL d   1       1.930   0.206  -0.087  0.00  0.00    -0.265 OA
ENDROOT
BRANCH   5   7
ATOM      7  C   UNL d   1      -2.093  -1.307   1.340  0.00  0.00    -0.031 A 
ATOM      8  C   UNL d   1      -3.276  -2.064   1.290  0.00  0.00     0.012 A 
ATOM      9  C   UNL d   1      -3.845  -2.577   2.459  0.00  0.00     0.037 A 
ATOM     10  C   UNL d   1      -3.236  -2.324   3.697  0.00  0.00     0.102 A 
ATOM     11  C   UNL d   1      -2.066  -1.562   3.768  0.00  0.00     0.037 A 
ATOM     12  C   UNL d   1      -1.502  -1.060   2.596  0.00  0.00     0.012 A 
BRANCH  10  13
ATOM     13  N   UNL d   1      -3.826  -2.869   4.926  0.00  0.00    -0.116 N 
ATOM     14  O   UNL d   1      -3.263  -2.612   6.000  0.00  0.00    -0.532 OA
ATOM     15  O   UNL d   1      -4.853  -3.554   4.816  0.00  0.00    -0.532 OA
ENDBRANCH  10  13
ENDBRANCH   5   7
BRANCH   1  16
ATOM     16  C   UNL d   1       0.431  -2.428  -0.162  0.00  0.00     0.038 A 
ATOM     17  C   UNL d   1       1.748  -2.750   0.189  0.00  0.00     0.030 A 
ATOM     18  C   UNL d   1       2.210  -4.070   0.122  0.00  0.00     0.002 A 
ATOM     19  C   UNL d   1       1.368  -5.085  -0.321  0.00  0.00     0.000 A 
ATOM     20  C   UNL d   1       0.062  -4.784  -0.689  0.00  0.00     0.002 A 
ATOM     21  C   UNL d   1      -0.404  -3.469  -0.601  0.00  0.00     0.030 A 
ENDBRANCH   1  16
BRANCH   2  22
ATOM     22  N   UNL d   1       0.245   2.513   0.033  0.00  0.00    -0.352 N 
ATOM     23  H   UNL d   1       1.245   2.542  -0.182  0.00  0.00     0.166 HD
BRANCH  22  24
ATOM     24  C   UNL d   1      -0.073   3.486   1.011  0.00  0.00     0.032 A 
ATOM     25  C   UNL d   1      -0.891   3.232   2.119  0.00  0.00     0.029 A 
ATOM     26  C   UNL d   1      -1.174   4.233   3.052  0.00  0.00     0.002 A 
ATOM     27  C   UNL d   1      -0.657   5.514   2.877  0.00  0.00     0.000 A 
ATOM     28  C   UNL d   1       0.141   5.792   1.771  0.00  0.00     0.002 A 
ATOM     29  C   UNL d   1       0.426   4.785   0.843  0.00  0.00     0.029 A 
ENDBRANCH  22  24
ENDBRANCH   2  22
TORSDOF 5
