REMARK  6 active torsions:
REMARK  status: ('A' for Active; 'I' for Inactive)
REMARK    1  A    between atoms: C_3  and  C_1 
REMARK       I    between atoms: N_9  and  C_1 
REMARK    2  A    between atoms: C_2  and  C_17 
REMARK    3  A    between atoms: C_18  and  N_9 
REMARK    4  A    between atoms: S_15  and  C_19 
REMARK    5  A    between atoms: C_17  and  S_15 
REMARK    6  A    between atoms: C_19  and  C_18 
ROOT
ATOM      1  C   UNL d   1       1.974   1.130  -0.353  0.00  0.00     0.251 C 
ATOM      2  O   UNL d   1       2.190   1.539  -1.492  0.00  0.00    -0.268 OA
ATOM      3  N   UNL d   1       2.470  -0.071   0.098  0.00  0.00    -0.356 N 
ATOM      4  H   UNL d   1       2.471  -0.292   1.083  0.00  0.00     0.162 HD
ENDROOT
BRANCH   3   5
ATOM      5  C   UNL d   1       3.293  -0.936  -0.735  0.00  0.00     0.133 C 
BRANCH   5   6
ATOM      6  C   UNL d   1       4.793  -0.700  -0.536  0.00  0.00     0.094 C 
BRANCH   6   7
ATOM      7  S   UNL d   1       5.233  -1.011   1.211  0.00  0.00    -0.161 SA
BRANCH   7   8
ATOM      8  C   UNL d   1       7.024  -0.683   1.126  0.00  0.00     0.139 C 
BRANCH   8   9
ATOM      9  C   UNL d   1       7.620  -0.805   2.482  0.00  0.00     0.061 A 
ATOM     10  O   UNL d   1       8.593  -1.749   2.643  0.00  0.00    -0.326 OA
ATOM     11  C   UNL d   1       8.975  -1.706   3.946  0.00  0.00     0.142 A 
ATOM     12  C   UNL d   1       8.270  -0.741   4.625  0.00  0.00     0.027 A 
ATOM     13  C   UNL d   1       7.399  -0.152   3.679  0.00  0.00     0.035 A 
ENDBRANCH   8   9
ENDBRANCH   7   8
ENDBRANCH   6   7
ENDBRANCH   5   6
ENDBRANCH   3   5
BRANCH   1  14
ATOM     14  C   UNL d   1       1.131   1.939   0.584  0.00  0.00     0.032 A 
ATOM     15  C   UNL d   1       0.584   3.140   0.099  0.00  0.00     0.018 A 
ATOM     16  C   UNL d   1      -0.255   3.922   0.899  0.00  0.00     0.025 A 
ATOM     17  C   UNL d   1      -0.551   3.510   2.195  0.00  0.00     0.034 A 
ATOM     18  C   UNL d   1      -0.009   2.329   2.698  0.00  0.00     0.025 A 
ATOM     19 CL   UNL d   1      -1.600   4.457   3.177  0.00  0.00    -0.084 Cl
ATOM     20  C   UNL d   1       0.829   1.543   1.896  0.00  0.00     0.018 A 
ENDBRANCH   1  14
TORSDOF 6
