REMARK  4 active torsions:
REMARK  status: ('A' for Active; 'I' for Inactive)
REMARK       I    between atoms: N_3  and  C_1 
REMARK       I    between atoms: N_4  and  C_1 
REMARK    1  A    between atoms: C_2  and  C_6 
REMARK    2  A    between atoms: O_16  and  C_2 
REMARK    3  A    between atoms: C_5  and  N_3 
REMARK    4  A    between atoms: C_9  and  N_4 
ROOT
ATOM      1  C   UNL d   1       1.163   0.102  -0.138  0.00  0.00     0.325 C 
ATOM      2  N   UNL d   1       0.534   0.770   0.897  0.00  0.00    -0.309 N 
ATOM      3  N   UNL d   1       0.297  -0.766  -0.787  0.00  0.00    -0.309 N 
ATOM      4  O   UNL d   1       2.340   0.233  -0.449  0.00  0.00    -0.247 OA
ATOM      5  H   UNL d   1      -0.357   0.398   1.189  0.00  0.00     0.170 HD
ATOM      6  H   UNL d   1      -0.682  -0.522  -0.759  0.00  0.00     0.170 HD
ENDROOT
BRANCH   2   7
ATOM      7  C   UNL d   1       1.160   1.670   1.792  0.00  0.00     0.037 A 
ATOM      8  C   UNL d   1       2.410   2.247   1.551  0.00  0.00     0.036 A 
ATOM      9  C   UNL d   1       3.038   3.046   2.515  0.00  0.00    -0.059 A 
ATOM     10  C   UNL d   1       4.411   3.598   2.266  0.00  0.00     0.048 C 
ATOM     11  C   UNL d   1       2.389   3.282   3.730  0.00  0.00     0.013 A 
ATOM     12  C   UNL d   1       1.117   2.748   3.975  0.00  0.00    -0.059 A 
ATOM     13  C   UNL d   1       0.502   1.957   2.993  0.00  0.00     0.036 A 
ATOM     14  C   UNL d   1       0.455   2.989   5.299  0.00  0.00     0.048 C 
ENDBRANCH   2   7
BRANCH   3  15
ATOM     15  C   UNL d   1       0.702  -1.691  -1.776  0.00  0.00     0.037 A 
ATOM     16  C   UNL d   1       2.022  -2.147  -1.877  0.00  0.00     0.048 A 
ATOM     17  C   UNL d   1       2.411  -2.977  -2.931  0.00  0.00     0.039 A 
ATOM     18  C   UNL d   1       1.454  -3.429  -3.843  0.00  0.00     0.018 A 
ATOM     19  C   UNL d   1       0.122  -3.034  -3.708  0.00  0.00     0.003 A 
ATOM     20  C   UNL d   1      -0.252  -2.166  -2.678  0.00  0.00     0.029 A 
BRANCH  17  21
ATOM     21  C   UNL d   1       3.817  -3.418  -3.092  0.00  0.00     0.176 C 
ATOM     22  O   UNL d   1       4.114  -4.487  -3.602  0.00  0.00    -0.646 OA
BRANCH  21  23
ATOM     23  O   UNL d   1       4.735  -2.519  -2.679  0.00  0.00    -0.773 OA
ATOM     24  H   UNL d   1       4.386  -1.647  -2.409  0.00  0.00     0.167 HD
ENDBRANCH  21  23
ENDBRANCH  17  21
ENDBRANCH   3  15
TORSDOF 4
