REMARK  5 active torsions:
REMARK  status: ('A' for Active; 'I' for Inactive)
REMARK    1  A    between atoms: C_3  and  C_2 
REMARK    2  A    between atoms: C_7  and  C_3 
REMARK    3  A    between atoms: C_5  and  N_8 
REMARK    4  A    between atoms: N_8  and  C_6 
REMARK    5  A    between atoms: C_20  and  C_19 
ROOT
ATOM      1  C   UNL d   1      -4.911  -2.160   0.015  0.00  0.00     0.072 C 
ATOM      2  C   UNL d   1      -4.910  -3.483  -0.186  0.00  0.00     0.092 C 
ENDROOT
BRANCH   1   3
ATOM      3  C   UNL d   1      -6.224  -1.454   0.061  0.00  0.00     0.183 C 
ATOM      4  O   UNL d   1      -7.279  -2.061   0.227  0.00  0.00    -0.288 OA
BRANCH   3   5
ATOM      5  C   UNL d   1      -6.237   0.028  -0.051  0.00  0.00     0.014 A 
ATOM      6  C   UNL d   1      -5.314   0.726  -0.836  0.00  0.00     0.016 A 
ATOM      7  C   UNL d   1      -5.382   2.122  -0.919  0.00  0.00     0.008 A 
ATOM      8  C   UNL d   1      -6.374   2.833  -0.230  0.00  0.00    -0.059 A 
ATOM      9  C   UNL d   1      -7.306   2.125   0.539  0.00  0.00     0.008 A 
ATOM     10  C   UNL d   1      -7.244   0.732   0.619  0.00  0.00     0.016 A 
BRANCH   8  11
ATOM     11  C   UNL d   1      -6.434   4.339  -0.302  0.00  0.00     0.034 C 
ATOM     12  C   UNL d   1      -5.608   4.999   0.793  0.00  0.00     0.010 C 
ENDBRANCH   8  11
ENDBRANCH   3   5
ENDBRANCH   1   3
BRANCH   2  13
ATOM     13  N   UNL d   1      -3.838  -4.342  -0.223  0.00  0.00    -0.364 N 
ATOM     14  H   UNL d   1      -2.949  -3.996   0.134  0.00  0.00     0.165 HD
BRANCH  13  15
ATOM     15  C   UNL d   1      -3.860  -5.713  -0.560  0.00  0.00     0.054 A 
ATOM     16  C   UNL d   1      -2.877  -6.601  -0.072  0.00  0.00     0.062 A 
ATOM     17  C   UNL d   1      -2.932  -7.973  -0.345  0.00  0.00     0.050 A 
ATOM     18 CL   UNL d   1      -1.569  -6.020   0.902  0.00  0.00    -0.082 Cl
ATOM     19  C   UNL d   1      -3.972  -8.477  -1.119  0.00  0.00     0.035 A 
ATOM     20 CL   UNL d   1      -4.055 -10.162  -1.455  0.00  0.00    -0.084 Cl
ATOM     21  C   UNL d   1      -4.950  -7.627  -1.622  0.00  0.00     0.026 A 
ATOM     22  C   UNL d   1      -4.895  -6.259  -1.340  0.00  0.00     0.033 A 
ENDBRANCH  13  15
ENDBRANCH   2  13
TORSDOF 5
