REMARK  6 active torsions:
REMARK  status: ('A' for Active; 'I' for Inactive)
REMARK    1  A    between atoms: S_2  and  C_1 
REMARK    2  A    between atoms: N_8  and  S_2 
REMARK    3  A    between atoms: C_11  and  N_8 
REMARK    4  A    between atoms: C_10  and  C_9 
REMARK       I    between atoms: N_14  and  C_10 
REMARK    5  A    between atoms: C_19  and  N_14 
REMARK    6  A    between atoms: C_15  and  C_19 
ROOT
ATOM      1  C   UNL d   1       2.427   0.084   3.230  0.00  0.00     0.059 A 
ATOM      2  C   UNL d   1       3.708  -0.104   2.684  0.00  0.00     0.058 A 
ATOM      3  C   UNL d   1       2.294   0.649   4.511  0.00  0.00     0.019 A 
ATOM      4  C   UNL d   1       4.836   0.277   3.417  0.00  0.00     0.031 A 
ATOM      5  C   UNL d   1       3.430   0.999   5.245  0.00  0.00     0.001 A 
ATOM      6  C   UNL d   1       4.699   0.806   4.701  0.00  0.00     0.002 A 
ENDROOT
BRANCH   2   7
ATOM      7  N   UNL d   1       3.944  -0.729   1.422  0.00  0.00    -0.278 N 
ATOM      8  H   UNL d   1       3.402  -1.586   1.253  0.00  0.00     0.179 HD
BRANCH   7   9
ATOM      9  S   UNL d   1       4.066   0.234   0.042  0.00  0.00     0.280 S 
ATOM     10  O   UNL d   1       4.171  -0.694  -1.075  0.00  0.00    -0.199 OA
ATOM     11  O   UNL d   1       5.073   1.248   0.252  0.00  0.00    -0.199 OA
BRANCH   9  12
ATOM     12  C   UNL d   1       2.597   1.138  -0.308  0.00  0.00     0.166 A 
ATOM     13  N   UNL d   1       2.120   2.178   0.483  0.00  0.00    -0.334 N 
ATOM     14  C   UNL d   1       1.176   2.762  -0.228  0.00  0.00     0.079 A 
ATOM     15  HN  UNL d   1       2.435   2.435   1.419  1.00  0.00     0.168 HD
ATOM     16  C   UNL d   1       0.503   4.048   0.103  0.00  0.00     0.089 C 
ATOM     17  N   UNL d   1       0.934   2.062  -1.389  0.00  0.00    -0.348 N 
ATOM     18  C   UNL d   1       1.840   1.042  -1.459  0.00  0.00     0.135 A 
ATOM     19  C   UNL d   1      -0.047   2.393  -2.400  0.00  0.00     0.156 C 
ENDBRANCH   9  12
ENDBRANCH   7   9
ENDBRANCH   2   7
BRANCH   1  20
ATOM     20  C   UNL d   1       1.232  -0.492   2.574  0.00  0.00     0.253 C 
ATOM     21  N   UNL d   1       0.050   0.215   2.652  0.00  0.00    -0.356 N 
ATOM     22  H   UNL d   1       0.129   1.223   2.731  0.00  0.00     0.162 HD
ATOM     23  O   UNL d   1       1.332  -1.584   2.005  0.00  0.00    -0.268 OA
BRANCH  21  24
ATOM     24  C   UNL d   1      -1.139  -0.348   2.057  0.00  0.00     0.127 C 
BRANCH  24  25
ATOM     25  C   UNL d   1      -2.412   0.367   2.387  0.00  0.00     0.003 A 
ATOM     26  C   UNL d   1      -2.655   1.778   1.911  0.00  0.00     0.007 A 
ATOM     27  C   UNL d   1      -2.539   1.495   3.384  0.00  0.00     0.007 A 
ENDBRANCH  24  25
ENDBRANCH  21  24
ENDBRANCH   1  20
TORSDOF 6
