REMARK  5 active torsions:
REMARK  status: ('A' for Active; 'I' for Inactive)
REMARK    1  A    between atoms: S_12  and  C_2 
REMARK    2  A    between atoms: C_3  and  C_10 
REMARK    3  A    between atoms: C_8  and  N_11 
REMARK       I    between atoms: N_11  and  C_14 
REMARK    4  A    between atoms: C_22  and  S_12 
REMARK    5  A    between atoms: C_14  and  C_22 
ROOT
ATOM      1  N   UNL d   1       1.744   5.272  -0.027  0.00  0.00    -0.325 N 
ATOM      2  C   UNL d   1       2.626   4.313  -0.493  0.00  0.00     0.231 C 
ATOM      3  O   UNL d   1       3.704   4.549  -1.037  0.00  0.00    -0.272 OA
ATOM      4  H   UNL d   1       0.919   4.937   0.466  0.00  0.00     0.169 HD
ENDROOT
BRANCH   1   5
ATOM      5  C   UNL d   1       1.854   6.680  -0.146  0.00  0.00     0.057 A 
ATOM      6  C   UNL d   1       2.877   7.303  -0.871  0.00  0.00     0.047 A 
ATOM      7  C   UNL d   1       2.960   8.705  -0.971  0.00  0.00     0.050 A 
ATOM      8  C   UNL d   1       1.993   9.490  -0.327  0.00  0.00     0.018 A 
ATOM      9  C   UNL d   1       0.963   8.888   0.394  0.00  0.00     0.027 A 
ATOM     10  C   UNL d   1       0.893   7.493   0.479  0.00  0.00     0.060 A 
ATOM     11 CL   UNL d   1      -0.409   6.800   1.388  0.00  0.00    -0.082 Cl
BRANCH   7  12
ATOM     12  C   UNL d   1       4.066   9.359  -1.765  0.00  0.00     0.417 C 
ATOM     13  F   UNL d   1       4.965   8.482  -2.289  0.00  0.00    -0.166 F 
ATOM     14  F   UNL d   1       3.586  10.075  -2.820  0.00  0.00    -0.166 F 
ATOM     15  F   UNL d   1       4.791  10.236  -1.019  0.00  0.00    -0.166 F 
ENDBRANCH   7  12
ENDBRANCH   1   5
BRANCH   2  16
ATOM     16  C   UNL d   1       2.234   2.878  -0.193  0.00  0.00     0.185 C 
BRANCH  16  17
ATOM     17  S   UNL d   1       0.517   2.512  -0.670  0.00  0.00    -0.083 SA
BRANCH  17  18
ATOM     18  C   UNL d   1       0.522   0.803  -0.400  0.00  0.00     0.162 A 
ATOM     19  N   UNL d   1      -0.479  -0.045  -0.769  0.00  0.00    -0.326 N 
ATOM     20  C   UNL d   1      -0.072  -1.286  -0.371  0.00  0.00     0.201 A 
ATOM     21  C   UNL d   1      -1.721   0.240  -1.434  0.00  0.00     0.159 C 
ATOM     22  N   UNL d   1       1.106  -1.201   0.203  0.00  0.00    -0.294 N 
ATOM     23  N   UNL d   1       1.480   0.121   0.187  0.00  0.00    -0.279 N 
ATOM     24  HN  UNL d   1       1.645  -1.975   0.591  1.00  0.00     0.187 HD
ATOM     25  HN  UNL d   1       2.347   0.505   0.563  1.00  0.00     0.189 HD
ENDBRANCH  17  18
ENDBRANCH  16  17
ENDBRANCH   2  16
TORSDOF 5
