REMARK  4 active torsions:
REMARK  status: ('A' for Active; 'I' for Inactive)
REMARK    1  A    between atoms: N_7  and  C_1 
REMARK    2  A    between atoms: N_8  and  C_2 
REMARK    3  A    between atoms: S_6  and  C_3 
REMARK    4  A    between atoms: N_13  and  S_6 
ROOT
ATOM      1  C   UNL d   1      -0.318   0.230   0.632  0.00  0.00     0.138 A 
ATOM      2  C   UNL d   1       0.289   1.340   0.039  0.00  0.00     0.107 A 
ATOM      3  C   UNL d   1       1.832  -0.623   0.221  0.00  0.00     0.119 A 
ATOM      4  C   UNL d   1       0.585  -0.890   0.735  0.00  0.00     0.071 A 
ATOM      5  S   UNL d   1       1.908   0.934  -0.441  0.00  0.00    -0.057 SA
ENDROOT
BRANCH   2   6
ATOM      6  N   UNL d   1      -0.212   2.609  -0.185  0.00  0.00    -0.373 N 
ATOM      7  C   UNL d   1       0.281   3.355  -1.361  0.00  0.00     0.123 C 
ATOM      8  C   UNL d   1      -0.670   4.497  -1.696  0.00  0.00     0.020 C 
ATOM      9  C   UNL d   1      -0.840   5.429  -0.503  0.00  0.00     0.003 C 
ATOM     10  C   UNL d   1      -1.274   4.647   0.733  0.00  0.00     0.020 C 
ATOM     11  C   UNL d   1      -0.345   3.466   1.016  0.00  0.00     0.123 C 
ENDBRANCH   2   6
BRANCH   1  12
ATOM     12  N   UNL d   1      -1.693   0.151   1.094  0.00  0.00    -0.113 N 
ATOM     13  O   UNL d   1      -2.441   1.122   0.935  0.00  0.00    -0.532 OA
ATOM     14  O   UNL d   1      -2.028  -0.919   1.624  0.00  0.00    -0.532 OA
ENDBRANCH   1  12
BRANCH   3  15
ATOM     15  S   UNL d   1       3.318  -1.584   0.105  0.00  0.00     0.246 S 
ATOM     16  O   UNL d   1       4.354  -0.783   0.706  0.00  0.00    -0.206 OA
ATOM     17  O   UNL d   1       2.941  -2.891   0.589  0.00  0.00    -0.206 OA
BRANCH  15  18
ATOM     18  N   UNL d   1       3.669  -1.746  -1.526  0.00  0.00    -0.225 NA
ATOM     19  H   UNL d   1       3.920  -0.864  -1.968  0.00  0.00     0.136 HD
ATOM     20  H   UNL d   1       2.994  -2.324  -2.022  0.00  0.00     0.136 HD
ENDBRANCH  15  18
ENDBRANCH   3  15
TORSDOF 4
