REMARK  3 active torsions:
REMARK  status: ('A' for Active; 'I' for Inactive)
REMARK    1  A    between atoms: C_2  and  C_1 
REMARK       I    between atoms: N_3  and  C_1 
REMARK    2  A    between atoms: C_12  and  N_3 
REMARK    3  A    between atoms: O_18  and  C_13 
ROOT
ATOM      1  C   UNL d   1       0.973   0.018   0.103  0.00  0.00     0.256 C 
ATOM      2  N   UNL d   1       0.160  -0.737  -0.727  0.00  0.00    -0.323 N 
ATOM      3  O   UNL d   1       2.193   0.117   0.039  0.00  0.00    -0.267 OA
ATOM      4  H   UNL d   1      -0.828  -0.763  -0.522  0.00  0.00     0.169 HD
ENDROOT
BRANCH   1   5
ATOM      5  C   UNL d   1       0.282   0.754   1.201  0.00  0.00     0.033 A 
ATOM      6  C   UNL d   1       1.000   0.996   2.378  0.00  0.00     0.030 A 
ATOM      7  C   UNL d   1       0.405   1.672   3.455  0.00  0.00    -0.009 A 
ATOM      8  C   UNL d   1       1.098   1.908   4.649  0.00  0.00     0.015 A 
ATOM      9  C   UNL d   1      -0.926   2.129   3.358  0.00  0.00     0.042 A 
ATOM     10  C   UNL d   1       0.467   2.569   5.694  0.00  0.00     0.018 A 
ATOM     11  C   UNL d   1      -0.840   2.977   5.506  0.00  0.00     0.088 A 
ATOM     12  N   UNL d   1      -1.539   2.772   4.367  0.00  0.00    -0.365 N 
ATOM     13  HN  UNL d   1      -2.502   3.095   4.276  1.00  0.00     0.165 HD
ATOM     14  C   UNL d   1      -1.612   1.905   2.171  0.00  0.00     0.031 A 
ATOM     15  C   UNL d   1      -1.027   1.230   1.092  0.00  0.00     0.019 A 
ENDBRANCH   1   5
BRANCH   2  16
ATOM     16  C   UNL d   1       0.573  -1.521  -1.826  0.00  0.00     0.035 A 
ATOM     17  C   UNL d   1       1.904  -1.682  -2.211  0.00  0.00     0.032 A 
ATOM     18  C   UNL d   1       2.244  -2.455  -3.328  0.00  0.00     0.039 A 
ATOM     19  C   UNL d   1       1.252  -3.074  -4.084  0.00  0.00     0.068 A 
ATOM     20  C   UNL d   1      -0.080  -2.935  -3.693  0.00  0.00     0.039 A 
ATOM     21  C   UNL d   1      -0.420  -2.169  -2.571  0.00  0.00     0.032 A 
BRANCH  19  22
ATOM     22  O   UNL d   1       1.455  -3.825  -5.208  0.00  0.00    -0.356 OA
ATOM     23  C   UNL d   1       2.796  -3.915  -5.678  0.00  0.00     0.210 C 
ENDBRANCH  19  22
ENDBRANCH   2  16
TORSDOF 3
