REMARK  7 active torsions:
REMARK  status: ('A' for Active; 'I' for Inactive)
REMARK    1  A    between atoms: N_3  and  S_1 
REMARK    2  A    between atoms: C_6  and  S_1 
REMARK    3  A    between atoms: C_2  and  N_3 
REMARK    4  A    between atoms: N_5  and  C_4 
REMARK    5  A    between atoms: C_8  and  C_9 
REMARK    6  A    between atoms: O_17  and  C_8 
REMARK    7  A    between atoms: C_23  and  O_17 
ROOT
ATOM      1  C   UNL d   1       0.833  -2.577  -0.520  0.00  0.00     0.070 A 
ATOM      2  C   UNL d   1       2.126  -2.751  -1.071  0.00  0.00     0.058 A 
ATOM      3  C   UNL d   1      -0.218  -3.446  -0.858  0.00  0.00     0.050 A 
ATOM      4  C   UNL d   1      -0.009  -4.515  -1.737  0.00  0.00     0.041 A 
ATOM      5  C   UNL d   1       2.287  -3.820  -1.979  0.00  0.00     0.033 A 
ATOM      6  C   UNL d   1       1.248  -4.690  -2.310  0.00  0.00     0.020 A 
ENDROOT
BRANCH   1   7
ATOM      7  N   UNL d   1       0.516  -1.521   0.393  0.00  0.00    -0.278 N 
ATOM      8  H   UNL d   1      -0.061  -1.766   1.195  0.00  0.00     0.179 HD
BRANCH   7   9
ATOM      9  S   UNL d   1       0.165   0.025  -0.180  0.00  0.00     0.263 S 
ATOM     10  O   UNL d   1       1.223   0.499  -1.045  0.00  0.00    -0.200 OA
ATOM     11  O   UNL d   1      -0.234   0.789   0.987  0.00  0.00    -0.200 OA
BRANCH   9  12
ATOM     12  C   UNL d   1      -1.293  -0.197  -1.175  0.00  0.00     0.079 A 
ATOM     13  C   UNL d   1      -2.558  -0.135  -0.584  0.00  0.00     0.026 A 
ATOM     14  C   UNL d   1      -3.701  -0.220  -1.385  0.00  0.00     0.008 A 
ATOM     15  C   UNL d   1      -3.584  -0.350  -2.777  0.00  0.00    -0.062 A 
ATOM     16  C   UNL d   1      -2.309  -0.405  -3.356  0.00  0.00     0.008 A 
ATOM     17  C   UNL d   1      -4.817  -0.415  -3.631  0.00  0.00     0.048 C 
ATOM     18  C   UNL d   1      -1.165  -0.322  -2.561  0.00  0.00     0.026 A 
ENDBRANCH   9  12
ENDBRANCH   7   9
ENDBRANCH   1   7
BRANCH   2  19
ATOM     19  N   UNL d   1       3.267  -2.043  -0.721  0.00  0.00    -0.379 N 
ATOM     20  C   UNL d   1       3.458  -1.451   0.603  0.00  0.00     0.123 C 
ATOM     21  C   UNL d   1       4.919  -1.647   1.025  0.00  0.00     0.020 C 
ATOM     22  C   UNL d   1       5.897  -1.139  -0.034  0.00  0.00     0.003 C 
ATOM     23  C   UNL d   1       5.585  -1.743  -1.401  0.00  0.00     0.020 C 
ATOM     24  C   UNL d   1       4.124  -1.496  -1.780  0.00  0.00     0.123 C 
ENDBRANCH   2  19
BRANCH   4  25
ATOM     25  C   UNL d   1      -1.127  -5.459  -1.984  0.00  0.00     0.293 C 
ATOM     26  O   UNL d   1      -2.230  -5.340  -1.470  0.00  0.00    -0.259 OA
BRANCH  25  27
ATOM     27  O   UNL d   1      -0.732  -6.458  -2.809  0.00  0.00    -0.318 OA
BRANCH  27  28
ATOM     28  C   UNL d   1      -1.700  -7.489  -3.051  0.00  0.00     0.174 C 
ATOM     29  C   UNL d   1      -2.654  -7.070  -4.153  0.00  0.00     0.034 C 
ENDBRANCH  27  28
ENDBRANCH  25  27
ENDBRANCH   4  25
TORSDOF 7
