REMARK  5 active torsions:
REMARK  status: ('A' for Active; 'I' for Inactive)
REMARK    1  A    between atoms: N_7  and  C_1 
REMARK    2  A    between atoms: C_16  and  N_4 
REMARK    3  A    between atoms: C_6  and  C_9 
REMARK       I    between atoms: C_9  and  N_7 
REMARK    4  A    between atoms: C_10  and  CA_8 
REMARK    5  A    between atoms: OXT_21  and  C_10 
ROOT
ATOM      1  N   UNL d   1      -0.492  -2.453  -0.104  0.00  0.00    -0.315 N 
ATOM      2  C   UNL d   1      -1.367  -3.176   0.688  0.00  0.00     0.275 C 
ATOM      3  O   UNL d   1      -2.136  -2.670   1.498  0.00  0.00    -0.266 OA
ATOM      4  H   UNL d   1       0.219  -2.939  -0.647  0.00  0.00     0.169 HD
ENDROOT
BRANCH   1   5
ATOM      5  C   UNL d   1      -0.302  -1.098  -0.080  0.00  0.00     0.130 C 
ATOM      6  C   UNL d   1       1.013  -0.524  -0.505  0.00  0.00     0.295 C 
ATOM      7  N   UNL d   1       0.958   0.843  -0.218  0.00  0.00    -0.217 N 
ATOM      8  O   UNL d   1       1.913  -1.218  -0.945  0.00  0.00    -0.264 OA
ATOM      9  N   UNL d   1      -0.341   1.155   0.290  0.00  0.00    -0.289 N 
ATOM     10  C   UNL d   1      -1.078  -0.043   0.237  0.00  0.00     0.057 C 
ATOM     11  C   UNL d   1      -0.881   2.469  -0.056  0.00  0.00     0.178 C 
ATOM     12  C   UNL d   1      -2.571  -0.107   0.340  0.00  0.00     0.072 C 
BRANCH   7  13
ATOM     13  C   UNL d   1       2.071   1.711  -0.165  0.00  0.00     0.060 A 
ATOM     14  C   UNL d   1       3.145   1.524  -1.047  0.00  0.00     0.031 A 
ATOM     15  C   UNL d   1       4.252   2.378  -1.030  0.00  0.00     0.002 A 
ATOM     16  C   UNL d   1       4.310   3.423  -0.113  0.00  0.00     0.000 A 
ATOM     17  C   UNL d   1       3.267   3.607   0.790  0.00  0.00     0.002 A 
ATOM     18  C   UNL d   1       2.156   2.755   0.766  0.00  0.00     0.031 A 
ENDBRANCH   7  13
ENDBRANCH   1   5
BRANCH   2  19
ATOM     19  C   UNL d   1      -1.275  -4.673   0.671  0.00  0.00     0.134 A 
ATOM     20  CA  UNL d   1      -1.017  -5.490  -0.420  0.00  0.00     0.139 A 
ATOM     21  N   UNL d   1      -0.948  -6.868  -0.317  0.00  0.00    -0.357 N 
ATOM     22  C   UNL d   1      -1.175  -7.382   0.913  0.00  0.00     0.105 A 
ATOM     23  HN  UNL d   1      -0.738  -7.461  -1.121  1.00  0.00     0.165 HD
ATOM     24  C   UNL d   1      -1.451  -6.583   2.002  0.00  0.00     0.105 A 
ATOM     25  N   UNL d   1      -1.497  -5.237   1.905  0.00  0.00    -0.358 N 
ATOM     26  HN  UNL d   1      -1.689  -4.657   2.722  1.00  0.00     0.165 HD
BRANCH  20  27
ATOM     27  C   UNL d   1      -0.822  -5.013  -1.819  0.00  0.00     0.196 C 
ATOM     28  O   UNL d   1      -0.869  -3.869  -2.212  0.00  0.00    -0.645 OA
BRANCH  27  29
ATOM     29  OXT UNL d   1      -0.552  -6.068  -2.635  0.00  0.00    -0.772 OA
ATOM     30  HXT UNL d   1      -0.566  -6.903  -2.115  0.00  0.00     0.167 HD
ENDBRANCH  27  29
ENDBRANCH  20  27
ENDBRANCH   2  19
TORSDOF 5
