REMARK  5 active torsions:
REMARK  status: ('A' for Active; 'I' for Inactive)
REMARK    1  A    between atoms: C_2  and  C_1 
REMARK       I    between atoms: N_6  and  C_1 
REMARK    2  A    between atoms: O_12  and  C_3 
REMARK    3  A    between atoms: O_15  and  C_4 
REMARK    4  A    between atoms: O_14  and  C_5 
REMARK    5  A    between atoms: C_9  and  N_6 
ROOT
ATOM      1  C   UNL d   1       0.181   0.101   1.279  0.00  0.00     0.037 A 
ATOM      2  C   UNL d   1      -1.224   0.634   3.677  0.00  0.00     0.135 A 
ATOM      3  C   UNL d   1      -0.072   1.383   3.350  0.00  0.00     0.105 A 
ATOM      4  C   UNL d   1      -1.668  -0.360   2.771  0.00  0.00     0.105 A 
ATOM      5  C   UNL d   1       0.611   1.105   2.157  0.00  0.00     0.057 A 
ATOM      6  C   UNL d   1      -0.958  -0.635   1.593  0.00  0.00     0.057 A 
ENDROOT
BRANCH   1   7
ATOM      7  C   UNL d   1       0.932  -0.054   0.000  0.00  0.00     0.256 C 
ATOM      8  N   UNL d   1       0.907  -1.300  -0.599  0.00  0.00    -0.323 N 
ATOM      9  H   UNL d   1       0.448  -2.054  -0.103  0.00  0.00     0.169 HD
ATOM     10  O   UNL d   1       1.530   0.933  -0.417  0.00  0.00    -0.267 OA
BRANCH   8  11
ATOM     11  C   UNL d   1       1.484  -1.643  -1.846  0.00  0.00     0.037 A 
ATOM     12  C   UNL d   1       2.180  -0.742  -2.657  0.00  0.00     0.071 A 
ATOM     13  C   UNL d   1       2.674  -1.149  -3.894  0.00  0.00     0.118 A 
ATOM     14  F   UNL d   1       3.330  -0.272  -4.664  0.00  0.00    -0.206 F 
ATOM     15  C   UNL d   1       2.493  -2.448  -4.348  0.00  0.00     0.042 A 
ATOM     16  C   UNL d   1       1.820  -3.363  -3.543  0.00  0.00     0.005 A 
ATOM     17  C   UNL d   1       1.321  -2.961  -2.296  0.00  0.00     0.029 A 
ENDBRANCH   8  11
ENDBRANCH   1   7
BRANCH   3  18
ATOM     18  O   UNL d   1       0.337   2.371   4.207  0.00  0.00    -0.353 OA
ATOM     19  C   UNL d   1       1.514   3.107   3.895  0.00  0.00     0.210 C 
ENDBRANCH   3  18
BRANCH   4  20
ATOM     20  O   UNL d   1      -2.767  -1.175   2.932  0.00  0.00    -0.353 OA
ATOM     21  C   UNL d   1      -3.921  -0.567   3.508  0.00  0.00     0.210 C 
ENDBRANCH   4  20
BRANCH   2  22
ATOM     22  O   UNL d   1      -1.965   0.746   4.825  0.00  0.00    -0.351 OA
ATOM     23  C   UNL d   1      -1.654   1.736   5.793  0.00  0.00     0.210 C 
ENDBRANCH   2  22
TORSDOF 5
