REMARK  2 active torsions:
REMARK  status: ('A' for Active; 'I' for Inactive)
REMARK    1  A    between atoms: C_7  and  C_1 
REMARK    2  A    between atoms: C_8  and  C_2 
ROOT
ATOM      1  C   UNL d   1       1.336  -0.260   0.078  0.00  0.00    -0.054 A 
ATOM      2  C   UNL d   1      -1.460   0.346  -0.096  0.00  0.00    -0.054 A 
ATOM      3  C   UNL d   1       0.360  -1.269   0.088  0.00  0.00     0.008 A 
ATOM      4  C   UNL d   1      -0.497   1.355  -0.055  0.00  0.00     0.008 A 
ATOM      5  C   UNL d   1      -1.006  -0.975  -0.009  0.00  0.00     0.008 A 
ATOM      6  C   UNL d   1       0.870   1.060   0.041  0.00  0.00     0.008 A 
ENDROOT
BRANCH   1   7
ATOM      7  C   UNL d   1       2.829  -0.582   0.168  0.00  0.00     0.018 C 
ATOM      8  C   UNL d   1       3.770   0.452  -0.498  0.00  0.00     0.009 C 
ATOM      9  C   UNL d   1       3.660   0.450  -2.024  0.00  0.00     0.001 C 
ATOM     10  C   UNL d   1       3.873  -0.938  -2.624  0.00  0.00     0.000 C 
ATOM     11  C   UNL d   1       3.068  -2.028  -1.920  0.00  0.00     0.001 C 
ATOM     12  C   UNL d   1       3.228  -1.965  -0.401  0.00  0.00     0.009 C 
ENDBRANCH   1   7
BRANCH   2  13
ATOM     13  C   UNL d   1      -2.956   0.608  -0.218  0.00  0.00     0.018 C 
ATOM     14  C   UNL d   1      -3.363   1.299  -1.530  0.00  0.00     0.009 C 
ATOM     15  C   UNL d   1      -3.176   2.814  -1.536  0.00  0.00     0.001 C 
ATOM     16  C   UNL d   1      -3.763   3.487  -0.299  0.00  0.00     0.000 C 
ATOM     17  C   UNL d   1      -3.361   2.829   1.017  0.00  0.00     0.001 C 
ATOM     18  C   UNL d   1      -3.561   1.316   1.004  0.00  0.00     0.009 C 
ENDBRANCH   2  13
TORSDOF 2
