REMARK  6 active torsions:
REMARK  status: ('A' for Active; 'I' for Inactive)
REMARK    1  A    between atoms: N_2  and  S_1 
REMARK    2  A    between atoms: C_5  and  S_1 
REMARK    3  A    between atoms: N_3  and  N_2 
REMARK    4  A    between atoms: C_4  and  N_3 
REMARK    5  A    between atoms: N_8  and  C_4 
REMARK    6  A    between atoms: C_10  and  N_8 
ROOT
ATOM      1  N   UNL d   1       0.831  -2.142  -1.473  0.00  0.00    -0.266 N 
ATOM      2  H   UNL d   1       1.023  -1.723  -2.381  0.00  0.00     0.190 HD
ENDROOT
BRANCH   1   3
ATOM      3  N   UNL d   1       0.573  -1.244  -0.357  0.00  0.00    -0.221 N 
ATOM      4  H   UNL d   1       0.437  -1.657   0.573  0.00  0.00     0.200 HD
BRANCH   3   5
ATOM      5  S   UNL d   1       1.334   0.275  -0.277  0.00  0.00     0.276 S 
ATOM      6  O   UNL d   1       2.747   0.063  -0.514  0.00  0.00    -0.199 OA
ATOM      7  O   UNL d   1       0.856   0.912   0.931  0.00  0.00    -0.199 OA
BRANCH   5   8
ATOM      8  C   UNL d   1       0.658   1.117  -1.669  0.00  0.00     0.081 A 
ATOM      9  C   UNL d   1      -0.545   1.812  -1.554  0.00  0.00     0.026 A 
ATOM     10  C   UNL d   1      -1.035   2.507  -2.660  0.00  0.00     0.008 A 
ATOM     11  C   UNL d   1      -0.325   2.518  -3.870  0.00  0.00    -0.062 A 
ATOM     12  C   UNL d   1       0.886   1.821  -3.965  0.00  0.00     0.008 A 
ATOM     13  C   UNL d   1      -0.862   3.276  -5.049  0.00  0.00     0.048 C 
ATOM     14  C   UNL d   1       1.383   1.128  -2.865  0.00  0.00     0.026 A 
ENDBRANCH   5   8
ENDBRANCH   3   5
ENDBRANCH   1   3
BRANCH   1  15
ATOM     15  C   UNL d   1       1.350  -3.395  -1.259  0.00  0.00     0.191 C 
ATOM     16  S   UNL d   1       2.213  -3.851   0.099  0.00  0.00    -0.039 SA
BRANCH  15  17
ATOM     17  N   UNL d   1       1.192  -4.304  -2.273  0.00  0.00    -0.332 N 
ATOM     18  H   UNL d   1       1.839  -5.085  -2.213  0.00  0.00     0.168 HD
BRANCH  17  19
ATOM     19  C   UNL d   1      -0.005  -4.591  -2.978  0.00  0.00     0.037 A 
ATOM     20  C   UNL d   1      -1.206  -3.902  -2.795  0.00  0.00     0.071 A 
ATOM     21  C   UNL d   1      -2.367  -4.353  -3.420  0.00  0.00     0.118 A 
ATOM     22  F   UNL d   1      -3.519  -3.703  -3.208  0.00  0.00    -0.206 F 
ATOM     23  C   UNL d   1      -2.361  -5.480  -4.230  0.00  0.00     0.042 A 
ATOM     24  C   UNL d   1      -1.166  -6.164  -4.435  0.00  0.00     0.005 A 
ATOM     25  C   UNL d   1       0.006  -5.719  -3.814  0.00  0.00     0.029 A 
ENDBRANCH  17  19
ENDBRANCH  15  17
ENDBRANCH   1  15
TORSDOF 6
