REMARK  4 active torsions:
REMARK  status: ('A' for Active; 'I' for Inactive)
REMARK    1  A    between atoms: C_2  and  C_1 
REMARK       I    between atoms: N_3  and  C_2 
REMARK    2  A    between atoms: N_5  and  N_3 
REMARK    3  A    between atoms: N_8  and  C_4 
REMARK    4  A    between atoms: C_7  and  N_5 
ROOT
ATOM      1  C   UNL d   1       2.865  -0.286   0.448  0.00  0.00     0.268 C 
ATOM      2  N   UNL d   1       3.699   0.536  -0.300  0.00  0.00    -0.283 N 
ATOM      3  O   UNL d   1       3.263  -0.949   1.405  0.00  0.00    -0.266 OA
ATOM      4  H   UNL d   1       3.300   1.206  -0.948  0.00  0.00     0.184 HD
ENDROOT
BRANCH   1   5
ATOM      5  C   UNL d   1       1.428  -0.245   0.085  0.00  0.00     0.059 A 
ATOM      6  C   UNL d   1       0.673  -1.394  -0.218  0.00  0.00     0.043 A 
ATOM      7  C   UNL d   1      -0.725  -1.220  -0.321  0.00  0.00     0.030 A 
ATOM      8  C   UNL d   1      -1.342   0.025  -0.162  0.00  0.00     0.002 A 
ATOM      9  C   UNL d   1      -0.572   1.150   0.089  0.00  0.00     0.001 A 
ATOM     10  C   UNL d   1       0.808   1.016   0.228  0.00  0.00     0.019 A 
BRANCH   6  11
ATOM     11  N   UNL d   1       1.142  -2.651  -0.592  0.00  0.00    -0.393 N 
ATOM     12  C   UNL d   1       2.538  -3.011  -0.719  0.00  0.00     0.146 C 
ATOM     13  H   UNL d   1       0.550  -3.414  -0.274  0.00  0.00     0.159 HD
ENDBRANCH   6  11
ENDBRANCH   1   5
BRANCH   2  14
ATOM     14  N   UNL d   1       4.911   0.891   0.321  0.00  0.00    -0.203 NA
ATOM     15  H   UNL d   1       5.154   0.195   1.038  0.00  0.00     0.153 HD
BRANCH  14  16
ATOM     16  C   UNL d   1       5.988   1.154  -0.559  0.00  0.00     0.027 A 
ATOM     17  C   UNL d   1       5.820   1.837  -1.772  0.00  0.00     0.027 A 
ATOM     18  C   UNL d   1       6.921   2.191  -2.559  0.00  0.00     0.026 A 
ATOM     19  C   UNL d   1       8.207   1.879  -2.132  0.00  0.00     0.034 A 
ATOM     20  C   UNL d   1       8.403   1.228  -0.918  0.00  0.00     0.026 A 
ATOM     21 CL   UNL d   1       9.562   2.330  -3.094  0.00  0.00    -0.084 Cl
ATOM     22  C   UNL d   1       7.298   0.882  -0.131  0.00  0.00     0.027 A 
ENDBRANCH  14  16
ENDBRANCH   2  14
TORSDOF 4
