REMARK  7 active torsions:
REMARK  status: ('A' for Active; 'I' for Inactive)
REMARK    1  A    between atoms: C_7  and  C_1 
REMARK    2  A    between atoms: C_9  and  C_2 
REMARK    3  A    between atoms: C_3  and  O_10 
REMARK    4  A    between atoms: C_6  and  C_3 
REMARK    5  A    between atoms: O_10  and  N_4 
REMARK    6  A    between atoms: O_19  and  C_7 
REMARK    7  A    between atoms: C_13  and  C_15 
ROOT
ATOM      1  C   UNL d   1       1.249  -0.010   0.012  0.00  0.00     0.017 A 
ATOM      2  C   UNL d   1       4.056   0.056  -0.096  0.00  0.00    -0.019 A 
ATOM      3  C   UNL d   1       1.926   1.214  -0.012  0.00  0.00     0.021 A 
ATOM      4  C   UNL d   1       1.978  -1.201  -0.005  0.00  0.00     0.021 A 
ATOM      5  C   UNL d   1       3.325   1.249  -0.068  0.00  0.00     0.014 A 
ATOM      6  C   UNL d   1       3.378  -1.169  -0.059  0.00  0.00     0.014 A 
ENDROOT
BRANCH   2   7
ATOM      7  C   UNL d   1       5.538   0.107  -0.185  0.00  0.00     0.126 C 
ATOM      8  N   UNL d   1       6.249  -0.973  -0.219  0.00  0.00    -0.268 N 
ATOM      9  HN  UNL d   1       5.859  -1.914  -0.170  1.00  0.00     0.194 HD
BRANCH   8  10
ATOM     10  O   UNL d   1       7.636  -0.694  -0.331  0.00  0.00    -0.195 OA
BRANCH  10  11
ATOM     11  C   UNL d   1       8.319  -1.884  -0.356  0.00  0.00     0.315 C 
ATOM     12  O   UNL d   1       7.832  -3.002  -0.249  0.00  0.00    -0.257 OA
BRANCH  11  13
ATOM     13  C   UNL d   1       9.794  -1.716  -0.545  0.00  0.00     0.041 A 
ATOM     14  C   UNL d   1      10.568  -2.891  -0.622  0.00  0.00     0.019 A 
ATOM     15  C   UNL d   1      11.952  -2.836  -0.819  0.00  0.00     0.025 A 
ATOM     16  C   UNL d   1      12.576  -1.601  -0.946  0.00  0.00     0.034 A 
ATOM     17  C   UNL d   1      11.829  -0.425  -0.861  0.00  0.00     0.025 A 
ATOM     18 CL   UNL d   1      14.274  -1.528  -1.214  0.00  0.00    -0.084 Cl
ATOM     19  C   UNL d   1      10.439  -0.478  -0.656  0.00  0.00     0.019 A 
ENDBRANCH  11  13
ENDBRANCH  10  11
ENDBRANCH   8  10
ENDBRANCH   2   7
BRANCH   1  20
ATOM     20  C   UNL d   1      -0.182  -0.030   0.041  0.00  0.00    -0.064 C 
ATOM     21  C   UNL d   1      -1.384  -0.030   0.053  0.00  0.00    -0.064 C 
BRANCH  21  22
ATOM     22  C   UNL d   1      -2.859  -0.009   0.067  0.00  0.00     0.114 C 
ATOM     23  C   UNL d   1      -3.380   1.250   0.757  0.00  0.00     0.060 C 
ATOM     24  C   UNL d   1      -3.399  -1.262   0.752  0.00  0.00     0.060 C 
BRANCH  22  25
ATOM     25  O   UNL d   1      -3.337  -0.011  -1.277  0.00  0.00    -0.378 OA
ATOM     26  H   UNL d   1      -2.915   0.739  -1.730  0.00  0.00     0.211 HD
ENDBRANCH  22  25
ENDBRANCH  21  22
ENDBRANCH   1  20
TORSDOF 7
