REMARK  10 active torsions:
REMARK  status: ('A' for Active; 'I' for Inactive)
REMARK       I    between atoms: C_5  and  N_1 
REMARK    1  A    between atoms: C_11  and  C_5 
REMARK    2  A    between atoms: C_12  and  C_11 
REMARK    3  A    between atoms: C_19  and  C_12 
REMARK    4  A    between atoms: C_13  and  C_14 
REMARK    5  A    between atoms: C_14  and  C_18 
REMARK    6  A    between atoms: C_15  and  C_20 
REMARK    7  A    between atoms: C_16  and  C_15 
REMARK    8  A    between atoms: C_17  and  C_16 
REMARK    9  A    between atoms: C_18  and  C_17 
REMARK   10  A    between atoms: C_20  and  C_19 
ROOT
ATOM      1  N   UNL d   1      -2.346   2.922  -0.358  0.00  0.00    -0.335 N 
ATOM      2  N   UNL d   1      -1.005   2.228  -2.587  0.00  0.00    -0.295 N 
ATOM      3  C   UNL d   1      -1.972   3.191  -2.769  0.00  0.00     0.242 C 
ATOM      4  C   UNL d   1      -0.971   1.293  -1.573  0.00  0.00     0.242 C 
ATOM      5  C   UNL d   1      -1.950   3.847   0.595  0.00  0.00     0.220 C 
ATOM      6  C   UNL d   1      -1.926   1.523  -0.401  0.00  0.00     0.229 C 
ATOM      7  C   UNL d   1      -2.932   3.417  -1.603  0.00  0.00     0.229 C 
ATOM      8  O   UNL d   1      -0.304   0.270  -1.683  0.00  0.00    -0.271 OA
ATOM      9  O   UNL d   1      -2.125   3.713  -3.868  0.00  0.00    -0.271 OA
ATOM     10  O   UNL d   1      -2.163   5.047   0.442  0.00  0.00    -0.273 OA
ATOM     11  H   UNL d   1      -0.433   2.022  -3.395  0.00  0.00     0.171 HD
ENDROOT
BRANCH   5  12
ATOM     12  C   UNL d   1      -1.239   3.315   1.832  0.00  0.00     0.103 C 
BRANCH  12  13
ATOM     13  C   UNL d   1      -0.976   4.392   2.886  0.00  0.00     0.009 C 
BRANCH  13  14
ATOM     14  C   UNL d   1      -2.266   4.918   3.517  0.00  0.00     0.000 C 
BRANCH  14  15
ATOM     15  C   UNL d   1      -1.974   6.009   4.542  0.00  0.00     0.000 C 
BRANCH  15  16
ATOM     16  C   UNL d   1      -3.275   6.577   5.101  0.00  0.00     0.000 C 
BRANCH  16  17
ATOM     17  C   UNL d   1      -2.996   7.665   6.131  0.00  0.00     0.000 C 
BRANCH  17  18
ATOM     18  C   UNL d   1      -4.298   8.225   6.695  0.00  0.00     0.000 C 
BRANCH  18  19
ATOM     19  C   UNL d   1      -4.020   9.306   7.733  0.00  0.00     0.000 C 
BRANCH  19  20
ATOM     20  C   UNL d   1      -5.324   9.864   8.300  0.00  0.00    -0.000 C 
BRANCH  20  21
ATOM     21  C   UNL d   1      -5.054  10.945   9.342  0.00  0.00    -0.005 C 
ATOM     22  C   UNL d   1      -6.354  11.498   9.906  0.00  0.00     0.005 C 
ENDBRANCH  20  21
ENDBRANCH  19  20
ENDBRANCH  18  19
ENDBRANCH  17  18
ENDBRANCH  16  17
ENDBRANCH  15  16
ENDBRANCH  14  15
ENDBRANCH  13  14
ENDBRANCH  12  13
ENDBRANCH   5  12
TORSDOF 10
