REMARK  7 active torsions:
REMARK  status: ('A' for Active; 'I' for Inactive)
REMARK    1  A    between atoms: N_2  and  C_1 
REMARK    2  A    between atoms: N_11  and  C_3 
REMARK    3  A    between atoms: N_12  and  C_4 
REMARK    4  A    between atoms: C_5  and  C_13 
REMARK    5  A    between atoms: C_6  and  C_14 
REMARK    6  A    between atoms: C_19  and  N_11 
REMARK    7  A    between atoms: C_18  and  N_12 
ROOT
ATOM      1  C   UNL d   1      -0.115  -1.416  -0.036  0.00  0.00     0.190 A 
ATOM      2  C   UNL d   1       1.126  -0.807  -0.071  0.00  0.00     0.144 A 
ATOM      3  C   UNL d   1      -1.268  -0.652   0.001  0.00  0.00     0.144 A 
ATOM      4  N   UNL d   1      -1.178   0.692  -0.021  0.00  0.00    -0.336 N 
ATOM      5  HN  UNL d   1      -2.010   1.281  -0.025  1.00  0.00     0.168 HD
ATOM      6  N   UNL d   1       1.208   0.536  -0.053  0.00  0.00    -0.336 N 
ATOM      7  HN  UNL d   1       2.110   1.014  -0.050  1.00  0.00     0.168 HD
ATOM      8  C   UNL d   1       0.055   1.221  -0.038  0.00  0.00     0.183 A 
ENDROOT
BRANCH   2   9
ATOM      9  N   UNL d   1       2.300  -1.586  -0.088  0.00  0.00    -0.340 N 
ATOM     10  H   UNL d   1       2.317  -2.250  -0.860  0.00  0.00     0.167 HD
BRANCH   9  11
ATOM     11  C   UNL d   1       3.559  -1.354   0.490  0.00  0.00     0.034 A 
ATOM     12  C   UNL d   1       4.572  -2.306   0.293  0.00  0.00     0.045 A 
ATOM     13  C   UNL d   1       5.806  -2.221   0.961  0.00  0.00     0.050 A 
ATOM     14  C   UNL d   1       6.022  -1.161   1.846  0.00  0.00     0.016 A 
ATOM     15  C   UNL d   1       5.027  -0.211   2.061  0.00  0.00     0.003 A 
ATOM     16  C   UNL d   1       3.804  -0.316   1.398  0.00  0.00     0.029 A 
BRANCH  13  17
ATOM     17  C   UNL d   1       6.866  -3.275   0.771  0.00  0.00     0.417 C 
ATOM     18  F   UNL d   1       6.570  -4.177  -0.207  0.00  0.00    -0.166 F 
ATOM     19  F   UNL d   1       8.075  -2.747   0.435  0.00  0.00    -0.166 F 
ATOM     20  F   UNL d   1       7.079  -4.007   1.900  0.00  0.00    -0.166 F 
ENDBRANCH  13  17
ENDBRANCH   9  11
ENDBRANCH   2   9
BRANCH   1  21
ATOM     21  N   UNL d   1      -0.208  -2.840  -0.036  0.00  0.00    -0.108 N 
ATOM     22  O   UNL d   1      -0.642  -3.376   0.992  0.00  0.00    -0.532 OA
ATOM     23  O   UNL d   1       0.160  -3.429  -1.067  0.00  0.00    -0.532 OA
ENDBRANCH   1  21
BRANCH   3  24
ATOM     24  N   UNL d   1      -2.533  -1.272   0.028  0.00  0.00    -0.340 N 
ATOM     25  H   UNL d   1      -2.631  -1.920   0.808  0.00  0.00     0.167 HD
BRANCH  24  26
ATOM     26  C   UNL d   1      -3.753  -0.884  -0.549  0.00  0.00     0.034 A 
ATOM     27  C   UNL d   1      -4.881  -1.692  -0.332  0.00  0.00     0.045 A 
ATOM     28  C   UNL d   1      -6.097  -1.456  -0.996  0.00  0.00     0.050 A 
ATOM     29  C   UNL d   1      -6.178  -0.386  -1.897  0.00  0.00     0.016 A 
ATOM     30  C   UNL d   1      -5.067   0.420  -2.129  0.00  0.00     0.003 A 
ATOM     31  C   UNL d   1      -3.864   0.164  -1.469  0.00  0.00     0.029 A 
BRANCH  28  32
ATOM     32  C   UNL d   1      -7.285  -2.358  -0.784  0.00  0.00     0.417 C 
ATOM     33  F   UNL d   1      -7.101  -3.276   0.206  0.00  0.00    -0.166 F 
ATOM     34  F   UNL d   1      -8.412  -1.672  -0.451  0.00  0.00    -0.166 F 
ATOM     35  F   UNL d   1      -7.598  -3.073  -1.900  0.00  0.00    -0.166 F 
ENDBRANCH  28  32
ENDBRANCH  24  26
ENDBRANCH   3  24
TORSDOF 7
