REMARK  4 active torsions:
REMARK  status: ('A' for Active; 'I' for Inactive)
REMARK    1  A    between atoms: C_10  and  N_1 
REMARK    2  A    between atoms: C_2  and  C_3 
REMARK       I    between atoms: N_7  and  C_2 
REMARK    3  A    between atoms: S_20  and  C_4 
REMARK       I    between atoms: C_9  and  N_7 
REMARK       I    between atoms: N_14  and  C_9 
REMARK    4  A    between atoms: C_17  and  N_14 
ROOT
ATOM      1  C   UNL d   1       1.986   0.813   3.169  0.00  0.00     0.262 C 
ATOM      2  N   UNL d   1       2.026   1.007   4.535  0.00  0.00    -0.275 N 
ATOM      3  C   UNL d   1       1.729   0.051   5.475  0.00  0.00     0.327 C 
ATOM      4  N   UNL d   1       0.703  -0.804   5.181  0.00  0.00    -0.309 N 
ATOM      5  O   UNL d   1       1.084   0.192   2.608  0.00  0.00    -0.267 OA
ATOM      6  O   UNL d   1       2.442   0.016   6.478  0.00  0.00    -0.247 OA
ATOM      7  H   UNL d   1       2.809   1.535   4.907  0.00  0.00     0.173 HD
ATOM      8  H   UNL d   1       0.120  -0.536   4.392  0.00  0.00     0.170 HD
ENDROOT
BRANCH   4   9
ATOM      9  C   UNL d   1       0.432  -2.035   5.816  0.00  0.00     0.037 A 
ATOM     10  C   UNL d   1       1.349  -2.648   6.681  0.00  0.00     0.051 A 
ATOM     11  C   UNL d   1       1.139  -3.989   7.041  0.00  0.00     0.036 A 
ATOM     12  S   UNL d   1       2.174  -5.042   7.928  0.00  0.00    -0.063 SA
ATOM     13  C   UNL d   1       0.004  -4.694   6.644  0.00  0.00     0.050 A 
ATOM     14  C   UNL d   1       1.143  -6.348   7.539  0.00  0.00     0.112 C 
ATOM     15  N   UNL d   1       0.004  -6.040   6.963  0.00  0.00    -0.344 N 
ATOM     16  HN  UNL d   1      -0.760  -6.691   6.780  1.00  0.00     0.167 HD
ATOM     17  C   UNL d   1      -0.987  -4.014   5.910  0.00  0.00     0.033 A 
ATOM     18  C   UNL d   1      -0.747  -2.702   5.475  0.00  0.00     0.032 A 
BRANCH  14  19
ATOM     19  S   UNL d   1       1.617  -8.014   7.769  0.00  0.00    -0.109 SA
ATOM     20  C   UNL d   1       1.627  -8.546   6.035  0.00  0.00     0.097 C 
ENDBRANCH  14  19
ENDBRANCH   4   9
BRANCH   1  21
ATOM     21  C   UNL d   1       3.080   1.414   2.333  0.00  0.00     0.065 A 
ATOM     22  C   UNL d   1       3.712   2.652   2.521  0.00  0.00     0.118 A 
ATOM     23  C   UNL d   1       4.726   3.111   1.658  0.00  0.00     0.037 A 
ATOM     24  C   UNL d   1       5.116   2.330   0.575  0.00  0.00     0.002 A 
ATOM     25  C   UNL d   1       4.489   1.107   0.350  0.00  0.00     0.001 A 
ATOM     26  C   UNL d   1       3.480   0.657   1.215  0.00  0.00     0.020 A 
BRANCH  22  27
ATOM     27  N   UNL d   1       3.349   3.548   3.594  0.00  0.00    -0.115 N 
ATOM     28  O   UNL d   1       3.535   3.135   4.745  0.00  0.00    -0.532 OA
ATOM     29  O   UNL d   1       2.922   4.664   3.283  0.00  0.00    -0.532 OA
ENDBRANCH  22  27
ENDBRANCH   1  21
TORSDOF 4
