REMARK  4 active torsions:
REMARK  status: ('A' for Active; 'I' for Inactive)
REMARK    1  A    between atoms: N_14  and  C_4 
REMARK    2  A    between atoms: N_11  and  N_14 
REMARK    3  A    between atoms: C_16  and  C_15 
REMARK    4  A    between atoms: O_22  and  C_17 
ROOT
ATOM      1  N   UNL d   1      -1.044  -2.948  -0.147  0.00  0.00    -0.285 N 
ATOM      2  H   UNL d   1      -0.352  -3.282   0.500  0.00  0.00     0.188 HD
ENDROOT
BRANCH   1   3
ATOM      3  N   UNL d   1      -2.270  -3.521  -0.209  0.00  0.00    -0.309 N 
ATOM      4  C   UNL d   1      -2.291  -4.786   0.057  0.00  0.00     0.118 C 
ATOM      5  HN  UNL d   1      -3.111  -2.995  -0.447  1.00  0.00     0.186 HD
BRANCH   4   6
ATOM      6  C   UNL d   1      -3.547  -5.556   0.035  0.00  0.00    -0.019 A 
ATOM      7  C   UNL d   1      -4.766  -4.918  -0.205  0.00  0.00     0.015 A 
ATOM      8  C   UNL d   1      -5.953  -5.656  -0.211  0.00  0.00     0.037 A 
ATOM      9  C   UNL d   1      -5.922  -7.032   0.022  0.00  0.00     0.068 A 
ATOM     10  C   UNL d   1      -4.695  -7.665   0.249  0.00  0.00     0.037 A 
ATOM     11  C   UNL d   1      -3.505  -6.933   0.258  0.00  0.00     0.015 A 
BRANCH   9  12
ATOM     12  O   UNL d   1      -7.008  -7.863   0.052  0.00  0.00    -0.356 OA
ATOM     13  C   UNL d   1      -8.281  -7.254  -0.125  0.00  0.00     0.210 C 
ENDBRANCH   9  12
ENDBRANCH   4   6
ENDBRANCH   1   3
BRANCH   1  14
ATOM     14  C   UNL d   1      -0.815  -1.730  -0.800  0.00  0.00     0.134 A 
ATOM     15  C   UNL d   1       0.416  -1.018  -0.735  0.00  0.00     0.050 A 
ATOM     16  C   UNL d   1       0.464   0.132  -1.520  0.00  0.00     0.089 A 
ATOM     17  C   UNL d   1       1.692  -1.199  -0.040  0.00  0.00    -0.039 A 
ATOM     18  S   UNL d   1       1.955   0.946  -1.457  0.00  0.00    -0.083 SA
ATOM     19  N   UNL d   1      -0.508   0.638  -2.297  0.00  0.00    -0.346 N 
ATOM     20  C   UNL d   1       2.588  -0.195  -0.372  0.00  0.00     0.059 A 
ATOM     21  C   UNL d   1      -1.613  -0.097  -2.267  0.00  0.00     0.182 A 
ATOM     22  HN  UNL d   1      -0.408   1.490  -2.848  1.00  0.00     0.167 HD
ATOM     23  N   UNL d   1      -1.809  -1.221  -1.581  0.00  0.00    -0.337 N 
ATOM     24  HN  UNL d   1      -2.706  -1.703  -1.640  1.00  0.00     0.168 HD
ATOM     25  C   UNL d   1       2.099  -2.271   0.920  0.00  0.00     0.050 C 
ENDBRANCH   1  14
TORSDOF 4
