REMARK  3 active torsions:
REMARK  status: ('A' for Active; 'I' for Inactive)
REMARK    1  A    between atoms: C_6  and  C_1 
REMARK    2  A    between atoms: N_12  and  N_7 
REMARK    3  A    between atoms: C_11  and  N_12 
ROOT
ATOM      1  C   UNL d   1       3.634   0.274   0.013  0.00  0.00     0.121 C 
ATOM      2  N   UNL d   1       4.235   1.415   0.082  0.00  0.00    -0.325 N 
ATOM      3  HN  UNL d   1       3.709   2.286   0.148  1.00  0.00     0.180 HD
ENDROOT
BRANCH   1   4
ATOM      4  C   UNL d   1       2.184   0.226   0.011  0.00  0.00     0.029 A 
ATOM      5  S   UNL d   1       1.448  -1.316   0.010  0.00  0.00    -0.088 SA
ATOM      6  C   UNL d   1      -0.139  -0.662   0.013  0.00  0.00     0.016 A 
ATOM      7  C   UNL d   1      -1.355  -1.375   0.017  0.00  0.00     0.019 A 
ATOM      8  C   UNL d   1      -0.110   0.732   0.010  0.00  0.00    -0.012 A 
ATOM      9  C   UNL d   1      -2.559  -0.665   0.013  0.00  0.00     0.001 A 
ATOM     10  C   UNL d   1      -2.560   0.721   0.005  0.00  0.00     0.001 A 
ATOM     11  C   UNL d   1      -1.351   1.422   0.006  0.00  0.00     0.013 A 
ATOM     12  C   UNL d   1       1.246   1.250   0.012  0.00  0.00    -0.032 A 
ATOM     13  C   UNL d   1       1.511   2.727   0.017  0.00  0.00     0.050 C 
ENDBRANCH   1   4
BRANCH   2  14
ATOM     14  N   UNL d   1       5.595   1.415   0.065  0.00  0.00    -0.191 NA
ATOM     15  H   UNL d   1       6.098   0.840  -0.608  0.00  0.00     0.154 HD
BRANCH  14  16
ATOM     16  C   UNL d   1       6.201   2.692   0.075  0.00  0.00     0.098 A 
ATOM     17  N   UNL d   1       7.362   2.838  -0.597  0.00  0.00    -0.356 N 
ATOM     18  C   UNL d   1       7.923   4.071  -0.604  0.00  0.00     0.089 A 
ATOM     19  HN  UNL d   1       7.799   2.053  -1.081  1.00  0.00     0.166 HD
ATOM     20  C   UNL d   1       7.386   5.176   0.036  0.00  0.00     0.017 A 
ATOM     21  C   UNL d   1       6.203   5.010   0.739  0.00  0.00     0.005 A 
ATOM     22  C   UNL d   1       5.610   3.752   0.766  0.00  0.00     0.044 A 
ENDBRANCH  14  16
ENDBRANCH   2  14
TORSDOF 3
