REMARK  5 active torsions:
REMARK  status: ('A' for Active; 'I' for Inactive)
REMARK    1  A    between atoms: S_11  and  C_2 
REMARK    2  A    between atoms: C_6  and  C_3 
REMARK    3  A    between atoms: C_13  and  S_11 
REMARK    4  A    between atoms: C_15  and  C_12 
REMARK    5  A    between atoms: C_16  and  C_13 
ROOT
ATOM      1  C   UNL d   1      -0.509  -5.121   0.600  0.00  0.00     0.088 A 
ATOM      2  C   UNL d   1      -1.768  -5.749   0.517  0.00  0.00     0.092 A 
ATOM      3  C   UNL d   1      -0.417  -3.735   0.348  0.00  0.00    -0.004 A 
ATOM      4  N   UNL d   1      -2.923  -5.064   0.310  0.00  0.00    -0.352 N 
ATOM      5  HN  UNL d   1      -3.827  -5.534   0.260  1.00  0.00     0.166 HD
ATOM      6  C   UNL d   1      -1.603  -3.041   0.156  0.00  0.00    -0.024 A 
ATOM      7  C   UNL d   1      -2.806  -3.736   0.177  0.00  0.00     0.017 A 
ATOM      8  C   UNL d   1       0.661  -5.867   0.959  0.00  0.00     0.103 C 
ATOM      9  N   UNL d   1       1.617  -6.443   1.280  0.00  0.00    -0.191 NA
ATOM     10  C   UNL d   1      -1.856  -1.593  -0.125  0.00  0.00     0.042 C 
ATOM     11  C   UNL d   1      -3.974  -2.805  -0.004  0.00  0.00     0.058 C 
ATOM     12  C   UNL d   1      -3.314  -1.464   0.337  0.00  0.00     0.011 C 
ENDROOT
BRANCH   2  13
ATOM     13  S   UNL d   1      -1.963  -7.527   0.668  0.00  0.00    -0.106 SA
BRANCH  13  14
ATOM     14  C   UNL d   1      -3.308  -7.801  -0.540  0.00  0.00     0.119 C 
BRANCH  14  15
ATOM     15  C   UNL d   1      -3.731  -9.253  -0.631  0.00  0.00    -0.048 A 
ATOM     16  C   UNL d   1      -4.289  -9.905   0.483  0.00  0.00     0.009 A 
ATOM     17  C   UNL d   1      -4.728 -11.229   0.390  0.00  0.00     0.024 A 
ATOM     18  C   UNL d   1      -4.626 -11.908  -0.819  0.00  0.00     0.034 A 
ATOM     19  C   UNL d   1      -4.083 -11.280  -1.938  0.00  0.00     0.024 A 
ATOM     20 CL   UNL d   1      -5.187 -13.532  -0.938  0.00  0.00    -0.084 Cl
ATOM     21  C   UNL d   1      -3.637  -9.956  -1.842  0.00  0.00     0.009 A 
ENDBRANCH  14  15
ENDBRANCH  13  14
ENDBRANCH   2  13
BRANCH   3  22
ATOM     22  C   UNL d   1       0.878  -3.044   0.226  0.00  0.00     0.014 C 
ATOM     23  C   UNL d   1       1.511  -2.331   1.171  0.00  0.00     0.012 C 
BRANCH  23  24
ATOM     24  C   UNL d   1       1.030  -2.106   2.534  0.00  0.00    -0.036 A 
ATOM     25  C   UNL d   1       1.306  -3.037   3.539  0.00  0.00     0.011 A 
ATOM     26  C   UNL d   1       0.828  -2.828   4.834  0.00  0.00     0.001 A 
ATOM     27  C   UNL d   1       0.069  -1.694   5.126  0.00  0.00     0.000 A 
ATOM     28  C   UNL d   1      -0.191  -0.754   4.131  0.00  0.00     0.001 A 
ATOM     29  C   UNL d   1       0.302  -0.953   2.841  0.00  0.00     0.011 A 
ENDBRANCH  23  24
ENDBRANCH   3  22
TORSDOF 5
