REMARK  5 active torsions:
REMARK  status: ('A' for Active; 'I' for Inactive)
REMARK    1  A    between atoms: C_2  and  C_1 
REMARK    2  A    between atoms: C_5  and  C_15 
REMARK       I    between atoms: N_8  and  C_5 
REMARK    3  A    between atoms: S_9  and  C_6 
REMARK    4  A    between atoms: C_16  and  N_8 
REMARK    5  A    between atoms: C_15  and  S_9 
ROOT
ATOM      1  S   UNL d   1       0.762  -5.417   2.664  0.00  0.00    -0.103 SA
ENDROOT
BRANCH   1   2
ATOM      2  C   UNL d   1       0.942  -4.013   1.575  0.00  0.00     0.070 A 
ATOM      3  C   UNL d   1       1.273  -2.772   2.101  0.00  0.00     0.038 A 
ATOM      4  C   UNL d   1       1.291  -1.666   1.250  0.00  0.00     0.020 A 
ATOM      5  C   UNL d   1       0.982  -1.826  -0.104  0.00  0.00     0.063 A 
ATOM      6  C   UNL d   1       0.719  -3.111  -0.547  0.00  0.00     0.105 A 
ATOM      7  N   UNL d   1       0.687  -4.196   0.261  0.00  0.00    -0.360 N 
ATOM      8  HN  UNL d   1       0.477  -5.122  -0.110  1.00  0.00     0.166 HD
BRANCH   5   9
ATOM      9  C   UNL d   1       0.884  -0.660  -1.039  0.00  0.00     0.418 C 
ATOM     10  F   UNL d   1       0.547  -1.008  -2.311  0.00  0.00    -0.166 F 
ATOM     11  F   UNL d   1       2.046   0.039  -1.136  0.00  0.00    -0.166 F 
ATOM     12  F   UNL d   1      -0.060   0.237  -0.639  0.00  0.00    -0.166 F 
ENDBRANCH   5   9
ENDBRANCH   1   2
BRANCH   1  13
ATOM     13  C   UNL d   1       0.320  -6.683   1.434  0.00  0.00     0.184 C 
BRANCH  13  14
ATOM     14  C   UNL d   1       0.085  -8.044   2.060  0.00  0.00     0.231 C 
ATOM     15  N   UNL d   1      -0.754  -8.056   3.160  0.00  0.00    -0.327 N 
ATOM     16  H   UNL d   1      -1.131  -7.160   3.445  0.00  0.00     0.169 HD
ATOM     17  O   UNL d   1       0.554  -9.045   1.512  0.00  0.00    -0.272 OA
BRANCH  15  18
ATOM     18  C   UNL d   1      -1.111  -9.177   3.943  0.00  0.00     0.034 A 
ATOM     19  C   UNL d   1      -0.557 -10.451   3.766  0.00  0.00     0.032 A 
ATOM     20  C   UNL d   1      -0.929 -11.514   4.594  0.00  0.00     0.044 A 
ATOM     21  C   UNL d   1      -1.858 -11.307   5.601  0.00  0.00     0.116 A 
ATOM     22  C   UNL d   1      -2.429 -10.054   5.791  0.00  0.00     0.044 A 
ATOM     23  F   UNL d   1      -2.209 -12.324   6.398  0.00  0.00    -0.206 F 
ATOM     24  C   UNL d   1      -2.052  -8.989   4.966  0.00  0.00     0.032 A 
ENDBRANCH  15  18
ENDBRANCH  13  14
ENDBRANCH   1  13
TORSDOF 5
