REMARK  0 active torsions:
REMARK  status: ('A' for Active; 'I' for Inactive)
ROOT
ATOM      1  C   UNL d   1      -1.514  -1.031   0.469  0.00  0.00     0.118 A 
ATOM      2  C   UNL d   1      -1.787   0.231   0.036  0.00  0.00     0.118 A 
ATOM      3  C   UNL d   1      -3.200   0.130   0.409  0.00  0.00     0.253 A 
ATOM      4  C   UNL d   1      -2.896  -1.264   0.893  0.00  0.00     0.253 A 
ATOM      5  N   UNL d   1      -0.330  -1.589   0.473  0.00  0.00    -0.349 N 
ATOM      6  N   UNL d   1      -0.906   1.068  -0.450  0.00  0.00    -0.349 N 
ATOM      7  C   UNL d   1       0.758  -0.725   0.088  0.00  0.00     0.060 A 
ATOM      8  C   UNL d   1       0.466   0.627  -0.382  0.00  0.00     0.059 A 
ATOM      9  O   UNL d   1      -4.186   0.821   0.438  0.00  0.00    -0.281 OA
ATOM     10  O   UNL d   1      -3.544  -2.104   1.464  0.00  0.00    -0.281 OA
ATOM     11  C   UNL d   1       2.079  -1.115   0.292  0.00  0.00     0.038 A 
ATOM     12  C   UNL d   1       1.512   1.500  -0.664  0.00  0.00     0.032 A 
ATOM     13  C   UNL d   1       3.117  -0.199   0.067  0.00  0.00    -0.060 A 
ATOM     14  C   UNL d   1       2.827   1.091  -0.420  0.00  0.00     0.009 A 
ATOM     15  C   UNL d   1       4.521  -0.545   0.476  0.00  0.00     0.048 C 
ATOM     16  H   UNL d   1      -0.096  -2.526   0.780  0.00  0.00     0.166 HD
ATOM     17  H   UNL d   1      -1.071   2.031  -0.734  0.00  0.00     0.166 HD
ENDROOT
TORSDOF 0
