REMARK  9 active torsions:
REMARK  status: ('A' for Active; 'I' for Inactive)
REMARK    1  A    between atoms: N_2  and  C_1 
REMARK    2  A    between atoms: C_3  and  C_1 
REMARK    3  A    between atoms: N_4  and  C_1 
REMARK    4  A    between atoms: C_8  and  C_1 
REMARK       I    between atoms: C_9  and  N_2 
REMARK    5  A    between atoms: C_7  and  N_4 
REMARK    6  A    between atoms: O_21  and  C_8 
REMARK    7  A    between atoms: O_20  and  C_9 
REMARK    8  A    between atoms: C_23  and  O_20 
REMARK    9  A    between atoms: C_24  and  O_21 
ROOT
ATOM      1  C   UNL d   1       1.071  -0.030  -0.109  0.00  0.00     0.298 C 
ENDROOT
BRANCH   1   2
ATOM      2  N   UNL d   1       0.577   0.686  -1.274  0.00  0.00    -0.294 N 
ATOM      3  C   UNL d   1      -0.700   0.613  -1.708  0.00  0.00     0.363 C 
ATOM      4  O   UNL d   1      -1.574  -0.074  -1.212  0.00  0.00    -0.238 OA
ATOM      5  H   UNL d   1       1.190   1.340  -1.739  0.00  0.00     0.168 HD
BRANCH   3   6
ATOM      6  O   UNL d   1      -0.817   1.373  -2.821  0.00  0.00    -0.304 OA
BRANCH   6   7
ATOM      7  C   UNL d   1      -1.992   1.128  -3.606  0.00  0.00     0.176 C 
ATOM      8  C   UNL d   1      -1.700  -0.022  -4.554  0.00  0.00     0.034 C 
ENDBRANCH   6   7
ENDBRANCH   3   6
ENDBRANCH   1   2
BRANCH   1   9
ATOM      9  C   UNL d   1       0.694  -1.570  -0.086  0.00  0.00     0.442 C 
ATOM     10  F   UNL d   1       0.234  -2.016  -1.282  0.00  0.00    -0.166 F 
ATOM     11  F   UNL d   1       1.741  -2.379   0.221  0.00  0.00    -0.166 F 
ATOM     12  F   UNL d   1      -0.259  -1.832   0.846  0.00  0.00    -0.166 F 
ENDBRANCH   1   9
BRANCH   1  13
ATOM     13  N   UNL d   1       0.551   0.723   1.075  0.00  0.00    -0.345 N 
ATOM     14  H   UNL d   1       0.367   0.105   1.865  0.00  0.00     0.163 HD
BRANCH  13  15
ATOM     15  C   UNL d   1       0.917   2.016   1.448  0.00  0.00     0.073 A 
ATOM     16  C   UNL d   1       1.685   2.912   0.681  0.00  0.00     0.184 A 
ATOM     17  C   UNL d   1       1.940   4.212   1.109  0.00  0.00     0.195 A 
ATOM     18  F   UNL d   1       2.215   2.536  -0.494  0.00  0.00    -0.200 F 
ATOM     19  F   UNL d   1       2.700   5.024   0.360  0.00  0.00    -0.199 F 
ATOM     20  C   UNL d   1       1.404   4.665   2.302  0.00  0.00     0.158 A 
ATOM     21  C   UNL d   1       0.605   3.830   3.069  0.00  0.00     0.048 A 
ATOM     22  F   UNL d   1       1.640   5.917   2.716  0.00  0.00    -0.203 F 
ATOM     23  C   UNL d   1       0.359   2.521   2.638  0.00  0.00     0.036 A 
ENDBRANCH  13  15
ENDBRANCH   1  13
BRANCH   1  24
ATOM     24  C   UNL d   1       2.613  -0.095  -0.074  0.00  0.00     0.318 C 
ATOM     25  O   UNL d   1       3.280  -0.230   0.947  0.00  0.00    -0.260 OA
BRANCH  24  26
ATOM     26  O   UNL d   1       3.150  -0.052  -1.335  0.00  0.00    -0.318 OA
BRANCH  26  27
ATOM     27  C   UNL d   1       4.580  -0.128  -1.404  0.00  0.00     0.174 C 
ATOM     28  C   UNL d   1       5.047  -1.565  -1.259  0.00  0.00     0.034 C 
ENDBRANCH  26  27
ENDBRANCH  24  26
ENDBRANCH   1  24
TORSDOF 9
