REMARK  3 active torsions:
REMARK  status: ('A' for Active; 'I' for Inactive)
REMARK       I    between atoms: C_9  and  N_3 
REMARK    1  A    between atoms: C_10  and  C_4 
REMARK    2  A    between atoms: C_7  and  C_12 
REMARK    3  A    between atoms: C_15  and  C_8 
ROOT
ATOM      1  C   UNL d   1      -0.715  -2.506  -0.006  0.00  0.00    -0.008 A 
ATOM      2  C   UNL d   1      -1.501  -5.210   0.009  0.00  0.00     0.018 A 
ATOM      3  C   UNL d   1      -1.499  -3.028  -1.045  0.00  0.00     0.015 A 
ATOM      4  C   UNL d   1      -0.332  -3.361   1.038  0.00  0.00     0.015 A 
ATOM      5  C   UNL d   1      -0.726  -4.701   1.049  0.00  0.00     0.021 A 
ATOM      6  C   UNL d   1      -1.890  -4.372  -1.038  0.00  0.00     0.021 A 
ENDROOT
BRANCH   1   7
ATOM      7  C   UNL d   1      -0.313  -1.095   0.001  0.00  0.00     0.060 A 
ATOM      8  N   UNL d   1      -0.702  -0.229  -0.951  0.00  0.00    -0.291 N 
ATOM      9  N   UNL d   1      -0.168   0.968  -0.590  0.00  0.00    -0.235 N 
ATOM     10  HN  UNL d   1      -1.275  -0.428  -1.771  1.00  0.00     0.187 HD
ATOM     11  C   UNL d   1       0.577   0.858   0.563  0.00  0.00     0.122 A 
ATOM     12  C   UNL d   1      -0.381   2.148  -1.324  0.00  0.00     0.238 C 
ATOM     13  C   UNL d   1       0.498  -0.447   0.967  0.00  0.00     0.051 A 
ATOM     14  O   UNL d   1       0.130   3.194  -0.934  0.00  0.00    -0.272 OA
ATOM     15  C   UNL d   1      -1.236   2.048  -2.551  0.00  0.00     0.119 C 
ENDBRANCH   1   7
BRANCH   2  16
ATOM     16  C   UNL d   1      -1.875  -6.589   0.015  0.00  0.00    -0.061 C 
ATOM     17  C   UNL d   1      -2.145  -7.763   0.034  0.00  0.00    -0.061 C 
BRANCH  17  18
ATOM     18  C   UNL d   1      -2.421  -9.165   0.064  0.00  0.00     0.018 A 
ATOM     19  C   UNL d   1      -3.077  -9.777  -1.007  0.00  0.00     0.020 A 
ATOM     20  C   UNL d   1      -3.317 -11.153  -0.987  0.00  0.00     0.001 A 
ATOM     21  C   UNL d   1      -2.903 -11.918   0.103  0.00  0.00     0.000 A 
ATOM     22  C   UNL d   1      -2.253 -11.309   1.177  0.00  0.00     0.001 A 
ATOM     23  C   UNL d   1      -2.013  -9.934   1.158  0.00  0.00     0.020 A 
ENDBRANCH  17  18
ENDBRANCH   2  16
TORSDOF 3
