REMARK  4 active torsions:
REMARK  status: ('A' for Active; 'I' for Inactive)
REMARK    1  A    between atoms: C_6  and  N_1 
REMARK    2  A    between atoms: S_13  and  C_5 
REMARK    3  A    between atoms: C_10  and  C_11 
REMARK    4  A    between atoms: C_19  and  S_13 
ROOT
ATOM      1  N   UNL d   1      -0.163  -1.122   0.097  0.00  0.00    -0.241 N 
ATOM      2  N   UNL d   1       1.125  -0.688   0.112  0.00  0.00    -0.295 N 
ATOM      3  HN  UNL d   1       1.966  -1.264   0.157  1.00  0.00     0.187 HD
ATOM      4  C   UNL d   1      -1.048  -0.048  -0.033  0.00  0.00     0.051 A 
ATOM      5  C   UNL d   1      -0.261   1.087  -0.037  0.00  0.00     0.053 A 
ATOM      6  C   UNL d   1       1.069   0.641   0.055  0.00  0.00     0.041 A 
ATOM      7  C   UNL d   1      -2.534  -0.141  -0.057  0.00  0.00     0.072 C 
ATOM      8  C   UNL d   1       2.326   1.429   0.096  0.00  0.00     0.071 C 
ENDROOT
BRANCH   1   9
ATOM      9  C   UNL d   1      -0.440  -2.532   0.105  0.00  0.00     0.149 A 
ATOM     10  N   UNL d   1      -1.570  -2.957  -0.541  0.00  0.00    -0.349 N 
ATOM     11  C   UNL d   1      -1.784  -4.291  -0.651  0.00  0.00     0.106 A 
ATOM     12  HN  UNL d   1      -2.234  -2.287  -0.930  1.00  0.00     0.167 HD
ATOM     13  C   UNL d   1      -0.934  -5.255  -0.136  0.00  0.00     0.065 A 
ATOM     14  C   UNL d   1       0.190  -4.809   0.561  0.00  0.00     0.045 A 
ATOM     15  C   UNL d   1       0.451  -3.441   0.695  0.00  0.00     0.080 A 
ATOM     16 CL   UNL d   1       1.793  -3.041   1.712  0.00  0.00    -0.080 Cl
BRANCH  13  17
ATOM     17  C   UNL d   1      -1.238  -6.708  -0.327  0.00  0.00     0.418 C 
ATOM     18  F   UNL d   1      -0.311  -7.533   0.235  0.00  0.00    -0.166 F 
ATOM     19  F   UNL d   1      -2.433  -7.066   0.215  0.00  0.00    -0.166 F 
ATOM     20  F   UNL d   1      -1.300  -7.057  -1.640  0.00  0.00    -0.166 F 
ENDBRANCH  13  17
ENDBRANCH   1   9
BRANCH   5  21
ATOM     21  S   UNL d   1      -0.791   2.747  -0.041  0.00  0.00    -0.086 SA
BRANCH  21  22
ATOM     22  C   UNL d   1      -0.918   3.226  -1.755  0.00  0.00     0.005 A 
ATOM     23  C   UNL d   1      -0.635   2.389  -2.841  0.00  0.00     0.020 A 
ATOM     24  C   UNL d   1      -0.779   2.852  -4.155  0.00  0.00     0.025 A 
ATOM     25  C   UNL d   1      -1.204   4.157  -4.391  0.00  0.00     0.034 A 
ATOM     26  C   UNL d   1      -1.484   5.005  -3.326  0.00  0.00     0.025 A 
ATOM     27 CL   UNL d   1      -1.389   4.721  -6.005  0.00  0.00    -0.084 Cl
ATOM     28  C   UNL d   1      -1.341   4.540  -2.015  0.00  0.00     0.020 A 
ENDBRANCH  21  22
ENDBRANCH   5  21
TORSDOF 4
