REMARK  4 active torsions:
REMARK  status: ('A' for Active; 'I' for Inactive)
REMARK    1  A    between atoms: C_4  and  C_1 
REMARK       I    between atoms: N_8  and  C_4 
REMARK    2  A    between atoms: C_7  and  C_10 
REMARK    3  A    between atoms: C_10  and  N_8 
REMARK    4  A    between atoms: C_22  and  C_17 
ROOT
ATOM      1  C   UNL d   1      -3.826  -0.121  -0.120  0.00  0.00     0.268 C 
ATOM      2  N   UNL d   1      -4.486  -1.328  -0.120  0.00  0.00    -0.351 N 
ATOM      3  O   UNL d   1      -4.418   0.952  -0.187  0.00  0.00    -0.266 OA
ATOM      4  H   UNL d   1      -3.965  -2.177   0.033  0.00  0.00     0.163 HD
ENDROOT
BRANCH   1   5
ATOM      5  C   UNL d   1      -2.383  -0.202  -0.053  0.00  0.00     0.102 A 
ATOM      6  N   UNL d   1      -1.593   0.931  -0.046  0.00  0.00    -0.351 N 
ATOM      7  C   UNL d   1      -0.257   0.605  -0.030  0.00  0.00     0.043 A 
ATOM      8  H   UNL d   1      -1.965   1.872  -0.076  0.00  0.00     0.166 HD
ATOM      9  C   UNL d   1       0.882   1.419  -0.044  0.00  0.00     0.031 A 
ATOM     10  C   UNL d   1      -0.182  -0.784  -0.001  0.00  0.00    -0.007 A 
ATOM     11  C   UNL d   1       2.134   0.787  -0.036  0.00  0.00     0.009 A 
ATOM     12  C   UNL d   1       2.248  -0.609  -0.004  0.00  0.00    -0.058 A 
ATOM     13  C   UNL d   1       1.086  -1.399   0.011  0.00  0.00     0.021 A 
ATOM     14  C   UNL d   1      -1.514  -1.279  -0.002  0.00  0.00     0.049 A 
BRANCH  12  15
ATOM     15  C   UNL d   1       3.602  -1.274  -0.012  0.00  0.00     0.034 C 
ATOM     16  C   UNL d   1       4.071  -1.599  -1.422  0.00  0.00     0.010 C 
ENDBRANCH  12  15
ENDBRANCH   1   5
BRANCH   2  17
ATOM     17  C   UNL d   1      -5.929  -1.385  -0.190  0.00  0.00     0.163 C 
BRANCH  17  18
ATOM     18  C   UNL d   1      -6.446  -2.804  -0.233  0.00  0.00    -0.017 A 
ATOM     19  C   UNL d   1      -7.361  -3.318   0.701  0.00  0.00     0.042 A 
ATOM     20  C   UNL d   1      -7.829  -4.636   0.592  0.00  0.00     0.026 A 
ATOM     21 CL   UNL d   1      -7.968  -2.380   2.017  0.00  0.00    -0.084 Cl
ATOM     22  C   UNL d   1      -7.396  -5.457  -0.449  0.00  0.00     0.025 A 
ATOM     23  C   UNL d   1      -6.496  -4.958  -1.385  0.00  0.00     0.034 A 
ATOM     24  C   UNL d   1      -6.026  -3.646  -1.284  0.00  0.00     0.034 A 
ATOM     25 CL   UNL d   1      -5.962  -5.961  -2.675  0.00  0.00    -0.084 Cl
ENDBRANCH  17  18
ENDBRANCH   2  17
TORSDOF 4
