REMARK  3 active torsions:
REMARK  status: ('A' for Active; 'I' for Inactive)
REMARK       I    between atoms: N_2  and  C_1 
REMARK       I    between atoms: N_5  and  C_1 
REMARK    1  A    between atoms: C_3  and  C_10 
REMARK    2  A    between atoms: C_11  and  C_4 
REMARK    3  A    between atoms: C_9  and  N_5 
ROOT
ATOM      1  N   UNL d   1      -3.232   2.562   0.184  0.00  0.00    -0.372 N 
ATOM      2  HN  UNL d   1      -3.674   3.416  -0.156  1.00  0.00     0.164 HD
ATOM      3  C   UNL d   1      -1.216   1.259   0.625  0.00  0.00     0.053 A 
ATOM      4  C   UNL d   1      -3.385   0.366   1.182  0.00  0.00     0.035 A 
ATOM      5  C   UNL d   1      -1.995   0.243   1.178  0.00  0.00     0.053 A 
ATOM      6  C   UNL d   1      -1.888   2.388   0.153  0.00  0.00     0.117 A 
ATOM      7  C   UNL d   1      -3.950   1.535   0.693  0.00  0.00     0.108 A 
ENDROOT
BRANCH   3   8
ATOM      8  N   UNL d   1       0.186   1.196   0.455  0.00  0.00    -0.307 N 
ATOM      9  C   UNL d   1       1.045   0.260   0.967  0.00  0.00     0.322 C 
ATOM     10  N   UNL d   1       2.369   0.346   0.539  0.00  0.00    -0.334 N 
ATOM     11  O   UNL d   1       0.698  -0.623   1.755  0.00  0.00    -0.247 OA
ATOM     12  C   UNL d   1       3.323  -0.635   1.058  0.00  0.00     0.127 C 
ATOM     13  C   UNL d   1       2.972   1.327  -0.365  0.00  0.00     0.127 C 
ATOM     14  C   UNL d   1       3.964  -1.411  -0.087  0.00  0.00     0.020 C 
ATOM     15  C   UNL d   1       4.622  -0.470  -1.094  0.00  0.00     0.003 C 
ATOM     16  C   UNL d   1       3.678   0.647  -1.538  0.00  0.00     0.020 C 
ATOM     17  H   UNL d   1       0.586   1.954  -0.063  0.00  0.00     0.170 HD
ENDBRANCH   3   8
BRANCH   4  18
ATOM     18  C   UNL d   1      -4.211  -0.730   1.575  0.00  0.00    -0.060 C 
ATOM     19  C   UNL d   1      -4.913  -1.678   1.805  0.00  0.00    -0.061 C 
BRANCH  19  20
ATOM     20  C   UNL d   1      -5.766  -2.806   2.009  0.00  0.00     0.018 A 
ATOM     21  C   UNL d   1      -6.838  -3.029   1.141  0.00  0.00     0.020 A 
ATOM     22  C   UNL d   1      -7.694  -4.112   1.354  0.00  0.00     0.001 A 
ATOM     23  C   UNL d   1      -7.475  -4.971   2.432  0.00  0.00     0.000 A 
ATOM     24  C   UNL d   1      -6.395  -4.759   3.287  0.00  0.00     0.001 A 
ATOM     25  C   UNL d   1      -5.537  -3.677   3.075  0.00  0.00     0.020 A 
ENDBRANCH  19  20
ENDBRANCH   4  18
TORSDOF 3
