REMARK  10 active torsions:
REMARK  status: ('A' for Active; 'I' for Inactive)
REMARK    1  A    between atoms: C_3  and  C_1 
REMARK    2  A    between atoms: O_4  and  C_2 
REMARK    3  A    between atoms: N_6  and  C_3 
REMARK    4  A    between atoms: C_12  and  O_4 
REMARK       I    between atoms: C_5  and  N_6 
REMARK    5  A    between atoms: C_20  and  C_5 
REMARK    6  A    between atoms: C_8  and  C_21 
REMARK    7  A    between atoms: O_15  and  C_8 
REMARK    8  A    between atoms: S_11  and  C_20 
REMARK    9  A    between atoms: C_21  and  S_11 
REMARK   10  A    between atoms: O_23  and  C_14 
ROOT
ATOM      1  C   UNL d   1       0.201   1.139  -0.099  0.00  0.00     0.015 A 
ATOM      2  C   UNL d   1       1.611   1.205  -0.086  0.00  0.00     0.085 A 
ATOM      3  C   UNL d   1      -0.389  -0.141  -0.028  0.00  0.00     0.044 A 
ATOM      4 CL   UNL d   1      -2.103  -0.373   0.034  0.00  0.00    -0.084 Cl
ATOM      5  C   UNL d   1       2.379   0.028  -0.156  0.00  0.00     0.038 A 
ATOM      6  C   UNL d   1       1.774  -1.220  -0.099  0.00  0.00     0.004 A 
ATOM      7  C   UNL d   1       0.392  -1.304  -0.007  0.00  0.00     0.024 A 
ENDROOT
BRANCH   1   8
ATOM      8  C   UNL d   1      -0.628   2.379  -0.321  0.00  0.00     0.165 C 
BRANCH   8   9
ATOM      9  N   UNL d   1      -0.555   3.363   0.732  0.00  0.00    -0.356 N 
ATOM     10  C   UNL d   1      -1.011   4.644   0.511  0.00  0.00     0.227 C 
ATOM     11  O   UNL d   1      -1.403   5.048  -0.587  0.00  0.00    -0.273 OA
ATOM     12  H   UNL d   1      -0.180   3.103   1.635  0.00  0.00     0.162 HD
BRANCH  10  13
ATOM     13  C   UNL d   1      -0.920   5.586   1.694  0.00  0.00     0.177 C 
BRANCH  13  14
ATOM     14  S   UNL d   1       0.725   6.364   1.754  0.00  0.00    -0.149 SA
BRANCH  14  15
ATOM     15  C   UNL d   1       0.837   7.077   0.076  0.00  0.00     0.184 C 
BRANCH  15  16
ATOM     16  C   UNL d   1      -0.229   8.117  -0.189  0.00  0.00     0.149 C 
ATOM     17  O   UNL d   1      -0.137   9.288   0.154  0.00  0.00    -0.649 OA
BRANCH  16  18
ATOM     18  O   UNL d   1      -1.322   7.650  -0.834  0.00  0.00    -0.776 OA
ATOM     19  H   UNL d   1      -1.328   6.675  -1.014  0.00  0.00     0.167 HD
ENDBRANCH  16  18
ENDBRANCH  15  16
ENDBRANCH  14  15
ENDBRANCH  13  14
ENDBRANCH  10  13
ENDBRANCH   8   9
ENDBRANCH   1   8
BRANCH   2  20
ATOM     20  O   UNL d   1       2.219   2.452  -0.032  0.00  0.00    -0.310 OA
BRANCH  20  21
ATOM     21  C   UNL d   1       3.440   2.528   0.615  0.00  0.00     0.076 A 
ATOM     22  C   UNL d   1       4.474   3.209  -0.027  0.00  0.00     0.040 A 
ATOM     23  C   UNL d   1       5.768   3.185   0.511  0.00  0.00     0.039 A 
ATOM     24  C   UNL d   1       6.024   2.484   1.691  0.00  0.00     0.068 A 
ATOM     25  C   UNL d   1       4.966   1.885   2.377  0.00  0.00     0.039 A 
ATOM     26  C   UNL d   1       3.673   1.923   1.854  0.00  0.00     0.040 A 
BRANCH  24  27
ATOM     27  O   UNL d   1       7.249   2.346   2.282  0.00  0.00    -0.356 OA
ATOM     28  C   UNL d   1       8.366   2.363   1.400  0.00  0.00     0.210 C 
ENDBRANCH  24  27
ENDBRANCH  20  21
ENDBRANCH   2  20
TORSDOF 10
