REMARK  5 active torsions:
REMARK  status: ('A' for Active; 'I' for Inactive)
REMARK    1  A    between atoms: S_11  and  C_2 
REMARK    2  A    between atoms: S_17  and  C_3 
REMARK    3  A    between atoms: C_8  and  C_12 
REMARK       I    between atoms: N_9  and  C_10 
REMARK    4  A    between atoms: C_10  and  C_15 
REMARK    5  A    between atoms: C_15  and  S_11 
ROOT
ATOM      1  N   UNL d   1       1.239   5.686   0.042  0.00  0.00    -0.351 N 
ATOM      2  C   UNL d   1       2.155   4.717  -0.388  0.00  0.00     0.229 C 
ATOM      3  C   UNL d   1      -0.409   7.915   0.965  0.00  0.00     0.096 C 
ATOM      4  C   UNL d   1       1.019   6.832  -0.843  0.00  0.00     0.126 C 
ATOM      5  C   UNL d   1       0.177   5.433   1.015  0.00  0.00     0.126 C 
ATOM      6  O   UNL d   1       2.737   4.837  -1.467  0.00  0.00    -0.273 OA
ATOM      7  C   UNL d   1       0.730   8.101  -0.046  0.00  0.00     0.033 C 
ATOM      8  C   UNL d   1      -0.122   6.684   1.842  0.00  0.00     0.033 C 
ENDROOT
BRANCH   2   9
ATOM      9  C   UNL d   1       2.412   3.517   0.524  0.00  0.00     0.184 C 
BRANCH   9  10
ATOM     10  S   UNL d   1       4.138   2.953   0.359  0.00  0.00    -0.094 SA
BRANCH  10  11
ATOM     11  C   UNL d   1       4.101   1.466   1.270  0.00  0.00     0.129 A 
ATOM     12  S   UNL d   1       5.481   0.464   1.448  0.00  0.00    -0.038 SA
ATOM     13  C   UNL d   1       4.481  -0.623   2.316  0.00  0.00     0.128 A 
ATOM     14  N   UNL d   1       3.240  -0.210   2.476  0.00  0.00    -0.287 N 
ATOM     15  N   UNL d   1       3.019   1.012   1.866  0.00  0.00    -0.287 N 
ATOM     16  HN  UNL d   1       2.526  -0.729   2.987  1.00  0.00     0.188 HD
ATOM     17  HN  UNL d   1       2.125   1.503   1.878  1.00  0.00     0.188 HD
BRANCH  13  18
ATOM     18  S   UNL d   1       5.064  -2.156   2.924  0.00  0.00    -0.108 SA
ATOM     19  C   UNL d   1       3.536  -2.862   3.578  0.00  0.00     0.097 C 
ENDBRANCH  13  18
ENDBRANCH  10  11
ENDBRANCH   9  10
ENDBRANCH   2   9
BRANCH   3  20
ATOM     20  C   UNL d   1      -1.788   7.863   0.303  0.00  0.00     0.391 C 
ATOM     21  F   UNL d   1      -1.726   8.019  -1.036  0.00  0.00    -0.171 F 
ATOM     22  F   UNL d   1      -2.434   6.703   0.547  0.00  0.00    -0.171 F 
ATOM     23  F   UNL d   1      -2.570   8.859   0.784  0.00  0.00    -0.171 F 
ENDBRANCH   3  20
TORSDOF 5
