REMARK  6 active torsions:
REMARK  status: ('A' for Active; 'I' for Inactive)
REMARK    1  A    between atoms: N_4  and  C_1 
REMARK    2  A    between atoms: C_2  and  C_12 
REMARK    3  A    between atoms: N_6  and  N_4 
REMARK    4  A    between atoms: C_5  and  C_11 
REMARK    5  A    between atoms: C_18  and  C_10 
REMARK    6  A    between atoms: O_22  and  C_18 
ROOT
ATOM      1  N   UNL d   1      -0.958   5.970  -0.042  0.00  0.00    -0.303 N 
ATOM      2  HN  UNL d   1      -0.649   6.910   0.206  1.00  0.00     0.186 HD
ATOM      3  C   UNL d   1      -0.076   5.042  -0.272  0.00  0.00     0.039 C 
ATOM      4  C   UNL d   1      -0.440   3.622  -0.651  0.00  0.00     0.071 C 
ENDROOT
BRANCH   3   5
ATOM      5  C   UNL d   1       1.334   5.405  -0.171  0.00  0.00     0.029 A 
ATOM      6  S   UNL d   1       1.798   6.678   0.886  0.00  0.00    -0.079 SA
ATOM      7  C   UNL d   1       3.443   6.567   0.452  0.00  0.00     0.059 A 
ATOM      8  C   UNL d   1       3.650   5.552  -0.461  0.00  0.00     0.029 A 
ATOM      9  C   UNL d   1       2.438   4.872  -0.812  0.00  0.00     0.023 A 
BRANCH   7  10
ATOM     10  C   UNL d   1       4.438   7.445   0.998  0.00  0.00    -0.056 C 
ATOM     11  C   UNL d   1       5.221   8.219   1.493  0.00  0.00    -0.063 C 
BRANCH  11  12
ATOM     12  C   UNL d   1       6.158   9.182   2.110  0.00  0.00     0.114 C 
ATOM     13  C   UNL d   1       7.378   9.405   1.215  0.00  0.00     0.060 C 
ATOM     14  C   UNL d   1       5.478  10.520   2.408  0.00  0.00     0.060 C 
BRANCH  12  15
ATOM     15  O   UNL d   1       6.617   8.663   3.361  0.00  0.00    -0.378 OA
ATOM     16  H   UNL d   1       6.986   7.781   3.188  0.00  0.00     0.211 HD
ENDBRANCH  12  15
ENDBRANCH  11  12
ENDBRANCH   7  10
ENDBRANCH   3   5
BRANCH   1  17
ATOM     17  N   UNL d   1      -2.271   5.704  -0.127  0.00  0.00    -0.297 N 
ATOM     18  H   UNL d   1      -2.629   4.926  -0.680  0.00  0.00     0.187 HD
BRANCH  17  19
ATOM     19  C   UNL d   1      -3.235   6.709   0.145  0.00  0.00     0.091 A 
ATOM     20  C   UNL d   1      -2.961   8.034   0.556  0.00  0.00     0.065 A 
ATOM     21  C   UNL d   1      -4.000   8.915   0.898  0.00  0.00     0.050 A 
ATOM     22 CL   UNL d   1      -1.379   8.738   0.643  0.00  0.00    -0.082 Cl
ATOM     23  C   UNL d   1      -5.322   8.493   0.852  0.00  0.00     0.037 A 
ATOM     24  C   UNL d   1      -5.630   7.199   0.459  0.00  0.00     0.050 A 
ATOM     25 CL   UNL d   1      -6.581   9.579   1.288  0.00  0.00    -0.084 Cl
ATOM     26  C   UNL d   1      -4.598   6.324   0.115  0.00  0.00     0.065 A 
ATOM     27 CL   UNL d   1      -5.048   4.715  -0.361  0.00  0.00    -0.082 Cl
ENDBRANCH  17  19
ENDBRANCH   1  17
TORSDOF 6
