REMARK  0 active torsions:
REMARK  status: ('A' for Active; 'I' for Inactive)
ROOT
ATOM      1  C   UNL d   1       0.092  -1.419  -0.008  0.00  0.00     0.108 A 
ATOM      2  C   UNL d   1       0.326  -0.086  -0.010  0.00  0.00     0.069 A 
ATOM      3  S   UNL d   1      -1.507  -2.118  -0.015  0.00  0.00    -0.080 SA
ATOM      4  N   UNL d   1      -0.671   0.879  -0.018  0.00  0.00    -0.353 N 
ATOM      5  C   UNL d   1       1.183  -2.435   0.002  0.00  0.00     0.307 A 
ATOM      6  C   UNL d   1       1.742   0.372  -0.005  0.00  0.00     0.026 A 
ATOM      7  O   UNL d   1       2.480  -1.956   0.007  0.00  0.00    -0.274 OA
ATOM      8  C   UNL d   1       2.758  -0.584   0.003  0.00  0.00     0.092 A 
ATOM      9  C   UNL d   1      -2.559  -0.686  -0.006  0.00  0.00     0.032 A 
ATOM     10  C   UNL d   1      -2.054   0.621  -0.006  0.00  0.00     0.050 A 
ATOM     11  O   UNL d   1       0.986  -3.647   0.005  0.00  0.00    -0.258 OA
ATOM     12  C   UNL d   1       2.154   1.716  -0.009  0.00  0.00     0.016 A 
ATOM     13  C   UNL d   1       4.117  -0.256   0.006  0.00  0.00     0.038 A 
ATOM     14  C   UNL d   1      -2.961   1.693  -0.005  0.00  0.00     0.031 A 
ATOM     15  C   UNL d   1      -3.945  -0.905   0.000  0.00  0.00     0.021 A 
ATOM     16  C   UNL d   1       3.515   2.064  -0.005  0.00  0.00     0.001 A 
ATOM     17  C   UNL d   1       4.497   1.078   0.002  0.00  0.00     0.003 A 
ATOM     18  C   UNL d   1      -4.341   1.468   0.001  0.00  0.00     0.002 A 
ATOM     19  C   UNL d   1      -4.834   0.168   0.004  0.00  0.00     0.002 A 
ATOM     20  H   UNL d   1      -0.407   1.853   0.010  0.00  0.00     0.166 HD
ENDROOT
TORSDOF 0
