REMARK  4 active torsions:
REMARK  status: ('A' for Active; 'I' for Inactive)
REMARK    1  A    between atoms: C_2  and  S_1 
REMARK    2  A    between atoms: O_5  and  S_1 
REMARK    3  A    between atoms: C_7  and  O_5 
REMARK    4  A    between atoms: N_10  and  C_11 
ROOT
ATOM      1  C   UNL d   1       0.755   0.653  -2.584  0.00  0.00     0.116 A 
ATOM      2  C   UNL d   1       2.144   0.940  -2.576  0.00  0.00     0.065 A 
ATOM      3  C   UNL d   1      -0.070   1.117  -3.623  0.00  0.00     0.040 A 
ATOM      4  C   UNL d   1       2.636   1.748  -3.616  0.00  0.00     0.032 A 
ATOM      5  C   UNL d   1       0.452   1.926  -4.628  0.00  0.00     0.003 A 
ATOM      6  C   UNL d   1       1.802   2.246  -4.623  0.00  0.00     0.002 A 
ENDROOT
BRANCH   1   7
ATOM      7  O   UNL d   1       0.249  -0.054  -1.512  0.00  0.00    -0.226 OA
BRANCH   7   8
ATOM      8  S   UNL d   1      -1.302   0.095  -1.054  0.00  0.00     0.320 S 
ATOM      9  O   UNL d   1      -1.712   1.483  -0.979  0.00  0.00    -0.191 OA
ATOM     10  O   UNL d   1      -2.117  -0.917  -1.715  0.00  0.00    -0.191 OA
BRANCH   8  11
ATOM     11  C   UNL d   1      -1.266  -0.424   0.611  0.00  0.00     0.173 A 
ATOM     12  N   UNL d   1      -0.166  -0.992   1.236  0.00  0.00    -0.340 N 
ATOM     13  C   UNL d   1      -0.516  -1.115   2.498  0.00  0.00     0.183 A 
ATOM     14  HN  UNL d   1       0.722  -1.258   0.809  1.00  0.00     0.167 HD
ATOM     15  N   UNL d   1      -1.795  -0.682   2.709  0.00  0.00    -0.354 N 
ATOM     16  C   UNL d   1      -2.305  -0.268   1.515  0.00  0.00     0.135 A 
ATOM     17  C   UNL d   1      -2.453  -0.613   3.991  0.00  0.00     0.156 C 
ENDBRANCH   8  11
ENDBRANCH   7   8
ENDBRANCH   1   7
BRANCH   2  18
ATOM     18  N   UNL d   1       2.966   0.509  -1.538  0.00  0.00    -0.374 N 
ATOM     19  C   UNL d   1       4.208   1.222  -1.204  0.00  0.00     0.149 C 
ATOM     20  C   UNL d   1       4.519   0.961   0.279  0.00  0.00     0.187 C 
ATOM     21  O   UNL d   1       4.668  -0.446   0.544  0.00  0.00    -0.388 OA
ATOM     22  C   UNL d   1       3.472  -1.165   0.180  0.00  0.00     0.187 C 
ATOM     23  C   UNL d   1       3.091  -0.944  -1.296  0.00  0.00     0.149 C 
ENDBRANCH   2  18
TORSDOF 4
