REMARK  7 active torsions:
REMARK  status: ('A' for Active; 'I' for Inactive)
REMARK    1  A    between atoms: S_8  and  C_1 
REMARK    2  A    between atoms: C_9  and  C_3 
REMARK       I    between atoms: N_6  and  C_7 
REMARK    3  A    between atoms: C_10  and  N_6 
REMARK    4  A    between atoms: C_7  and  C_12 
REMARK    5  A    between atoms: C_12  and  S_8 
REMARK    6  A    between atoms: C_14  and  C_11 
REMARK    7  A    between atoms: C_23  and  C_12 
ROOT
ATOM      1  C   UNL d   1      -0.058  -0.849   0.585  0.00  0.00     0.093 A 
ATOM      2  C   UNL d   1      -1.243  -0.373   1.158  0.00  0.00     0.093 A 
ATOM      3  C   UNL d   1      -1.565   0.982   0.971  0.00  0.00     0.073 A 
ATOM      4  N   UNL d   1       0.835  -0.047  -0.039  0.00  0.00    -0.348 N 
ATOM      5  HN  UNL d   1       1.709  -0.424  -0.406  1.00  0.00     0.166 HD
ATOM      6  C   UNL d   1       0.541   1.264  -0.165  0.00  0.00     0.051 A 
ATOM      7  C   UNL d   1      -0.653   1.802   0.282  0.00  0.00     0.048 A 
ATOM      8  C   UNL d   1      -2.071  -1.242   1.939  0.00  0.00     0.103 C 
ATOM      9  N   UNL d   1      -2.747  -1.921   2.606  0.00  0.00    -0.191 NA
ENDROOT
BRANCH   1  10
ATOM     10  S   UNL d   1       0.285  -2.590   0.460  0.00  0.00    -0.091 SA
BRANCH  10  11
ATOM     11  C   UNL d   1       2.174  -2.625   0.418  0.00  0.00     0.179 C 
BRANCH  11  12
ATOM     12  C   UNL d   1       2.724  -2.057   1.746  0.00  0.00     0.241 C 
ATOM     13  N   UNL d   1       4.046  -1.794   1.963  0.00  0.00    -0.321 N 
ATOM     14  H   UNL d   1       4.238  -1.755   2.961  0.00  0.00     0.169 HD
ATOM     15  O   UNL d   1       2.006  -1.929   2.750  0.00  0.00    -0.272 OA
BRANCH  13  16
ATOM     16  C   UNL d   1       5.177  -1.654   1.141  0.00  0.00     0.112 A 
ATOM     17  C   UNL d   1       5.186  -1.189  -0.171  0.00  0.00     0.146 A 
ATOM     18  F   UNL d   1       4.067  -0.770  -0.767  0.00  0.00    -0.204 F 
ATOM     19  C   UNL d   1       6.381  -1.030  -0.879  0.00  0.00     0.045 A 
ATOM     20  C   UNL d   1       7.597  -1.371  -0.292  0.00  0.00     0.006 A 
ATOM     21  C   UNL d   1       7.617  -1.814   1.026  0.00  0.00     0.045 A 
ATOM     22  C   UNL d   1       6.420  -1.918   1.734  0.00  0.00     0.146 A 
ATOM     23  F   UNL d   1       6.468  -2.306   3.019  0.00  0.00    -0.204 F 
ENDBRANCH  13  16
ENDBRANCH  11  12
BRANCH  11  24
ATOM     24  C   UNL d   1       2.507  -4.103   0.185  0.00  0.00    -0.035 A 
ATOM     25  C   UNL d   1       2.408  -5.030   1.238  0.00  0.00     0.009 A 
ATOM     26  C   UNL d   1       2.343  -6.399   0.978  0.00  0.00     0.001 A 
ATOM     27  C   UNL d   1       2.421  -6.867  -0.331  0.00  0.00     0.000 A 
ATOM     28  C   UNL d   1       2.606  -5.968  -1.380  0.00  0.00     0.001 A 
ATOM     29  C   UNL d   1       2.649  -4.593  -1.127  0.00  0.00     0.009 A 
ENDBRANCH  11  24
ENDBRANCH  10  11
ENDBRANCH   1  10
BRANCH   3  30
ATOM     30  C   UNL d   1      -2.834   1.631   1.453  0.00  0.00     0.419 C 
ATOM     31  F   UNL d   1      -3.701   0.820   2.105  0.00  0.00    -0.166 F 
ATOM     32  F   UNL d   1      -2.577   2.666   2.301  0.00  0.00    -0.166 F 
ATOM     33  F   UNL d   1      -3.539   2.171   0.420  0.00  0.00    -0.166 F 
ENDBRANCH   3  30
BRANCH   6  34
ATOM     34  C   UNL d   1       1.627   2.072  -0.714  0.00  0.00     0.031 A 
ATOM     35  S   UNL d   1       1.341   3.339  -1.831  0.00  0.00    -0.100 SA
ATOM     36  C   UNL d   1       3.006   3.723  -1.924  0.00  0.00     0.050 A 
ATOM     37  C   UNL d   1       3.773   2.895  -1.138  0.00  0.00     0.008 A 
ATOM     38  C   UNL d   1       2.974   1.958  -0.429  0.00  0.00     0.021 A 
ENDBRANCH   6  34
TORSDOF 7
