REMARK  2 active torsions:
REMARK  status: ('A' for Active; 'I' for Inactive)
REMARK    1  A    between atoms: C_4  and  C_1 
REMARK       I    between atoms: N_7  and  C_4 
REMARK    2  A    between atoms: C_12  and  N_7 
ROOT
ATOM      1  N   UNL d   1      11.086  -2.619  -1.374  0.00  0.00    -0.191 NA
ATOM      2  C   UNL d   1       9.971  -2.388  -1.147  0.00  0.00     0.099 C 
ATOM      3  C   UNL d   1       5.884  -1.473  -0.411  0.00  0.00     0.035 A 
ATOM      4  C   UNL d   1       8.594  -2.097  -0.876  0.00  0.00     0.044 A 
ATOM      5  C   UNL d   1       6.901  -0.624   0.036  0.00  0.00     0.031 A 
ATOM      6  C   UNL d   1       6.241  -2.662  -1.059  0.00  0.00     0.031 A 
ATOM      7  C   UNL d   1       7.588  -2.969  -1.298  0.00  0.00     0.025 A 
ATOM      8  C   UNL d   1       8.247  -0.930  -0.196  0.00  0.00     0.025 A 
ENDROOT
BRANCH   3   9
ATOM      9  N   UNL d   1       4.507  -1.202  -0.251  0.00  0.00    -0.322 N 
ATOM     10  C   UNL d   1       3.930  -0.010   0.175  0.00  0.00     0.264 C 
ATOM     11  O   UNL d   1       4.589   0.991   0.444  0.00  0.00    -0.267 OA
ATOM     12  H   UNL d   1       3.862  -1.928  -0.537  0.00  0.00     0.169 HD
BRANCH  10  13
ATOM     13  C   UNL d   1       2.469  -0.011   0.266  0.00  0.00     0.096 A 
ATOM     14  S   UNL d   1       1.560  -1.453   0.098  0.00  0.00    -0.082 SA
ATOM     15  C   UNL d   1       0.066  -0.666   0.420  0.00  0.00     0.017 A 
ATOM     16  C   UNL d   1      -1.209  -1.261   0.487  0.00  0.00     0.020 A 
ATOM     17  C   UNL d   1       0.245   0.703   0.623  0.00  0.00     0.004 A 
ATOM     18  C   UNL d   1      -2.319  -0.462   0.776  0.00  0.00     0.001 A 
ATOM     19  C   UNL d   1      -2.170   0.901   0.984  0.00  0.00     0.001 A 
ATOM     20  C   UNL d   1      -0.905   1.488   0.904  0.00  0.00     0.014 A 
ATOM     21  C   UNL d   1       1.635   1.067   0.507  0.00  0.00     0.068 A 
ATOM     22 CL   UNL d   1       2.133   2.707   0.683  0.00  0.00    -0.082 Cl
ENDBRANCH  10  13
ENDBRANCH   3   9
TORSDOF 2
