REMARK  2 active torsions:
REMARK  status: ('A' for Active; 'I' for Inactive)
REMARK    1  A    between atoms: C_7  and  N_1 
REMARK    2  A    between atoms: C_8  and  N_3 
ROOT
ATOM      1  N   UNL d   1      -0.392   1.089  -0.090  0.00  0.00    -0.258 N 
ATOM      2  C   UNL d   1       0.896   0.594  -0.014  0.00  0.00     0.155 C 
ATOM      3  N   UNL d   1       1.931   1.330   0.227  0.00  0.00    -0.334 N 
ATOM      4  HN  UNL d   1       1.778   2.312   0.456  1.00  0.00     0.168 HD
ATOM      5  S   UNL d   1       0.895  -1.122  -0.362  0.00  0.00    -0.084 SA
ATOM      6  C   UNL d   1      -1.414   0.164  -0.231  0.00  0.00     0.240 C 
ATOM      7  C   UNL d   1      -0.895  -1.240  -0.323  0.00  0.00     0.186 C 
ATOM      8  O   UNL d   1      -2.623   0.389  -0.187  0.00  0.00    -0.272 OA
ENDROOT
BRANCH   1   9
ATOM      9  C   UNL d   1      -0.688   2.485  -0.096  0.00  0.00     0.083 A 
ATOM     10  C   UNL d   1      -1.547   3.016  -1.072  0.00  0.00     0.143 A 
ATOM     11  F   UNL d   1      -2.017   2.235  -2.057  0.00  0.00    -0.204 F 
ATOM     12  C   UNL d   1      -1.858   4.371  -1.109  0.00  0.00     0.044 A 
ATOM     13  C   UNL d   1      -1.316   5.229  -0.157  0.00  0.00     0.003 A 
ATOM     14  C   UNL d   1      -0.451   4.725   0.817  0.00  0.00     0.002 A 
ATOM     15  C   UNL d   1      -0.128   3.363   0.840  0.00  0.00     0.033 A 
ENDBRANCH   1   9
BRANCH   3  16
ATOM     16  C   UNL d   1       3.258   0.859   0.192  0.00  0.00     0.073 A 
ATOM     17  C   UNL d   1       4.199   1.531  -0.602  0.00  0.00     0.143 A 
ATOM     18  F   UNL d   1       3.824   2.597  -1.328  0.00  0.00    -0.204 F 
ATOM     19  C   UNL d   1       5.532   1.130  -0.660  0.00  0.00     0.044 A 
ATOM     20  C   UNL d   1       5.955   0.031   0.084  0.00  0.00     0.003 A 
ATOM     21  C   UNL d   1       5.046  -0.635   0.905  0.00  0.00     0.002 A 
ATOM     22  C   UNL d   1       3.716  -0.206   0.980  0.00  0.00     0.033 A 
ENDBRANCH   3  16
TORSDOF 2
