REMARK  4 active torsions:
REMARK  status: ('A' for Active; 'I' for Inactive)
REMARK    1  A    between atoms: C_7  and  C_1 
REMARK    2  A    between atoms: C_12  and  C_5 
REMARK       I    between atoms: N_16  and  C_7 
REMARK    3  A    between atoms: C_8  and  C_9 
REMARK    4  A    between atoms: N_21  and  N_16 
ROOT
ATOM      1  C   UNL d   1      -0.167  -1.106  -0.016  0.00  0.00     0.098 A 
ATOM      2  S   UNL d   1       1.379  -0.369  -0.028  0.00  0.00    -0.063 SA
ATOM      3  N   UNL d   1      -0.659   1.185   0.003  0.00  0.00    -0.351 N 
ATOM      4  HN  UNL d   1      -1.243   2.021   0.013  1.00  0.00     0.166 HD
ATOM      5  C   UNL d   1       0.661   1.192   0.002  0.00  0.00     0.102 A 
ATOM      6  C   UNL d   1      -1.144  -0.120  -0.010  0.00  0.00     0.029 A 
ATOM      7  C   UNL d   1      -2.619  -0.315  -0.009  0.00  0.00     0.070 C 
ENDROOT
BRANCH   5   8
ATOM      8  C   UNL d   1       1.510   2.398   0.031  0.00  0.00     0.066 A 
ATOM      9  N   UNL d   1       2.855   2.202  -0.005  0.00  0.00    -0.363 N 
ATOM     10  C   UNL d   1       3.655   3.290   0.029  0.00  0.00     0.104 A 
ATOM     11  HN  UNL d   1       3.248   1.262  -0.056  1.00  0.00     0.165 HD
ATOM     12  C   UNL d   1       3.186   4.591   0.099  0.00  0.00     0.063 A 
ATOM     13  C   UNL d   1       1.801   4.777   0.134  0.00  0.00     0.020 A 
ATOM     14  C   UNL d   1       0.951   3.670   0.100  0.00  0.00     0.033 A 
BRANCH  12  15
ATOM     15  C   UNL d   1       4.141   5.744   0.135  0.00  0.00     0.418 C 
ATOM     16  F   UNL d   1       5.450   5.369   0.097  0.00  0.00    -0.166 F 
ATOM     17  F   UNL d   1       3.968   6.597  -0.912  0.00  0.00    -0.166 F 
ATOM     18  F   UNL d   1       4.004   6.499   1.260  0.00  0.00    -0.166 F 
ENDBRANCH  12  15
ENDBRANCH   5   8
BRANCH   1  19
ATOM     19  C   UNL d   1      -0.319  -2.549  -0.002  0.00  0.00     0.274 C 
ATOM     20  O   UNL d   1      -1.407  -3.124   0.070  0.00  0.00    -0.266 OA
ATOM     21  N   UNL d   1       0.873  -3.278  -0.062  0.00  0.00    -0.289 N 
ATOM     22  H   UNL d   1       1.750  -2.779  -0.210  0.00  0.00     0.183 HD
BRANCH  21  23
ATOM     23  N   UNL d   1       0.868  -4.688  -0.094  0.00  0.00    -0.247 NA
ATOM     24  H   UNL d   1      -0.115  -4.985  -0.177  0.00  0.00     0.143 HD
ATOM     25  H   UNL d   1       1.159  -5.027   0.827  0.00  0.00     0.143 HD
ENDBRANCH  21  23
ENDBRANCH   1  19
TORSDOF 4
