REMARK  4 active torsions:
REMARK  status: ('A' for Active; 'I' for Inactive)
REMARK    1  A    between atoms: C_6  and  C_1 
REMARK    2  A    between atoms: C_5  and  C_2 
REMARK       I    between atoms: N_9  and  C_5 
REMARK    3  A    between atoms: C_16  and  N_9 
REMARK    4  A    between atoms: O_21  and  C_15 
ROOT
ATOM      1  C   UNL d   1      -1.524  -0.499  -0.478  0.00  0.00     0.086 A 
ATOM      2  C   UNL d   1      -0.242  -0.850   0.044  0.00  0.00     0.093 A 
ATOM      3  N   UNL d   1      -1.460   0.639  -1.187  0.00  0.00    -0.259 N 
ATOM      4  HN  UNL d   1      -2.227   1.096  -1.681  1.00  0.00     0.195 HD
ATOM      5  O   UNL d   1      -0.157   1.066  -1.117  0.00  0.00    -0.241 OA
ATOM      6  C   UNL d   1       0.568   0.188  -0.384  0.00  0.00     0.090 A 
ATOM      7  C   UNL d   1       1.998   0.519  -0.213  0.00  0.00     0.080 C 
ENDROOT
BRANCH   2   8
ATOM      8  C   UNL d   1       0.238  -1.943   0.874  0.00  0.00     0.261 C 
ATOM      9  N   UNL d   1      -0.488  -3.119   0.809  0.00  0.00    -0.322 N 
ATOM     10  H   UNL d   1      -1.230  -3.177   0.128  0.00  0.00     0.169 HD
ATOM     11  O   UNL d   1       1.256  -1.802   1.544  0.00  0.00    -0.267 OA
BRANCH   9  12
ATOM     12  C   UNL d   1      -0.227  -4.302   1.542  0.00  0.00     0.050 A 
ATOM     13  C   UNL d   1       0.781  -4.455   2.494  0.00  0.00     0.119 A 
ATOM     14  N   UNL d   1       1.004  -5.593   3.201  0.00  0.00    -0.345 N 
ATOM     15  C   UNL d   1       0.191  -6.635   2.951  0.00  0.00     0.141 A 
ATOM     16  HN  UNL d   1       1.755  -5.655   3.889  1.00  0.00     0.167 HD
ATOM     17  C   UNL d   1      -0.833  -6.594   2.019  0.00  0.00     0.058 A 
ATOM     18  C   UNL d   1      -1.044  -5.411   1.308  0.00  0.00     0.035 A 
BRANCH  15  19
ATOM     19  O   UNL d   1       0.355  -7.819   3.639  0.00  0.00    -0.341 OA
ATOM     20  C   UNL d   1       1.362  -7.740   4.645  0.00  0.00     0.211 C 
ENDBRANCH  15  19
ENDBRANCH   9  12
ENDBRANCH   2   8
BRANCH   1  21
ATOM     21  C   UNL d   1      -2.826  -1.142  -0.343  0.00  0.00     0.037 A 
ATOM     22  C   UNL d   1      -3.723  -0.744   0.662  0.00  0.00     0.048 A 
ATOM     23 CL   UNL d   1      -3.285   0.387   1.896  0.00  0.00    -0.083 Cl
ATOM     24  C   UNL d   1      -5.025  -1.261   0.700  0.00  0.00     0.025 A 
ATOM     25  C   UNL d   1      -5.443  -2.182  -0.258  0.00  0.00     0.003 A 
ATOM     26  C   UNL d   1      -4.556  -2.604  -1.246  0.00  0.00     0.025 A 
ATOM     27  C   UNL d   1      -3.255  -2.090  -1.288  0.00  0.00     0.048 A 
ATOM     28 CL   UNL d   1      -2.202  -2.699  -2.519  0.00  0.00    -0.083 Cl
ENDBRANCH   1  21
TORSDOF 4
