REMARK  7 active torsions:
REMARK  status: ('A' for Active; 'I' for Inactive)
REMARK    1  A    between atoms: C_7  and  C_1 
REMARK    2  A    between atoms: C_10  and  C_2 
REMARK    3  A    between atoms: C_3  and  O_9 
REMARK       I    between atoms: N_6  and  C_3 
REMARK    4  A    between atoms: O_9  and  N_4 
REMARK    5  A    between atoms: C_12  and  N_6 
REMARK    6  A    between atoms: O_16  and  C_7 
REMARK    7  A    between atoms: C_11  and  C_13 
ROOT
ATOM      1  N   UNL d   1       6.230  -1.333  -0.078  0.00  0.00    -0.267 N 
ATOM      2  HN  UNL d   1       5.907  -2.243   0.248  1.00  0.00     0.194 HD
ATOM      3  C   UNL d   1       5.492  -0.303  -0.370  0.00  0.00     0.126 C 
ENDROOT
BRANCH   1   4
ATOM      4  O   UNL d   1       7.571  -0.939  -0.303  0.00  0.00    -0.181 OA
BRANCH   4   5
ATOM      5  C   UNL d   1       8.515  -1.883   0.050  0.00  0.00     0.387 C 
ATOM      6  N   UNL d   1       8.005  -3.038   0.601  0.00  0.00    -0.301 N 
ATOM      7  H   UNL d   1       6.993  -3.074   0.573  0.00  0.00     0.171 HD
ATOM      8  O   UNL d   1       9.701  -1.643  -0.157  0.00  0.00    -0.236 OA
BRANCH   6   9
ATOM      9  C   UNL d   1       8.741  -4.114   1.141  0.00  0.00     0.037 A 
ATOM     10  C   UNL d   1      10.116  -4.040   1.399  0.00  0.00     0.031 A 
ATOM     11  C   UNL d   1      10.805  -5.120   1.960  0.00  0.00     0.026 A 
ATOM     12  C   UNL d   1      10.123  -6.293   2.261  0.00  0.00     0.034 A 
ATOM     13  C   UNL d   1       8.757  -6.390   2.006  0.00  0.00     0.026 A 
ATOM     14 CL   UNL d   1      10.970  -7.618   2.958  0.00  0.00    -0.084 Cl
ATOM     15  C   UNL d   1       8.066  -5.300   1.456  0.00  0.00     0.031 A 
ENDBRANCH   6   9
ENDBRANCH   4   5
ENDBRANCH   1   4
BRANCH   3  16
ATOM     16  C   UNL d   1       4.020  -0.309  -0.290  0.00  0.00    -0.019 A 
ATOM     17  C   UNL d   1       3.322  -1.481   0.010  0.00  0.00     0.014 A 
ATOM     18  C   UNL d   1       1.926  -1.456   0.090  0.00  0.00     0.021 A 
ATOM     19  C   UNL d   1       1.231  -0.262  -0.126  0.00  0.00     0.017 A 
ATOM     20  C   UNL d   1       1.933   0.906  -0.438  0.00  0.00     0.021 A 
ATOM     21  C   UNL d   1       3.328   0.885  -0.524  0.00  0.00     0.014 A 
BRANCH  19  22
ATOM     22  C   UNL d   1      -0.195  -0.226  -0.031  0.00  0.00    -0.064 C 
ATOM     23  C   UNL d   1      -1.396  -0.170   0.031  0.00  0.00    -0.064 C 
BRANCH  23  24
ATOM     24  C   UNL d   1      -2.865  -0.086   0.071  0.00  0.00     0.114 C 
ATOM     25  C   UNL d   1      -3.319   1.196   0.767  0.00  0.00     0.060 C 
ATOM     26  C   UNL d   1      -3.458  -1.311   0.761  0.00  0.00     0.060 C 
BRANCH  24  27
ATOM     27  O   UNL d   1      -3.358  -0.062  -1.268  0.00  0.00    -0.378 OA
ATOM     28  H   UNL d   1      -2.893   0.657  -1.728  0.00  0.00     0.211 HD
ENDBRANCH  24  27
ENDBRANCH  23  24
ENDBRANCH  19  22
ENDBRANCH   3  16
TORSDOF 7
