REMARK  4 active torsions:
REMARK  status: ('A' for Active; 'I' for Inactive)
REMARK    1  A    between atoms: C_3  and  C_1 
REMARK    2  A    between atoms: N_2  and  C_4 
REMARK       I    between atoms: N_5  and  C_3 
REMARK    3  A    between atoms: C_6  and  N_5 
REMARK       I    between atoms: C_11  and  N_13 
REMARK    4  A    between atoms: N_13  and  C_15 
ROOT
ATOM      1  C   UNL d   1       4.383  -0.813  -0.128  0.00  0.00     0.258 C 
ATOM      2  N   UNL d   1       3.072  -1.188  -0.322  0.00  0.00    -0.322 N 
ATOM      3  O   UNL d   1       5.323  -1.599  -0.235  0.00  0.00    -0.267 OA
ATOM      4  H   UNL d   1       2.335  -0.498  -0.418  0.00  0.00     0.169 HD
ENDROOT
BRANCH   2   5
ATOM      5  C   UNL d   1       2.607  -2.521  -0.357  0.00  0.00     0.041 A 
ATOM      6  C   UNL d   1       1.522  -2.850  -1.182  0.00  0.00    -0.033 A 
ATOM      7  C   UNL d   1       0.940  -4.128  -1.065  0.00  0.00     0.038 A 
ATOM      8  C   UNL d   1       0.993  -1.930  -2.248  0.00  0.00     0.050 C 
ATOM      9  C   UNL d   1       1.413  -5.067  -0.140  0.00  0.00     0.035 A 
ATOM     10  C   UNL d   1       2.521  -4.739   0.638  0.00  0.00     0.032 A 
ATOM     11  C   UNL d   1       3.124  -3.479   0.518  0.00  0.00     0.032 A 
BRANCH   9  12
ATOM     12  N   UNL d   1       0.715  -6.290  -0.054  0.00  0.00    -0.327 N 
ATOM     13  C   UNL d   1       0.939  -7.326   0.837  0.00  0.00     0.218 C 
ATOM     14  O   UNL d   1       1.807  -7.379   1.697  0.00  0.00    -0.274 OA
ATOM     15  C   UNL d   1      -0.037  -8.466   0.670  0.00  0.00     0.117 C 
ATOM     16  H   UNL d   1      -0.063  -6.395  -0.693  0.00  0.00     0.169 HD
ENDBRANCH   9  12
ENDBRANCH   2   5
BRANCH   1  17
ATOM     17  C   UNL d   1       4.700   0.605   0.255  0.00  0.00     0.065 A 
ATOM     18  C   UNL d   1       3.943   1.770   0.074  0.00  0.00     0.118 A 
ATOM     19  C   UNL d   1       4.372   3.018   0.566  0.00  0.00     0.037 A 
ATOM     20  C   UNL d   1       5.583   3.122   1.245  0.00  0.00     0.009 A 
ATOM     21  C   UNL d   1       6.383   1.992   1.413  0.00  0.00    -0.061 A 
ATOM     22  C   UNL d   1       5.943   0.757   0.910  0.00  0.00     0.026 A 
ATOM     23  C   UNL d   1       7.690   2.094   2.145  0.00  0.00     0.048 C 
BRANCH  18  24
ATOM     24  N   UNL d   1       2.701   1.793  -0.664  0.00  0.00    -0.115 N 
ATOM     25  O   UNL d   1       1.769   1.105  -0.229  0.00  0.00    -0.532 OA
ATOM     26  O   UNL d   1       2.647   2.521  -1.662  0.00  0.00    -0.532 OA
ENDBRANCH  18  24
ENDBRANCH   1  17
TORSDOF 4
