REMARK  4 active torsions:
REMARK  status: ('A' for Active; 'I' for Inactive)
REMARK    1  A    between atoms: C_8  and  C_3 
REMARK    2  A    between atoms: C_11  and  C_4 
REMARK    3  A    between atoms: C_9  and  C_15 
REMARK    4  A    between atoms: C_19  and  C_10 
ROOT
ATOM      1  C   UNL d   1       1.119  -2.332   0.014  0.00  0.00     0.034 A 
ATOM      2  N   UNL d   1       1.135  -4.474  -1.136  0.00  0.00    -0.373 N 
ATOM      3  HN  UNL d   1       0.824  -5.065  -1.907  1.00  0.00     0.164 HD
ATOM      4  C   UNL d   1       1.983  -2.851   0.987  0.00  0.00     0.039 A 
ATOM      5  C   UNL d   1       2.422  -4.171   0.889  0.00  0.00     0.034 A 
ATOM      6  C   UNL d   1       0.730  -3.186  -1.016  0.00  0.00     0.103 A 
ATOM      7  C   UNL d   1       1.974  -4.934  -0.180  0.00  0.00     0.108 A 
ENDROOT
BRANCH   1   8
ATOM      8  C   UNL d   1       0.631  -0.965   0.042  0.00  0.00     0.183 A 
ATOM      9  N   UNL d   1      -0.185  -0.344  -0.777  0.00  0.00    -0.318 N 
ATOM     10  C   UNL d   1      -0.263   0.920  -0.226  0.00  0.00     0.138 A 
ATOM     11  HN  UNL d   1      -0.647  -0.704  -1.612  1.00  0.00     0.169 HD
ATOM     12  N   UNL d   1       0.481   1.073   0.882  0.00  0.00    -0.242 N 
ATOM     13  O   UNL d   1       1.072  -0.173   1.061  0.00  0.00    -0.217 OA
ATOM     14  HN  UNL d   1       0.588   1.908   1.458  1.00  0.00     0.196 HD
BRANCH  10  15
ATOM     15  C   UNL d   1      -1.099   1.971  -0.793  0.00  0.00     0.010 A 
ATOM     16  C   UNL d   1      -1.856   1.732  -1.948  0.00  0.00     0.016 A 
ATOM     17  C   UNL d   1      -2.687   2.726  -2.473  0.00  0.00     0.007 A 
ATOM     18  C   UNL d   1      -2.773   3.978  -1.854  0.00  0.00    -0.062 A 
ATOM     19  C   UNL d   1      -2.008   4.226  -0.711  0.00  0.00     0.007 A 
ATOM     20  C   UNL d   1      -3.689   5.029  -2.409  0.00  0.00     0.048 C 
ATOM     21  C   UNL d   1      -1.178   3.232  -0.186  0.00  0.00     0.016 A 
ENDBRANCH  10  15
ENDBRANCH   1   8
BRANCH   5  22
ATOM     22  C   UNL d   1       3.318  -4.731   1.850  0.00  0.00    -0.060 C 
ATOM     23  C   UNL d   1       4.078  -5.260   2.615  0.00  0.00    -0.061 C 
BRANCH  23  24
ATOM     24  C   UNL d   1       4.981  -5.954   3.479  0.00  0.00     0.018 A 
ATOM     25  C   UNL d   1       5.969  -6.776   2.929  0.00  0.00     0.020 A 
ATOM     26  C   UNL d   1       6.831  -7.488   3.764  0.00  0.00     0.001 A 
ATOM     27  C   UNL d   1       6.708  -7.378   5.149  0.00  0.00     0.000 A 
ATOM     28  C   UNL d   1       5.728  -6.552   5.700  0.00  0.00     0.001 A 
ATOM     29  C   UNL d   1       4.863  -5.839   4.865  0.00  0.00     0.020 A 
ENDBRANCH  23  24
ENDBRANCH   5  22
TORSDOF 4
