REMARK  3 active torsions:
REMARK  status: ('A' for Active; 'I' for Inactive)
REMARK       I    between atoms: N_2  and  C_1 
REMARK       I    between atoms: N_4  and  C_1 
REMARK    1  A    between atoms: C_3  and  N_2 
REMARK    2  A    between atoms: C_10  and  N_4 
REMARK    3  A    between atoms: O_13  and  C_12 
ROOT
ATOM      1  C   UNL d   1       0.992  -0.028   0.038  0.00  0.00     0.321 C 
ATOM      2  N   UNL d   1       0.257   0.292   1.162  0.00  0.00    -0.338 N 
ATOM      3  N   UNL d   1       0.173  -0.302  -1.039  0.00  0.00    -0.309 N 
ATOM      4  O   UNL d   1       2.215  -0.029   0.049  0.00  0.00    -0.247 OA
ATOM      5  H   UNL d   1      -0.676  -0.085   1.215  0.00  0.00     0.164 HD
ATOM      6  H   UNL d   1      -0.816  -0.173  -0.892  0.00  0.00     0.170 HD
ENDROOT
BRANCH   2   7
ATOM      7  C   UNL d   1       0.940   0.532   2.429  0.00  0.00     0.094 C 
ATOM      8  C   UNL d   1       1.218  -0.770   3.217  0.00  0.00     0.064 C 
ATOM      9  C   UNL d   1       1.229  -0.265   4.627  0.00  0.00    -0.050 A 
ATOM     10  C   UNL d   1       1.717  -0.901   5.757  0.00  0.00     0.007 A 
ATOM     11  C   UNL d   1       0.619   0.991   4.715  0.00  0.00    -0.050 A 
ATOM     12  C   UNL d   1       1.598  -0.250   6.987  0.00  0.00     0.001 A 
ATOM     13  C   UNL d   1       0.988   1.012   7.073  0.00  0.00     0.001 A 
ATOM     14  C   UNL d   1       0.486   1.639   5.931  0.00  0.00     0.007 A 
ATOM     15  C   UNL d   1       0.136   1.448   3.373  0.00  0.00     0.064 C 
ENDBRANCH   2   7
BRANCH   3  16
ATOM     16  C   UNL d   1       0.574  -0.635  -2.353  0.00  0.00     0.039 A 
ATOM     17  C   UNL d   1       1.914  -0.754  -2.738  0.00  0.00     0.066 A 
ATOM     18  C   UNL d   1       2.261  -1.048  -4.060  0.00  0.00     0.070 A 
ATOM     19  C   UNL d   1       1.256  -1.243  -5.004  0.00  0.00     0.037 A 
ATOM     20  C   UNL d   1      -0.084  -1.147  -4.633  0.00  0.00     0.005 A 
ATOM     21  C   UNL d   1      -0.423  -0.842  -3.311  0.00  0.00     0.030 A 
BRANCH  18  22
ATOM     22  O   UNL d   1       3.540  -1.167  -4.535  0.00  0.00    -0.356 OA
ATOM     23  C   UNL d   1       4.588  -0.950  -3.593  0.00  0.00     0.210 C 
ENDBRANCH  18  22
ENDBRANCH   3  16
TORSDOF 3
