REMARK  3 active torsions:
REMARK  status: ('A' for Active; 'I' for Inactive)
REMARK    1  A    between atoms: C_10  and  C_5 
REMARK    2  A    between atoms: S_11  and  C_8 
REMARK    3  A    between atoms: O_12  and  C_9 
ROOT
ATOM      1  N   UNL d   1      -0.640   1.218  -0.031  0.00  0.00    -0.322 N 
ATOM      2  HN  UNL d   1      -1.125   2.115  -0.055  1.00  0.00     0.169 HD
ATOM      3  N   UNL d   1      -0.702  -1.141   0.036  0.00  0.00    -0.307 N 
ATOM      4  HN  UNL d   1      -1.221  -2.019   0.064  1.00  0.00     0.171 HD
ATOM      5  C   UNL d   1      -1.295   0.051   0.008  0.00  0.00     0.120 A 
ATOM      6  N   UNL d   1       1.379  -0.014  -0.011  0.00  0.00    -0.302 N 
ATOM      7  HN  UNL d   1       2.398  -0.052  -0.018  1.00  0.00     0.171 HD
ATOM      8  C   UNL d   1       0.689   1.123  -0.037  0.00  0.00     0.148 A 
ATOM      9  C   UNL d   1       0.614  -1.085   0.023  0.00  0.00     0.224 A 
ENDROOT
BRANCH   5  10
ATOM     10  C   UNL d   1      -2.774   0.075   0.034  0.00  0.00     0.008 A 
ATOM     11  C   UNL d   1      -3.524  -1.116   0.115  0.00  0.00     0.015 A 
ATOM     12  C   UNL d   1      -4.922  -1.104   0.150  0.00  0.00     0.001 A 
ATOM     13  C   UNL d   1      -5.608   0.104   0.103  0.00  0.00     0.000 A 
ATOM     14  C   UNL d   1      -4.897   1.298   0.019  0.00  0.00     0.001 A 
ATOM     15  C   UNL d   1      -3.497   1.282  -0.015  0.00  0.00     0.015 A 
ENDBRANCH   5  10
BRANCH   9  16
ATOM     16  O   UNL d   1       1.287  -2.265   0.054  0.00  0.00    -0.332 OA
ATOM     17  H   UNL d   1       2.200  -1.935   0.042  0.00  0.00     0.221 HD
ENDBRANCH   9  16
BRANCH   8  18
ATOM     18  S   UNL d   1       1.678   2.602  -0.070  0.00  0.00    -0.098 SA
ATOM     19  C   UNL d   1       0.398   3.878  -0.120  0.00  0.00     0.099 C 
ENDBRANCH   8  18
TORSDOF 3
