REMARK  2 active torsions:
REMARK  status: ('A' for Active; 'I' for Inactive)
REMARK       I    between atoms: N_3  and  C_1 
REMARK       I    between atoms: N_5  and  C_1 
REMARK    1  A    between atoms: C_8  and  N_3 
REMARK    2  A    between atoms: C_9  and  N_5 
ROOT
ATOM      1  N   UNL d   1       3.718  -5.120   5.081  0.00  0.00    -0.191 NA
ATOM      2  C   UNL d   1       3.185  -4.399   4.341  0.00  0.00     0.099 C 
ATOM      3  C   UNL d   1       2.530  -3.510   3.432  0.00  0.00     0.044 A 
ATOM      4  C   UNL d   1       1.266  -1.764   1.617  0.00  0.00     0.036 A 
ATOM      5  C   UNL d   1       3.158  -2.329   3.041  0.00  0.00     0.025 A 
ATOM      6  C   UNL d   1       1.260  -3.811   2.931  0.00  0.00     0.025 A 
ATOM      7  C   UNL d   1       2.525  -1.462   2.147  0.00  0.00     0.031 A 
ATOM      8  C   UNL d   1       0.629  -2.939   2.033  0.00  0.00     0.031 A 
ENDROOT
BRANCH   4   9
ATOM      9  N   UNL d   1       0.600  -0.941   0.677  0.00  0.00    -0.309 N 
ATOM     10  C   UNL d   1       1.184   0.092  -0.044  0.00  0.00     0.325 C 
ATOM     11  N   UNL d   1       0.265   0.732  -0.859  0.00  0.00    -0.309 N 
ATOM     12  O   UNL d   1       2.372   0.384   0.022  0.00  0.00    -0.247 OA
ATOM     13  H   UNL d   1      -0.708   0.509  -0.721  0.00  0.00     0.170 HD
ATOM     14  H   UNL d   1      -0.309  -1.250   0.369  0.00  0.00     0.170 HD
BRANCH  11  15
ATOM     15  C   UNL d   1       0.547   1.751  -1.802  0.00  0.00     0.036 A 
ATOM     16  C   UNL d   1       1.837   2.214  -2.084  0.00  0.00     0.029 A 
ATOM     17  C   UNL d   1       2.050   3.210  -3.041  0.00  0.00     0.002 A 
ATOM     18  C   UNL d   1       0.974   3.752  -3.734  0.00  0.00     0.000 A 
ATOM     19  C   UNL d   1      -0.316   3.302  -3.465  0.00  0.00     0.002 A 
ATOM     20  C   UNL d   1      -0.529   2.308  -2.503  0.00  0.00     0.029 A 
ENDBRANCH  11  15
ENDBRANCH   4   9
TORSDOF 2
