REMARK  5 active torsions:
REMARK  status: ('A' for Active; 'I' for Inactive)
REMARK    1  A    between atoms: C_12  and  C_5 
REMARK    2  A    between atoms: C_8  and  C_14 
REMARK    3  A    between atoms: O_13  and  C_8 
REMARK    4  A    between atoms: S_11  and  C_12 
REMARK    5  A    between atoms: C_14  and  S_11 
ROOT
ATOM      1  N   UNL d   1      -1.896  -1.494   0.004  0.00  0.00    -0.300 N 
ATOM      2  HN  UNL d   1      -2.649  -2.182  -0.007  1.00  0.00     0.186 HD
ATOM      3  N   UNL d   1      -2.169  -0.164   0.076  0.00  0.00    -0.266 N 
ATOM      4  C   UNL d   1      -1.249   0.854   0.038  0.00  0.00     0.271 A 
ATOM      5  C   UNL d   1      -0.650  -1.868  -0.049  0.00  0.00     0.046 A 
ATOM      6  C   UNL d   1       0.164   0.449  -0.004  0.00  0.00     0.045 A 
ATOM      7  C   UNL d   1       0.483  -0.908  -0.020  0.00  0.00     0.004 A 
ATOM      8  O   UNL d   1      -1.577   2.036   0.053  0.00  0.00    -0.266 OA
ATOM      9  C   UNL d   1       1.173   1.420   0.000  0.00  0.00     0.018 A 
ATOM     10  C   UNL d   1       1.829  -1.296  -0.002  0.00  0.00     0.014 A 
ATOM     11  C   UNL d   1       2.837  -0.327   0.013  0.00  0.00     0.001 A 
ATOM     12  C   UNL d   1       2.510   1.029   0.007  0.00  0.00     0.001 A 
ATOM     13  H   UNL d   1      -3.149   0.099   0.119  0.00  0.00     0.190 HD
ENDROOT
BRANCH   5  14
ATOM     14  C   UNL d   1      -0.382  -3.361  -0.141  0.00  0.00     0.133 C 
BRANCH  14  15
ATOM     15  S   UNL d   1      -0.135  -4.064   1.526  0.00  0.00    -0.153 SA
BRANCH  15  16
ATOM     16  C   UNL d   1      -1.802  -3.809   2.241  0.00  0.00     0.185 C 
BRANCH  16  17
ATOM     17  C   UNL d   1      -2.891  -4.493   1.437  0.00  0.00     0.267 C 
ATOM     18  O   UNL d   1      -2.747  -5.518   0.780  0.00  0.00    -0.264 OA
BRANCH  17  19
ATOM     19  O   UNL d   1      -4.074  -3.834   1.579  0.00  0.00    -0.326 OA
ATOM     20  C   UNL d   1      -5.134  -4.410   0.811  0.00  0.00     0.213 C 
ENDBRANCH  17  19
ENDBRANCH  16  17
ENDBRANCH  15  16
ENDBRANCH  14  15
ENDBRANCH   5  14
TORSDOF 5
