REMARK  3 active torsions:
REMARK  status: ('A' for Active; 'I' for Inactive)
REMARK    1  A    between atoms: N_3  and  C_1 
REMARK       I    between atoms: C_2  and  N_5 
REMARK    2  A    between atoms: C_4  and  C_2 
REMARK    3  A    between atoms: N_5  and  N_3 
ROOT
ATOM      1  N   UNL d   1      -0.156   2.149   0.338  0.00  0.00    -0.295 N 
ATOM      2  H   UNL d   1       0.786   2.552   0.255  0.00  0.00     0.187 HD
ENDROOT
BRANCH   1   3
ATOM      3  C   UNL d   1      -0.189   0.746   0.096  0.00  0.00     0.091 A 
ATOM      4  C   UNL d   1      -1.208   0.029  -0.574  0.00  0.00     0.063 A 
ATOM      5 CL   UNL d   1      -2.522   0.761  -1.438  0.00  0.00    -0.082 Cl
ATOM      6  C   UNL d   1      -1.204  -1.377  -0.618  0.00  0.00     0.026 A 
ATOM      7  C   UNL d   1      -0.205  -2.108   0.013  0.00  0.00     0.003 A 
ATOM      8  C   UNL d   1       0.815  -1.438   0.672  0.00  0.00     0.026 A 
ATOM      9  C   UNL d   1       0.825  -0.037   0.708  0.00  0.00     0.063 A 
ATOM     10 CL   UNL d   1       2.135   0.715   1.564  0.00  0.00    -0.082 Cl
ENDBRANCH   1   3
BRANCH   1  11
ATOM     11  N   UNL d   1      -1.160   2.946  -0.185  0.00  0.00    -0.265 N 
ATOM     12  C   UNL d   1      -0.870   4.214  -0.667  0.00  0.00     0.277 C 
ATOM     13  O   UNL d   1       0.285   4.626  -0.735  0.00  0.00    -0.265 OA
ATOM     14  H   UNL d   1      -2.120   2.667  -0.004  0.00  0.00     0.190 HD
BRANCH  12  15
ATOM     15  C   UNL d   1      -2.033   5.002  -1.071  0.00  0.00     0.074 A 
ATOM     16  S   UNL d   1      -3.626   4.358  -1.060  0.00  0.00    -0.097 SA
ATOM     17  C   UNL d   1      -4.297   5.801  -1.676  0.00  0.00     0.050 A 
ATOM     18  C   UNL d   1      -3.342   6.775  -1.858  0.00  0.00     0.009 A 
ATOM     19  C   UNL d   1      -2.038   6.314  -1.509  0.00  0.00     0.025 A 
ENDBRANCH  12  15
ENDBRANCH   1  11
TORSDOF 3
