REMARK  5 active torsions:
REMARK  status: ('A' for Active; 'I' for Inactive)
REMARK    1  A    between atoms: C_2  and  C_1 
REMARK       I    between atoms: N_11  and  C_2 
REMARK    2  A    between atoms: S_5  and  N_9 
REMARK    3  A    between atoms: C_18  and  C_6 
REMARK    4  A    between atoms: N_9  and  C_10 
REMARK    5  A    between atoms: C_15  and  N_11 
ROOT
ATOM      1  C   UNL d   1       0.141  -2.749  -0.098  0.00  0.00     0.261 C 
ATOM      2  N   UNL d   1      -0.834  -3.713   0.113  0.00  0.00    -0.323 N 
ATOM      3  O   UNL d   1      -0.053  -1.687  -0.678  0.00  0.00    -0.267 OA
ATOM      4  H   UNL d   1      -0.568  -4.534   0.638  0.00  0.00     0.169 HD
ENDROOT
BRANCH   1   5
ATOM      5  C   UNL d   1       1.464  -3.072   0.414  0.00  0.00     0.093 A 
ATOM      6  C   UNL d   1       2.457  -2.158   0.913  0.00  0.00     0.083 A 
ATOM      7  N   UNL d   1       3.608  -2.808   1.151  0.00  0.00    -0.259 N 
ATOM      8  O   UNL d   1       3.370  -4.133   0.902  0.00  0.00    -0.241 OA
ATOM      9  HN  UNL d   1       4.488  -2.394   1.459  1.00  0.00     0.195 HD
ATOM     10  C   UNL d   1       2.088  -4.305   0.494  0.00  0.00     0.090 A 
ATOM     11  C   UNL d   1       1.716  -5.709   0.229  0.00  0.00     0.080 C 
BRANCH   6  12
ATOM     12  C   UNL d   1       2.346  -0.735   1.252  0.00  0.00    -0.006 A 
ATOM     13  C   UNL d   1       3.459   0.113   1.138  0.00  0.00     0.014 A 
ATOM     14  C   UNL d   1       3.393   1.440   1.573  0.00  0.00     0.001 A 
ATOM     15  C   UNL d   1       2.213   1.935   2.124  0.00  0.00     0.000 A 
ATOM     16  C   UNL d   1       1.098   1.109   2.234  0.00  0.00     0.001 A 
ATOM     17  C   UNL d   1       1.165  -0.219   1.805  0.00  0.00     0.014 A 
ENDBRANCH   6  12
ENDBRANCH   1   5
BRANCH   2  18
ATOM     18  C   UNL d   1      -2.158  -3.709  -0.390  0.00  0.00     0.037 A 
ATOM     19  C   UNL d   1      -2.732  -2.632  -1.068  0.00  0.00     0.060 A 
ATOM     20  C   UNL d   1      -4.005  -2.734  -1.649  0.00  0.00     0.050 A 
ATOM     21  C   UNL d   1      -4.738  -3.922  -1.546  0.00  0.00    -0.035 A 
ATOM     22  C   UNL d   1      -4.190  -4.974  -0.796  0.00  0.00     0.011 A 
ATOM     23  C   UNL d   1      -6.097  -4.093  -2.165  0.00  0.00     0.050 C 
ATOM     24  C   UNL d   1      -2.917  -4.868  -0.222  0.00  0.00     0.030 A 
BRANCH  20  25
ATOM     25  N   UNL d   1      -4.519  -1.591  -2.336  0.00  0.00    -0.284 N 
ATOM     26  H   UNL d   1      -4.418  -0.702  -1.843  0.00  0.00     0.178 HD
BRANCH  25  27
ATOM     27  S   UNL d   1      -4.216  -1.394  -3.982  0.00  0.00     0.227 S 
ATOM     28  O   UNL d   1      -4.787  -2.496  -4.721  0.00  0.00    -0.206 OA
ATOM     29  O   UNL d   1      -4.597  -0.024  -4.277  0.00  0.00    -0.206 OA
ATOM     30  C   UNL d   1      -2.443  -1.495  -4.118  0.00  0.00     0.186 C 
ENDBRANCH  25  27
ENDBRANCH  20  25
ENDBRANCH   2  18
TORSDOF 5
