REMARK  6 active torsions:
REMARK  status: ('A' for Active; 'I' for Inactive)
REMARK    1  A    between atoms: S_12  and  C_2 
REMARK    2  A    between atoms: C_3  and  C_9 
REMARK    3  A    between atoms: C_4  and  C_10 
REMARK    4  A    between atoms: C_26  and  S_12 
REMARK    5  A    between atoms: C_14  and  N_16 
REMARK    6  A    between atoms: C_15  and  C_26 
REMARK       I    between atoms: N_16  and  C_15 
ROOT
ATOM      1  C   UNL d   1      -1.836   6.160   0.623  0.00  0.00     0.050 A 
ATOM      2  C   UNL d   1      -1.511   3.789   1.079  0.00  0.00     0.050 A 
ATOM      3  C   UNL d   1      -2.343   4.918   1.031  0.00  0.00     0.032 A 
ATOM      4  C   UNL d   1       0.366   5.143   0.288  0.00  0.00     0.036 A 
ATOM      5  C   UNL d   1      -0.166   3.918   0.698  0.00  0.00     0.045 A 
ATOM      6  C   UNL d   1      -0.480   6.261   0.254  0.00  0.00     0.045 A 
ENDROOT
BRANCH   4   7
ATOM      7  N   UNL d   1       1.721   5.324  -0.071  0.00  0.00    -0.326 N 
ATOM      8  C   UNL d   1       2.700   4.345  -0.146  0.00  0.00     0.231 C 
ATOM      9  O   UNL d   1       2.502   3.137  -0.019  0.00  0.00    -0.272 OA
ATOM     10  H   UNL d   1       2.022   6.271  -0.272  0.00  0.00     0.169 HD
BRANCH   8  11
ATOM     11  C   UNL d   1       4.089   4.835  -0.518  0.00  0.00     0.185 C 
BRANCH  11  12
ATOM     12  S   UNL d   1       4.577   6.347   0.372  0.00  0.00    -0.083 SA
BRANCH  12  13
ATOM     13  C   UNL d   1       6.230   6.434  -0.134  0.00  0.00     0.162 A 
ATOM     14  N   UNL d   1       7.158   7.293   0.376  0.00  0.00    -0.326 N 
ATOM     15  C   UNL d   1       8.312   7.029  -0.304  0.00  0.00     0.201 A 
ATOM     16  C   UNL d   1       7.020   8.288   1.404  0.00  0.00     0.159 C 
ATOM     17  N   UNL d   1       8.104   6.067  -1.172  0.00  0.00    -0.294 N 
ATOM     18  N   UNL d   1       6.785   5.692  -1.065  0.00  0.00    -0.279 N 
ATOM     19  HN  UNL d   1       8.794   5.670  -1.810  1.00  0.00     0.187 HD
ATOM     20  HN  UNL d   1       6.321   4.967  -1.612  1.00  0.00     0.189 HD
ENDBRANCH  12  13
ENDBRANCH  11  12
ENDBRANCH   8  11
ENDBRANCH   4   7
BRANCH   2  21
ATOM     21  C   UNL d   1      -2.026   2.445   1.534  0.00  0.00     0.417 C 
ATOM     22  F   UNL d   1      -3.314   2.485   1.981  0.00  0.00    -0.166 F 
ATOM     23  F   UNL d   1      -2.005   1.512   0.543  0.00  0.00    -0.166 F 
ATOM     24  F   UNL d   1      -1.295   1.927   2.560  0.00  0.00    -0.166 F 
ENDBRANCH   2  21
BRANCH   1  25
ATOM     25  C   UNL d   1      -2.727   7.380   0.576  0.00  0.00     0.417 C 
ATOM     26  F   UNL d   1      -3.981   7.157   1.057  0.00  0.00    -0.166 F 
ATOM     27  F   UNL d   1      -2.226   8.415   1.305  0.00  0.00    -0.166 F 
ATOM     28  F   UNL d   1      -2.889   7.856  -0.689  0.00  0.00    -0.166 F 
ENDBRANCH   1  25
TORSDOF 6
