REMARK  17 active torsions:
REMARK  status: ('A' for Active; 'I' for Inactive)
REMARK    1  A    between atoms: O_4  and  C_1 
REMARK    2  A    between atoms: C_5  and  C_1 
REMARK    3  A    between atoms: C_6  and  C_5 
REMARK    4  A    between atoms: C_19  and  C_6 
REMARK    5  A    between atoms: C_7  and  C_8 
REMARK    6  A    between atoms: C_8  and  C_18 
REMARK    7  A    between atoms: C_9  and  C_20 
REMARK    8  A    between atoms: C_10  and  C_9 
REMARK    9  A    between atoms: C_11  and  C_10 
REMARK   10  A    between atoms: C_12  and  C_11 
REMARK   11  A    between atoms: C_13  and  C_12 
REMARK   12  A    between atoms: C_14  and  C_13 
REMARK   13  A    between atoms: C_15  and  C_14 
REMARK   14  A    between atoms: C_16  and  C_15 
REMARK   15  A    between atoms: C_17  and  C_16 
REMARK   16  A    between atoms: C_18  and  C_17 
REMARK   17  A    between atoms: C_20  and  C_19 
ROOT
ATOM      1  C   UNL d   1       2.247   7.336  -2.945  0.00  0.00     0.000 C 
ENDROOT
BRANCH   1   2
ATOM      2  C   UNL d   1       1.459   6.065  -3.210  0.00  0.00     0.000 C 
BRANCH   2   3
ATOM      3  C   UNL d   1       1.465   5.175  -1.980  0.00  0.00     0.000 C 
BRANCH   3   4
ATOM      4  C   UNL d   1       0.670   3.907  -2.252  0.00  0.00     0.000 C 
BRANCH   4   5
ATOM      5  C   UNL d   1       0.670   3.017  -1.020  0.00  0.00     0.003 C 
BRANCH   5   6
ATOM      6  C   UNL d   1      -0.084   1.719  -1.289  0.00  0.00     0.038 C 
BRANCH   6   7
ATOM      7  C   UNL d   1      -0.090   0.841  -0.074  0.00  0.00     0.058 A 
ATOM      8  C   UNL d   1       1.208   0.342   0.513  0.00  0.00     0.041 A 
ATOM      9  C   UNL d   1       0.286  -0.612  -0.188  0.00  0.00     0.041 A 
BRANCH   7  10
ATOM     10  O   UNL d   1      -1.157   1.123   0.840  0.00  0.00    -0.390 OA
ATOM     11  H   UNL d   1      -0.861   1.104   1.768  0.00  0.00     0.210 HD
ENDBRANCH   7  10
ENDBRANCH   6   7
ENDBRANCH   5   6
ENDBRANCH   4   5
ENDBRANCH   3   4
ENDBRANCH   2   3
ENDBRANCH   1   2
BRANCH   1  12
ATOM     12  C   UNL d   1       2.224   8.221  -4.178  0.00  0.00     0.000 C 
BRANCH  12  13
ATOM     13  C   UNL d   1       3.005   9.496  -3.920  0.00  0.00     0.000 C 
BRANCH  13  14
ATOM     14  C   UNL d   1       2.982  10.376  -5.157  0.00  0.00     0.000 C 
BRANCH  14  15
ATOM     15  C   UNL d   1       3.766  11.650  -4.902  0.00  0.00     0.000 C 
BRANCH  15  16
ATOM     16  C   UNL d   1       3.742  12.532  -6.138  0.00  0.00     0.000 C 
BRANCH  16  17
ATOM     17  C   UNL d   1       4.527  13.808  -5.885  0.00  0.00     0.000 C 
BRANCH  17  18
ATOM     18  C   UNL d   1       4.505  14.692  -7.122  0.00  0.00     0.000 C 
BRANCH  18  19
ATOM     19  C   UNL d   1       5.289  15.972  -6.870  0.00  0.00     0.000 C 
BRANCH  19  20
ATOM     20  C   UNL d   1       5.269  16.858  -8.109  0.00  0.00    -0.000 C 
BRANCH  20  21
ATOM     21  C   UNL d   1       6.050  18.144  -7.869  0.00  0.00    -0.005 C 
ATOM     22  C   UNL d   1       6.028  19.024  -9.105  0.00  0.00     0.005 C 
ENDBRANCH  20  21
ENDBRANCH  19  20
ENDBRANCH  18  19
ENDBRANCH  17  18
ENDBRANCH  16  17
ENDBRANCH  15  16
ENDBRANCH  14  15
ENDBRANCH  13  14
ENDBRANCH  12  13
ENDBRANCH   1  12
TORSDOF 17
