REMARK  10 active torsions:
REMARK  status: ('A' for Active; 'I' for Inactive)
REMARK    1  A    between atoms: C_2  and  S_1 
REMARK    2  A    between atoms: N_5  and  S_1 
REMARK    3  A    between atoms: O_9  and  C_3 
REMARK    4  A    between atoms: C_22  and  N_5 
REMARK    5  A    between atoms: C_6  and  C_18 
REMARK    6  A    between atoms: C_7  and  C_21 
REMARK    7  A    between atoms: C_18  and  O_9 
REMARK    8  A    between atoms: O_17  and  C_14 
REMARK       I    between atoms: C_15  and  N_16 
REMARK    9  A    between atoms: N_16  and  C_29 
REMARK   10  A    between atoms: C_21  and  O_17 
ROOT
ATOM      1  C   UNL d   1       0.166  -0.090   1.728  0.00  0.00     0.109 C 
ATOM      2  C   UNL d   1      -0.246   1.018   2.511  0.00  0.00     0.115 C 
ATOM      3  C   UNL d   1      -0.584   0.778   3.873  0.00  0.00     0.112 C 
ATOM      4  C   UNL d   1      -0.769   1.833   4.843  0.00  0.00     0.105 C 
ATOM      5  N   UNL d   1      -0.905   2.701   5.597  0.00  0.00    -0.191 NA
ATOM      6  C   UNL d   1       0.177  -1.382   2.266  0.00  0.00     0.030 C 
ATOM      7  C   UNL d   1      -0.684  -0.544   4.353  0.00  0.00     0.092 C 
ATOM      8  C   UNL d   1      -0.261  -1.608   3.559  0.00  0.00     0.040 C 
ENDROOT
BRANCH   2   9
ATOM      9  O   UNL d   1      -0.282   2.239   1.867  0.00  0.00    -0.339 OA
BRANCH   9  10
ATOM     10  C   UNL d   1      -1.114   3.289   2.406  0.00  0.00     0.293 C 
BRANCH  10  11
ATOM     11  C   UNL d   1      -1.625   4.306   1.384  0.00  0.00     0.408 C 
ATOM     12  F   UNL d   1      -1.159   4.098   0.139  0.00  0.00    -0.169 F 
ATOM     13  F   UNL d   1      -2.980   4.276   1.328  0.00  0.00    -0.169 F 
ATOM     14  F   UNL d   1      -1.278   5.565   1.748  0.00  0.00    -0.169 F 
ENDBRANCH  10  11
ENDBRANCH   9  10
ENDBRANCH   2   9
BRANCH   7  15
ATOM     15  O   UNL d   1      -1.209  -0.740   5.616  0.00  0.00    -0.341 OA
BRANCH  15  16
ATOM     16  C   UNL d   1      -1.818  -2.028   5.818  0.00  0.00     0.293 C 
BRANCH  16  17
ATOM     17  C   UNL d   1      -2.814  -2.068   6.971  0.00  0.00     0.408 C 
ATOM     18  F   UNL d   1      -2.926  -0.895   7.621  0.00  0.00    -0.169 F 
ATOM     19  F   UNL d   1      -4.045  -2.408   6.518  0.00  0.00    -0.169 F 
ATOM     20  F   UNL d   1      -2.450  -3.010   7.874  0.00  0.00    -0.169 F 
ENDBRANCH  16  17
ENDBRANCH  15  16
ENDBRANCH   7  15
BRANCH   1  21
ATOM     21  S   UNL d   1       0.756   0.108   0.050  0.00  0.00     0.248 S 
ATOM     22  O   UNL d   1       2.022   0.805   0.143  0.00  0.00    -0.205 OA
ATOM     23  O   UNL d   1      -0.346   0.574  -0.758  0.00  0.00    -0.205 OA
BRANCH  21  24
ATOM     24  N   UNL d   1       1.195  -1.484  -0.433  0.00  0.00    -0.181 NA
ATOM     25  H   UNL d   1       2.209  -1.497  -0.559  0.00  0.00     0.146 HD
BRANCH  24  26
ATOM     26  C   UNL d   1       0.464  -2.086  -1.507  0.00  0.00     0.023 A 
ATOM     27  C   UNL d   1       0.947  -2.013  -2.814  0.00  0.00     0.026 A 
ATOM     28  C   UNL d   1       0.193  -2.539  -3.876  0.00  0.00     0.031 A 
ATOM     29  C   UNL d   1      -1.058  -3.126  -3.643  0.00  0.00     0.034 A 
ATOM     30  C   UNL d   1      -1.495  -3.249  -2.323  0.00  0.00     0.031 A 
ATOM     31  C   UNL d   1      -0.750  -2.719  -1.262  0.00  0.00     0.026 A 
BRANCH  29  32
ATOM     32  N   UNL d   1      -1.837  -3.505  -4.763  0.00  0.00    -0.328 N 
ATOM     33  C   UNL d   1      -3.163  -3.907  -4.742  0.00  0.00     0.218 C 
ATOM     34  O   UNL d   1      -3.846  -4.130  -3.746  0.00  0.00    -0.274 OA
ATOM     35  C   UNL d   1      -3.791  -4.008  -6.110  0.00  0.00     0.117 C 
ATOM     36  H   UNL d   1      -1.418  -3.348  -5.672  0.00  0.00     0.169 HD
ENDBRANCH  29  32
ENDBRANCH  24  26
ENDBRANCH  21  24
ENDBRANCH   1  21
TORSDOF 10
