REMARK  3 active torsions:
REMARK  status: ('A' for Active; 'I' for Inactive)
REMARK    1  A    between atoms: S_2  and  C_1 
REMARK    2  A    between atoms: C_3  and  S_2 
REMARK    3  A    between atoms: C_7  and  C_3 
ROOT
ATOM      1  C   UNL d   1       1.273   1.282  -0.008  0.00  0.00     0.084 C 
ATOM      2  N   UNL d   1       2.469   0.872   0.246  0.00  0.00    -0.383 N 
ATOM      3  HN  UNL d   1       3.247   1.530   0.287  1.00  0.00     0.160 HD
ATOM      4  C   UNL d   1       0.105   0.371  -0.222  0.00  0.00     0.004 A 
ATOM      5  C   UNL d   1       0.377  -1.002  -0.340  0.00  0.00    -0.044 A 
ATOM      6  C   UNL d   1       2.688  -0.558   0.475  0.00  0.00     0.125 C 
ATOM      7  C   UNL d   1      -1.225   0.809  -0.311  0.00  0.00     0.015 A 
ATOM      8  C   UNL d   1       1.807  -1.465  -0.367  0.00  0.00     0.059 C 
ATOM      9  C   UNL d   1      -0.668  -1.916  -0.518  0.00  0.00     0.008 A 
ATOM     10  C   UNL d   1      -2.263  -0.108  -0.491  0.00  0.00     0.001 A 
ATOM     11  C   UNL d   1      -1.986  -1.469  -0.583  0.00  0.00     0.001 A 
ENDROOT
BRANCH   1  12
ATOM     12  S   UNL d   1       0.961   3.014   0.019  0.00  0.00    -0.029 SA
BRANCH  12  13
ATOM     13  C   UNL d   1       2.568   3.634  -0.298  0.00  0.00     0.225 C 
ATOM     14  O   UNL d   1       2.883   3.972  -1.435  0.00  0.00    -0.279 OA
BRANCH  13  15
ATOM     15  C   UNL d   1       3.465   3.944   0.857  0.00  0.00     0.021 A 
ATOM     16  C   UNL d   1       4.382   4.999   0.712  0.00  0.00     0.018 A 
ATOM     17  C   UNL d   1       5.273   5.318   1.743  0.00  0.00     0.025 A 
ATOM     18  C   UNL d   1       5.265   4.571   2.920  0.00  0.00     0.034 A 
ATOM     19  C   UNL d   1       4.362   3.526   3.079  0.00  0.00     0.025 A 
ATOM     20 CL   UNL d   1       6.378   4.938   4.178  0.00  0.00    -0.084 Cl
ATOM     21  C   UNL d   1       3.455   3.221   2.058  0.00  0.00     0.018 A 
ENDBRANCH  13  15
ENDBRANCH  12  13
ENDBRANCH   1  12
TORSDOF 3
