REMARK  6 active torsions:
REMARK  status: ('A' for Active; 'I' for Inactive)
REMARK    1  A    between atoms: C_3  and  C_1 
REMARK    2  A    between atoms: C_11  and  C_2 
REMARK    3  A    between atoms: N_6  and  C_3 
REMARK    4  A    between atoms: O_10  and  N_6 
REMARK    5  A    between atoms: C_9  and  O_10 
REMARK    6  A    between atoms: C_13  and  C_9 
ROOT
ATOM      1  C   UNL d   1      -2.753  -1.240   0.052  0.00  0.00     0.132 C 
ATOM      2  N   UNL d   1      -1.685  -0.665  -0.577  0.00  0.00    -0.383 N 
ATOM      3  H   UNL d   1      -0.823  -1.191  -0.607  0.00  0.00     0.157 HD
ATOM      4  H   UNL d   1      -1.562   0.312  -0.345  0.00  0.00     0.157 HD
ENDROOT
BRANCH   1   5
ATOM      5  C   UNL d   1      -2.762  -2.696   0.017  0.00  0.00     0.046 A 
ATOM      6  C   UNL d   1      -3.899  -3.502  -0.016  0.00  0.00     0.100 A 
ATOM      7  O   UNL d   1      -3.542  -4.821   0.003  0.00  0.00    -0.314 OA
ATOM      8  C   UNL d   1      -2.184  -4.880   0.009  0.00  0.00     0.051 A 
ATOM      9  C   UNL d   1      -1.658  -3.608   0.009  0.00  0.00     0.050 A 
ATOM     10  C   UNL d   1      -1.591  -6.232   0.007  0.00  0.00     0.077 C 
BRANCH   6  11
ATOM     11  C   UNL d   1      -5.337  -3.248  -0.104  0.00  0.00    -0.001 A 
ATOM     12  C   UNL d   1      -5.821  -2.166  -0.853  0.00  0.00     0.014 A 
ATOM     13  C   UNL d   1      -7.176  -1.839  -0.856  0.00  0.00     0.001 A 
ATOM     14  C   UNL d   1      -8.078  -2.623  -0.146  0.00  0.00     0.000 A 
ATOM     15  C   UNL d   1      -7.625  -3.739   0.556  0.00  0.00     0.001 A 
ATOM     16  C   UNL d   1      -6.261  -4.050   0.578  0.00  0.00     0.014 A 
ENDBRANCH   6  11
ENDBRANCH   1   5
BRANCH   1  17
ATOM     17  N   UNL d   1      -3.728  -0.636   0.644  0.00  0.00    -0.241 N 
ATOM     18  HN  UNL d   1      -4.476  -1.121   1.139  1.00  0.00     0.196 HD
BRANCH  17  19
ATOM     19  O   UNL d   1      -3.644   0.764   0.533  0.00  0.00    -0.193 OA
BRANCH  19  20
ATOM     20  C   UNL d   1      -4.786   1.327   1.045  0.00  0.00     0.315 C 
ATOM     21  O   UNL d   1      -5.755   0.758   1.532  0.00  0.00    -0.257 OA
BRANCH  20  22
ATOM     22  C   UNL d   1      -4.736   2.799   0.893  0.00  0.00     0.041 A 
ATOM     23  C   UNL d   1      -3.526   3.502   0.818  0.00  0.00     0.017 A 
ATOM     24  C   UNL d   1      -3.534   4.894   0.707  0.00  0.00     0.001 A 
ATOM     25  C   UNL d   1      -4.744   5.588   0.668  0.00  0.00     0.000 A 
ATOM     26  C   UNL d   1      -5.950   4.896   0.746  0.00  0.00     0.001 A 
ATOM     27  C   UNL d   1      -5.949   3.505   0.863  0.00  0.00     0.017 A 
ENDBRANCH  20  22
ENDBRANCH  19  20
ENDBRANCH  17  19
ENDBRANCH   1  17
TORSDOF 6
