REMARK  4 active torsions:
REMARK  status: ('A' for Active; 'I' for Inactive)
REMARK       I    between atoms: N_2  and  C_1 
REMARK    1  A    between atoms: C_8  and  C_1 
REMARK    2  A    between atoms: N_3  and  N_2 
REMARK    3  A    between atoms: C_10  and  C_9 
REMARK    4  A    between atoms: C_11  and  C_10 
ROOT
ATOM      1  C   UNL d   1       2.973   1.117   0.307  0.00  0.00     0.270 C 
ATOM      2  N   UNL d   1       2.383   2.366   0.168  0.00  0.00    -0.266 N 
ATOM      3  O   UNL d   1       2.365   0.050   0.374  0.00  0.00    -0.266 OA
ATOM      4  H   UNL d   1       2.933   3.207   0.252  0.00  0.00     0.190 HD
ENDROOT
BRANCH   2   5
ATOM      5  N   UNL d   1       1.030   2.438   0.050  0.00  0.00    -0.306 N 
ATOM      6  C   UNL d   1       0.411   3.579  -0.008  0.00  0.00     0.004 C 
ATOM      7  C   UNL d   1       1.039   4.952   0.052  0.00  0.00     0.065 C 
ATOM      8  HN  UNL d   1       0.488   1.575   0.005  1.00  0.00     0.186 HD
BRANCH   6   9
ATOM      9  C   UNL d   1      -1.105   3.533  -0.160  0.00  0.00     0.092 C 
BRANCH   9  10
ATOM     10  C   UNL d   1      -1.858   3.649   1.144  0.00  0.00    -0.053 A 
ATOM     11  C   UNL d   1      -2.759   4.702   1.359  0.00  0.00     0.007 A 
ATOM     12  C   UNL d   1      -3.522   4.758   2.527  0.00  0.00     0.001 A 
ATOM     13  C   UNL d   1      -3.393   3.764   3.494  0.00  0.00     0.000 A 
ATOM     14  C   UNL d   1      -2.494   2.718   3.298  0.00  0.00     0.001 A 
ATOM     15  C   UNL d   1      -1.731   2.660   2.130  0.00  0.00     0.007 A 
ENDBRANCH   9  10
ENDBRANCH   6   9
ENDBRANCH   2   5
BRANCH   1  16
ATOM     16  C   UNL d   1       4.457   1.097   0.416  0.00  0.00     0.036 A 
ATOM     17  C   UNL d   1       5.047   0.054   1.134  0.00  0.00     0.034 A 
ATOM     18  C   UNL d   1       6.425   0.018   1.221  0.00  0.00     0.088 A 
ATOM     19  N   UNL d   1       7.233   0.933   0.645  0.00  0.00    -0.375 N 
ATOM     20  C   UNL d   1       6.639   1.918  -0.063  0.00  0.00     0.088 A 
ATOM     21  HN  UNL d   1       8.247   0.883   0.741  1.00  0.00     0.164 HD
ATOM     22  C   UNL d   1       5.269   2.045  -0.208  0.00  0.00     0.034 A 
ENDBRANCH   1  16
TORSDOF 4
