REMARK  5 active torsions:
REMARK  status: ('A' for Active; 'I' for Inactive)
REMARK    1  A    between atoms: C_8  and  C_1 
REMARK    2  A    between atoms: C_2  and  C_7 
REMARK    3  A    between atoms: C_3  and  C_5 
REMARK    4  A    between atoms: C_4  and  C_6 
REMARK    5  A    between atoms: C_10  and  C_9 
ROOT
ATOM      1  C   UNL d   1       0.604   1.871  -3.140  0.00  0.00     0.049 A 
ATOM      2  C   UNL d   1       0.055   0.670  -1.095  0.00  0.00     0.049 A 
ATOM      3  C   UNL d   1      -0.534  -0.308  -3.279  0.00  0.00    -0.024 A 
ATOM      4  C   UNL d   1       0.605   1.784  -1.741  0.00  0.00     0.032 A 
ATOM      5  C   UNL d   1      -0.490  -0.367  -1.873  0.00  0.00     0.028 A 
ATOM      6  C   UNL d   1       0.031   0.825  -3.891  0.00  0.00     0.028 A 
ENDROOT
BRANCH   3   7
ATOM      7  C   UNL d   1      -1.184  -1.380  -4.072  0.00  0.00    -0.024 A 
ATOM      8  C   UNL d   1      -2.337  -2.032  -3.593  0.00  0.00     0.028 A 
ATOM      9  C   UNL d   1      -2.982  -3.048  -4.319  0.00  0.00     0.049 A 
ATOM     10  C   UNL d   1      -2.476  -3.410  -5.573  0.00  0.00     0.032 A 
ATOM     11  C   UNL d   1      -1.334  -2.781  -6.090  0.00  0.00     0.049 A 
ATOM     12  C   UNL d   1      -0.698  -1.780  -5.329  0.00  0.00     0.028 A 
BRANCH   9  13
ATOM     13  C   UNL d   1      -4.193  -3.729  -3.727  0.00  0.00     0.417 C 
ATOM     14  F   UNL d   1      -4.745  -4.664  -4.547  0.00  0.00    -0.166 F 
ATOM     15  F   UNL d   1      -3.903  -4.373  -2.563  0.00  0.00    -0.166 F 
ATOM     16  F   UNL d   1      -5.190  -2.852  -3.431  0.00  0.00    -0.166 F 
ENDBRANCH   9  13
BRANCH  11  17
ATOM     17  C   UNL d   1      -0.783  -3.159  -7.447  0.00  0.00     0.417 C 
ATOM     18  F   UNL d   1      -1.486  -4.149  -8.062  0.00  0.00    -0.166 F 
ATOM     19  F   UNL d   1      -0.776  -2.109  -8.313  0.00  0.00    -0.166 F 
ATOM     20  F   UNL d   1       0.504  -3.599  -7.378  0.00  0.00    -0.166 F 
ENDBRANCH  11  17
ENDBRANCH   3   7
BRANCH   2  21
ATOM     21  C   UNL d   1       0.012   0.573   0.412  0.00  0.00     0.417 C 
ATOM     22  F   UNL d   1       0.554   1.650   1.044  0.00  0.00    -0.166 F 
ATOM     23  F   UNL d   1       0.681  -0.515   0.882  0.00  0.00    -0.166 F 
ATOM     24  F   UNL d   1      -1.260   0.464   0.885  0.00  0.00    -0.166 F 
ENDBRANCH   2  21
BRANCH   1  25
ATOM     25  C   UNL d   1       1.192   3.068  -3.850  0.00  0.00     0.417 C 
ATOM     26  F   UNL d   1       1.644   4.034  -3.004  0.00  0.00    -0.166 F 
ATOM     27  F   UNL d   1       2.251   2.733  -4.637  0.00  0.00    -0.166 F 
ATOM     28  F   UNL d   1       0.293   3.679  -4.670  0.00  0.00    -0.166 F 
ENDBRANCH   1  25
TORSDOF 5
