REMARK  7 active torsions:
REMARK  status: ('A' for Active; 'I' for Inactive)
REMARK    1  A    between atoms: C_11  and  C_1 
REMARK    2  A    between atoms: O_18  and  C_3 
REMARK    3  A    between atoms: C_4  and  C_9 
REMARK    4  A    between atoms: O_19  and  C_4 
REMARK    5  A    between atoms: N_13  and  N_6 
REMARK    6  A    between atoms: C_17  and  N_13 
REMARK    7  A    between atoms: C_23  and  O_19 
ROOT
ATOM      1  N   UNL d   1       0.351   4.806  -1.017  0.00  0.00    -0.311 N 
ATOM      2  HN  UNL d   1       0.990   4.764  -1.811  1.00  0.00     0.186 HD
ATOM      3  C   UNL d   1      -0.694   4.045  -0.923  0.00  0.00     0.121 C 
ENDROOT
BRANCH   1   4
ATOM      4  N   UNL d   1       0.533   5.660   0.015  0.00  0.00    -0.301 N 
ATOM      5  H   UNL d   1      -0.016   5.615   0.870  0.00  0.00     0.187 HD
BRANCH   4   6
ATOM      6  C   UNL d   1       1.638   6.526   0.017  0.00  0.00     0.048 A 
ATOM      7  C   UNL d   1       1.603   7.684   0.808  0.00  0.00     0.032 A 
ATOM      8  C   UNL d   1       2.642   8.621   0.764  0.00  0.00     0.020 A 
ATOM      9  C   UNL d   1       3.744   8.399  -0.065  0.00  0.00     0.039 A 
ATOM     10  C   UNL d   1       3.785   7.254  -0.870  0.00  0.00     0.020 A 
ATOM     11  C   UNL d   1       2.728   6.341  -0.841  0.00  0.00     0.032 A 
BRANCH   9  12
ATOM     12  C   UNL d   1       4.804   9.432  -0.145  0.00  0.00     0.293 C 
ATOM     13  O   UNL d   1       4.617  10.619   0.080  0.00  0.00    -0.259 OA
BRANCH  12  14
ATOM     14  O   UNL d   1       5.957   8.852  -0.548  0.00  0.00    -0.318 OA
BRANCH  14  15
ATOM     15  C   UNL d   1       6.964   9.738  -1.049  0.00  0.00     0.174 C 
ATOM     16  C   UNL d   1       6.784   9.826  -2.554  0.00  0.00     0.034 C 
ENDBRANCH  14  15
ENDBRANCH  12  14
ENDBRANCH   9  12
ENDBRANCH   4   6
ENDBRANCH   1   4
BRANCH   3  17
ATOM     17  C   UNL d   1      -1.060   3.112  -2.009  0.00  0.00     0.017 A 
ATOM     18  C   UNL d   1      -2.141   2.240  -1.856  0.00  0.00     0.099 A 
ATOM     19  C   UNL d   1      -2.481   1.370  -2.899  0.00  0.00     0.069 A 
ATOM     20 CL   UNL d   1      -3.809   0.282  -2.725  0.00  0.00    -0.081 Cl
ATOM     21  C   UNL d   1      -1.757   1.371  -4.090  0.00  0.00     0.050 A 
ATOM     22  C   UNL d   1      -0.686   2.250  -4.236  0.00  0.00     0.036 A 
ATOM     23  C   UNL d   1      -0.333   3.120  -3.206  0.00  0.00     0.039 A 
ATOM     24 CL   UNL d   1       0.206   2.263  -5.707  0.00  0.00    -0.084 Cl
BRANCH  18  25
ATOM     25  O   UNL d   1      -2.858   2.242  -0.688  0.00  0.00    -0.358 OA
ATOM     26  H   UNL d   1      -3.569   1.576  -0.773  0.00  0.00     0.217 HD
ENDBRANCH  18  25
ENDBRANCH   3  17
TORSDOF 7
