REMARK  5 active torsions:
REMARK  status: ('A' for Active; 'I' for Inactive)
REMARK    1  A    between atoms: C_10  and  N_1 
REMARK    2  A    between atoms: C_3  and  C_7 
REMARK    3  A    between atoms: C_8  and  C_10 
REMARK       I    between atoms: N_13  and  C_8 
REMARK       I    between atoms: C_9  and  N_12 
REMARK    4  A    between atoms: C_15  and  C_9 
REMARK    5  A    between atoms: N_12  and  N_13 
ROOT
ATOM      1  C   UNL d   1       1.200   2.462  -0.732  0.00  0.00     0.236 C 
ENDROOT
BRANCH   1   2
ATOM      2  C   UNL d   1       2.691   2.775  -0.745  0.00  0.00     0.254 C 
ATOM      3  N   UNL d   1       3.127   3.727   0.154  0.00  0.00    -0.266 N 
ATOM      4  H   UNL d   1       2.600   4.014   0.984  0.00  0.00     0.190 HD
ATOM      5  O   UNL d   1       3.480   2.229  -1.521  0.00  0.00    -0.270 OA
BRANCH   3   6
ATOM      6  N   UNL d   1       4.500   3.998   0.131  0.00  0.00    -0.263 N 
ATOM      7  C   UNL d   1       5.078   4.806   1.083  0.00  0.00     0.270 C 
ATOM      8  O   UNL d   1       4.438   5.369   1.965  0.00  0.00    -0.266 OA
ATOM      9  H   UNL d   1       4.999   3.614  -0.669  0.00  0.00     0.190 HD
BRANCH   7  10
ATOM     10  C   UNL d   1       6.560   4.976   0.974  0.00  0.00     0.033 A 
ATOM     11  C   UNL d   1       7.371   4.044   0.305  0.00  0.00     0.019 A 
ATOM     12  C   UNL d   1       8.754   4.232   0.237  0.00  0.00     0.025 A 
ATOM     13  C   UNL d   1       9.335   5.344   0.844  0.00  0.00     0.034 A 
ATOM     14  C   UNL d   1       8.542   6.271   1.519  0.00  0.00     0.025 A 
ATOM     15 CL   UNL d   1      11.039   5.560   0.771  0.00  0.00    -0.084 Cl
ATOM     16  C   UNL d   1       7.157   6.087   1.586  0.00  0.00     0.019 A 
ENDBRANCH   7  10
ENDBRANCH   3   6
ENDBRANCH   1   2
BRANCH   1  17
ATOM     17  N   UNL d   1       0.832   1.181  -0.116  0.00  0.00    -0.307 N 
ATOM     18  C   UNL d   1       1.158  -0.077  -0.741  0.00  0.00     0.055 A 
ATOM     19  C   UNL d   1       1.698  -0.129  -2.039  0.00  0.00     0.047 A 
ATOM     20  C   UNL d   1       1.013  -1.302  -0.052  0.00  0.00     0.028 A 
ATOM     21  C   UNL d   1       2.122  -1.336  -2.630  0.00  0.00     0.050 A 
ATOM     22  C   UNL d   1       1.965  -2.529  -1.921  0.00  0.00     0.017 A 
ATOM     23  C   UNL d   1       1.410  -2.511  -0.645  0.00  0.00     0.021 A 
ATOM     24  S   UNL d   1       0.388  -1.414   1.612  0.00  0.00    -0.118 SA
ATOM     25  C   UNL d   1      -0.601   0.078   1.581  0.00  0.00     0.182 C 
ATOM     26  C   UNL d   1       0.211   1.268   1.133  0.00  0.00     0.234 C 
ATOM     27  O   UNL d   1       0.202   2.314   1.787  0.00  0.00    -0.272 OA
BRANCH  21  28
ATOM     28  C   UNL d   1       2.775  -1.353  -3.993  0.00  0.00     0.417 C 
ATOM     29  F   UNL d   1       2.784  -0.140  -4.612  0.00  0.00    -0.166 F 
ATOM     30  F   UNL d   1       4.073  -1.762  -3.943  0.00  0.00    -0.166 F 
ATOM     31  F   UNL d   1       2.148  -2.203  -4.855  0.00  0.00    -0.166 F 
ENDBRANCH  21  28
ENDBRANCH   1  17
TORSDOF 5
