REMARK  6 active torsions:
REMARK  status: ('A' for Active; 'I' for Inactive)
REMARK    1  A    between atoms: O_2  and  C_1 
REMARK       I    between atoms: N_4  and  C_1 
REMARK    2  A    between atoms: C_5  and  O_2 
REMARK    3  A    between atoms: C_11  and  N_4 
REMARK    4  A    between atoms: O_12  and  C_6 
REMARK    5  A    between atoms: C_14  and  C_11 
REMARK    6  A    between atoms: C_13  and  C_14 
ROOT
ATOM      1  C   UNL d   1       1.086  -0.080   0.113  0.00  0.00     0.365 C 
ATOM      2  O   UNL d   1       0.442   0.889   0.498  0.00  0.00    -0.238 OA
ATOM      3  N   UNL d   1       2.438   0.019  -0.081  0.00  0.00    -0.336 N 
ATOM      4  H   UNL d   1       2.808   0.947   0.080  0.00  0.00     0.164 HD
ENDROOT
BRANCH   1   5
ATOM      5  O   UNL d   1       0.582  -1.347  -0.161  0.00  0.00    -0.262 OA
BRANCH   5   6
ATOM      6  C   UNL d   1      -0.785  -1.621   0.048  0.00  0.00     0.081 A 
ATOM      7  C   UNL d   1      -1.805  -0.756  -0.348  0.00  0.00     0.040 A 
ATOM      8  C   UNL d   1      -3.141  -1.106  -0.117  0.00  0.00     0.039 A 
ATOM      9  C   UNL d   1      -3.451  -2.325   0.492  0.00  0.00     0.068 A 
ATOM     10  C   UNL d   1      -2.424  -3.209   0.828  0.00  0.00     0.039 A 
ATOM     11  C   UNL d   1      -1.089  -2.860   0.611  0.00  0.00     0.040 A 
BRANCH   9  12
ATOM     12  O   UNL d   1      -4.718  -2.768   0.751  0.00  0.00    -0.356 OA
ATOM     13  C   UNL d   1      -5.658  -1.753   1.090  0.00  0.00     0.210 C 
ENDBRANCH   9  12
ENDBRANCH   5   6
ENDBRANCH   1   5
BRANCH   3  14
ATOM     14  C   UNL d   1       3.292  -1.035  -0.589  0.00  0.00     0.129 C 
BRANCH  14  15
ATOM     15  C   UNL d   1       4.768  -0.627  -0.625  0.00  0.00     0.058 C 
BRANCH  15  16
ATOM     16  C   UNL d   1       5.620  -1.724  -1.213  0.00  0.00    -0.057 A 
ATOM     17  C   UNL d   1       5.875  -1.763  -2.591  0.00  0.00     0.007 A 
ATOM     18  C   UNL d   1       6.593  -2.823  -3.147  0.00  0.00     0.001 A 
ATOM     19  C   UNL d   1       7.064  -3.851  -2.333  0.00  0.00     0.000 A 
ATOM     20  C   UNL d   1       6.830  -3.813  -0.960  0.00  0.00     0.001 A 
ATOM     21  C   UNL d   1       6.112  -2.754  -0.401  0.00  0.00     0.007 A 
ENDBRANCH  15  16
ENDBRANCH  14  15
ENDBRANCH   3  14
TORSDOF 6
