REMARK  7 active torsions:
REMARK  status: ('A' for Active; 'I' for Inactive)
REMARK       I    between atoms: C_3  and  N_4 
REMARK    1  A    between atoms: C_16  and  C_3 
REMARK    2  A    between atoms: N_4  and  C_8 
REMARK    3  A    between atoms: C_5  and  C_17 
REMARK    4  A    between atoms: O_9  and  C_5 
REMARK    5  A    between atoms: C_10  and  C_15 
REMARK    6  A    between atoms: C_18  and  C_16 
REMARK    7  A    between atoms: C_17  and  C_18 
ROOT
ATOM      1  N   UNL d   1       5.620  -0.251  -2.007  0.00  0.00    -0.197 NA
ATOM      2  C   UNL d   1       4.829  -0.134  -1.163  0.00  0.00     0.063 C 
ATOM      3  C   UNL d   1       3.800   0.018  -0.125  0.00  0.00     0.162 C 
ENDROOT
BRANCH   3   4
ATOM      4  C   UNL d   1       4.310  -0.288   1.262  0.00  0.00    -0.045 A 
ATOM      5  C   UNL d   1       4.871   0.705   2.077  0.00  0.00     0.010 A 
ATOM      6  C   UNL d   1       5.347   0.391   3.360  0.00  0.00     0.030 A 
ATOM      7  C   UNL d   1       5.265  -0.918   3.851  0.00  0.00     0.034 A 
ATOM      8  C   UNL d   1       4.717  -1.903   3.029  0.00  0.00     0.030 A 
ATOM      9  C   UNL d   1       4.250  -1.596   1.750  0.00  0.00     0.010 A 
BRANCH   7  10
ATOM     10  N   UNL d   1       5.751  -1.180   5.153  0.00  0.00    -0.327 N 
ATOM     11  C   UNL d   1       5.683  -2.387   5.825  0.00  0.00     0.222 C 
ATOM     12  O   UNL d   1       5.180  -3.430   5.415  0.00  0.00    -0.273 OA
ATOM     13  H   UNL d   1       6.216  -0.407   5.622  0.00  0.00     0.169 HD
BRANCH  11  14
ATOM     14  C   UNL d   1       6.338  -2.371   7.191  0.00  0.00     0.103 C 
BRANCH  14  15
ATOM     15  C   UNL d   1       7.503  -3.366   7.239  0.00  0.00     0.019 C 
BRANCH  15  16
ATOM     16  C   UNL d   1       8.656  -3.003   6.306  0.00  0.00     0.110 C 
BRANCH  16  17
ATOM     17  C   UNL d   1       9.268  -1.684   6.697  0.00  0.00     0.139 C 
ATOM     18  O   UNL d   1       8.855  -0.605   6.299  0.00  0.00    -0.650 OA
BRANCH  17  19
ATOM     19  O   UNL d   1      10.262  -1.798   7.603  0.00  0.00    -0.776 OA
ATOM     20  H   UNL d   1      10.467  -2.719   7.858  0.00  0.00     0.167 HD
ENDBRANCH  17  19
ENDBRANCH  16  17
ENDBRANCH  15  16
ENDBRANCH  14  15
ENDBRANCH  11  14
ENDBRANCH   7  10
ENDBRANCH   3   4
TORSDOF 7
