REMARK  3 active torsions:
REMARK  status: ('A' for Active; 'I' for Inactive)
REMARK    1  A    between atoms: C_6  and  C_1 
REMARK    2  A    between atoms: C_3  and  C_2 
REMARK       I    between atoms: N_8  and  C_3 
REMARK    3  A    between atoms: C_11  and  N_8 
ROOT
ATOM      1  C   UNL d   1      -1.441  -0.423   0.097  0.00  0.00     0.086 A 
ATOM      2  C   UNL d   1      -0.142  -1.050   0.008  0.00  0.00     0.093 A 
ATOM      3  N   UNL d   1      -1.294   0.883   0.372  0.00  0.00    -0.259 N 
ATOM      4  HN  UNL d   1      -2.040   1.550   0.569  1.00  0.00     0.195 HD
ATOM      5  O   UNL d   1       0.050   1.149   0.339  0.00  0.00    -0.241 OA
ATOM      6  C   UNL d   1       0.744   0.008   0.105  0.00  0.00     0.090 A 
ATOM      7  C   UNL d   1       2.202   0.196  -0.018  0.00  0.00     0.080 C 
ENDROOT
BRANCH   2   8
ATOM      8  C   UNL d   1       0.166  -2.460  -0.195  0.00  0.00     0.261 C 
ATOM      9  N   UNL d   1       1.352  -2.881   0.388  0.00  0.00    -0.321 N 
ATOM     10  H   UNL d   1       1.742  -2.236   1.068  0.00  0.00     0.169 HD
ATOM     11  O   UNL d   1      -0.661  -3.190  -0.733  0.00  0.00    -0.267 OA
BRANCH   9  12
ATOM     12  C   UNL d   1       1.820  -4.223   0.496  0.00  0.00     0.058 C 
ATOM     13  C   UNL d   1       1.524  -5.286  -0.379  0.00  0.00     0.082 C 
ATOM     14  C   UNL d   1       1.836  -6.603   0.007  0.00  0.00     0.058 C 
ATOM     15 CL   UNL d   1       1.055  -5.000  -2.030  0.00  0.00    -0.080 Cl
ATOM     16 CL   UNL d   1       1.338  -7.984  -0.915  0.00  0.00    -0.082 Cl
ATOM     17  C   UNL d   1       2.566  -6.852   1.171  0.00  0.00     0.026 C 
ATOM     18  C   UNL d   1       3.012  -5.787   1.946  0.00  0.00     0.004 C 
ATOM     19  C   UNL d   1       2.629  -4.485   1.620  0.00  0.00     0.031 C 
ENDBRANCH   9  12
ENDBRANCH   2   8
BRANCH   1  20
ATOM     20  C   UNL d   1      -2.793  -0.986  -0.050  0.00  0.00     0.037 A 
ATOM     21  C   UNL d   1      -3.234  -2.092   0.704  0.00  0.00     0.048 A 
ATOM     22 CL   UNL d   1      -2.289  -2.810   1.971  0.00  0.00    -0.083 Cl
ATOM     23  C   UNL d   1      -4.519  -2.632   0.518  0.00  0.00     0.025 A 
ATOM     24  C   UNL d   1      -5.415  -2.042  -0.365  0.00  0.00     0.003 A 
ATOM     25  C   UNL d   1      -5.026  -0.915  -1.079  0.00  0.00     0.025 A 
ATOM     26  C   UNL d   1      -3.725  -0.402  -0.942  0.00  0.00     0.048 A 
ATOM     27 CL   UNL d   1      -3.358   0.966  -1.947  0.00  0.00    -0.083 Cl
ENDBRANCH   1  20
TORSDOF 3
