REMARK  2 active torsions:
REMARK  status: ('A' for Active; 'I' for Inactive)
REMARK    1  A    between atoms: O_5  and  C_2 
REMARK    2  A    between atoms: C_7  and  O_5 
ROOT
ATOM      1  C   UNL d   1       0.780   5.122  -0.914  0.00  0.00     0.117 A 
ATOM      2  C   UNL d   1       0.793   3.736  -0.711  0.00  0.00     0.100 A 
ATOM      3  C   UNL d   1      -0.135   5.998  -0.250  0.00  0.00     0.105 C 
ATOM      4  N   UNL d   1      -0.872   6.725   0.279  0.00  0.00    -0.191 NA
ATOM      5  C   UNL d   1       1.725   5.682  -1.775  0.00  0.00     0.139 A 
ATOM      6  F   UNL d   1       1.713   7.000  -2.031  0.00  0.00    -0.204 F 
ATOM      7  C   UNL d   1       1.805   2.955  -1.292  0.00  0.00     0.039 A 
ATOM      8  C   UNL d   1       2.762   3.538  -2.123  0.00  0.00     0.006 A 
ATOM      9  C   UNL d   1       2.710   4.904  -2.381  0.00  0.00     0.044 A 
ENDROOT
BRANCH   2  10
ATOM     10  O   UNL d   1      -0.053   3.051   0.130  0.00  0.00    -0.309 OA
BRANCH  10  11
ATOM     11  C   UNL d   1      -1.419   3.152  -0.021  0.00  0.00     0.076 A 
ATOM     12  C   UNL d   1      -2.084   3.592  -1.166  0.00  0.00     0.038 A 
ATOM     13  C   UNL d   1      -3.478   3.713  -1.162  0.00  0.00     0.009 A 
ATOM     14  C   UNL d   1      -4.224   3.343  -0.036  0.00  0.00    -0.062 A 
ATOM     15  C   UNL d   1      -3.556   2.845   1.087  0.00  0.00     0.009 A 
ATOM     16  C   UNL d   1      -5.715   3.512  -0.034  0.00  0.00     0.048 C 
ATOM     17  C   UNL d   1      -2.163   2.751   1.091  0.00  0.00     0.038 A 
ENDBRANCH  10  11
ENDBRANCH   2  10
TORSDOF 2
