REMARK  7 active torsions:
REMARK  status: ('A' for Active; 'I' for Inactive)
REMARK    1  A    between atoms: N_2  and  C_1 
REMARK    2  A    between atoms: N_5  and  C_1 
REMARK    3  A    between atoms: C_8  and  N_2 
REMARK    4  A    between atoms: C_9  and  C_4 
REMARK    5  A    between atoms: C_13  and  N_5 
REMARK    6  A    between atoms: O_12  and  C_16 
REMARK    7  A    between atoms: C_16  and  C_13 
ROOT
ATOM      1  C   UNL d   1       1.942  -3.708  -3.424  0.00  0.00    -0.054 C 
ATOM      2  C   UNL d   1       2.097  -3.732  -2.032  0.00  0.00     0.010 C 
ATOM      3  C   UNL d   1       1.058  -2.753  -3.953  0.00  0.00     0.010 C 
ATOM      4  C   UNL d   1       0.736  -1.741  -1.776  0.00  0.00     0.034 C 
ATOM      5  C   UNL d   1       0.499  -1.752  -3.147  0.00  0.00     0.030 C 
ATOM      6  C   UNL d   1       1.503  -2.759  -1.216  0.00  0.00     0.030 C 
ENDROOT
BRANCH   4   7
ATOM      7  N   UNL d   1       0.307  -0.630  -1.022  0.00  0.00    -0.333 N 
ATOM      8  H   UNL d   1       0.162   0.242  -1.528  0.00  0.00     0.168 HD
BRANCH   7   9
ATOM      9  C   UNL d   1      -0.126  -0.602   0.278  0.00  0.00     0.172 C 
ATOM     10  S   UNL d   1      -0.849  -1.839   1.136  0.00  0.00    -0.041 SA
BRANCH   9  11
ATOM     11  N   UNL d   1       0.009   0.608   0.909  0.00  0.00    -0.365 N 
ATOM     12  H   UNL d   1      -0.356   0.592   1.858  0.00  0.00     0.161 HD
BRANCH  11  13
ATOM     13  C   UNL d   1       1.058   1.584   0.635  0.00  0.00     0.148 C 
BRANCH  13  14
ATOM     14  C   UNL d   1       0.633   2.688  -0.331  0.00  0.00     0.183 C 
BRANCH  14  15
ATOM     15  O   UNL d   1       0.443   2.170  -1.647  0.00  0.00    -0.399 OA
ATOM     16  H   UNL d   1       0.281   2.940  -2.222  0.00  0.00     0.209 HD
ENDBRANCH  14  15
ENDBRANCH  13  14
ENDBRANCH  11  13
ENDBRANCH   9  11
ENDBRANCH   7   9
ENDBRANCH   4   7
BRANCH   1  17
ATOM     17  C   UNL d   1       2.696  -4.652  -4.367  0.00  0.00     0.018 C 
ATOM     18  C   UNL d   1       3.782  -5.547  -3.723  0.00  0.00     0.009 C 
ATOM     19  C   UNL d   1       5.041  -4.781  -3.299  0.00  0.00     0.001 C 
ATOM     20  C   UNL d   1       5.618  -3.930  -4.426  0.00  0.00     0.000 C 
ATOM     21  C   UNL d   1       4.560  -3.061  -5.095  0.00  0.00     0.001 C 
ATOM     22  C   UNL d   1       3.360  -3.894  -5.545  0.00  0.00     0.009 C 
ENDBRANCH   1  17
TORSDOF 7
