REMARK  2 active torsions:
REMARK  status: ('A' for Active; 'I' for Inactive)
REMARK    1  A    between atoms: C_13  and  C_7 
REMARK    2  A    between atoms: C_14  and  C_8 
ROOT
ATOM      1  C   UNL d   1      -0.707  -0.005  -0.004  0.00  0.00    -0.004 A 
ATOM      2  C   UNL d   1       0.704   0.017   0.002  0.00  0.00    -0.004 A 
ATOM      3  C   UNL d   1      -1.440   1.199  -0.009  0.00  0.00    -0.024 A 
ATOM      4  C   UNL d   1      -1.384  -1.242  -0.007  0.00  0.00    -0.024 A 
ATOM      5  C   UNL d   1       1.397   1.243   0.007  0.00  0.00    -0.024 A 
ATOM      6  C   UNL d   1       1.420  -1.197   0.004  0.00  0.00    -0.024 A 
ATOM      7  C   UNL d   1      -3.541  -0.086  -0.011  0.00  0.00    -0.049 A 
ATOM      8  C   UNL d   1       3.537   0.025   0.004  0.00  0.00    -0.049 A 
ATOM      9  C   UNL d   1       2.804   1.229   0.009  0.00  0.00     0.020 A 
ATOM     10  C   UNL d   1       2.814  -1.177   0.006  0.00  0.00     0.020 A 
ATOM     11  C   UNL d   1      -2.845   1.140  -0.011  0.00  0.00     0.020 A 
ATOM     12  C   UNL d   1      -2.780  -1.264  -0.011  0.00  0.00     0.020 A 
ATOM     13  C   UNL d   1      -0.740   2.416  -0.002  0.00  0.00     0.013 A 
ATOM     14  C   UNL d   1       0.658   2.440   0.005  0.00  0.00     0.013 A 
ATOM     15  C   UNL d   1      -0.659  -2.437  -0.005  0.00  0.00     0.013 A 
ATOM     16  C   UNL d   1       0.731  -2.416   0.001  0.00  0.00     0.013 A 
ENDROOT
BRANCH   7  17
ATOM     17  C   UNL d   1      -5.077  -0.123  -0.001  0.00  0.00    -0.024 C 
ATOM     18  C   UNL d   1      -5.651  -1.560  -0.007  0.00  0.00     0.019 C 
ATOM     19  C   UNL d   1      -5.602   0.578   1.269  0.00  0.00     0.019 C 
ATOM     20  C   UNL d   1      -5.629   0.596  -1.248  0.00  0.00     0.019 C 
ENDBRANCH   7  17
BRANCH   8  21
ATOM     21  C   UNL d   1       5.075   0.035  -0.017  0.00  0.00    -0.024 C 
ATOM     22  C   UNL d   1       5.694  -1.383  -0.028  0.00  0.00     0.019 C 
ATOM     23  C   UNL d   1       5.566   0.763  -1.284  0.00  0.00     0.019 C 
ATOM     24  C   UNL d   1       5.614   0.760   1.232  0.00  0.00     0.019 C 
ENDBRANCH   8  21
TORSDOF 2
