REMARK  2 active torsions:
REMARK  status: ('A' for Active; 'I' for Inactive)
REMARK    1  A    between atoms: C_7  and  C_3 
REMARK    2  A    between atoms: C_10  and  C_4 
ROOT
ATOM      1  N   UNL d   1       1.258  -0.585   0.510  0.00  0.00    -0.349 N 
ATOM      2  HN  UNL d   1       2.010  -1.068   1.001  1.00  0.00     0.166 HD
ATOM      3  C   UNL d   1       0.219  -1.180  -0.044  0.00  0.00     0.085 A 
ATOM      4  C   UNL d   1       1.188   0.790   0.333  0.00  0.00     0.050 A 
ATOM      5  S   UNL d   1      -0.943  -0.102  -0.725  0.00  0.00    -0.081 SA
ATOM      6  C   UNL d   1       0.043   1.230  -0.300  0.00  0.00     0.082 A 
ENDROOT
BRANCH   3   7
ATOM      7  C   UNL d   1       0.004  -2.638  -0.062  0.00  0.00     0.001 A 
ATOM      8  C   UNL d   1       0.524  -3.424   0.979  0.00  0.00     0.054 A 
ATOM      9  C   UNL d   1       0.346  -4.809   0.986  0.00  0.00     0.103 A 
ATOM     10  O   UNL d   1       0.892  -5.498   2.039  0.00  0.00    -0.346 OA
ATOM     11  C   UNL d   1      -0.370  -5.429  -0.041  0.00  0.00     0.102 A 
ATOM     12  C   UNL d   1       0.950  -6.904   1.770  0.00  0.00     0.202 C 
ATOM     13  C   UNL d   1      -0.363  -7.394   1.182  0.00  0.00     0.202 C 
ATOM     14  O   UNL d   1      -0.610  -6.778  -0.087  0.00  0.00    -0.346 OA
ATOM     15  C   UNL d   1      -0.868  -4.671  -1.095  0.00  0.00     0.040 A 
ATOM     16  C   UNL d   1      -0.682  -3.285  -1.106  0.00  0.00     0.017 A 
ENDBRANCH   3   7
BRANCH   4  17
ATOM     17  C   UNL d   1       2.247   1.672   0.813  0.00  0.00    -0.009 A 
ATOM     18  C   UNL d   1       2.508   2.912   0.205  0.00  0.00     0.017 A 
ATOM     19  C   UNL d   1       3.530   3.737   0.682  0.00  0.00     0.043 A 
ATOM     20  C   UNL d   1       4.295   3.324   1.766  0.00  0.00     0.116 A 
ATOM     21  C   UNL d   1       4.062   2.099   2.378  0.00  0.00     0.043 A 
ATOM     22  F   UNL d   1       5.274   4.116   2.222  0.00  0.00    -0.206 F 
ATOM     23  C   UNL d   1       3.042   1.272   1.899  0.00  0.00     0.017 A 
ENDBRANCH   4  17
TORSDOF 2
