REMARK  4 active torsions:
REMARK  status: ('A' for Active; 'I' for Inactive)
REMARK    1  A    between atoms: C_3  and  C_1 
REMARK    2  A    between atoms: O_14  and  C_8 
REMARK    3  A    between atoms: O_15  and  C_10 
REMARK    4  A    between atoms: N_13  and  C_11 
ROOT
ATOM      1  C   UNL d   1       1.163   1.321  -0.321  0.00  0.00     0.051 C 
ATOM      2  C   UNL d   1      -0.184   0.654  -0.175  0.00  0.00     0.000 A 
ATOM      3  N   UNL d   1       2.263   0.704   0.003  0.00  0.00    -0.388 N 
ATOM      4  HN  UNL d   1       3.165   1.165  -0.115  1.00  0.00     0.159 HD
ATOM      5  C   UNL d   1      -1.406   1.339  -0.117  0.00  0.00     0.054 A 
ATOM      6  C   UNL d   1      -0.187  -0.746  -0.053  0.00  0.00    -0.041 A 
ATOM      7  C   UNL d   1      -2.614   0.634   0.002  0.00  0.00     0.102 A 
ATOM      8  C   UNL d   1      -1.392  -1.441   0.103  0.00  0.00     0.047 A 
ATOM      9  C   UNL d   1      -2.611  -0.760   0.109  0.00  0.00     0.102 A 
ATOM     10  C   UNL d   1       2.197  -0.655   0.537  0.00  0.00     0.124 C 
ATOM     11  C   UNL d   1       1.118  -1.483  -0.139  0.00  0.00     0.059 C 
ENDROOT
BRANCH   1  12
ATOM     12  C   UNL d   1       1.292   2.744  -0.814  0.00  0.00     0.012 A 
ATOM     13  C   UNL d   1       2.280   3.606  -0.274  0.00  0.00     0.018 A 
ATOM     14  C   UNL d   1       2.310   4.948  -0.677  0.00  0.00     0.024 A 
ATOM     15  C   UNL d   1       1.384   5.442  -1.596  0.00  0.00     0.002 A 
ATOM     16  C   UNL d   1       0.448   4.585  -2.164  0.00  0.00     0.001 A 
ATOM     17  C   UNL d   1       0.415   3.239  -1.792  0.00  0.00     0.015 A 
BRANCH  13  18
ATOM     18  N   UNL d   1       3.346   3.140   0.513  0.00  0.00    -0.302 NA
ATOM     19  H   UNL d   1       3.228   2.156   0.776  0.00  0.00     0.124 HD
ATOM     20  H   UNL d   1       3.656   3.750   1.257  0.00  0.00     0.124 HD
ENDBRANCH  13  18
ENDBRANCH   1  12
BRANCH   7  21
ATOM     21  O   UNL d   1      -3.765   1.369  -0.104  0.00  0.00    -0.353 OA
ATOM     22  C   UNL d   1      -4.428   1.534   1.147  0.00  0.00     0.210 C 
ENDBRANCH   7  21
BRANCH   9  23
ATOM     23  O   UNL d   1      -3.704  -1.562   0.296  0.00  0.00    -0.353 OA
ATOM     24  C   UNL d   1      -4.808  -1.307  -0.565  0.00  0.00     0.210 C 
ENDBRANCH   9  23
TORSDOF 4
