REMARK  6 active torsions:
REMARK  status: ('A' for Active; 'I' for Inactive)
REMARK    1  A    between atoms: C_3  and  C_1 
REMARK    2  A    between atoms: C_2  and  N_4 
REMARK    3  A    between atoms: N_6  and  C_2 
REMARK    4  A    between atoms: N_4  and  C_8 
REMARK    5  A    between atoms: C_14  and  N_6 
REMARK    6  A    between atoms: C_15  and  C_14 
ROOT
ATOM      1  C   UNL d   1      -0.345  -0.280   4.847  0.00  0.00     0.172 C 
ATOM      2  S   UNL d   1      -0.246  -1.670   3.927  0.00  0.00    -0.041 SA
ENDROOT
BRANCH   1   3
ATOM      3  N   UNL d   1      -0.167   1.018   4.438  0.00  0.00    -0.333 N 
ATOM      4  H   UNL d   1      -0.844   1.657   4.840  0.00  0.00     0.168 HD
BRANCH   3   5
ATOM      5  C   UNL d   1       0.551   1.504   3.328  0.00  0.00     0.035 A 
ATOM      6  C   UNL d   1       0.106   2.684   2.722  0.00  0.00     0.045 A 
ATOM      7  C   UNL d   1       0.795   3.236   1.629  0.00  0.00     0.050 A 
ATOM      8  C   UNL d   1       1.973   2.617   1.186  0.00  0.00     0.016 A 
ATOM      9  C   UNL d   1       2.439   1.461   1.809  0.00  0.00     0.003 A 
ATOM     10  C   UNL d   1       1.726   0.903   2.872  0.00  0.00     0.029 A 
BRANCH   7  11
ATOM     11  C   UNL d   1       0.285   4.470   0.928  0.00  0.00     0.417 C 
ATOM     12  F   UNL d   1      -0.915   4.909   1.401  0.00  0.00    -0.166 F 
ATOM     13  F   UNL d   1       0.109   4.275  -0.409  0.00  0.00    -0.166 F 
ATOM     14  F   UNL d   1       1.140   5.523   1.042  0.00  0.00    -0.166 F 
ENDBRANCH   7  11
ENDBRANCH   3   5
ENDBRANCH   1   3
BRANCH   1  15
ATOM     15  N   UNL d   1      -0.707  -0.422   6.163  0.00  0.00    -0.363 N 
ATOM     16  H   UNL d   1      -0.825  -1.398   6.414  0.00  0.00     0.162 HD
BRANCH  15  17
ATOM     17  C   UNL d   1      -0.228   0.435   7.236  0.00  0.00     0.160 C 
BRANCH  17  18
ATOM     18  C   UNL d   1      -1.044   1.682   7.444  0.00  0.00    -0.038 A 
ATOM     19  C   UNL d   1      -2.441   1.667   7.397  0.00  0.00     0.025 A 
ATOM     20  C   UNL d   1      -3.128   2.843   7.651  0.00  0.00     0.088 A 
ATOM     21  N   UNL d   1      -2.528   4.014   7.951  0.00  0.00    -0.375 N 
ATOM     22  C   UNL d   1      -1.181   4.008   8.009  0.00  0.00     0.088 A 
ATOM     23  HN  UNL d   1      -3.067   4.863   8.127  1.00  0.00     0.164 HD
ATOM     24  C   UNL d   1      -0.406   2.886   7.769  0.00  0.00     0.025 A 
ENDBRANCH  17  18
ENDBRANCH  15  17
ENDBRANCH   1  15
TORSDOF 6
