REMARK  5 active torsions:
REMARK  status: ('A' for Active; 'I' for Inactive)
REMARK    1  A    between atoms: C_2  and  C_1 
REMARK       I    between atoms: N_3  and  C_2 
REMARK    2  A    between atoms: C_9  and  N_3 
REMARK    3  A    between atoms: O_7  and  C_11 
REMARK    4  A    between atoms: C_12  and  O_7 
REMARK    5  A    between atoms: O_25  and  C_10 
ROOT
ATOM      1  C   UNL d   1       2.340  -3.934   0.154  0.00  0.00     0.035 C 
ATOM      2  C   UNL d   1       5.130  -4.109   0.451  0.00  0.00     0.076 C 
ATOM      3  C   UNL d   1       2.974  -3.351   1.252  0.00  0.00     0.032 C 
ATOM      4  C   UNL d   1       3.105  -4.701  -0.735  0.00  0.00     0.032 C 
ATOM      5  C   UNL d   1       4.359  -3.462   1.417  0.00  0.00     0.039 C 
ATOM      6  C   UNL d   1       4.497  -4.784  -0.590  0.00  0.00     0.039 C 
ENDROOT
BRANCH   1   7
ATOM      7  N   UNL d   1       0.965  -3.774  -0.134  0.00  0.00    -0.323 N 
ATOM      8  C   UNL d   1       0.088  -2.882   0.457  0.00  0.00     0.257 C 
ATOM      9  O   UNL d   1       0.353  -2.142   1.404  0.00  0.00    -0.267 OA
ATOM     10  H   UNL d   1       0.629  -4.273  -0.948  0.00  0.00     0.169 HD
BRANCH   8  11
ATOM     11  C   UNL d   1      -1.311  -2.837  -0.078  0.00  0.00     0.052 A 
ATOM     12  C   UNL d   1      -1.696  -3.089  -1.405  0.00  0.00     0.026 A 
ATOM     13  C   UNL d   1      -3.048  -3.005  -1.766  0.00  0.00     0.023 A 
ATOM     14 BR   UNL d   1      -0.493  -3.471  -2.826  0.00  0.00    -0.050 Br
ATOM     15  C   UNL d   1      -4.015  -2.659  -0.823  0.00  0.00     0.038 A 
ATOM     16  C   UNL d   1      -3.650  -2.397   0.494  0.00  0.00     0.069 A 
ATOM     17  C   UNL d   1      -2.305  -2.471   0.858  0.00  0.00     0.055 A 
BRANCH  16  18
ATOM     18  O   UNL d   1      -4.681  -2.048   1.320  0.00  0.00    -0.356 OA
ATOM     19  C   UNL d   1      -4.471  -2.269   2.711  0.00  0.00     0.210 C 
ENDBRANCH  16  18
ENDBRANCH   8  11
ENDBRANCH   1   7
BRANCH   2  20
ATOM     20  O   UNL d   1       6.506  -4.144   0.480  0.00  0.00    -0.311 OA
BRANCH  20  21
ATOM     21  C   UNL d   1       7.198  -2.993   0.801  0.00  0.00     0.076 A 
ATOM     22  C   UNL d   1       8.474  -3.176   1.340  0.00  0.00     0.039 A 
ATOM     23  C   UNL d   1       9.236  -2.073   1.738  0.00  0.00     0.026 A 
ATOM     24  C   UNL d   1       8.720  -0.786   1.593  0.00  0.00     0.034 A 
ATOM     25  C   UNL d   1       7.470  -0.591   1.012  0.00  0.00     0.026 A 
ATOM     26 CL   UNL d   1       9.632   0.570   2.131  0.00  0.00    -0.084 Cl
ATOM     27  C   UNL d   1       6.722  -1.693   0.590  0.00  0.00     0.039 A 
ENDBRANCH  20  21
ENDBRANCH   2  20
TORSDOF 5
