REMARK  5 active torsions:
REMARK  status: ('A' for Active; 'I' for Inactive)
REMARK    1  A    between atoms: C_3  and  C_1 
REMARK    2  A    between atoms: C_8  and  C_3 
REMARK    3  A    between atoms: C_11  and  C_8 
REMARK    4  A    between atoms: S_9  and  C_11 
REMARK    5  A    between atoms: C_10  and  S_9 
ROOT
ATOM      1  C   UNL d   1       0.372   5.170  -0.041  0.00  0.00     0.087 C 
ENDROOT
BRANCH   1   2
ATOM      2  S   UNL d   1       1.795   6.320  -0.052  0.00  0.00    -0.130 SA
BRANCH   2   3
ATOM      3  C   UNL d   1       1.011   7.927  -0.010  0.00  0.00     0.000 A 
ATOM      4  C   UNL d   1       1.711   8.970   0.610  0.00  0.00     0.019 A 
ATOM      5  C   UNL d   1       1.192  10.268   0.635  0.00  0.00     0.008 A 
ATOM      6  C   UNL d   1      -0.037  10.551   0.033  0.00  0.00    -0.062 A 
ATOM      7  C   UNL d   1      -0.737   9.514  -0.591  0.00  0.00     0.008 A 
ATOM      8  C   UNL d   1      -0.575  11.951   0.047  0.00  0.00     0.048 C 
ATOM      9  C   UNL d   1      -0.216   8.214  -0.615  0.00  0.00     0.019 A 
ENDBRANCH   2   3
ENDBRANCH   1   2
BRANCH   1  10
ATOM     10  C   UNL d   1       0.897   3.737  -0.006  0.00  0.00     0.095 C 
BRANCH  10  11
ATOM     11  C   UNL d   1      -0.239   2.724  -0.018  0.00  0.00     0.167 C 
ATOM     12  O   UNL d   1      -1.410   3.105  -0.035  0.00  0.00    -0.292 OA
BRANCH  11  13
ATOM     13  C   UNL d   1       0.155   1.315  -0.012  0.00  0.00     0.050 A 
ATOM     14  S   UNL d   1      -1.062   0.102  -0.026  0.00  0.00    -0.098 SA
ATOM     15  C   UNL d   1       0.089  -1.159  -0.012  0.00  0.00     0.050 A 
ATOM     16  C   UNL d   1       1.378  -0.680   0.003  0.00  0.00     0.009 A 
ATOM     17  C   UNL d   1       1.417   0.746   0.003  0.00  0.00     0.023 A 
ENDBRANCH  11  13
ENDBRANCH  10  11
ENDBRANCH   1  10
TORSDOF 5
