REMARK  9 active torsions:
REMARK  status: ('A' for Active; 'I' for Inactive)
REMARK    1  A    between atoms: C_2  and  C_1 
REMARK    2  A    between atoms: C_5  and  C_1 
REMARK       I    between atoms: N_3  and  C_2 
REMARK       I    between atoms: C_4  and  N_3 
REMARK    3  A    between atoms: O_16  and  C_4 
REMARK    4  A    between atoms: O_17  and  C_5 
REMARK    5  A    between atoms: N_14  and  C_7 
REMARK    6  A    between atoms: C_8  and  C_18 
REMARK    7  A    between atoms: C_18  and  N_14 
REMARK    8  A    between atoms: C_19  and  O_16 
REMARK    9  A    between atoms: C_20  and  O_17 
ROOT
ATOM      1  C   UNL d   1       1.023   0.147  -0.082  0.00  0.00     0.117 C 
ATOM      2  C   UNL d   1       2.369   0.192   0.023  0.00  0.00     0.080 C 
ENDROOT
BRANCH   1   3
ATOM      3  C   UNL d   1       0.289  -0.448   1.093  0.00  0.00     0.267 C 
ATOM      4  N   UNL d   1      -1.082  -0.552   0.944  0.00  0.00    -0.269 N 
ATOM      5  C   UNL d   1      -1.935  -1.382   1.631  0.00  0.00     0.367 C 
ATOM      6  H   UNL d   1      -1.498  -0.233   0.073  0.00  0.00     0.174 HD
ATOM      7  O   UNL d   1      -3.055  -1.621   1.203  0.00  0.00    -0.238 OA
ATOM      8  O   UNL d   1       0.897  -0.756   2.115  0.00  0.00    -0.267 OA
BRANCH   5   9
ATOM      9  O   UNL d   1      -1.408  -1.919   2.757  0.00  0.00    -0.304 OA
BRANCH   9  10
ATOM     10  C   UNL d   1      -2.214  -2.884   3.446  0.00  0.00     0.176 C 
ATOM     11  C   UNL d   1      -3.137  -2.201   4.435  0.00  0.00     0.034 C 
ENDBRANCH   9  10
ENDBRANCH   5   9
ENDBRANCH   1   3
BRANCH   1  12
ATOM     12  C   UNL d   1       0.302   0.665  -1.276  0.00  0.00     0.299 C 
ATOM     13  O   UNL d   1      -0.912   0.576  -1.407  0.00  0.00    -0.259 OA
BRANCH  12  14
ATOM     14  O   UNL d   1       1.140   1.258  -2.165  0.00  0.00    -0.318 OA
BRANCH  14  15
ATOM     15  C   UNL d   1       0.571   1.803  -3.362  0.00  0.00     0.174 C 
ATOM     16  C   UNL d   1       0.401   0.706  -4.393  0.00  0.00     0.034 C 
ENDBRANCH  14  15
ENDBRANCH  12  14
ENDBRANCH   1  12
BRANCH   2  17
ATOM     17  N   UNL d   1       3.318   0.595  -0.908  0.00  0.00    -0.296 NA
ATOM     18  H   UNL d   1       2.882   0.776  -1.818  0.00  0.00     0.127 HD
BRANCH  17  19
ATOM     19  C   UNL d   1       4.243   1.694  -0.628  0.00  0.00     0.137 C 
BRANCH  19  20
ATOM     20  C   UNL d   1       5.162   1.956  -1.784  0.00  0.00    -0.004 A 
ATOM     21  S   UNL d   1       4.894   3.285  -2.832  0.00  0.00    -0.105 SA
ATOM     22  C   UNL d   1       6.236   2.867  -3.807  0.00  0.00     0.050 A 
ATOM     23  C   UNL d   1       6.873   1.734  -3.351  0.00  0.00     0.008 A 
ATOM     24  C   UNL d   1       6.250   1.206  -2.185  0.00  0.00     0.016 A 
ENDBRANCH  19  20
ENDBRANCH  17  19
ENDBRANCH   2  17
TORSDOF 9
