REMARK  2 active torsions:
REMARK  status: ('A' for Active; 'I' for Inactive)
REMARK    1  A    between atoms: C_10  and  C_4 
REMARK    2  A    between atoms: C_8  and  C_11 
ROOT
ATOM      1  N   UNL d   1       1.236  -1.420  -0.018  0.00  0.00    -0.334 N 
ATOM      2  HN  UNL d   1       1.253  -2.440  -0.040  1.00  0.00     0.168 HD
ATOM      3  C   UNL d   1       0.015   0.664   0.009  0.00  0.00     0.070 A 
ATOM      4  C   UNL d   1       2.331  -0.739   0.007  0.00  0.00     0.162 A 
ATOM      5  C   UNL d   1       0.026  -0.724  -0.014  0.00  0.00     0.072 A 
ATOM      6  C   UNL d   1       1.308   1.360   0.029  0.00  0.00     0.302 A 
ATOM      7  O   UNL d   1       2.430   0.606   0.030  0.00  0.00    -0.257 OA
ATOM      8  C   UNL d   1      -1.205  -1.399  -0.026  0.00  0.00     0.063 A 
ATOM      9  C   UNL d   1      -2.412  -0.695  -0.017  0.00  0.00     0.050 A 
ATOM     10  C   UNL d   1      -1.185   1.386   0.017  0.00  0.00     0.044 A 
ATOM     11  O   UNL d   1       1.354   2.584   0.047  0.00  0.00    -0.259 OA
ATOM     12  C   UNL d   1      -2.394   0.697   0.003  0.00  0.00     0.036 A 
ATOM     13 CL   UNL d   1      -1.273  -3.127  -0.048  0.00  0.00    -0.082 Cl
ATOM     14 CL   UNL d   1      -3.875   1.569   0.014  0.00  0.00    -0.084 Cl
ENDROOT
BRANCH   4  15
ATOM     15  C   UNL d   1       3.672  -1.381   0.023  0.00  0.00     0.016 A 
ATOM     16  C   UNL d   1       4.857  -0.634   0.112  0.00  0.00     0.032 A 
ATOM     17  C   UNL d   1       6.106  -1.278   0.157  0.00  0.00     0.048 A 
ATOM     18  C   UNL d   1       6.154  -2.679   0.101  0.00  0.00     0.016 A 
ATOM     19  C   UNL d   1       4.980  -3.426   0.004  0.00  0.00     0.002 A 
ATOM     20  C   UNL d   1       3.745  -2.779  -0.033  0.00  0.00     0.016 A 
BRANCH  17  21
ATOM     21  C   UNL d   1       7.388  -0.488   0.281  0.00  0.00     0.417 C 
ATOM     22  F   UNL d   1       7.195   0.859   0.320  0.00  0.00    -0.166 F 
ATOM     23  F   UNL d   1       8.080  -0.800   1.411  0.00  0.00    -0.166 F 
ATOM     24  F   UNL d   1       8.241  -0.715  -0.756  0.00  0.00    -0.166 F 
ENDBRANCH  17  21
ENDBRANCH   4  15
TORSDOF 2
