REMARK  8 active torsions:
REMARK  status: ('A' for Active; 'I' for Inactive)
REMARK    1  A    between atoms: O_3  and  C_1 
REMARK    2  A    between atoms: C_5  and  C_2 
REMARK    3  A    between atoms: C_4  and  O_3 
REMARK    4  A    between atoms: C_8  and  C_4 
REMARK    5  A    between atoms: O_9  and  C_5 
REMARK    6  A    between atoms: C_14  and  O_9 
REMARK    7  A    between atoms: C_10  and  C_14 
REMARK    8  A    between atoms: C_11  and  C_10 
ROOT
ATOM      1  C   UNL d   1       1.334  -1.459  -0.006  0.00  0.00     0.106 C 
ATOM      2  C   UNL d   1       2.364  -0.881  -0.756  0.00  0.00     0.074 C 
ATOM      3  C   UNL d   1       0.111  -0.781   0.162  0.00  0.00     0.009 A 
ATOM      4  C   UNL d   1       2.347   0.495  -0.983  0.00  0.00     0.021 C 
ATOM      5  C   UNL d   1       0.070   0.602  -0.136  0.00  0.00    -0.023 A 
ATOM      6  C   UNL d   1       1.226   1.242  -0.613  0.00  0.00     0.013 C 
ATOM      7  C   UNL d   1      -1.082  -1.429   0.543  0.00  0.00     0.015 A 
ATOM      8  C   UNL d   1      -1.135   1.306   0.009  0.00  0.00     0.012 A 
ATOM      9  C   UNL d   1      -2.291  -0.731   0.589  0.00  0.00     0.001 A 
ATOM     10  C   UNL d   1      -2.314   0.638   0.340  0.00  0.00     0.001 A 
ENDROOT
BRANCH   2  11
ATOM     11  C   UNL d   1       3.419  -1.705  -1.396  0.00  0.00     0.296 C 
ATOM     12  O   UNL d   1       4.519  -1.293  -1.734  0.00  0.00    -0.259 OA
BRANCH  11  13
ATOM     13  O   UNL d   1       2.899  -2.920  -1.689  0.00  0.00    -0.310 OA
BRANCH  13  14
ATOM     14  C   UNL d   1       3.716  -3.829  -2.426  0.00  0.00     0.263 C 
BRANCH  14  15
ATOM     15  C   UNL d   1       3.237  -3.989  -3.866  0.00  0.00     0.183 C 
ATOM     16  O   UNL d   1       2.125  -4.461  -4.122  0.00  0.00    -0.290 OA
BRANCH  15  17
ATOM     17  C   UNL d   1       4.133  -3.619  -5.001  0.00  0.00     0.012 A 
ATOM     18  C   UNL d   1       5.209  -2.736  -4.852  0.00  0.00     0.017 A 
ATOM     19  C   UNL d   1       6.021  -2.424  -5.948  0.00  0.00     0.025 A 
ATOM     20  C   UNL d   1       5.759  -2.984  -7.197  0.00  0.00     0.034 A 
ATOM     21  C   UNL d   1       4.684  -3.854  -7.362  0.00  0.00     0.025 A 
ATOM     22 CL   UNL d   1       6.761  -2.591  -8.538  0.00  0.00    -0.084 Cl
ATOM     23  C   UNL d   1       3.872  -4.169  -6.267  0.00  0.00     0.017 A 
ENDBRANCH  15  17
ENDBRANCH  14  15
ENDBRANCH  13  14
ENDBRANCH  11  13
ENDBRANCH   2  11
BRANCH   1  24
ATOM     24  O   UNL d   1       1.523  -2.685   0.672  0.00  0.00    -0.273 OA
BRANCH  24  25
ATOM     25  C   UNL d   1       2.544  -2.581   1.612  0.00  0.00     0.298 C 
ATOM     26  O   UNL d   1       3.290  -1.620   1.781  0.00  0.00    -0.259 OA
BRANCH  25  27
ATOM     27  C   UNL d   1       2.695  -3.805   2.435  0.00  0.00     0.040 A 
ATOM     28  C   UNL d   1       3.875  -3.951   3.187  0.00  0.00     0.019 A 
ATOM     29  C   UNL d   1       4.049  -5.047   4.037  0.00  0.00     0.025 A 
ATOM     30  C   UNL d   1       3.037  -5.997   4.143  0.00  0.00     0.034 A 
ATOM     31  C   UNL d   1       1.864  -5.866   3.399  0.00  0.00     0.025 A 
ATOM     32 CL   UNL d   1       3.232  -7.333   5.209  0.00  0.00    -0.084 Cl
ATOM     33  C   UNL d   1       1.690  -4.772   2.541  0.00  0.00     0.019 A 
ENDBRANCH  25  27
ENDBRANCH  24  25
ENDBRANCH   1  24
TORSDOF 8
