REMARK  8 active torsions:
REMARK  status: ('A' for Active; 'I' for Inactive)
REMARK    1  A    between atoms: C_2  and  S_1 
REMARK    2  A    between atoms: N_5  and  S_1 
REMARK    3  A    between atoms: C_11  and  C_4 
REMARK    4  A    between atoms: C_12  and  N_5 
REMARK    5  A    between atoms: C_28  and  N_5 
REMARK    6  A    between atoms: S_24  and  C_9 
REMARK    7  A    between atoms: C_16  and  C_12 
REMARK    8  A    between atoms: C_26  and  C_28 
ROOT
ATOM      1  N   UNL d   1      -3.392  -1.166   0.047  0.00  0.00    -0.197 NA
ATOM      2  C   UNL d   1      -2.446  -1.363   0.696  0.00  0.00     0.060 C 
ATOM      3  C   UNL d   1      -1.265  -1.603   1.530  0.00  0.00     0.139 C 
ENDROOT
BRANCH   3   4
ATOM      4  C   UNL d   1      -0.103  -2.199   0.730  0.00  0.00     0.122 C 
BRANCH   4   5
ATOM      5  N   UNL d   1       0.298  -1.396  -0.475  0.00  0.00    -0.199 NA
BRANCH   5   6
ATOM      6  S   UNL d   1       1.112   0.092  -0.129  0.00  0.00     0.250 S 
ATOM      7  O   UNL d   1       0.748   0.523   1.203  0.00  0.00    -0.205 OA
ATOM      8  O   UNL d   1       2.500  -0.050  -0.512  0.00  0.00    -0.205 OA
BRANCH   6   9
ATOM      9  C   UNL d   1       0.466   1.321  -1.256  0.00  0.00     0.116 A 
ATOM     10  S   UNL d   1      -0.490   2.574  -0.588  0.00  0.00    -0.075 SA
ATOM     11  C   UNL d   1      -0.682   3.363  -2.100  0.00  0.00     0.033 A 
ATOM     12  C   UNL d   1      -0.019   2.667  -3.096  0.00  0.00     0.023 A 
ATOM     13  C   UNL d   1       0.617   1.485  -2.619  0.00  0.00     0.034 A 
BRANCH  11  14
ATOM     14  C   UNL d   1      -1.450   4.611  -2.232  0.00  0.00     0.052 A 
ATOM     15  N   UNL d   1      -1.020   5.418  -3.225  0.00  0.00    -0.336 N 
ATOM     16  C   UNL d   1      -1.714   6.546  -3.438  0.00  0.00     0.144 A 
ATOM     17  HN  UNL d   1      -0.203   5.181  -3.788  1.00  0.00     0.168 HD
ATOM     18  N   UNL d   1      -2.807   6.910  -2.749  0.00  0.00    -0.347 N 
ATOM     19  C   UNL d   1      -3.205   6.075  -1.774  0.00  0.00     0.092 A 
ATOM     20  HN  UNL d   1      -3.309   7.774  -2.954  1.00  0.00     0.167 HD
ATOM     21  C   UNL d   1      -2.555   4.906  -1.462  0.00  0.00     0.048 A 
BRANCH  16  22
ATOM     22  S   UNL d   1      -1.125   7.597  -4.745  0.00  0.00    -0.098 SA
ATOM     23  C   UNL d   1      -2.405   8.876  -4.739  0.00  0.00     0.099 C 
ENDBRANCH  16  22
ENDBRANCH  11  14
ENDBRANCH   6   9
ENDBRANCH   5   6
BRANCH   5  24
ATOM     24  C   UNL d   1       1.064  -2.185  -1.499  0.00  0.00     0.172 C 
BRANCH  24  25
ATOM     25  C   UNL d   1       0.393  -3.450  -1.914  0.00  0.00     0.066 A 
ATOM     26  O   UNL d   1       1.130  -4.589  -1.748  0.00  0.00    -0.326 OA
ATOM     27  C   UNL d   1       0.383  -5.624  -2.205  0.00  0.00     0.142 A 
ATOM     28  C   UNL d   1      -0.835  -5.172  -2.653  0.00  0.00     0.027 A 
ATOM     29  C   UNL d   1      -0.831  -3.766  -2.467  0.00  0.00     0.036 A 
ENDBRANCH  24  25
ENDBRANCH   5  24
ENDBRANCH   4   5
ENDBRANCH   3   4
TORSDOF 8
