REMARK  8 active torsions:
REMARK  status: ('A' for Active; 'I' for Inactive)
REMARK    1  A    between atoms: C_5  and  C_1 
REMARK    2  A    between atoms: N_8  and  C_2 
REMARK       I    between atoms: C_9  and  N_8 
REMARK    3  A    between atoms: O_15  and  C_9 
REMARK    4  A    between atoms: N_10  and  O_15 
REMARK    5  A    between atoms: C_21  and  C_12 
REMARK    6  A    between atoms: N_22  and  C_12 
REMARK    7  A    between atoms: C_16  and  C_17 
REMARK    8  A    between atoms: C_23  and  C_21 
ROOT
ATOM      1  N   UNL d   1       0.287  -1.904   1.849  0.00  0.00    -0.297 N 
ATOM      2  C   UNL d   1       0.242  -0.966   0.841  0.00  0.00     0.387 C 
ATOM      3  O   UNL d   1      -0.615  -0.911  -0.035  0.00  0.00    -0.236 OA
ATOM      4  H   UNL d   1       0.850  -1.649   2.648  0.00  0.00     0.171 HD
ENDROOT
BRANCH   2   5
ATOM      5  O   UNL d   1       1.165   0.050   0.986  0.00  0.00    -0.180 OA
BRANCH   5   6
ATOM      6  N   UNL d   1       2.460  -0.461   1.263  0.00  0.00    -0.249 N 
ATOM      7  C   UNL d   1       3.361   0.389   0.848  0.00  0.00     0.080 C 
ATOM      8  HN  UNL d   1       2.656  -1.354   1.716  1.00  0.00     0.196 HD
BRANCH   7   9
ATOM      9  C   UNL d   1       4.831  -0.037   0.870  0.00  0.00     0.110 C 
BRANCH   9  10
ATOM     10  C   UNL d   1       5.754   0.885   1.635  0.00  0.00    -0.052 A 
ATOM     11  C   UNL d   1       5.705   0.941   3.028  0.00  0.00     0.008 A 
ATOM     12  C   UNL d   1       6.593   1.758   3.743  0.00  0.00     0.008 A 
ATOM     13  C   UNL d   1       7.557   2.556   3.096  0.00  0.00    -0.051 A 
ATOM     14  C   UNL d   1       7.603   2.482   1.696  0.00  0.00     0.008 A 
ATOM     15  C   UNL d   1       6.717   1.661   0.977  0.00  0.00     0.008 A 
BRANCH  13  16
ATOM     16  C   UNL d   1       8.480   3.477   3.919  0.00  0.00    -0.024 C 
ATOM     17  C   UNL d   1       9.477   4.299   3.071  0.00  0.00     0.019 C 
ATOM     18  C   UNL d   1       7.613   4.487   4.704  0.00  0.00     0.019 C 
ATOM     19  C   UNL d   1       9.318   2.649   4.919  0.00  0.00     0.019 C 
ENDBRANCH  13  16
ENDBRANCH   9  10
ENDBRANCH   7   9
BRANCH   7  20
ATOM     20  N   UNL d   1       3.067   1.627   0.324  0.00  0.00    -0.290 NA
ATOM     21  H   UNL d   1       2.127   1.950   0.529  0.00  0.00     0.125 HD
ATOM     22  H   UNL d   1       3.776   2.345   0.431  0.00  0.00     0.125 HD
ENDBRANCH   7  20
ENDBRANCH   5   6
ENDBRANCH   2   5
BRANCH   1  23
ATOM     23  C   UNL d   1      -0.543  -3.017   1.906  0.00  0.00     0.098 A 
ATOM     24  C   UNL d   1      -1.075  -3.856   0.866  0.00  0.00     0.098 A 
ATOM     25  N   UNL d   1      -1.817  -4.843   1.398  0.00  0.00    -0.258 N 
ATOM     26  O   UNL d   1      -1.786  -4.663   2.760  0.00  0.00    -0.240 OA
ATOM     27  HN  UNL d   1      -2.306  -5.580   0.891  1.00  0.00     0.195 HD
ATOM     28  C   UNL d   1      -1.006  -3.595   3.067  0.00  0.00     0.101 A 
ATOM     29  C   UNL d   1      -0.911  -3.278   4.503  0.00  0.00     0.081 C 
BRANCH  24  30
ATOM     30  C   UNL d   1      -0.806  -3.847  -0.571  0.00  0.00     0.038 A 
ATOM     31  C   UNL d   1       0.506  -3.992  -1.061  0.00  0.00     0.048 A 
ATOM     32 CL   UNL d   1       1.877  -4.247  -0.026  0.00  0.00    -0.083 Cl
ATOM     33  C   UNL d   1       0.768  -3.983  -2.437  0.00  0.00     0.025 A 
ATOM     34  C   UNL d   1      -0.273  -3.857  -3.350  0.00  0.00     0.003 A 
ATOM     35  C   UNL d   1      -1.581  -3.740  -2.888  0.00  0.00     0.025 A 
ATOM     36  C   UNL d   1      -1.851  -3.728  -1.512  0.00  0.00     0.048 A 
ATOM     37 CL   UNL d   1      -3.514  -3.555  -1.056  0.00  0.00    -0.083 Cl
ENDBRANCH  24  30
ENDBRANCH   1  23
TORSDOF 8
