REMARK  6 active torsions:
REMARK  status: ('A' for Active; 'I' for Inactive)
REMARK    1  A    between atoms: C_3  and  C_1 
REMARK    2  A    between atoms: C_2  and  N_4 
REMARK    3  A    between atoms: N_5  and  C_2 
REMARK    4  A    between atoms: N_4  and  C_8 
REMARK    5  A    between atoms: C_15  and  N_5 
REMARK    6  A    between atoms: C_16  and  C_9 
ROOT
ATOM      1  C   UNL d   1      -2.200  -3.003  -2.845  0.00  0.00     0.176 C 
ATOM      2  S   UNL d   1      -3.269  -3.443  -1.624  0.00  0.00    -0.041 SA
ENDROOT
BRANCH   1   3
ATOM      3  N   UNL d   1      -2.724  -3.024  -4.104  0.00  0.00    -0.333 N 
ATOM      4  H   UNL d   1      -3.676  -3.379  -4.074  0.00  0.00     0.168 HD
BRANCH   3   5
ATOM      5  C   UNL d   1      -2.329  -2.527  -5.364  0.00  0.00     0.035 A 
ATOM      6  C   UNL d   1      -1.162  -1.814  -5.636  0.00  0.00     0.045 A 
ATOM      7  C   UNL d   1      -0.908  -1.326  -6.944  0.00  0.00     0.050 A 
ATOM      8  C   UNL d   1      -1.853  -1.540  -7.958  0.00  0.00     0.016 A 
ATOM      9  C   UNL d   1      -3.020  -2.241  -7.691  0.00  0.00     0.003 A 
ATOM     10  C   UNL d   1      -3.248  -2.735  -6.407  0.00  0.00     0.029 A 
BRANCH   7  11
ATOM     11  C   UNL d   1       0.339  -0.538  -7.261  0.00  0.00     0.417 C 
ATOM     12  F   UNL d   1       1.342  -0.719  -6.359  0.00  0.00    -0.166 F 
ATOM     13  F   UNL d   1       0.110   0.803  -7.309  0.00  0.00    -0.166 F 
ATOM     14  F   UNL d   1       0.871  -0.866  -8.474  0.00  0.00    -0.166 F 
ENDBRANCH   7  11
ENDBRANCH   3   5
ENDBRANCH   1   3
BRANCH   1  15
ATOM     15  N   UNL d   1      -0.873  -2.731  -2.688  0.00  0.00    -0.333 N 
ATOM     16  H   UNL d   1      -0.278  -3.174  -3.377  0.00  0.00     0.168 HD
BRANCH  15  17
ATOM     17  C   UNL d   1      -0.215  -2.174  -1.564  0.00  0.00     0.034 A 
ATOM     18  C   UNL d   1       1.147  -2.421  -1.394  0.00  0.00     0.030 A 
ATOM     19  C   UNL d   1       1.881  -1.759  -0.395  0.00  0.00     0.010 A 
ATOM     20  C   UNL d   1       1.283  -0.807   0.447  0.00  0.00    -0.055 A 
ATOM     21  C   UNL d   1      -0.100  -0.614   0.299  0.00  0.00     0.010 A 
ATOM     22  C   UNL d   1      -0.838  -1.287  -0.686  0.00  0.00     0.030 A 
BRANCH  20  23
ATOM     23  C   UNL d   1       2.106   0.126   1.340  0.00  0.00     0.010 C 
ATOM     24  C   UNL d   1       1.407   0.554   2.640  0.00  0.00     0.015 C 
ATOM     25  C   UNL d   1       3.514  -0.368   1.705  0.00  0.00     0.015 C 
ENDBRANCH  20  23
ENDBRANCH  15  17
ENDBRANCH   1  15
TORSDOF 6
