REMARK  5 active torsions:
REMARK  status: ('A' for Active; 'I' for Inactive)
REMARK    1  A    between atoms: C_6  and  C_1 
REMARK       I    between atoms: N_7  and  C_6 
REMARK    2  A    between atoms: C_10  and  N_7 
REMARK    3  A    between atoms: C_11  and  C_17 
REMARK    4  A    between atoms: S_12  and  C_15 
REMARK    5  A    between atoms: C_17  and  S_12 
ROOT
ATOM      1  C   UNL d   1      -4.066  -2.364  -0.674  0.00  0.00     0.051 A 
ATOM      2  C   UNL d   1      -3.522  -2.586   0.608  0.00  0.00     0.027 A 
ATOM      3  C   UNL d   1      -4.239  -3.442  -1.559  0.00  0.00     0.031 A 
ATOM      4  C   UNL d   1      -3.041  -3.873   0.909  0.00  0.00     0.021 A 
ATOM      5  C   UNL d   1      -3.764  -4.711  -1.234  0.00  0.00     0.002 A 
ATOM      6  C   UNL d   1      -3.144  -4.921  -0.009  0.00  0.00     0.002 A 
ENDROOT
BRANCH   1   7
ATOM      7  N   UNL d   1      -4.438  -1.102  -1.184  0.00  0.00    -0.321 N 
ATOM      8  C   UNL d   1      -3.583  -0.013  -1.162  0.00  0.00     0.272 C 
ATOM      9  O   UNL d   1      -2.441  -0.025  -0.721  0.00  0.00    -0.266 OA
ATOM     10  H   UNL d   1      -5.085  -1.097  -1.960  0.00  0.00     0.169 HD
BRANCH   8  11
ATOM     11  C   UNL d   1      -4.135   1.186  -1.751  0.00  0.00     0.102 A 
ATOM     12  N   UNL d   1      -3.380   2.332  -1.842  0.00  0.00    -0.351 N 
ATOM     13  C   UNL d   1      -4.139   3.387  -2.280  0.00  0.00     0.044 A 
ATOM     14  H   UNL d   1      -2.416   2.389  -1.541  0.00  0.00     0.166 HD
ATOM     15  C   UNL d   1      -3.801   4.737  -2.398  0.00  0.00     0.037 A 
ATOM     16  C   UNL d   1      -5.401   2.886  -2.591  0.00  0.00    -0.001 A 
ATOM     17  C   UNL d   1      -4.796   5.622  -2.827  0.00  0.00    -0.059 A 
ATOM     18  C   UNL d   1      -4.528   7.099  -2.861  0.00  0.00     0.048 C 
ATOM     19  C   UNL d   1      -6.064   5.137  -3.169  0.00  0.00     0.014 A 
ATOM     20  C   UNL d   1      -6.392   3.766  -3.085  0.00  0.00    -0.049 A 
ATOM     21  C   UNL d   1      -7.784   3.331  -3.451  0.00  0.00     0.049 C 
ATOM     22  C   UNL d   1      -5.381   1.496  -2.264  0.00  0.00     0.049 A 
ENDBRANCH   8  11
ENDBRANCH   1   7
BRANCH   2  23
ATOM     23  S   UNL d   1      -3.424  -1.410   1.970  0.00  0.00    -0.123 SA
BRANCH  23  24
ATOM     24  C   UNL d   1      -5.069  -0.614   1.923  0.00  0.00     0.121 C 
BRANCH  24  25
ATOM     25  C   UNL d   1      -5.321   0.290   3.109  0.00  0.00    -0.008 A 
ATOM     26  C   UNL d   1      -6.484   0.137   3.876  0.00  0.00     0.145 A 
ATOM     27  C   UNL d   1      -6.771   1.005   4.932  0.00  0.00     0.073 A 
ATOM     28  F   UNL d   1      -7.344  -0.849   3.573  0.00  0.00    -0.204 F 
ATOM     29 CL   UNL d   1      -8.213   0.817   5.855  0.00  0.00    -0.081 Cl
ATOM     30  C   UNL d   1      -5.897   2.046   5.239  0.00  0.00     0.027 A 
ATOM     31  C   UNL d   1      -4.738   2.220   4.483  0.00  0.00     0.002 A 
ATOM     32  C   UNL d   1      -4.457   1.354   3.420  0.00  0.00     0.011 A 
ENDBRANCH  24  25
ENDBRANCH  23  24
ENDBRANCH   2  23
TORSDOF 5
