REMARK  7 active torsions:
REMARK  status: ('A' for Active; 'I' for Inactive)
REMARK    1  A    between atoms: C_8  and  C_1 
REMARK    2  A    between atoms: C_18  and  N_4 
REMARK    3  A    between atoms: S_20  and  C_5 
REMARK    4  A    between atoms: C_17  and  N_7 
REMARK    5  A    between atoms: O_16  and  C_8 
REMARK    6  A    between atoms: N_12  and  O_16 
REMARK    7  A    between atoms: C_21  and  C_17 
ROOT
ATOM      1  N   UNL d   1       3.910   6.322  -0.921  0.00  0.00     0.102 N 
ATOM      2  C   UNL d   1       4.490   5.301  -0.032  0.00  0.00     0.229 C 
ATOM      3  C   UNL d   1       2.660   6.819  -0.325  0.00  0.00     0.229 C 
ATOM      4  C   UNL d   1       2.079   4.408   0.261  0.00  0.00     0.015 C 
ATOM      5  N   UNL d   1       1.296   3.411   0.555  0.00  0.00    -0.265 N 
ATOM      6  HN  UNL d   1       1.638   2.510   0.891  1.00  0.00     0.194 HD
ATOM      7  C   UNL d   1       3.566   4.104   0.227  0.00  0.00     0.090 C 
ATOM      8  C   UNL d   1       1.571   5.751  -0.195  0.00  0.00     0.090 C 
ATOM      9  C   UNL d   1       2.957   7.539   1.009  0.00  0.00     0.036 C 
ATOM     10  C   UNL d   1       4.976   5.965   1.264  0.00  0.00     0.036 C 
ATOM     11  C   UNL d   1       3.956   6.865   1.946  0.00  0.00     0.004 C 
ENDROOT
BRANCH   5  12
ATOM     12  O   UNL d   1      -0.084   3.700   0.363  0.00  0.00    -0.195 OA
BRANCH  12  13
ATOM     13  C   UNL d   1      -0.826   2.570   0.660  0.00  0.00     0.319 C 
ATOM     14  O   UNL d   1      -0.345   1.543   1.162  0.00  0.00    -0.257 OA
BRANCH  13  15
ATOM     15  C   UNL d   1      -2.239   2.632   0.336  0.00  0.00     0.093 A 
ATOM     16  C   UNL d   1      -3.091   3.602  -0.229  0.00  0.00     0.102 A 
ATOM     17  N   UNL d   1      -4.344   3.171  -0.369  0.00  0.00    -0.287 N 
ATOM     18  N   UNL d   1      -4.357   1.933   0.183  0.00  0.00    -0.266 N 
ATOM     19  HN  UNL d   1      -5.126   3.667  -0.798  1.00  0.00     0.188 HD
ATOM     20  C   UNL d   1      -3.094   1.563   0.568  0.00  0.00     0.137 A 
BRANCH  16  21
ATOM     21  S   UNL d   1      -2.658   5.227  -0.717  0.00  0.00    -0.114 SA
ATOM     22  C   UNL d   1      -4.141   5.767  -1.607  0.00  0.00     0.097 C 
ENDBRANCH  16  21
BRANCH  18  23
ATOM     23  C   UNL d   1      -5.567   1.202   0.357  0.00  0.00     0.056 A 
ATOM     24  C   UNL d   1      -5.597   0.031   1.129  0.00  0.00     0.031 A 
ATOM     25  C   UNL d   1      -6.811  -0.620   1.368  0.00  0.00     0.002 A 
ATOM     26  C   UNL d   1      -7.993  -0.120   0.825  0.00  0.00     0.000 A 
ATOM     27  C   UNL d   1      -7.965   1.023   0.029  0.00  0.00     0.002 A 
ATOM     28  C   UNL d   1      -6.757   1.687  -0.205  0.00  0.00     0.031 A 
ENDBRANCH  18  23
ENDBRANCH  13  15
ENDBRANCH  12  13
ENDBRANCH   5  12
BRANCH   1  29
ATOM     29  C   UNL d   1       3.771   5.802  -2.298  0.00  0.00     0.312 C 
BRANCH  29  30
ATOM     30  C   UNL d   1       3.235   6.790  -3.312  0.00  0.00    -0.030 A 
ATOM     31  C   UNL d   1       3.903   7.993  -3.575  0.00  0.00     0.009 A 
ATOM     32  C   UNL d   1       3.415   8.875  -4.543  0.00  0.00     0.001 A 
ATOM     33  C   UNL d   1       2.259   8.563  -5.257  0.00  0.00     0.000 A 
ATOM     34  C   UNL d   1       1.588   7.368  -5.007  0.00  0.00     0.001 A 
ATOM     35  C   UNL d   1       2.075   6.485  -4.042  0.00  0.00     0.009 A 
ENDBRANCH  29  30
ENDBRANCH   1  29
TORSDOF 7
