REMARK  5 active torsions:
REMARK  status: ('A' for Active; 'I' for Inactive)
REMARK    1  A    between atoms: S_2  and  C_1 
REMARK    2  A    between atoms: C_12  and  S_2 
REMARK    3  A    between atoms: C_8  and  C_4 
REMARK    4  A    between atoms: C_7  and  C_17 
REMARK       I    between atoms: N_14  and  C_8 
REMARK    5  A    between atoms: C_17  and  N_14 
ROOT
ATOM      1  C   UNL d   1       0.395   1.049  -0.019  0.00  0.00     0.078 A 
ATOM      2  C   UNL d   1       0.847  -0.328  -0.113  0.00  0.00    -0.017 A 
ATOM      3  C   UNL d   1      -0.236  -1.217  -0.165  0.00  0.00     0.080 A 
ATOM      4  S   UNL d   1      -1.739  -0.367  -0.096  0.00  0.00    -0.094 SA
ATOM      5  C   UNL d   1      -0.978   1.135   0.015  0.00  0.00     0.075 A 
ATOM      6  C   UNL d   1       2.285  -0.782  -0.130  0.00  0.00     0.051 C 
ENDROOT
BRANCH   3   7
ATOM      7  C   UNL d   1      -0.254  -2.702  -0.253  0.00  0.00     0.259 C 
ATOM      8  N   UNL d   1      -1.502  -3.282  -0.402  0.00  0.00    -0.352 N 
ATOM      9  H   UNL d   1      -2.292  -2.644  -0.421  0.00  0.00     0.163 HD
ATOM     10  O   UNL d   1       0.762  -3.391  -0.195  0.00  0.00    -0.267 OA
BRANCH   8  11
ATOM     11  C   UNL d   1      -1.813  -4.713  -0.353  0.00  0.00     0.162 C 
BRANCH  11  12
ATOM     12  C   UNL d   1      -3.005  -4.824   0.554  0.00  0.00    -0.022 C 
ATOM     13  C   UNL d   1      -4.385  -5.129   0.261  0.00  0.00    -0.009 C 
ATOM     14  C   UNL d   1      -5.167  -4.309   1.080  0.00  0.00     0.015 C 
ATOM     15  C   UNL d   1      -5.078  -5.961  -0.642  0.00  0.00     0.037 C 
ATOM     16  C   UNL d   1      -6.496  -4.003   0.759  0.00  0.00     0.021 C 
ATOM     17  S   UNL d   1      -4.359  -4.041   2.573  0.00  0.00    -0.101 SA
ATOM     18  C   UNL d   1      -7.196  -5.039   0.158  0.00  0.00     0.025 C 
ATOM     19  C   UNL d   1      -6.494  -6.025  -0.518  0.00  0.00     0.035 C 
ATOM     20 CL   UNL d   1      -7.376  -7.317  -1.233  0.00  0.00    -0.084 Cl
ATOM     21  C   UNL d   1      -2.896  -4.631   1.927  0.00  0.00     0.060 C 
ENDBRANCH  11  12
ENDBRANCH   8  11
ENDBRANCH   3   7
BRANCH   1  22
ATOM     22  S   UNL d   1       1.348   2.537   0.038  0.00  0.00     0.207 S 
ATOM     23  O   UNL d   1       0.498   3.487   0.714  0.00  0.00    -0.217 OA
ATOM     24  O   UNL d   1       2.657   2.138   0.593  0.00  0.00    -0.217 OA
BRANCH  22  25
ATOM     25  C   UNL d   1       1.550   3.032  -1.638  0.00  0.00     0.064 A 
ATOM     26  C   UNL d   1       0.580   3.856  -2.236  0.00  0.00     0.025 A 
ATOM     27  C   UNL d   1       0.732   4.259  -3.565  0.00  0.00     0.025 A 
ATOM     28  C   UNL d   1       1.854   3.859  -4.290  0.00  0.00     0.034 A 
ATOM     29  C   UNL d   1       2.846   3.082  -3.689  0.00  0.00     0.025 A 
ATOM     30 CL   UNL d   1       2.013   4.325  -5.939  0.00  0.00    -0.084 Cl
ATOM     31  C   UNL d   1       2.703   2.674  -2.357  0.00  0.00     0.025 A 
ENDBRANCH  22  25
ENDBRANCH   1  22
TORSDOF 5
