REMARK  2 active torsions:
REMARK  status: ('A' for Active; 'I' for Inactive)
REMARK    1  A    between atoms: C_8  and  C_3 
REMARK    2  A    between atoms: C_10  and  C_7 
ROOT
ATOM      1  N   UNL d   1       1.566  -0.075   0.017  0.00  0.00    -0.331 N 
ATOM      2  HN  UNL d   1       2.510  -0.459  -0.004  1.00  0.00     0.168 HD
ATOM      3  C   UNL d   1       1.199   1.166   0.024  0.00  0.00     0.162 A 
ATOM      4  C   UNL d   1       0.369  -0.746   0.047  0.00  0.00     0.111 A 
ATOM      5  O   UNL d   1      -0.127   1.430   0.068  0.00  0.00    -0.256 OA
ATOM      6  C   UNL d   1      -0.764   0.226   0.083  0.00  0.00     0.316 A 
ATOM      7  C   UNL d   1       0.281  -2.081   0.020  0.00  0.00     0.047 C 
ATOM      8  O   UNL d   1      -1.964   0.049   0.118  0.00  0.00    -0.257 OA
ENDROOT
BRANCH   7   9
ATOM      9  C   UNL d   1      -0.954  -2.862   0.004  0.00  0.00    -0.034 A 
ATOM     10  C   UNL d   1      -1.525  -3.237  -1.217  0.00  0.00     0.011 A 
ATOM     11  C   UNL d   1      -2.688  -4.010  -1.240  0.00  0.00     0.001 A 
ATOM     12  C   UNL d   1      -3.282  -4.412  -0.045  0.00  0.00     0.000 A 
ATOM     13  C   UNL d   1      -2.717  -4.039   1.174  0.00  0.00     0.001 A 
ATOM     14  C   UNL d   1      -1.555  -3.264   1.200  0.00  0.00     0.011 A 
ENDBRANCH   7   9
BRANCH   3  15
ATOM     15  C   UNL d   1       2.073   2.347  -0.040  0.00  0.00     0.015 A 
ATOM     16  C   UNL d   1       3.457   2.166  -0.138  0.00  0.00     0.016 A 
ATOM     17  C   UNL d   1       4.300   3.272  -0.260  0.00  0.00     0.001 A 
ATOM     18  C   UNL d   1       3.763   4.559  -0.280  0.00  0.00     0.000 A 
ATOM     19  C   UNL d   1       2.386   4.745  -0.164  0.00  0.00     0.001 A 
ATOM     20  C   UNL d   1       1.539   3.642  -0.042  0.00  0.00     0.016 A 
ENDBRANCH   3  15
TORSDOF 2
