REMARK  3 active torsions:
REMARK  status: ('A' for Active; 'I' for Inactive)
REMARK    1  A    between atoms: C_3  and  C_1 
REMARK    2  A    between atoms: O_11  and  C_2 
REMARK    3  A    between atoms: O_10  and  C_3 
ROOT
ATOM      1  C   UNL d   1      -0.719   1.368   0.061  0.00  0.00     0.090 A 
ATOM      2  C   UNL d   1      -1.431   0.180   0.024  0.00  0.00     0.157 A 
ATOM      3  N   UNL d   1      -0.891  -1.052  -0.027  0.00  0.00    -0.344 N 
ATOM      4  HN  UNL d   1      -1.463  -1.895  -0.055  1.00  0.00     0.167 HD
ATOM      5  C   UNL d   1       0.678   1.281   0.026  0.00  0.00     0.048 A 
ATOM      6  C   UNL d   1       0.465  -1.099  -0.040  0.00  0.00     0.114 A 
ATOM      7  C   UNL d   1       1.279   0.028  -0.018  0.00  0.00     0.050 A 
ATOM      8 CL   UNL d   1       2.987  -0.122  -0.035  0.00  0.00    -0.083 Cl
ENDROOT
BRANCH   1   9
ATOM      9  C   UNL d   1      -1.353   2.702   0.126  0.00  0.00     0.180 C 
ATOM     10  O   UNL d   1      -0.740   3.717  -0.167  0.00  0.00    -0.646 OA
BRANCH   9  11
ATOM     11  O   UNL d   1      -2.616   2.721   0.592  0.00  0.00    -0.773 OA
ATOM     12  H   UNL d   1      -3.021   1.833   0.709  0.00  0.00     0.167 HD
ENDBRANCH   9  11
ENDBRANCH   1   9
BRANCH   2  13
ATOM     13  O   UNL d   1      -2.790   0.153   0.048  0.00  0.00    -0.345 OA
ATOM     14  H   UNL d   1      -2.945  -0.803  -0.096  0.00  0.00     0.219 HD
ENDBRANCH   2  13
TORSDOF 3
