REMARK  6 active torsions:
REMARK  status: ('A' for Active; 'I' for Inactive)
REMARK    1  A    between atoms: C_7  and  C_1 
REMARK    2  A    between atoms: C_9  and  N_2 
REMARK    3  A    between atoms: C_10  and  C_6 
REMARK       I    between atoms: N_8  and  C_7 
REMARK    4  A    between atoms: N_11  and  N_8 
REMARK    5  A    between atoms: C_14  and  C_9 
REMARK    6  A    between atoms: C_13  and  N_11 
ROOT
ATOM      1  C   UNL d   1      -0.311  -1.105  -0.078  0.00  0.00     0.122 C 
ATOM      2  N   UNL d   1       0.952  -0.539  -0.129  0.00  0.00    -0.282 N 
ATOM      3  N   UNL d   1       0.956   0.806   0.066  0.00  0.00    -0.301 N 
ATOM      4  HN  UNL d   1       1.765   1.422   0.145  1.00  0.00     0.187 HD
ATOM      5  C   UNL d   1      -1.136  -0.016   0.158  0.00  0.00     0.064 C 
ATOM      6  C   UNL d   1      -0.333   1.141   0.132  0.00  0.00     0.036 C 
ENDROOT
BRANCH   1   7
ATOM      7  C   UNL d   1      -0.601  -2.522  -0.275  0.00  0.00     0.284 C 
ATOM      8  N   UNL d   1      -1.897  -2.953  -0.564  0.00  0.00    -0.281 N 
ATOM      9  H   UNL d   1      -2.042  -3.955  -0.593  0.00  0.00     0.184 HD
ATOM     10  O   UNL d   1       0.264  -3.394  -0.199  0.00  0.00    -0.265 OA
BRANCH   8  11
ATOM     11  N   UNL d   1      -3.006  -2.119  -0.507  0.00  0.00    -0.203 NA
ATOM     12  H   UNL d   1      -3.146  -1.740   0.431  0.00  0.00     0.153 HD
BRANCH  11  13
ATOM     13  C   UNL d   1      -4.253  -2.566  -0.995  0.00  0.00     0.027 A 
ATOM     14  C   UNL d   1      -5.338  -1.691  -0.805  0.00  0.00     0.026 A 
ATOM     15  C   UNL d   1      -6.625  -2.014  -1.233  0.00  0.00     0.008 A 
ATOM     16  C   UNL d   1      -6.861  -3.226  -1.881  0.00  0.00    -0.062 A 
ATOM     17  C   UNL d   1      -5.781  -4.080  -2.128  0.00  0.00     0.008 A 
ATOM     18  C   UNL d   1      -8.255  -3.564  -2.320  0.00  0.00     0.048 C 
ATOM     19  C   UNL d   1      -4.481  -3.742  -1.711  0.00  0.00     0.026 A 
ENDBRANCH  11  13
ENDBRANCH   8  11
ENDBRANCH   1   7
BRANCH   2  20
ATOM     20  C   UNL d   1       2.222  -1.166  -0.481  0.00  0.00     0.188 C 
BRANCH  20  21
ATOM     21  C   UNL d   1       2.470  -1.057  -1.967  0.00  0.00    -0.038 A 
ATOM     22  C   UNL d   1       2.981   0.134  -2.509  0.00  0.00     0.009 A 
ATOM     23  C   UNL d   1       3.138   0.276  -3.887  0.00  0.00     0.001 A 
ATOM     24  C   UNL d   1       2.785  -0.769  -4.738  0.00  0.00     0.000 A 
ATOM     25  C   UNL d   1       2.283  -1.958  -4.211  0.00  0.00     0.001 A 
ATOM     26  C   UNL d   1       2.128  -2.104  -2.832  0.00  0.00     0.009 A 
ENDBRANCH  20  21
ENDBRANCH   2  20
BRANCH   6  27
ATOM     27  C   UNL d   1      -0.775   2.593   0.119  0.00  0.00    -0.007 C 
ATOM     28  C   UNL d   1      -2.316   2.720   0.126  0.00  0.00     0.021 C 
ATOM     29  C   UNL d   1      -0.230   3.340   1.349  0.00  0.00     0.021 C 
ATOM     30  C   UNL d   1      -0.262   3.275  -1.167  0.00  0.00     0.021 C 
ENDBRANCH   6  27
TORSDOF 6
