REMARK  2 active torsions:
REMARK  status: ('A' for Active; 'I' for Inactive)
REMARK    1  A    between atoms: C_6  and  C_1 
REMARK    2  A    between atoms: O_14  and  C_1 
ROOT
ATOM      1  C   UNL d   1      -1.221   0.021  -0.073  0.00  0.00     0.233 C 
ATOM      2  C   UNL d   1       1.004   0.640   0.003  0.00  0.00     0.059 C 
ATOM      3  N   UNL d   1       1.017  -0.658   0.107  0.00  0.00    -0.320 N 
ATOM      4  HN  UNL d   1       1.833  -1.268   0.056  1.00  0.00     0.180 HD
ATOM      5  C   UNL d   1      -0.360   1.268   0.105  0.00  0.00     0.127 C 
ATOM      6  N   UNL d   1      -0.274  -1.037   0.295  0.00  0.00    -0.198 NA
ATOM      7  C   UNL d   1       2.178   1.458  -0.164  0.00  0.00     0.097 A 
ATOM      8  N   UNL d   1       2.125   2.775  -0.153  0.00  0.00    -0.358 N 
ATOM      9  HN  UNL d   1       1.277   3.330  -0.041  1.00  0.00     0.166 HD
ATOM     10  S   UNL d   1       3.734   0.776  -0.400  0.00  0.00    -0.081 SA
ATOM     11  C   UNL d   1       3.399   3.285  -0.317  0.00  0.00     0.096 A 
ATOM     12  C   UNL d   1       4.398   2.354  -0.472  0.00  0.00     0.069 A 
ATOM     13  H   UNL d   1      -0.494  -1.891  -0.219  0.00  0.00     0.150 HD
ENDROOT
BRANCH   1  14
ATOM     14  C   UNL d   1      -2.531   0.073   0.769  0.00  0.00     0.434 C 
ATOM     15  F   UNL d   1      -2.424   0.829   1.883  0.00  0.00    -0.166 F 
ATOM     16  F   UNL d   1      -3.525   0.616   0.013  0.00  0.00    -0.166 F 
ATOM     17  F   UNL d   1      -2.954  -1.157   1.139  0.00  0.00    -0.166 F 
ENDBRANCH   1  14
BRANCH   1  18
ATOM     18  O   UNL d   1      -1.513  -0.114  -1.478  0.00  0.00    -0.366 OA
ATOM     19  H   UNL d   1      -2.364   0.338  -1.640  0.00  0.00     0.212 HD
ENDBRANCH   1  18
TORSDOF 2
