REMARK  8 active torsions:
REMARK  status: ('A' for Active; 'I' for Inactive)
REMARK    1  A    between atoms: C_17  and  N_1 
REMARK    2  A    between atoms: C_14  and  C_2 
REMARK    3  A    between atoms: S_10  and  C_5 
REMARK       I    between atoms: C_8  and  N_11 
REMARK       I    between atoms: N_12  and  C_8 
REMARK    4  A    between atoms: C_9  and  C_18 
REMARK       I    between atoms: N_13  and  C_9 
REMARK    5  A    between atoms: C_18  and  S_10 
REMARK    6  A    between atoms: N_11  and  N_13 
REMARK    7  A    between atoms: C_21  and  N_12 
REMARK    8  A    between atoms: C_19  and  C_17 
ROOT
ATOM      1  C   UNL d   1      -3.528  -1.715  -0.078  0.00  0.00     0.186 C 
ENDROOT
BRANCH   1   2
ATOM      2  C   UNL d   1      -5.051  -1.726  -0.087  0.00  0.00     0.245 C 
ATOM      3  N   UNL d   1      -5.631  -0.851  -0.981  0.00  0.00    -0.265 N 
ATOM      4  H   UNL d   1      -5.085  -0.320  -1.661  0.00  0.00     0.190 HD
ATOM      5  O   UNL d   1      -5.709  -2.491   0.620  0.00  0.00    -0.271 OA
BRANCH   3   6
ATOM      6  N   UNL d   1      -7.005  -0.967  -1.252  0.00  0.00    -0.249 N 
ATOM      7  C   UNL d   1      -7.472  -0.311  -2.383  0.00  0.00     0.339 C 
ATOM      8  N   UNL d   1      -8.842  -0.401  -2.508  0.00  0.00    -0.308 N 
ATOM      9  O   UNL d   1      -6.689   0.246  -3.146  0.00  0.00    -0.245 OA
ATOM     10  H   UNL d   1      -9.317  -0.969  -1.823  0.00  0.00     0.170 HD
ATOM     11  H   UNL d   1      -7.599  -1.125  -0.445  0.00  0.00     0.192 HD
BRANCH   8  12
ATOM     12  C   UNL d   1      -9.649   0.199  -3.499  0.00  0.00     0.036 A 
ATOM     13  C   UNL d   1      -9.147   0.977  -4.543  0.00  0.00     0.030 A 
ATOM     14  C   UNL d   1     -10.011   1.587  -5.459  0.00  0.00     0.009 A 
ATOM     15  C   UNL d   1     -11.395   1.431  -5.350  0.00  0.00    -0.062 A 
ATOM     16  C   UNL d   1     -11.902   0.634  -4.320  0.00  0.00     0.009 A 
ATOM     17  C   UNL d   1     -12.304   2.147  -6.303  0.00  0.00     0.048 C 
ATOM     18  C   UNL d   1     -11.036   0.018  -3.406  0.00  0.00     0.030 A 
ENDBRANCH   8  12
ENDBRANCH   3   6
ENDBRANCH   1   2
BRANCH   1  19
ATOM     19  S   UNL d   1      -2.910  -0.069   0.378  0.00  0.00    -0.083 SA
BRANCH  19  20
ATOM     20  C   UNL d   1      -1.205  -0.361   0.392  0.00  0.00     0.163 A 
ATOM     21  N   UNL d   1      -0.341   0.168   1.318  0.00  0.00    -0.307 N 
ATOM     22  C   UNL d   1       0.919  -0.288   0.970  0.00  0.00     0.135 A 
ATOM     23  N   UNL d   1       0.786  -1.031  -0.120  0.00  0.00    -0.283 N 
ATOM     24  N   UNL d   1      -0.542  -1.091  -0.469  0.00  0.00    -0.278 N 
ATOM     25  HN  UNL d   1       1.549  -1.486  -0.622  1.00  0.00     0.188 HD
ATOM     26  HN  UNL d   1      -0.938  -1.609  -1.253  1.00  0.00     0.189 HD
BRANCH  21  27
ATOM     27  C   UNL d   1      -0.696   1.070   2.400  0.00  0.00     0.159 C 
BRANCH  27  28
ATOM     28  C   UNL d   1      -1.132   0.392   3.675  0.00  0.00    -0.017 C 
ATOM     29  C   UNL d   1      -1.157  -0.922   3.947  0.00  0.00     0.008 C 
ENDBRANCH  27  28
ENDBRANCH  21  27
BRANCH  22  30
ATOM     30  C   UNL d   1       2.205   0.002   1.625  0.00  0.00     0.009 A 
ATOM     31  C   UNL d   1       2.355   0.104   3.015  0.00  0.00     0.015 A 
ATOM     32  C   UNL d   1       3.599   0.378   3.593  0.00  0.00     0.001 A 
ATOM     33  C   UNL d   1       4.725   0.527   2.790  0.00  0.00     0.000 A 
ATOM     34  C   UNL d   1       4.606   0.396   1.410  0.00  0.00     0.001 A 
ATOM     35  C   UNL d   1       3.358   0.134   0.835  0.00  0.00     0.015 A 
ENDBRANCH  22  30
ENDBRANCH  19  20
ENDBRANCH   1  19
TORSDOF 8
