REMARK  6 active torsions:
REMARK  status: ('A' for Active; 'I' for Inactive)
REMARK       I    between atoms: N_6  and  C_1 
REMARK       I    between atoms: N_7  and  C_1 
REMARK    1  A    between atoms: N_2  and  N_7 
REMARK    2  A    between atoms: N_4  and  N_6 
REMARK    3  A    between atoms: C_14  and  C_9 
REMARK    4  A    between atoms: C_13  and  C_10 
REMARK    5  A    between atoms: O_17  and  C_15 
REMARK    6  A    between atoms: O_18  and  C_16 
ROOT
ATOM      1  C   UNL d   1       0.974  -0.164  -0.043  0.00  0.00     0.353 C 
ATOM      2  N   UNL d   1       0.296  -0.237  -1.264  0.00  0.00    -0.251 N 
ATOM      3  N   UNL d   1       0.084  -0.067   1.026  0.00  0.00    -0.251 N 
ATOM      4  O   UNL d   1       2.198  -0.187   0.072  0.00  0.00    -0.244 OA
ATOM      5  H   UNL d   1      -0.708  -0.142  -1.301  0.00  0.00     0.191 HD
ATOM      6  H   UNL d   1      -0.911  -0.062   0.863  0.00  0.00     0.191 HD
ENDROOT
BRANCH   2   7
ATOM      7  N   UNL d   1       1.006  -0.313  -2.425  0.00  0.00    -0.307 N 
ATOM      8  C   UNL d   1       0.327  -0.357  -3.525  0.00  0.00     0.118 C 
ATOM      9  HN  UNL d   1       2.026  -0.335  -2.426  1.00  0.00     0.186 HD
BRANCH   8  10
ATOM     10  C   UNL d   1       1.013  -0.417  -4.835  0.00  0.00    -0.017 A 
ATOM     11  C   UNL d   1       2.411  -0.422  -4.896  0.00  0.00     0.049 A 
ATOM     12  C   UNL d   1       3.037  -0.459  -6.136  0.00  0.00     0.066 A 
ATOM     13  C   UNL d   1       2.292  -0.491  -7.311  0.00  0.00     0.036 A 
ATOM     14  C   UNL d   1       0.898  -0.489  -7.248  0.00  0.00     0.004 A 
ATOM     15  C   UNL d   1       0.253  -0.453  -6.009  0.00  0.00     0.013 A 
BRANCH  12  16
ATOM     16  O   UNL d   1       4.396  -0.461  -6.244  0.00  0.00    -0.361 OA
ATOM     17  H   UNL d   1       4.777  -0.422  -5.349  0.00  0.00     0.217 HD
ENDBRANCH  12  16
ENDBRANCH   8  10
ENDBRANCH   2   7
BRANCH   3  18
ATOM     18  N   UNL d   1       0.551   0.020   2.306  0.00  0.00    -0.307 N 
ATOM     19  C   UNL d   1      -0.351   0.081   3.233  0.00  0.00     0.118 C 
ATOM     20  HN  UNL d   1       1.548   0.035   2.519  1.00  0.00     0.186 HD
BRANCH  19  21
ATOM     21  C   UNL d   1       0.009   0.174   4.662  0.00  0.00    -0.017 A 
ATOM     22  C   UNL d   1       1.350   0.207   5.056  0.00  0.00     0.049 A 
ATOM     23  C   UNL d   1       1.655   0.262   6.412  0.00  0.00     0.066 A 
ATOM     24  C   UNL d   1       0.648   0.284   7.372  0.00  0.00     0.036 A 
ATOM     25  C   UNL d   1      -0.689   0.264   6.975  0.00  0.00     0.004 A 
ATOM     26  C   UNL d   1      -1.013   0.211   5.617  0.00  0.00     0.013 A 
BRANCH  23  27
ATOM     27  O   UNL d   1       2.948   0.291   6.845  0.00  0.00    -0.361 OA
ATOM     28  H   UNL d   1       3.534   0.273   6.069  0.00  0.00     0.217 HD
ENDBRANCH  23  27
ENDBRANCH  19  21
ENDBRANCH   3  18
TORSDOF 6
