REMARK  5 active torsions:
REMARK  status: ('A' for Active; 'I' for Inactive)
REMARK    1  A    between atoms: C_4  and  C_1 
REMARK    2  A    between atoms: N_11  and  C_1 
REMARK    3  A    between atoms: O_6  and  N_2 
REMARK    4  A    between atoms: C_5  and  O_6 
REMARK    5  A    between atoms: C_8  and  C_5 
ROOT
ATOM      1  C   UNL d   1       0.900  -0.230  -0.046  0.00  0.00     0.090 C 
ATOM      2  N   UNL d   1       0.212  -1.313  -0.245  0.00  0.00    -0.249 N 
ATOM      3  HN  UNL d   1      -0.729  -1.468   0.116  1.00  0.00     0.196 HD
ENDROOT
BRANCH   2   4
ATOM      4  O   UNL d   1       0.925  -2.245  -1.019  0.00  0.00    -0.194 OA
BRANCH   4   5
ATOM      5  C   UNL d   1       0.287  -3.449  -0.969  0.00  0.00     0.315 C 
ATOM      6  O   UNL d   1      -0.272  -3.946  -0.003  0.00  0.00    -0.257 OA
BRANCH   5   7
ATOM      7  C   UNL d   1       0.303  -4.083  -2.315  0.00  0.00     0.041 A 
ATOM      8  C   UNL d   1      -0.405  -5.285  -2.479  0.00  0.00     0.019 A 
ATOM      9  C   UNL d   1      -0.517  -5.872  -3.742  0.00  0.00     0.025 A 
ATOM     10  C   UNL d   1       0.084  -5.268  -4.843  0.00  0.00     0.034 A 
ATOM     11  C   UNL d   1       0.806  -4.083  -4.691  0.00  0.00     0.025 A 
ATOM     12 CL   UNL d   1      -0.084  -5.969  -6.403  0.00  0.00    -0.084 Cl
ATOM     13  C   UNL d   1       0.916  -3.491  -3.428  0.00  0.00     0.019 A 
ENDBRANCH   5   7
ENDBRANCH   4   5
ENDBRANCH   2   4
BRANCH   1  14
ATOM     14  C   UNL d   1       0.193   0.966   0.630  0.00  0.00     0.119 C 
ATOM     15  S   UNL d   1       1.394   1.963   1.611  0.00  0.00    -0.155 SA
ATOM     16  C   UNL d   1       1.632   0.835   3.020  0.00  0.00     0.084 C 
ATOM     17  C   UNL d   1       0.354   0.586   3.808  0.00  0.00     0.084 C 
ATOM     18  S   UNL d   1      -0.863  -0.416   2.907  0.00  0.00    -0.167 SA
ATOM     19  C   UNL d   1      -1.078   0.621   1.415  0.00  0.00     0.096 C 
ENDBRANCH   1  14
BRANCH   1  20
ATOM     20  N   UNL d   1       2.208  -0.070  -0.459  0.00  0.00    -0.290 NA
ATOM     21  H   UNL d   1       2.713  -0.946  -0.524  0.00  0.00     0.125 HD
ATOM     22  H   UNL d   1       2.719   0.653   0.045  0.00  0.00     0.125 HD
ENDBRANCH   1  20
TORSDOF 5
