REMARK  4 active torsions:
REMARK  status: ('A' for Active; 'I' for Inactive)
REMARK    1  A    between atoms: C_7  and  C_1 
REMARK    2  A    between atoms: C_9  and  C_6 
REMARK    3  A    between atoms: S_8  and  C_7 
REMARK    4  A    between atoms: C_11  and  S_8 
ROOT
ATOM      1  C   UNL d   1       0.123  -1.195   0.178  0.00  0.00     0.109 C 
ATOM      2  N   UNL d   1      -0.704  -0.119  -0.061  0.00  0.00    -0.292 N 
ATOM      3  C   UNL d   1       1.368  -0.607   0.393  0.00  0.00     0.063 C 
ATOM      4  N   UNL d   1      -0.052   1.053  -0.178  0.00  0.00    -0.302 N 
ATOM      5  HN  UNL d   1      -0.446   1.958  -0.435  1.00  0.00     0.186 HD
ATOM      6  C   UNL d   1       1.221   0.777   0.115  0.00  0.00     0.036 C 
ATOM      7  C   UNL d   1      -2.144  -0.060  -0.168  0.00  0.00     0.178 C 
ENDROOT
BRANCH   1   8
ATOM      8  C   UNL d   1      -0.300  -2.586   0.178  0.00  0.00     0.241 C 
ATOM      9  O   UNL d   1      -1.439  -2.959  -0.096  0.00  0.00    -0.278 OA
BRANCH   8  10
ATOM     10  S   UNL d   1       0.929  -3.749   0.659  0.00  0.00    -0.046 SA
BRANCH  10  11
ATOM     11  C   UNL d   1       0.766  -5.184  -0.402  0.00  0.00     0.008 A 
ATOM     12  C   UNL d   1      -0.139  -5.334  -1.459  0.00  0.00     0.021 A 
ATOM     13  C   UNL d   1      -0.104  -6.471  -2.283  0.00  0.00     0.025 A 
ATOM     14  C   UNL d   1       0.838  -7.469  -2.058  0.00  0.00     0.034 A 
ATOM     15  C   UNL d   1       1.721  -7.362  -0.992  0.00  0.00     0.025 A 
ATOM     16 CL   UNL d   1       0.925  -8.826  -3.112  0.00  0.00    -0.084 Cl
ATOM     17  C   UNL d   1       1.679  -6.229  -0.168  0.00  0.00     0.021 A 
ENDBRANCH  10  11
ENDBRANCH   8  10
ENDBRANCH   1   8
BRANCH   6  18
ATOM     18  C   UNL d   1       2.283   1.869   0.041  0.00  0.00    -0.007 C 
ATOM     19  C   UNL d   1       2.949   1.838  -1.349  0.00  0.00     0.021 C 
ATOM     20  C   UNL d   1       1.677   3.277   0.249  0.00  0.00     0.021 C 
ATOM     21  C   UNL d   1       3.371   1.672   1.114  0.00  0.00     0.021 C 
ENDBRANCH   6  18
TORSDOF 4
