REMARK  6 active torsions:
REMARK  status: ('A' for Active; 'I' for Inactive)
REMARK    1  A    between atoms: N_2  and  C_1 
REMARK    2  A    between atoms: C_3  and  C_1 
REMARK    3  A    between atoms: C_4  and  C_1 
REMARK    4  A    between atoms: N_5  and  C_1 
REMARK       I    between atoms: C_6  and  N_2 
REMARK    5  A    between atoms: C_7  and  N_5 
REMARK    6  A    between atoms: C_8  and  C_6 
ROOT
ATOM      1  C   UNL d   1       1.042   0.047   0.005  0.00  0.00     0.291 C 
ENDROOT
BRANCH   1   2
ATOM      2  N   UNL d   1       0.582   1.454  -0.096  0.00  0.00    -0.320 N 
ATOM      3  C   UNL d   1       0.407   2.142  -1.262  0.00  0.00     0.255 C 
ATOM      4  O   UNL d   1       0.607   1.634  -2.356  0.00  0.00    -0.268 OA
ATOM      5  H   UNL d   1       0.823   1.972   0.743  0.00  0.00     0.165 HD
BRANCH   3   6
ATOM      6  C   UNL d   1      -0.072   3.546  -1.149  0.00  0.00     0.047 A 
ATOM      7  C   UNL d   1      -0.443   4.208  -2.314  0.00  0.00     0.104 A 
ATOM      8  N   UNL d   1      -0.963   5.463  -2.346  0.00  0.00    -0.374 N 
ATOM      9  C   UNL d   1      -1.121   6.085  -1.159  0.00  0.00     0.087 A 
ATOM     10  HN  UNL d   1      -1.220   5.912  -3.224  1.00  0.00     0.164 HD
ATOM     11  C   UNL d   1      -0.771   5.519   0.055  0.00  0.00     0.018 A 
ATOM     12  C   UNL d   1      -0.238   4.229   0.061  0.00  0.00     0.020 A 
ENDBRANCH   3   6
ENDBRANCH   1   2
BRANCH   1  13
ATOM     13  C   UNL d   1       0.404  -0.953  -1.015  0.00  0.00     0.435 C 
ATOM     14  F   UNL d   1      -0.907  -0.693  -1.239  0.00  0.00    -0.167 F 
ATOM     15  F   UNL d   1       1.035  -0.916  -2.218  0.00  0.00    -0.167 F 
ATOM     16  F   UNL d   1       0.490  -2.242  -0.602  0.00  0.00    -0.167 F 
ENDBRANCH   1  13
BRANCH   1  17
ATOM     17  C   UNL d   1       0.585  -0.556   1.375  0.00  0.00     0.435 C 
ATOM     18  F   UNL d   1       0.539   0.388   2.356  0.00  0.00    -0.167 F 
ATOM     19  F   UNL d   1      -0.673  -1.063   1.325  0.00  0.00    -0.167 F 
ATOM     20  F   UNL d   1       1.396  -1.546   1.816  0.00  0.00    -0.167 F 
ENDBRANCH   1  17
BRANCH   1  21
ATOM     21  N   UNL d   1       2.521   0.096  -0.206  0.00  0.00    -0.237 NA
ATOM     22  H   UNL d   1       2.724   0.316  -1.181  0.00  0.00     0.132 HD
BRANCH  21  23
ATOM     23  C   UNL d   1       3.325   0.847   0.641  0.00  0.00     0.082 A 
ATOM     24  N   UNL d   1       2.761   1.561   1.637  0.00  0.00    -0.351 N 
ATOM     25  C   UNL d   1       3.569   2.259   2.470  0.00  0.00     0.006 A 
ATOM     26  HN  UNL d   1       1.748   1.574   1.760  1.00  0.00     0.167 HD
ATOM     27  C   UNL d   1       2.910   3.028   3.575  0.00  0.00     0.068 C 
ATOM     28  C   UNL d   1       4.952   2.281   2.336  0.00  0.00     0.024 A 
ATOM     29  C   UNL d   1       5.525   1.547   1.305  0.00  0.00     0.005 A 
ATOM     30  C   UNL d   1       4.702   0.822   0.452  0.00  0.00     0.042 A 
ENDBRANCH  21  23
ENDBRANCH   1  21
TORSDOF 6
