REMARK  5 active torsions:
REMARK  status: ('A' for Active; 'I' for Inactive)
REMARK    1  A    between atoms: C_10  and  C_3 
REMARK    2  A    between atoms: C_12  and  N_5 
REMARK    3  A    between atoms: O_16  and  C_10 
REMARK    4  A    between atoms: C_15  and  C_12 
REMARK    5  A    between atoms: C_24  and  O_16 
ROOT
ATOM      1  N   UNL d   1      -0.308  -0.626   0.033  0.00  0.00    -0.203 N 
ATOM      2  C   UNL d   1      -0.254   0.759   0.032  0.00  0.00     0.135 A 
ATOM      3  C   UNL d   1       2.108  -0.778   0.081  0.00  0.00     0.124 A 
ATOM      4  C   UNL d   1       0.799  -1.489   0.035  0.00  0.00     0.285 A 
ATOM      5  N   UNL d   1       0.970   1.372   0.035  0.00  0.00    -0.336 N 
ATOM      6  C   UNL d   1       2.108   0.569   0.068  0.00  0.00     0.116 A 
ATOM      7  N   UNL d   1      -1.586  -1.090   0.004  0.00  0.00    -0.294 N 
ATOM      8  HN  UNL d   1      -1.898  -2.061  -0.016  1.00  0.00     0.187 HD
ATOM      9  C   UNL d   1      -1.559   1.190   0.018  0.00  0.00     0.076 A 
ATOM     10  C   UNL d   1      -2.341   0.012   0.006  0.00  0.00     0.026 A 
ATOM     11  O   UNL d   1       0.646  -2.698  -0.033  0.00  0.00    -0.265 OA
ATOM     12  C   UNL d   1      -3.819  -0.093  -0.008  0.00  0.00     0.070 C 
ENDROOT
BRANCH   5  13
ATOM     13  C   UNL d   1       1.044   2.847  -0.014  0.00  0.00     0.168 C 
BRANCH  13  14
ATOM     14  C   UNL d   1       0.889   3.454   1.365  0.00  0.00    -0.040 A 
ATOM     15  C   UNL d   1       1.873   3.251   2.348  0.00  0.00     0.012 A 
ATOM     16  C   UNL d   1       1.697   3.744   3.641  0.00  0.00     0.043 A 
ATOM     17  C   UNL d   1       0.543   4.452   3.952  0.00  0.00     0.116 A 
ATOM     18  C   UNL d   1      -0.426   4.699   2.988  0.00  0.00     0.043 A 
ATOM     19  F   UNL d   1       0.361   4.900   5.201  0.00  0.00    -0.206 F 
ATOM     20  C   UNL d   1      -0.252   4.207   1.694  0.00  0.00     0.012 A 
ENDBRANCH  13  14
ENDBRANCH   5  13
BRANCH   3  21
ATOM     21  C   UNL d   1       3.407  -1.475   0.043  0.00  0.00     0.300 C 
ATOM     22  O   UNL d   1       4.456  -0.936  -0.281  0.00  0.00    -0.259 OA
BRANCH  21  23
ATOM     23  O   UNL d   1       3.256  -2.782   0.350  0.00  0.00    -0.318 OA
BRANCH  23  24
ATOM     24  C   UNL d   1       4.270  -3.674  -0.132  0.00  0.00     0.174 C 
ATOM     25  C   UNL d   1       3.897  -4.095  -1.543  0.00  0.00     0.034 C 
ENDBRANCH  23  24
ENDBRANCH  21  23
ENDBRANCH   3  21
TORSDOF 5
