REMARK  6 active torsions:
REMARK  status: ('A' for Active; 'I' for Inactive)
REMARK    1  A    between atoms: S_2  and  C_1 
REMARK    2  A    between atoms: N_14  and  S_2 
REMARK    3  A    between atoms: C_18  and  N_4 
REMARK    4  A    between atoms: C_5  and  C_15 
REMARK    5  A    between atoms: C_19  and  C_10 
REMARK    6  A    between atoms: C_15  and  N_14 
ROOT
ATOM      1  S   UNL d   1      -0.930   2.834  -0.132  0.00  0.00     0.262 S 
ATOM      2  O   UNL d   1      -0.969   1.394  -0.166  0.00  0.00    -0.200 OA
ATOM      3  O   UNL d   1      -0.268   3.625  -1.142  0.00  0.00    -0.200 OA
ENDROOT
BRANCH   1   4
ATOM      4  C   UNL d   1      -2.571   3.313  -0.251  0.00  0.00     0.120 C 
ATOM      5  C   UNL d   1      -3.109   4.588  -0.311  0.00  0.00     0.055 C 
ATOM      6  N   UNL d   1      -4.489   4.404  -0.389  0.00  0.00    -0.260 N 
ATOM      7  C   UNL d   1      -2.419   5.903  -0.252  0.00  0.00     0.072 C 
ATOM      8  N   UNL d   1      -4.816   3.096  -0.183  0.00  0.00    -0.303 N 
ATOM      9  C   UNL d   1      -3.659   2.443  -0.219  0.00  0.00     0.135 C 
ATOM     10  HN  UNL d   1      -5.746   2.704  -0.033  1.00  0.00     0.186 HD
BRANCH   6  11
ATOM     11  C   UNL d   1      -5.525   5.351  -0.620  0.00  0.00     0.056 A 
ATOM     12  C   UNL d   1      -5.294   6.540  -1.320  0.00  0.00     0.031 A 
ATOM     13  C   UNL d   1      -6.339   7.443  -1.538  0.00  0.00     0.002 A 
ATOM     14  C   UNL d   1      -7.617   7.165  -1.060  0.00  0.00     0.000 A 
ATOM     15  C   UNL d   1      -7.861   5.974  -0.379  0.00  0.00     0.002 A 
ATOM     16  C   UNL d   1      -6.824   5.062  -0.171  0.00  0.00     0.031 A 
ENDBRANCH   6  11
ENDBRANCH   1   4
BRANCH   1  17
ATOM     17  N   UNL d   1      -0.351   3.362   1.352  0.00  0.00    -0.311 N 
ATOM     18  H   UNL d   1      -0.088   4.345   1.333  0.00  0.00     0.172 HD
BRANCH  17  19
ATOM     19  C   UNL d   1      -0.982   2.882   2.578  0.00  0.00     0.176 C 
BRANCH  19  20
ATOM     20  C   UNL d   1      -0.553   1.501   2.888  0.00  0.00     0.021 A 
ATOM     21  C   UNL d   1       0.767   0.977   3.078  0.00  0.00     0.075 A 
ATOM     22  N   UNL d   1       0.716  -0.346   3.304  0.00  0.00    -0.260 N 
ATOM     23  O   UNL d   1      -0.613  -0.699   3.275  0.00  0.00    -0.242 OA
ATOM     24  HN  UNL d   1       1.508  -0.968   3.465  1.00  0.00     0.195 HD
ATOM     25  C   UNL d   1      -1.370   0.398   3.034  0.00  0.00     0.083 A 
ATOM     26  C   UNL d   1      -2.828   0.181   2.973  0.00  0.00     0.079 C 
BRANCH  21  27
ATOM     27  C   UNL d   1       2.056   1.670   3.045  0.00  0.00    -0.007 A 
ATOM     28  C   UNL d   1       3.152   1.081   2.397  0.00  0.00     0.014 A 
ATOM     29  C   UNL d   1       4.392   1.724   2.368  0.00  0.00     0.001 A 
ATOM     30  C   UNL d   1       4.549   2.964   2.985  0.00  0.00     0.000 A 
ATOM     31  C   UNL d   1       3.471   3.557   3.637  0.00  0.00     0.001 A 
ATOM     32  C   UNL d   1       2.232   2.910   3.674  0.00  0.00     0.014 A 
ENDBRANCH  21  27
ENDBRANCH  19  20
ENDBRANCH  17  19
ENDBRANCH   1  17
TORSDOF 6
