REMARK  4 active torsions:
REMARK  status: ('A' for Active; 'I' for Inactive)
REMARK    1  A    between atoms: C_5  and  C_1 
REMARK    2  A    between atoms: C_7  and  C_2 
REMARK       I    between atoms: N_9  and  C_7 
REMARK    3  A    between atoms: N_10  and  N_9 
REMARK    4  A    between atoms: C_11  and  N_10 
ROOT
ATOM      1  C   UNL d   1      -1.414  -0.671   0.159  0.00  0.00     0.088 A 
ATOM      2  C   UNL d   1      -0.125  -1.307   0.130  0.00  0.00     0.094 A 
ATOM      3  N   UNL d   1      -1.262   0.657   0.020  0.00  0.00    -0.259 N 
ATOM      4  HN  UNL d   1      -2.010   1.350  -0.027  1.00  0.00     0.195 HD
ATOM      5  O   UNL d   1       0.082   0.907  -0.046  0.00  0.00    -0.241 OA
ATOM      6  C   UNL d   1       0.765  -0.259   0.010  0.00  0.00     0.090 A 
ATOM      7  C   UNL d   1       2.235  -0.132  -0.050  0.00  0.00     0.080 C 
ENDROOT
BRANCH   2   8
ATOM      8  C   UNL d   1       0.268  -2.700   0.154  0.00  0.00     0.271 C 
ATOM      9  N   UNL d   1      -0.390  -3.484   1.088  0.00  0.00    -0.282 N 
ATOM     10  H   UNL d   1      -0.858  -3.057   1.885  0.00  0.00     0.184 HD
ATOM     11  O   UNL d   1       1.139  -3.138  -0.596  0.00  0.00    -0.266 OA
BRANCH   9  12
ATOM     12  N   UNL d   1       0.063  -4.807   1.238  0.00  0.00    -0.200 NA
ATOM     13  H   UNL d   1       0.021  -5.330   0.359  0.00  0.00     0.153 HD
BRANCH  12  14
ATOM     14  C   UNL d   1      -0.405  -5.513   2.368  0.00  0.00     0.066 A 
ATOM     15  C   UNL d   1      -0.689  -4.904   3.600  0.00  0.00     0.139 A 
ATOM     16  F   UNL d   1      -0.639  -3.566   3.717  0.00  0.00    -0.204 F 
ATOM     17  C   UNL d   1      -1.028  -5.645   4.730  0.00  0.00     0.044 A 
ATOM     18  C   UNL d   1      -1.082  -7.035   4.652  0.00  0.00     0.003 A 
ATOM     19  C   UNL d   1      -0.790  -7.670   3.447  0.00  0.00     0.002 A 
ATOM     20  C   UNL d   1      -0.438  -6.917   2.321  0.00  0.00     0.028 A 
ENDBRANCH  12  14
ENDBRANCH   9  12
ENDBRANCH   2   8
BRANCH   1  21
ATOM     21  C   UNL d   1      -2.768  -1.238   0.228  0.00  0.00     0.054 A 
ATOM     22  C   UNL d   1      -3.822  -0.623   0.936  0.00  0.00     0.049 A 
ATOM     23 CL   UNL d   1      -3.626   0.794   1.916  0.00  0.00    -0.083 Cl
ATOM     24  C   UNL d   1      -5.119  -1.165   0.914  0.00  0.00     0.025 A 
ATOM     25  C   UNL d   1      -5.384  -2.340   0.219  0.00  0.00     0.005 A 
ATOM     26  C   UNL d   1      -4.355  -2.971  -0.468  0.00  0.00     0.043 A 
ATOM     27  C   UNL d   1      -3.075  -2.413  -0.475  0.00  0.00     0.130 A 
ATOM     28  F   UNL d   1      -2.141  -3.039  -1.204  0.00  0.00    -0.205 F 
ENDBRANCH   1  21
TORSDOF 4
