REMARK  5 active torsions:
REMARK  status: ('A' for Active; 'I' for Inactive)
REMARK    1  A    between atoms: C_12  and  C_2 
REMARK    2  A    between atoms: C_13  and  C_10 
REMARK    3  A    between atoms: C_14  and  C_11 
REMARK    4  A    between atoms: O_25  and  C_18 
REMARK    5  A    between atoms: O_26  and  C_19 
ROOT
ATOM      1  N   UNL d   1       0.295   0.638   0.037  0.00  0.00    -0.235 N 
ATOM      2  C   UNL d   1      -0.829   1.452   0.047  0.00  0.00     0.144 A 
ATOM      3  C   UNL d   1       0.160  -0.758   0.003  0.00  0.00     0.130 A 
ATOM      4  N   UNL d   1       1.599   0.993   0.047  0.00  0.00    -0.296 N 
ATOM      5  HN  UNL d   1       1.983   1.937   0.080  1.00  0.00     0.187 HD
ATOM      6  N   UNL d   1      -1.059  -1.377   0.022  0.00  0.00    -0.340 N 
ATOM      7  HN  UNL d   1      -1.142  -2.393  -0.003  1.00  0.00     0.167 HD
ATOM      8  C   UNL d   1      -2.054   0.888   0.050  0.00  0.00     0.067 A 
ATOM      9  C   UNL d   1       1.435  -1.273  -0.035  0.00  0.00     0.077 A 
ATOM     10  C   UNL d   1       2.273  -0.153   0.004  0.00  0.00     0.034 A 
ATOM     11  C   UNL d   1      -2.109  -0.609   0.074  0.00  0.00     0.046 A 
ENDROOT
BRANCH  11  12
ATOM     12  C   UNL d   1      -3.463  -1.237   0.154  0.00  0.00    -0.006 A 
ATOM     13  C   UNL d   1      -3.656  -2.504  -0.418  0.00  0.00     0.053 A 
ATOM     14  C   UNL d   1      -4.896  -3.161  -0.340  0.00  0.00     0.102 A 
ATOM     15  C   UNL d   1      -5.962  -2.522   0.320  0.00  0.00     0.101 A 
ATOM     16  C   UNL d   1      -5.755  -1.261   0.899  0.00  0.00     0.040 A 
ATOM     17  C   UNL d   1      -4.518  -0.623   0.830  0.00  0.00     0.016 A 
BRANCH  14  18
ATOM     18  O   UNL d   1      -5.116  -4.403  -0.872  0.00  0.00    -0.353 OA
ATOM     19  C   UNL d   1      -4.043  -5.064  -1.530  0.00  0.00     0.210 C 
ENDBRANCH  14  18
BRANCH  15  20
ATOM     20  O   UNL d   1      -7.247  -2.959   0.504  0.00  0.00    -0.353 OA
ATOM     21  C   UNL d   1      -7.623  -4.233   0.007  0.00  0.00     0.210 C 
ENDBRANCH  15  20
ENDBRANCH  11  12
BRANCH   2  22
ATOM     22  C   UNL d   1      -0.654   2.925   0.035  0.00  0.00     0.434 C 
ATOM     23  F   UNL d   1       0.612   3.397  -0.023  0.00  0.00    -0.165 F 
ATOM     24  F   UNL d   1      -1.312   3.474  -1.024  0.00  0.00    -0.165 F 
ATOM     25  F   UNL d   1      -1.220   3.480   1.143  0.00  0.00    -0.165 F 
ENDBRANCH   2  22
BRANCH  10  26
ATOM     26  C   UNL d   1       3.791  -0.225   0.004  0.00  0.00     0.037 A 
ATOM     27  C   UNL d   1       4.561   0.829   0.779  0.00  0.00     0.011 A 
ATOM     28  C   UNL d   1       4.562   0.869  -0.710  0.00  0.00     0.011 A 
ENDBRANCH  10  26
TORSDOF 5
