REMARK  4 active torsions:
REMARK  status: ('A' for Active; 'I' for Inactive)
REMARK    1  A    between atoms: N_15  and  C_5 
REMARK    2  A    between atoms: C_12  and  C_6 
REMARK    3  A    between atoms: O_20  and  C_7 
REMARK    4  A    between atoms: N_14  and  C_13 
ROOT
ATOM      1  C   UNL d   1       0.773  -0.339   0.600  0.00  0.00     0.095 A 
ATOM      2  C   UNL d   1      -1.289  -0.044  -0.629  0.00  0.00     0.108 A 
ATOM      3  N   UNL d   1       0.034   1.877   0.027  0.00  0.00    -0.325 N 
ATOM      4  HN  UNL d   1       0.174   2.887   0.035  1.00  0.00     0.169 HD
ATOM      5  C   UNL d   1       0.892   1.058   0.648  0.00  0.00     0.101 A 
ATOM      6  C   UNL d   1      -0.351  -0.940  -0.043  0.00  0.00     0.023 A 
ATOM      7  C   UNL d   1      -1.020   1.327  -0.608  0.00  0.00     0.165 A 
ATOM      8  C   UNL d   1       1.833  -1.095   1.206  0.00  0.00     0.103 C 
ATOM      9  C   UNL d   1      -2.534  -0.471  -1.216  0.00  0.00     0.104 C 
ATOM     10  N   UNL d   1      -3.526  -0.815  -1.704  0.00  0.00    -0.191 NA
ATOM     11  N   UNL d   1       2.711  -1.667   1.707  0.00  0.00    -0.191 NA
ENDROOT
BRANCH   5  12
ATOM     12  N   UNL d   1       1.832   1.715   1.433  0.00  0.00    -0.287 NA
ATOM     13  H   UNL d   1       1.750   2.717   1.282  0.00  0.00     0.125 HD
ATOM     14  H   UNL d   1       2.786   1.381   1.353  0.00  0.00     0.125 HD
ENDBRANCH   5  12
BRANCH   6  15
ATOM     15  C   UNL d   1      -0.535  -2.431  -0.089  0.00  0.00    -0.022 A 
ATOM     16  C   UNL d   1      -1.012  -3.100  -1.226  0.00  0.00     0.014 A 
ATOM     17  C   UNL d   1      -1.190  -4.500  -1.257  0.00  0.00     0.030 A 
ATOM     18  C   UNL d   1      -0.827  -5.331  -0.192  0.00  0.00     0.029 A 
ATOM     19  C   UNL d   1      -0.317  -4.660   0.925  0.00  0.00     0.030 A 
ATOM     20  C   UNL d   1      -0.223  -3.258   0.998  0.00  0.00     0.014 A 
BRANCH  18  21
ATOM     21  N   UNL d   1      -0.904  -6.714  -0.245  0.00  0.00    -0.390 N 
ATOM     22  C   UNL d   1      -1.060  -7.515   0.971  0.00  0.00     0.149 C 
ATOM     23  C   UNL d   1      -1.247  -7.430  -1.472  0.00  0.00     0.149 C 
ENDBRANCH  18  21
ENDBRANCH   6  15
BRANCH   7  24
ATOM     24  O   UNL d   1      -1.898   2.178  -1.253  0.00  0.00    -0.340 OA
ATOM     25  C   UNL d   1      -1.459   3.535  -1.294  0.00  0.00     0.211 C 
ENDBRANCH   7  24
TORSDOF 4
