REMARK  3 active torsions:
REMARK  status: ('A' for Active; 'I' for Inactive)
REMARK    1  A    between atoms: C_2  and  C_1 
REMARK       I    between atoms: N_3  and  C_2 
REMARK    2  A    between atoms: C_7  and  N_3 
REMARK    3  A    between atoms: N_14  and  C_4 
ROOT
ATOM      1  C   UNL d   1      -1.907   2.382  -0.039  0.00  0.00     0.258 C 
ATOM      2  N   UNL d   1      -1.261   3.613  -0.059  0.00  0.00    -0.323 N 
ATOM      3  O   UNL d   1      -1.383   1.282  -0.168  0.00  0.00    -0.267 OA
ATOM      4  H   UNL d   1      -1.785   4.420   0.248  0.00  0.00     0.169 HD
ENDROOT
BRANCH   1   5
ATOM      5  C   UNL d   1      -3.373   2.410   0.234  0.00  0.00     0.054 A 
ATOM      6  C   UNL d   1      -3.955   1.385   1.018  0.00  0.00     0.021 A 
ATOM      7  C   UNL d   1      -5.330   1.435   1.277  0.00  0.00     0.026 A 
ATOM      8  C   UNL d   1      -6.132   2.411   0.685  0.00  0.00     0.026 A 
ATOM      9  C   UNL d   1      -5.555   3.371  -0.143  0.00  0.00     0.035 A 
ATOM     10  C   UNL d   1      -4.180   3.384  -0.369  0.00  0.00     0.042 A 
ATOM     11 CL   UNL d   1      -6.554   4.554  -0.893  0.00  0.00    -0.084 Cl
BRANCH   6  12
ATOM     12  N   UNL d   1      -3.177   0.451   1.733  0.00  0.00    -0.302 NA
ATOM     13  H   UNL d   1      -2.268   0.305   1.275  0.00  0.00     0.124 HD
ATOM     14  H   UNL d   1      -3.647  -0.435   1.891  0.00  0.00     0.124 HD
ENDBRANCH   6  12
ENDBRANCH   1   5
BRANCH   2  15
ATOM     15  C   UNL d   1       0.138   3.794  -0.194  0.00  0.00     0.035 A 
ATOM     16  C   UNL d   1       0.999   2.790  -0.644  0.00  0.00     0.037 A 
ATOM     17  C   UNL d   1       2.395   2.950  -0.622  0.00  0.00    -0.054 A 
ATOM     18  C   UNL d   1       3.262   1.798  -1.051  0.00  0.00     0.049 C 
ATOM     19  C   UNL d   1       2.943   4.167  -0.182  0.00  0.00    -0.056 A 
ATOM     20  C   UNL d   1       2.076   5.204   0.192  0.00  0.00     0.009 A 
ATOM     21  C   UNL d   1       4.430   4.354  -0.063  0.00  0.00     0.049 C 
ATOM     22  C   UNL d   1       0.686   5.022   0.180  0.00  0.00     0.030 A 
ENDBRANCH   2  15
TORSDOF 3
