REMARK  5 active torsions:
REMARK  status: ('A' for Active; 'I' for Inactive)
REMARK    1  A    between atoms: N_6  and  S_1 
REMARK    2  A    between atoms: C_13  and  S_1 
REMARK    3  A    between atoms: C_2  and  S_8 
REMARK    4  A    between atoms: C_9  and  N_6 
REMARK    5  A    between atoms: S_8  and  C_15 
ROOT
ATOM      1  C   UNL d   1      -2.743   1.760   2.484  0.00  0.00     0.096 A 
ATOM      2  C   UNL d   1      -4.069   1.925   2.905  0.00  0.00     0.085 A 
ATOM      3  N   UNL d   1      -2.152   0.546   2.414  0.00  0.00    -0.349 N 
ATOM      4  HN  UNL d   1      -1.182   0.461   2.109  1.00  0.00     0.166 HD
ATOM      5  C   UNL d   1      -4.793   0.786   3.332  0.00  0.00    -0.026 A 
ATOM      6  C   UNL d   1      -4.181  -0.491   3.223  0.00  0.00    -0.002 A 
ATOM      7  C   UNL d   1      -4.691   3.218   2.870  0.00  0.00     0.103 C 
ATOM      8  C   UNL d   1      -2.853  -0.543   2.750  0.00  0.00     0.043 A 
ATOM      9  N   UNL d   1      -5.237   4.241   2.851  0.00  0.00    -0.191 NA
ATOM     10  C   UNL d   1      -6.210   0.902   3.848  0.00  0.00     0.050 C 
ATOM     11  C   UNL d   1      -4.825  -1.715   3.539  0.00  0.00     0.014 A 
ATOM     12  C   UNL d   1      -2.227  -1.770   2.603  0.00  0.00     0.030 A 
ATOM     13  C   UNL d   1      -4.178  -2.940   3.373  0.00  0.00     0.001 A 
ATOM     14  C   UNL d   1      -2.875  -2.967   2.900  0.00  0.00     0.002 A 
ENDROOT
BRANCH   1  15
ATOM     15  S   UNL d   1      -1.723   3.127   1.933  0.00  0.00    -0.069 SA
BRANCH  15  16
ATOM     16  C   UNL d   1      -0.111   2.712   2.600  0.00  0.00     0.034 A 
ATOM     17  C   UNL d   1       0.898   2.066   1.861  0.00  0.00     0.059 A 
ATOM     18  C   UNL d   1       2.132   1.773   2.455  0.00  0.00     0.031 A 
ATOM     19  C   UNL d   1       2.402   2.174   3.761  0.00  0.00     0.002 A 
ATOM     20  C   UNL d   1       1.425   2.842   4.492  0.00  0.00     0.002 A 
ATOM     21  C   UNL d   1       0.175   3.103   3.919  0.00  0.00     0.021 A 
BRANCH  17  22
ATOM     22  N   UNL d   1       0.727   1.650   0.514  0.00  0.00    -0.279 N 
ATOM     23  H   UNL d   1       0.356   0.726   0.310  0.00  0.00     0.179 HD
BRANCH  22  24
ATOM     24  S   UNL d   1       1.080   2.660  -0.768  0.00  0.00     0.263 S 
ATOM     25  O   UNL d   1       0.442   3.945  -0.581  0.00  0.00    -0.200 OA
ATOM     26  O   UNL d   1       0.858   1.883  -1.969  0.00  0.00    -0.200 OA
BRANCH  24  27
ATOM     27  C   UNL d   1       2.840   2.920  -0.628  0.00  0.00     0.080 A 
ATOM     28  C   UNL d   1       3.728   2.076  -1.304  0.00  0.00     0.027 A 
ATOM     29  C   UNL d   1       5.103   2.308  -1.210  0.00  0.00     0.025 A 
ATOM     30  C   UNL d   1       5.579   3.379  -0.451  0.00  0.00     0.034 A 
ATOM     31  C   UNL d   1       4.692   4.232   0.207  0.00  0.00     0.025 A 
ATOM     32 CL   UNL d   1       7.273   3.654  -0.332  0.00  0.00    -0.084 Cl
ATOM     33  C   UNL d   1       3.317   4.009   0.112  0.00  0.00     0.027 A 
ENDBRANCH  24  27
ENDBRANCH  22  24
ENDBRANCH  17  22
ENDBRANCH  15  16
ENDBRANCH   1  15
TORSDOF 5
