REMARK  5 active torsions:
REMARK  status: ('A' for Active; 'I' for Inactive)
REMARK    1  A    between atoms: C_8  and  C_1 
REMARK    2  A    between atoms: C_13  and  C_2 
REMARK    3  A    between atoms: C_9  and  N_5 
REMARK    4  A    between atoms: N_7  and  C_8 
REMARK    5  A    between atoms: O_17  and  C_14 
ROOT
ATOM      1  N   UNL d   1       3.521  -1.922  -0.449  0.00  0.00    -0.375 N 
ATOM      2  N   UNL d   1       3.157   1.023  -0.207  0.00  0.00     0.096 N 
ATOM      3  C   UNL d   1       2.540  -1.217  -1.293  0.00  0.00     0.153 C 
ATOM      4  C   UNL d   1       3.710  -1.265   0.860  0.00  0.00     0.153 C 
ATOM      5  C   UNL d   1       4.029   0.246   0.698  0.00  0.00     0.292 C 
ATOM      6  C   UNL d   1       2.975   0.258  -1.464  0.00  0.00     0.292 C 
ENDROOT
BRANCH   2   7
ATOM      7  C   UNL d   1       1.907   1.426   0.441  0.00  0.00     0.315 C 
BRANCH   7   8
ATOM      8  C   UNL d   1       1.115   2.327  -0.458  0.00  0.00     0.016 A 
ATOM      9  C   UNL d   1       1.489   3.575  -1.067  0.00  0.00     0.067 A 
ATOM     10  N   UNL d   1       0.527   3.997  -1.908  0.00  0.00    -0.300 N 
ATOM     11  N   UNL d   1      -0.446   3.089  -1.797  0.00  0.00    -0.311 N 
ATOM     12  HN  UNL d   1       0.538   4.828  -2.499  1.00  0.00     0.187 HD
ATOM     13  C   UNL d   1      -0.167   2.092  -0.918  0.00  0.00     0.118 A 
ATOM     14  H   UNL d   1      -1.280   3.212  -2.361  0.00  0.00     0.186 HD
BRANCH   9  15
ATOM     15  C   UNL d   1       2.710   4.366  -0.889  0.00  0.00    -0.007 A 
ATOM     16  C   UNL d   1       3.350   4.944  -1.996  0.00  0.00     0.014 A 
ATOM     17  C   UNL d   1       4.495   5.729  -1.825  0.00  0.00     0.001 A 
ATOM     18  C   UNL d   1       5.005   5.948  -0.548  0.00  0.00     0.000 A 
ATOM     19  C   UNL d   1       4.375   5.389   0.559  0.00  0.00     0.001 A 
ATOM     20  C   UNL d   1       3.228   4.604   0.388  0.00  0.00     0.014 A 
ENDBRANCH   9  15
ENDBRANCH   7   8
ENDBRANCH   2   7
BRANCH   1  21
ATOM     21  C   UNL d   1       3.796  -3.284  -0.624  0.00  0.00     0.064 A 
ATOM     22  C   UNL d   1       3.936  -3.922  -1.890  0.00  0.00     0.094 A 
ATOM     23  C   UNL d   1       4.357  -5.266  -1.983  0.00  0.00     0.039 A 
ATOM     24  C   UNL d   1       4.611  -6.022  -0.844  0.00  0.00     0.003 A 
ATOM     25  C   UNL d   1       4.438  -5.444   0.400  0.00  0.00     0.002 A 
ATOM     26  C   UNL d   1       4.037  -4.107   0.501  0.00  0.00     0.032 A 
BRANCH  22  27
ATOM     27  O   UNL d   1       3.761  -3.180  -3.038  0.00  0.00    -0.354 OA
ATOM     28  C   UNL d   1       3.300  -3.899  -4.179  0.00  0.00     0.210 C 
ENDBRANCH  22  27
ENDBRANCH   1  21
TORSDOF 5
