REMARK  8 active torsions:
REMARK  status: ('A' for Active; 'I' for Inactive)
REMARK    1  A    between atoms: S_8  and  C_2 
REMARK    2  A    between atoms: C_14  and  C_7 
REMARK    3  A    between atoms: C_15  and  S_8 
REMARK    4  A    between atoms: C_9  and  C_21 
REMARK       I    between atoms: N_10  and  C_9 
REMARK    5  A    between atoms: C_17  and  N_10 
REMARK    6  A    between atoms: S_12  and  C_14 
REMARK    7  A    between atoms: C_21  and  S_12 
REMARK    8  A    between atoms: C_16  and  C_15 
ROOT
ATOM      1  N   UNL d   1       0.285  -0.021   1.187  0.00  0.00    -0.319 N 
ATOM      2  C   UNL d   1      -0.289   1.119   0.687  0.00  0.00     0.162 A 
ATOM      3  N   UNL d   1      -1.452   0.809   0.153  0.00  0.00    -0.278 N 
ATOM      4  HN  UNL d   1      -2.116   1.469  -0.252  1.00  0.00     0.189 HD
ATOM      5  N   UNL d   1      -1.621  -0.550   0.235  0.00  0.00    -0.286 N 
ATOM      6  HN  UNL d   1      -2.431  -1.075  -0.097  1.00  0.00     0.188 HD
ATOM      7  C   UNL d   1      -0.556  -1.056   0.816  0.00  0.00     0.109 A 
ATOM      8  C   UNL d   1       1.478  -0.158   1.977  0.00  0.00     0.159 C 
ENDROOT
BRANCH   7   9
ATOM      9  C   UNL d   1      -0.257  -2.513   0.943  0.00  0.00     0.152 C 
BRANCH   9  10
ATOM     10  S   UNL d   1      -0.222  -3.110   2.659  0.00  0.00    -0.152 SA
BRANCH  10  11
ATOM     11  C   UNL d   1      -1.942  -3.647   2.866  0.00  0.00     0.177 C 
BRANCH  11  12
ATOM     12  C   UNL d   1      -2.631  -2.873   3.980  0.00  0.00     0.231 C 
ATOM     13  N   UNL d   1      -3.407  -1.830   3.497  0.00  0.00    -0.327 N 
ATOM     14  H   UNL d   1      -3.251  -1.539   2.536  0.00  0.00     0.169 HD
ATOM     15  O   UNL d   1      -2.510  -3.209   5.154  0.00  0.00    -0.272 OA
BRANCH  13  16
ATOM     16  C   UNL d   1      -4.428  -1.141   4.186  0.00  0.00     0.034 A 
ATOM     17  C   UNL d   1      -4.825  -1.436   5.492  0.00  0.00     0.029 A 
ATOM     18  C   UNL d   1      -5.909  -0.768   6.072  0.00  0.00     0.002 A 
ATOM     19  C   UNL d   1      -6.604   0.200   5.350  0.00  0.00     0.000 A 
ATOM     20  C   UNL d   1      -6.204   0.513   4.054  0.00  0.00     0.002 A 
ATOM     21  C   UNL d   1      -5.118  -0.151   3.477  0.00  0.00     0.029 A 
ENDBRANCH  13  16
ENDBRANCH  11  12
ENDBRANCH  10  11
ENDBRANCH   9  10
ENDBRANCH   7   9
BRANCH   2  22
ATOM     22  S   UNL d   1       0.247   2.753   0.881  0.00  0.00    -0.088 SA
BRANCH  22  23
ATOM     23  C   UNL d   1       2.006   2.824   0.469  0.00  0.00     0.121 C 
BRANCH  23  24
ATOM     24  C   UNL d   1       2.414   2.250  -0.861  0.00  0.00    -0.049 A 
ATOM     25  C   UNL d   1       2.018   2.856  -2.059  0.00  0.00     0.008 A 
ATOM     26  C   UNL d   1       2.406   2.318  -3.289  0.00  0.00     0.007 A 
ATOM     27  C   UNL d   1       3.190   1.161  -3.345  0.00  0.00    -0.062 A 
ATOM     28  C   UNL d   1       3.625   0.579  -2.152  0.00  0.00     0.007 A 
ATOM     29  C   UNL d   1       3.558   0.565  -4.671  0.00  0.00     0.048 C 
ATOM     30  C   UNL d   1       3.251   1.126  -0.923  0.00  0.00     0.008 A 
ENDBRANCH  23  24
ENDBRANCH  22  23
ENDBRANCH   2  22
TORSDOF 8
