REMARK  6 active torsions:
REMARK  status: ('A' for Active; 'I' for Inactive)
REMARK    1  A    between atoms: C_3  and  C_1 
REMARK    2  A    between atoms: C_2  and  C_9 
REMARK    3  A    between atoms: N_19  and  C_2 
REMARK    4  A    between atoms: O_10  and  N_4 
REMARK    5  A    between atoms: C_8  and  O_10 
REMARK    6  A    between atoms: C_12  and  C_8 
ROOT
ATOM      1  C   UNL d   1      -0.508  -3.462  -4.410  0.00  0.00     0.125 C 
ATOM      2  N   UNL d   1      -0.964  -3.035  -5.552  0.00  0.00    -0.244 N 
ATOM      3  HN  UNL d   1      -1.070  -3.620  -6.381  1.00  0.00     0.196 HD
ENDROOT
BRANCH   1   4
ATOM      4  C   UNL d   1      -0.087  -4.909  -4.296  0.00  0.00     0.072 A 
ATOM      5  C   UNL d   1      -0.247  -5.794  -5.354  0.00  0.00     0.034 A 
ATOM      6  C   UNL d   1       0.186  -7.109  -5.186  0.00  0.00     0.020 A 
ATOM      7  C   UNL d   1       0.761  -7.503  -3.971  0.00  0.00     0.063 A 
ATOM      8  C   UNL d   1       0.877  -6.543  -2.973  0.00  0.00     0.104 A 
ATOM      9  N   UNL d   1       0.477  -5.255  -3.104  0.00  0.00    -0.362 N 
ATOM     10  HN  UNL d   1       0.593  -4.578  -2.350  1.00  0.00     0.165 HD
BRANCH   7  11
ATOM     11  C   UNL d   1       1.240  -8.906  -3.751  0.00  0.00     0.418 C 
ATOM     12  F   UNL d   1       1.780  -9.111  -2.517  0.00  0.00    -0.166 F 
ATOM     13  F   UNL d   1       2.201  -9.274  -4.642  0.00  0.00    -0.166 F 
ATOM     14  F   UNL d   1       0.242  -9.824  -3.877  0.00  0.00    -0.166 F 
ENDBRANCH   7  11
ENDBRANCH   1   4
BRANCH   1  15
ATOM     15  N   UNL d   1      -0.352  -2.666  -3.295  0.00  0.00    -0.285 NA
ATOM     16  H   UNL d   1       0.312  -3.042  -2.620  0.00  0.00     0.125 HD
ATOM     17  H   UNL d   1      -0.237  -1.684  -3.501  0.00  0.00     0.125 HD
ENDBRANCH   1  15
BRANCH   2  18
ATOM     18  O   UNL d   1      -1.296  -1.663  -5.502  0.00  0.00    -0.193 OA
BRANCH  18  19
ATOM     19  C   UNL d   1      -1.764  -1.259  -6.723  0.00  0.00     0.315 C 
ATOM     20  O   UNL d   1      -1.902  -1.944  -7.729  0.00  0.00    -0.257 OA
BRANCH  19  21
ATOM     21  C   UNL d   1      -2.067   0.201  -6.709  0.00  0.00     0.041 A 
ATOM     22  C   UNL d   1      -2.368   0.818  -7.931  0.00  0.00     0.018 A 
ATOM     23  C   UNL d   1      -2.647   2.186  -7.989  0.00  0.00     0.007 A 
ATOM     24  C   UNL d   1      -2.634   2.961  -6.824  0.00  0.00    -0.062 A 
ATOM     25  C   UNL d   1      -2.342   2.345  -5.601  0.00  0.00     0.007 A 
ATOM     26  C   UNL d   1      -2.927   4.431  -6.903  0.00  0.00     0.048 C 
ATOM     27  C   UNL d   1      -2.062   0.974  -5.540  0.00  0.00     0.018 A 
ENDBRANCH  19  21
ENDBRANCH  18  19
ENDBRANCH   2  18
TORSDOF 6
