REMARK  1 active torsions:
REMARK  status: ('A' for Active; 'I' for Inactive)
REMARK    1  A    between atoms: C_2  and  N_1 
REMARK       I    between atoms: C_3  and  N_1 
ROOT
ATOM      1  C   UNL d   1       0.246  -1.023  -0.773  0.00  0.00     0.052 A 
ATOM      2  C   UNL d   1       0.688  -2.290  -1.195  0.00  0.00     0.037 A 
ATOM      3 BR   UNL d   1       2.124  -3.181  -0.324  0.00  0.00    -0.049 Br
ATOM      4  C   UNL d   1      -0.800  -0.412  -1.474  0.00  0.00     0.031 A 
ATOM      5  C   UNL d   1       0.047  -2.957  -2.243  0.00  0.00     0.021 A 
ATOM      6  C   UNL d   1      -1.427  -1.072  -2.535  0.00  0.00     0.002 A 
ATOM      7  C   UNL d   1      -1.014  -2.348  -2.910  0.00  0.00     0.002 A 
ENDROOT
BRANCH   1   8
ATOM      8  N   UNL d   1       0.909  -0.384   0.291  0.00  0.00    -0.326 N 
ATOM      9  C   UNL d   1       0.472   0.531   1.205  0.00  0.00     0.218 C 
ATOM     10  O   UNL d   1       1.291   1.085   1.939  0.00  0.00    -0.274 OA
ATOM     11  C   UNL d   1      -1.002   0.788   1.373  0.00  0.00     0.117 C 
ATOM     12  H   UNL d   1       1.860  -0.690   0.476  0.00  0.00     0.169 HD
ENDBRANCH   1   8
TORSDOF 1
