REMARK  3 active torsions:
REMARK  status: ('A' for Active; 'I' for Inactive)
REMARK    1  A    between atoms: C_3  and  C_1 
REMARK    2  A    between atoms: C_2  and  C_3 
REMARK    3  A    between atoms: C_13  and  C_5 
ROOT
ATOM      1  C   UNL d   1      -0.633  -3.614  -0.853  0.00  0.00     0.118 C 
ATOM      2  C   UNL d   1      -0.489  -4.943  -0.637  0.00  0.00     0.061 C 
ATOM      3  C   UNL d   1      -1.543  -3.131  -1.837  0.00  0.00     0.105 C 
ATOM      4  N   UNL d   1      -2.300  -2.719  -2.617  0.00  0.00    -0.191 NA
ATOM      5  S   UNL d   1      -1.340  -6.154  -1.598  0.00  0.00    -0.120 SA
ATOM      6  S   UNL d   1       0.575  -5.669   0.551  0.00  0.00    -0.120 SA
ATOM      7  C   UNL d   1       0.922  -7.143  -0.445  0.00  0.00     0.090 C 
ATOM      8  C   UNL d   1      -0.405  -7.607  -1.014  0.00  0.00     0.090 C 
ENDROOT
BRANCH   1   9
ATOM      9  C   UNL d   1       0.270  -2.608  -0.199  0.00  0.00     0.207 C 
ATOM     10  O   UNL d   1       1.426  -2.890   0.100  0.00  0.00    -0.286 OA
BRANCH   9  11
ATOM     11  C   UNL d   1      -0.228  -1.241  -0.047  0.00  0.00     0.048 A 
ATOM     12  C   UNL d   1      -1.554  -0.714   0.088  0.00  0.00     0.056 A 
ATOM     13  C   UNL d   1      -1.450   0.663   0.169  0.00  0.00     0.086 A 
ATOM     14  O   UNL d   1      -0.134   1.009   0.134  0.00  0.00    -0.314 OA
ATOM     15  C   UNL d   1       0.600  -0.128   0.017  0.00  0.00     0.064 A 
ATOM     16  C   UNL d   1       2.064   0.093  -0.044  0.00  0.00     0.077 C 
BRANCH  13  17
ATOM     17  C   UNL d   1      -2.393   1.776   0.282  0.00  0.00    -0.002 A 
ATOM     18  C   UNL d   1      -3.777   1.550   0.307  0.00  0.00     0.016 A 
ATOM     19  C   UNL d   1      -4.676   2.618   0.421  0.00  0.00     0.024 A 
ATOM     20  C   UNL d   1      -4.199   3.924   0.508  0.00  0.00     0.034 A 
ATOM     21  C   UNL d   1      -2.831   4.172   0.479  0.00  0.00     0.024 A 
ATOM     22 CL   UNL d   1      -5.304   5.234   0.656  0.00  0.00    -0.084 Cl
ATOM     23  C   UNL d   1      -1.937   3.103   0.366  0.00  0.00     0.016 A 
ENDBRANCH  13  17
ENDBRANCH   9  11
ENDBRANCH   1   9
TORSDOF 3
