REMARK  9 active torsions:
REMARK  status: ('A' for Active; 'I' for Inactive)
REMARK    1  A    between atoms: C_5  and  C_1 
REMARK    2  A    between atoms: C_2  and  C_4 
REMARK    3  A    between atoms: C_3  and  N_8 
REMARK    4  A    between atoms: N_9  and  C_3 
REMARK    5  A    between atoms: N_8  and  C_7 
REMARK    6  A    between atoms: CA_19  and  N_9 
REMARK    7  A    between atoms: C_21  and  CA_19 
REMARK    8  A    between atoms: C_22  and  CA_19 
REMARK    9  A    between atoms: O_20  and  C_21 
ROOT
ATOM      1  C   UNL d   1      -1.147  -3.004  -1.995  0.00  0.00     0.050 A 
ATOM      2  C   UNL d   1       0.594  -1.360  -1.525  0.00  0.00     0.050 A 
ATOM      3  C   UNL d   1      -0.672  -1.681  -2.030  0.00  0.00     0.032 A 
ATOM      4  C   UNL d   1       0.901  -3.689  -0.863  0.00  0.00     0.035 A 
ATOM      5  C   UNL d   1      -0.342  -4.009  -1.420  0.00  0.00     0.045 A 
ATOM      6  C   UNL d   1       1.382  -2.383  -0.981  0.00  0.00     0.045 A 
ENDROOT
BRANCH   4   7
ATOM      7  N   UNL d   1       1.656  -4.686  -0.194  0.00  0.00    -0.333 N 
ATOM      8  H   UNL d   1       1.342  -5.641  -0.318  0.00  0.00     0.168 HD
BRANCH   7   9
ATOM      9  C   UNL d   1       2.373  -4.506   0.970  0.00  0.00     0.172 C 
ATOM     10  S   UNL d   1       2.277  -3.242   2.063  0.00  0.00    -0.041 SA
BRANCH   9  11
ATOM     11  N   UNL d   1       3.221  -5.513   1.316  0.00  0.00    -0.360 N 
ATOM     12  H   UNL d   1       3.715  -5.316   2.180  0.00  0.00     0.162 HD
BRANCH  11  13
ATOM     13  CA  UNL d   1       3.900  -6.494   0.461  0.00  0.00     0.107 C 
BRANCH  13  14
ATOM     14  C   UNL d   1       5.224  -5.898  -0.064  0.00  0.00     0.189 C 
BRANCH  14  15
ATOM     15  O   UNL d   1       6.074  -5.502   1.014  0.00  0.00    -0.399 OA
ATOM     16  H   UNL d   1       5.965  -4.540   1.125  0.00  0.00     0.209 HD
ENDBRANCH  14  15
ENDBRANCH  13  14
BRANCH  13  17
ATOM     17  C   UNL d   1       4.162  -7.776   1.270  0.00  0.00     0.023 C 
ATOM     18  C   UNL d   1       2.873  -8.480   1.672  0.00  0.00     0.007 C 
ENDBRANCH  13  17
ENDBRANCH  11  13
ENDBRANCH   9  11
ENDBRANCH   7   9
ENDBRANCH   4   7
BRANCH   2  19
ATOM     19  C   UNL d   1       1.127   0.050  -1.538  0.00  0.00     0.417 C 
ATOM     20  F   UNL d   1       0.170   0.987  -1.807  0.00  0.00    -0.166 F 
ATOM     21  F   UNL d   1       2.095   0.228  -2.477  0.00  0.00    -0.166 F 
ATOM     22  F   UNL d   1       1.683   0.416  -0.351  0.00  0.00    -0.166 F 
ENDBRANCH   2  19
BRANCH   1  23
ATOM     23  C   UNL d   1      -2.520  -3.338  -2.534  0.00  0.00     0.417 C 
ATOM     24  F   UNL d   1      -3.181  -2.261  -3.043  0.00  0.00    -0.166 F 
ATOM     25  F   UNL d   1      -2.475  -4.256  -3.538  0.00  0.00    -0.166 F 
ATOM     26  F   UNL d   1      -3.340  -3.863  -1.582  0.00  0.00    -0.166 F 
ENDBRANCH   1  23
TORSDOF 9
