REMARK  9 active torsions:
REMARK  status: ('A' for Active; 'I' for Inactive)
REMARK    1  A    between atoms: C_7  and  C_1 
REMARK    2  A    between atoms: C_3  and  C_2 
REMARK    3  A    between atoms: N_12  and  C_6 
REMARK    4  A    between atoms: O_13  and  C_7 
REMARK    5  A    between atoms: C_8  and  O_14 
REMARK    6  A    between atoms: C_22  and  N_12 
REMARK    7  A    between atoms: C_24  and  O_13 
REMARK    8  A    between atoms: O_14  and  C_23 
REMARK    9  A    between atoms: C_26  and  C_24 
ROOT
ATOM      1  C   UNL d   1      -0.040  -1.489   0.030  0.00  0.00     0.087 A 
ATOM      2  C   UNL d   1       1.191  -0.874  -0.036  0.00  0.00     0.150 A 
ATOM      3  N   UNL d   1       1.280   0.485  -0.122  0.00  0.00    -0.185 N 
ATOM      4  HN  UNL d   1       2.192   0.929  -0.230  1.00  0.00     0.184 HD
ATOM      5  C   UNL d   1       0.169   1.239  -0.065  0.00  0.00     0.683 A 
ATOM      6  N   UNL d   1      -1.051   0.708   0.058  0.00  0.00    -0.201 N 
ATOM      7  HN  UNL d   1      -1.883   1.294   0.126  1.00  0.00     0.183 HD
ATOM      8  C   UNL d   1      -1.132  -0.642   0.088  0.00  0.00     0.126 A 
ENDROOT
BRANCH   5   9
ATOM      9  N   UNL d   1       0.283   2.622  -0.069  0.00  0.00    -0.192 N 
ATOM     10  H   UNL d   1      -0.611   3.067   0.090  0.00  0.00     0.184 HD
BRANCH   9  11
ATOM     11  C   UNL d   1       1.276   3.422  -0.650  0.00  0.00     0.049 A 
ATOM     12  C   UNL d   1       2.094   2.966  -1.695  0.00  0.00     0.033 A 
ATOM     13  C   UNL d   1       3.085   3.776  -2.256  0.00  0.00     0.039 A 
ATOM     14  C   UNL d   1       3.276   5.068  -1.781  0.00  0.00     0.078 A 
ATOM     15  C   UNL d   1       2.512   5.511  -0.698  0.00  0.00     0.039 A 
ATOM     16  C   UNL d   1       1.516   4.702  -0.145  0.00  0.00     0.033 A 
BRANCH  14  17
ATOM     17  O   UNL d   1       4.161   5.985  -2.261  0.00  0.00    -0.255 OA
BRANCH  17  18
ATOM     18  C   UNL d   1       4.676   5.817  -3.572  0.00  0.00     0.530 C 
ATOM     19  F   UNL d   1       3.803   5.223  -4.414  0.00  0.00    -0.144 F 
ATOM     20  F   UNL d   1       4.958   7.040  -4.076  0.00  0.00    -0.144 F 
ATOM     21  F   UNL d   1       5.819   5.101  -3.536  0.00  0.00    -0.144 F 
ENDBRANCH  17  18
ENDBRANCH  14  17
ENDBRANCH   9  11
ENDBRANCH   5   9
BRANCH   2  22
ATOM     22  C   UNL d   1       2.513  -1.604   0.030  0.00  0.00     0.434 C 
ATOM     23  F   UNL d   1       2.448  -2.908   0.415  0.00  0.00    -0.165 F 
ATOM     24  F   UNL d   1       3.170  -1.600  -1.165  0.00  0.00    -0.165 F 
ATOM     25  F   UNL d   1       3.374  -1.032   0.925  0.00  0.00    -0.165 F 
ENDBRANCH   2  22
BRANCH   1  26
ATOM     26  C   UNL d   1      -0.296  -2.928   0.137  0.00  0.00     0.297 C 
ATOM     27  O   UNL d   1      -1.116  -3.380   0.919  0.00  0.00    -0.259 OA
BRANCH  26  28
ATOM     28  O   UNL d   1       0.433  -3.612  -0.767  0.00  0.00    -0.313 OA
BRANCH  28  29
ATOM     29  C   UNL d   1       0.353  -5.046  -0.664  0.00  0.00     0.217 C 
BRANCH  29  30
ATOM     30  C   UNL d   1       0.267  -5.665  -2.041  0.00  0.00    -0.034 A 
ATOM     31  C   UNL d   1       0.979  -5.131  -3.123  0.00  0.00     0.011 A 
ATOM     32  C   UNL d   1       0.891  -5.718  -4.388  0.00  0.00     0.024 A 
ATOM     33  C   UNL d   1       0.112  -6.860  -4.569  0.00  0.00     0.034 A 
ATOM     34  C   UNL d   1      -0.567  -7.427  -3.494  0.00  0.00     0.024 A 
ATOM     35 CL   UNL d   1      -0.013  -7.568  -6.132  0.00  0.00    -0.084 Cl
ATOM     36  C   UNL d   1      -0.486  -6.836  -2.233  0.00  0.00     0.011 A 
ENDBRANCH  29  30
ENDBRANCH  28  29
ENDBRANCH  26  28
ENDBRANCH   1  26
TORSDOF 9
