REMARK  7 active torsions:
REMARK  status: ('A' for Active; 'I' for Inactive)
REMARK    1  A    between atoms: C_2  and  C_1 
REMARK    2  A    between atoms: N_11  and  C_3 
REMARK    3  A    between atoms: C_7  and  O_18 
REMARK       I    between atoms: N_10  and  C_7 
REMARK    4  A    between atoms: C_17  and  N_10 
REMARK    5  A    between atoms: C_26  and  N_11 
REMARK    6  A    between atoms: O_18  and  C_25 
REMARK    7  A    between atoms: C_25  and  C_26 
ROOT
ATOM      1  N   UNL d   1      -0.669   1.440  -4.946  0.00  0.00    -0.368 N 
ATOM      2  C   UNL d   1      -1.850   2.003  -4.280  0.00  0.00     0.151 C 
ENDROOT
BRANCH   1   3
ATOM      3  C   UNL d   1       0.483   1.436  -4.153  0.00  0.00     0.125 C 
ATOM      4  N   UNL d   1       0.331   1.877  -2.873  0.00  0.00    -0.350 N 
ATOM      5  C   UNL d   1       1.351   1.790  -1.992  0.00  0.00     0.106 C 
ATOM      6  HN  UNL d   1      -0.560   2.276  -2.578  1.00  0.00     0.166 HD
ATOM      7  C   UNL d   1       2.581   1.252  -2.298  0.00  0.00     0.065 C 
ATOM      8  C   UNL d   1       2.797   0.900  -3.629  0.00  0.00     0.045 C 
ATOM      9  C   UNL d   1       1.761   1.015  -4.569  0.00  0.00     0.078 C 
ATOM     10 CL   UNL d   1       2.192   0.639  -6.202  0.00  0.00    -0.080 Cl
BRANCH   7  11
ATOM     11  C   UNL d   1       3.596   1.057  -1.219  0.00  0.00     0.418 C 
ATOM     12  F   UNL d   1       4.648   0.282  -1.604  0.00  0.00    -0.166 F 
ATOM     13  F   UNL d   1       3.069   0.442  -0.124  0.00  0.00    -0.166 F 
ATOM     14  F   UNL d   1       4.129   2.225  -0.774  0.00  0.00    -0.166 F 
ENDBRANCH   7  11
ENDBRANCH   1   3
BRANCH   1  15
ATOM     15  C   UNL d   1      -0.971   0.327  -5.875  0.00  0.00     0.151 C 
BRANCH  15  16
ATOM     16  C   UNL d   1      -0.798  -1.089  -5.304  0.00  0.00     0.200 C 
BRANCH  16  17
ATOM     17  O   UNL d   1      -1.672  -1.377  -4.205  0.00  0.00    -0.302 OA
BRANCH  17  18
ATOM     18  C   UNL d   1      -2.918  -1.820  -4.506  0.00  0.00     0.365 C 
ATOM     19  N   UNL d   1      -3.663  -2.214  -3.425  0.00  0.00    -0.303 N 
ATOM     20  H   UNL d   1      -4.640  -2.335  -3.653  0.00  0.00     0.171 HD
ATOM     21  O   UNL d   1      -3.385  -1.836  -5.641  0.00  0.00    -0.238 OA
BRANCH  19  22
ATOM     22  C   UNL d   1      -3.284  -2.310  -2.073  0.00  0.00     0.036 A 
ATOM     23  C   UNL d   1      -1.956  -2.423  -1.649  0.00  0.00     0.031 A 
ATOM     24  C   UNL d   1      -1.636  -2.361  -0.290  0.00  0.00     0.026 A 
ATOM     25  C   UNL d   1      -2.650  -2.215   0.648  0.00  0.00     0.034 A 
ATOM     26  C   UNL d   1      -3.982  -2.202   0.247  0.00  0.00     0.026 A 
ATOM     27 CL   UNL d   1      -2.250  -2.029   2.311  0.00  0.00    -0.084 Cl
ATOM     28  C   UNL d   1      -4.300  -2.271  -1.113  0.00  0.00     0.031 A 
ENDBRANCH  19  22
ENDBRANCH  17  18
ENDBRANCH  16  17
ENDBRANCH  15  16
ENDBRANCH   1  15
TORSDOF 7
