REMARK  5 active torsions:
REMARK  status: ('A' for Active; 'I' for Inactive)
REMARK    1  A    between atoms: S_2  and  C_1 
REMARK    2  A    between atoms: N_7  and  S_2 
REMARK    3  A    between atoms: C_8  and  C_3 
REMARK    4  A    between atoms: O_12  and  C_4 
REMARK    5  A    between atoms: O_13  and  C_8 
ROOT
ATOM      1  C   UNL d   1       0.293   1.409   0.127  0.00  0.00     0.149 A 
ATOM      2  C   UNL d   1       1.061  -0.827   0.234  0.00  0.00     0.081 A 
ATOM      3  C   UNL d   1      -0.070   0.065   0.038  0.00  0.00     0.114 A 
ATOM      4  S   UNL d   1       1.988   1.560   0.416  0.00  0.00    -0.085 SA
ATOM      5  C   UNL d   1       2.223  -0.116   0.454  0.00  0.00     0.071 A 
ENDROOT
BRANCH   1   6
ATOM      6  S   UNL d   1      -0.544   2.996   0.061  0.00  0.00     0.253 S 
ATOM      7  O   UNL d   1      -1.540   2.916   1.109  0.00  0.00    -0.205 OA
ATOM      8  O   UNL d   1       0.459   4.042   0.076  0.00  0.00    -0.205 OA
BRANCH   6   9
ATOM      9  N   UNL d   1      -1.357   3.121  -1.444  0.00  0.00    -0.206 NA
ATOM     10  C   UNL d   1      -0.448   3.299  -2.611  0.00  0.00     0.107 C 
ATOM     11  C   UNL d   1      -1.245   3.148  -3.904  0.00  0.00     0.015 C 
ATOM     12  C   UNL d   1      -2.393   4.152  -3.955  0.00  0.00     0.002 C 
ATOM     13  C   UNL d   1      -3.274   4.011  -2.719  0.00  0.00     0.015 C 
ATOM     14  C   UNL d   1      -2.455   4.128  -1.435  0.00  0.00     0.107 C 
ENDBRANCH   6   9
ENDBRANCH   1   6
BRANCH   3  15
ATOM     15  O   UNL d   1      -1.283  -0.503  -0.198  0.00  0.00    -0.353 OA
ATOM     16  C   UNL d   1      -2.441   0.296  -0.267  0.00  0.00     0.210 C 
ENDBRANCH   3  15
BRANCH   2  17
ATOM     17  C   UNL d   1       1.075  -2.295   0.224  0.00  0.00     0.296 C 
ATOM     18  O   UNL d   1       2.096  -2.947   0.407  0.00  0.00    -0.259 OA
BRANCH  17  19
ATOM     19  O   UNL d   1      -0.145  -2.855  -0.013  0.00  0.00    -0.322 OA
ATOM     20  C   UNL d   1      -0.162  -4.281  -0.045  0.00  0.00     0.213 C 
ENDBRANCH  17  19
ENDBRANCH   2  17
TORSDOF 5
