REMARK  8 active torsions:
REMARK  status: ('A' for Active; 'I' for Inactive)
REMARK    1  A    between atoms: C_8  and  C_1 
REMARK    2  A    between atoms: C_3  and  C_2 
REMARK       I    between atoms: C_4  and  N_12 
REMARK    3  A    between atoms: C_13  and  C_4 
REMARK    4  A    between atoms: N_14  and  C_7 
REMARK    5  A    between atoms: O_15  and  C_8 
REMARK    6  A    between atoms: N_12  and  N_14 
REMARK    7  A    between atoms: C_23  and  O_15 
REMARK    8  A    between atoms: C_25  and  C_23 
ROOT
ATOM      1  C   UNL d   1      -0.017  -1.412  -0.056  0.00  0.00     0.086 A 
ATOM      2  C   UNL d   1       1.216  -0.803   0.056  0.00  0.00     0.136 A 
ATOM      3  N   UNL d   1       1.320   0.563   0.066  0.00  0.00    -0.327 N 
ATOM      4  HN  UNL d   1       2.229   1.010   0.190  1.00  0.00     0.168 HD
ATOM      5  C   UNL d   1       0.213   1.310  -0.089  0.00  0.00     0.176 A 
ATOM      6  N   UNL d   1      -0.997   0.776  -0.274  0.00  0.00    -0.340 N 
ATOM      7  HN  UNL d   1      -1.813   1.360  -0.458  1.00  0.00     0.167 HD
ATOM      8  C   UNL d   1      -1.096  -0.572  -0.206  0.00  0.00     0.110 A 
ENDROOT
BRANCH   1   9
ATOM      9  C   UNL d   1      -0.285  -2.840   0.110  0.00  0.00     0.297 C 
ATOM     10  O   UNL d   1      -1.087  -3.244   0.939  0.00  0.00    -0.259 OA
BRANCH   9  11
ATOM     11  O   UNL d   1       0.425  -3.568  -0.772  0.00  0.00    -0.313 OA
BRANCH  11  12
ATOM     12  C   UNL d   1       0.319  -4.994  -0.596  0.00  0.00     0.217 C 
BRANCH  12  13
ATOM     13  C   UNL d   1       0.236  -5.697  -1.932  0.00  0.00    -0.034 A 
ATOM     14  C   UNL d   1       0.950  -5.238  -3.046  0.00  0.00     0.011 A 
ATOM     15  C   UNL d   1       0.884  -5.923  -4.263  0.00  0.00     0.024 A 
ATOM     16  C   UNL d   1       0.116  -7.081  -4.366  0.00  0.00     0.034 A 
ATOM     17  C   UNL d   1      -0.584  -7.563  -3.264  0.00  0.00     0.024 A 
ATOM     18 CL   UNL d   1       0.039  -7.925  -5.863  0.00  0.00    -0.084 Cl
ATOM     19  C   UNL d   1      -0.520  -6.875  -2.048  0.00  0.00     0.011 A 
ENDBRANCH  12  13
ENDBRANCH  11  12
ENDBRANCH   9  11
ENDBRANCH   1   9
BRANCH   2  20
ATOM     20  C   UNL d   1       2.511  -1.579   0.159  0.00  0.00     0.433 C 
ATOM     21  F   UNL d   1       2.389  -2.843   0.651  0.00  0.00    -0.165 F 
ATOM     22  F   UNL d   1       3.131  -1.706  -1.050  0.00  0.00    -0.165 F 
ATOM     23  F   UNL d   1       3.422  -0.976   0.977  0.00  0.00    -0.165 F 
ENDBRANCH   2  20
BRANCH   5  24
ATOM     24  N   UNL d   1       0.281   2.708   0.021  0.00  0.00    -0.172 NA
ATOM     25  H   UNL d   1      -0.057   3.114  -0.853  0.00  0.00     0.156 HD
BRANCH  24  26
ATOM     26  N   UNL d   1       1.534   3.194   0.432  0.00  0.00    -0.282 N 
ATOM     27  C   UNL d   1       2.083   4.268  -0.245  0.00  0.00     0.265 C 
ATOM     28  O   UNL d   1       1.621   4.666  -1.317  0.00  0.00    -0.269 OA
ATOM     29  H   UNL d   1       1.821   2.942   1.376  0.00  0.00     0.184 HD
BRANCH  27  30
ATOM     30  C   UNL d   1       3.235   4.973   0.467  0.00  0.00     0.271 C 
ATOM     31 CL   UNL d   1       2.546   6.140   1.617  0.00  0.00    -0.098 Cl
ATOM     32 CL   UNL d   1       4.276   3.814   1.327  0.00  0.00    -0.098 Cl
ENDBRANCH  27  30
ENDBRANCH  24  26
ENDBRANCH   5  24
TORSDOF 8
