REMARK  2 active torsions:
REMARK  status: ('A' for Active; 'I' for Inactive)
REMARK    1  A    between atoms: C_2  and  C_1 
REMARK    2  A    between atoms: O_13  and  C_1 
ROOT
ATOM      1  C   UNL d   1       0.152  -0.992  -0.759  0.00  0.00     0.040 A 
ATOM      2  C   UNL d   1      -1.014  -0.543  -1.389  0.00  0.00     0.050 A 
ATOM      3  C   UNL d   1      -1.811  -1.409  -2.126  0.00  0.00     0.060 A 
ATOM      4  N   UNL d   1      -2.929  -0.944  -2.713  0.00  0.00    -0.363 N 
ATOM      5  HN  UNL d   1      -3.203   0.037  -2.646  1.00  0.00     0.165 HD
ATOM      6  N   UNL d   1      -2.180  -3.653  -2.931  0.00  0.00    -0.363 N 
ATOM      7  HN  UNL d   1      -1.910  -4.632  -3.021  1.00  0.00     0.165 HD
ATOM      8  C   UNL d   1      -1.434  -2.772  -2.239  0.00  0.00     0.059 A 
ATOM      9  C   UNL d   1       0.519  -2.334  -0.859  0.00  0.00     0.021 A 
ATOM     10  C   UNL d   1      -0.275  -3.207  -1.607  0.00  0.00     0.033 A 
ATOM     11  C   UNL d   1      -3.671  -1.843  -3.394  0.00  0.00     0.105 A 
ATOM     12  C   UNL d   1      -3.305  -3.168  -3.501  0.00  0.00     0.105 A 
ENDROOT
BRANCH   1  13
ATOM     13  C   UNL d   1       0.924  -0.024   0.055  0.00  0.00     0.176 C 
ATOM     14  O   UNL d   1       0.400   0.890   0.665  0.00  0.00    -0.646 OA
BRANCH  13  15
ATOM     15  O   UNL d   1       2.257  -0.232   0.032  0.00  0.00    -0.773 OA
ATOM     16  H   UNL d   1       2.572  -0.876  -0.627  0.00  0.00     0.167 HD
ENDBRANCH  13  15
ENDBRANCH   1  13
TORSDOF 2
