REMARK  4 active torsions:
REMARK  status: ('A' for Active; 'I' for Inactive)
REMARK    1  A    between atoms: C_2  and  C_1 
REMARK    2  A    between atoms: O_9  and  C_2 
REMARK    3  A    between atoms: C_12  and  C_5 
REMARK    4  A    between atoms: C_13  and  O_9 
ROOT
ATOM      1  C   UNL d   1       1.073  -1.647  -0.340  0.00  0.00     0.081 A 
ATOM      2  N   UNL d   1       2.253   0.373  -0.605  0.00  0.00    -0.298 N 
ATOM      3  HN  UNL d   1       3.127   0.877  -0.756  1.00  0.00     0.187 HD
ATOM      4  C   UNL d   1       2.286  -0.975  -0.492  0.00  0.00     0.075 A 
ATOM      5  N   UNL d   1       1.081   1.086  -0.524  0.00  0.00    -0.299 N 
ATOM      6  HN  UNL d   1       1.102   2.101  -0.620  1.00  0.00     0.187 HD
ATOM      7  C   UNL d   1      -0.154  -0.927  -0.232  0.00  0.00     0.011 A 
ATOM      8  C   UNL d   1      -0.082   0.469  -0.322  0.00  0.00     0.059 A 
ATOM      9  C   UNL d   1      -1.436  -1.508  -0.029  0.00  0.00     0.015 A 
ATOM     10  C   UNL d   1      -1.231   1.240  -0.195  0.00  0.00     0.032 A 
ATOM     11  C   UNL d   1      -2.580  -0.720   0.109  0.00  0.00     0.001 A 
ATOM     12  C   UNL d   1      -2.477   0.660   0.029  0.00  0.00     0.002 A 
ENDROOT
BRANCH   1  13
ATOM     13  C   UNL d   1       1.011  -3.111  -0.339  0.00  0.00     0.301 C 
ATOM     14  O   UNL d   1       1.089  -3.767  -1.365  0.00  0.00    -0.259 OA
BRANCH  13  15
ATOM     15  O   UNL d   1       0.790  -3.552   0.950  0.00  0.00    -0.275 OA
BRANCH  15  16
ATOM     16  C   UNL d   1       0.826  -4.946   1.032  0.00  0.00     0.079 A 
ATOM     17  C   UNL d   1       2.006  -5.537   1.478  0.00  0.00     0.037 A 
ATOM     18  C   UNL d   1       2.082  -6.926   1.570  0.00  0.00     0.003 A 
ATOM     19  C   UNL d   1       0.978  -7.712   1.233  0.00  0.00     0.000 A 
ATOM     20  C   UNL d   1      -0.212  -7.109   0.816  0.00  0.00     0.003 A 
ATOM     21  C   UNL d   1      -0.296  -5.717   0.723  0.00  0.00     0.037 A 
ENDBRANCH  15  16
ENDBRANCH  13  15
ENDBRANCH   1  13
BRANCH   4  22
ATOM     22  C   UNL d   1       3.678  -1.503  -0.438  0.00  0.00    -0.007 A 
ATOM     23  C   UNL d   1       4.703  -0.665   0.071  0.00  0.00     0.014 A 
ATOM     24  C   UNL d   1       6.035  -1.068   0.161  0.00  0.00     0.001 A 
ATOM     25  C   UNL d   1       6.398  -2.344  -0.250  0.00  0.00     0.000 A 
ATOM     26  C   UNL d   1       5.424  -3.193  -0.767  0.00  0.00     0.001 A 
ATOM     27  C   UNL d   1       4.087  -2.774  -0.870  0.00  0.00     0.014 A 
ENDBRANCH   4  22
TORSDOF 4
