REMARK  5 active torsions:
REMARK  status: ('A' for Active; 'I' for Inactive)
REMARK    1  A    between atoms: C_7  and  N_1 
REMARK    2  A    between atoms: C_14  and  C_7 
REMARK    3  A    between atoms: N_10  and  C_15 
REMARK    4  A    between atoms: C_15  and  C_14 
REMARK    5  A    between atoms: O_21  and  C_14 
ROOT
ATOM      1  N   UNL d   1       0.151  -1.542  -0.636  0.00  0.00    -0.342 N 
ATOM      2  C   UNL d   1       0.513  -1.169  -1.925  0.00  0.00     0.064 A 
ATOM      3  C   UNL d   1       0.797   0.206  -1.855  0.00  0.00     0.006 A 
ATOM      4  C   UNL d   1       0.466   0.669  -0.546  0.00  0.00     0.005 A 
ATOM      5  C   UNL d   1       0.005  -0.426   0.178  0.00  0.00     0.046 A 
ATOM      6  C   UNL d   1       0.652  -1.855  -3.156  0.00  0.00     0.040 A 
ATOM      7  C   UNL d   1       1.117  -1.154  -4.280  0.00  0.00     0.040 A 
ATOM      8  C   UNL d   1      -0.455  -0.295   1.502  0.00  0.00     0.032 A 
ATOM      9  C   UNL d   1       1.289   0.882  -2.995  0.00  0.00     0.033 A 
ATOM     10  C   UNL d   1       0.499   1.935   0.075  0.00  0.00     0.033 A 
ATOM     11  C   UNL d   1       1.447   0.188  -4.191  0.00  0.00     0.013 A 
ATOM     12 BR   UNL d   1       0.200  -3.674  -3.432  0.00  0.00    -0.049 Br
ATOM     13  C   UNL d   1       0.051   2.065   1.388  0.00  0.00     0.011 A 
ATOM     14  C   UNL d   1      -0.427   0.969   2.095  0.00  0.00     0.021 A 
ATOM     15 BR   UNL d   1       2.098   1.099  -5.717  0.00  0.00    -0.051 Br
ATOM     16 BR   UNL d   1       0.088   3.765   2.222  0.00  0.00    -0.051 Br
ENDROOT
BRANCH   1  17
ATOM     17  C   UNL d   1       0.020  -2.893  -0.114  0.00  0.00     0.163 C 
BRANCH  17  18
ATOM     18  C   UNL d   1       1.353  -3.547   0.276  0.00  0.00     0.164 C 
BRANCH  18  19
ATOM     19  C   UNL d   1       2.149  -2.762   1.353  0.00  0.00     0.305 C 
BRANCH  19  20
ATOM     20  N   UNL d   1       3.215  -3.596   1.961  0.00  0.00     0.090 N 
ATOM     21  C   UNL d   1       4.331  -3.844   1.030  0.00  0.00     0.272 C 
ATOM     22  C   UNL d   1       5.332  -4.820   1.653  0.00  0.00     0.030 C 
ATOM     23  C   UNL d   1       5.856  -4.317   2.993  0.00  0.00     0.003 C 
ATOM     24  C   UNL d   1       4.712  -3.887   3.904  0.00  0.00     0.030 C 
ATOM     25  C   UNL d   1       3.733  -2.956   3.186  0.00  0.00     0.272 C 
ENDBRANCH  19  20
ENDBRANCH  18  19
BRANCH  18  26
ATOM     26  O   UNL d   1       1.066  -4.856   0.799  0.00  0.00    -0.392 OA
ATOM     27  H   UNL d   1       1.811  -5.047   1.409  0.00  0.00     0.210 HD
ENDBRANCH  18  26
ENDBRANCH  17  18
ENDBRANCH   1  17
TORSDOF 5
