REMARK  4 active torsions:
REMARK  status: ('A' for Active; 'I' for Inactive)
REMARK    1  A    between atoms: C_7  and  C_1 
REMARK    2  A    between atoms: O_14  and  C_7 
REMARK    3  A    between atoms: O_15  and  C_12 
REMARK    4  A    between atoms: C_16  and  O_14 
ROOT
ATOM      1  C   UNL d   1       1.120  -1.857  -0.017  0.00  0.00     0.058 A 
ATOM      2  C   UNL d   1      -0.065   0.302   0.054  0.00  0.00     0.093 A 
ATOM      3  C   UNL d   1      -0.142  -1.094   0.006  0.00  0.00     0.015 A 
ATOM      4  O   UNL d   1       1.172   0.975   0.093  0.00  0.00    -0.275 OA
ATOM      5  C   UNL d   1       2.365   0.282   0.071  0.00  0.00     0.289 A 
ATOM      6  C   UNL d   1       2.282  -1.179   0.013  0.00  0.00     0.101 A 
ATOM      7  C   UNL d   1      -1.196   1.124   0.055  0.00  0.00     0.074 A 
ATOM      8  C   UNL d   1      -1.431  -1.647  -0.046  0.00  0.00     0.018 A 
ATOM      9  O   UNL d   1       3.453   0.848   0.094  0.00  0.00    -0.260 OA
ATOM     10  C   UNL d   1      -2.450   0.540   0.013  0.00  0.00     0.068 A 
ATOM     11  C   UNL d   1      -2.579  -0.841  -0.036  0.00  0.00     0.037 A 
ENDROOT
BRANCH   1  12
ATOM     12  C   UNL d   1       1.297  -3.336  -0.129  0.00  0.00     0.294 C 
ATOM     13  O   UNL d   1       2.339  -3.865  -0.494  0.00  0.00    -0.259 OA
BRANCH  12  14
ATOM     14  O   UNL d   1       0.169  -4.003   0.201  0.00  0.00    -0.318 OA
BRANCH  14  15
ATOM     15  C   UNL d   1       0.113  -5.400  -0.126  0.00  0.00     0.174 C 
ATOM     16  C   UNL d   1       0.107  -6.228   1.142  0.00  0.00     0.034 C 
ENDBRANCH  14  15
ENDBRANCH  12  14
ENDBRANCH   1  12
BRANCH  10  17
ATOM     17  O   UNL d   1      -3.539   1.357   0.016  0.00  0.00    -0.361 OA
ATOM     18  H   UNL d   1      -4.344   0.814  -0.013  0.00  0.00     0.217 HD
ENDBRANCH  10  17
TORSDOF 4
