REMARK  2 active torsions:
REMARK  status: ('A' for Active; 'I' for Inactive)
REMARK    1  A    between atoms: C_2  and  C_1 
REMARK       I    between atoms: N_3  and  C_1 
REMARK    2  A    between atoms: C_5  and  N_3 
ROOT
ATOM      1  C   UNL d   1       1.059   0.411   0.116  0.00  0.00     0.262 C 
ATOM      2  N   UNL d   1       0.485  -0.637   0.819  0.00  0.00    -0.321 N 
ATOM      3  O   UNL d   1       2.035   1.044   0.507  0.00  0.00    -0.267 OA
ATOM      4  H   UNL d   1      -0.182  -1.235   0.334  0.00  0.00     0.169 HD
ENDROOT
BRANCH   1   5
ATOM      5  C   UNL d   1       0.450   0.769  -1.196  0.00  0.00     0.109 A 
ATOM      6  C   UNL d   1       1.044   1.758  -1.989  0.00  0.00     0.135 A 
ATOM      7  F   UNL d   1       2.193   2.351  -1.633  0.00  0.00    -0.205 F 
ATOM      8  C   UNL d   1       0.465   2.175  -3.189  0.00  0.00     0.043 A 
ATOM      9  C   UNL d   1      -0.728   1.606  -3.625  0.00  0.00     0.006 A 
ATOM     10  C   UNL d   1      -1.328   0.611  -2.858  0.00  0.00     0.043 A 
ATOM     11  C   UNL d   1      -0.739   0.200  -1.659  0.00  0.00     0.135 A 
ATOM     12  F   UNL d   1      -1.361  -0.762  -0.960  0.00  0.00    -0.205 F 
ENDBRANCH   1   5
BRANCH   2  13
ATOM     13  C   UNL d   1       0.797  -1.034   2.148  0.00  0.00     0.058 A 
ATOM     14  C   UNL d   1       0.350  -2.288   2.616  0.00  0.00     0.082 A 
ATOM     15  C   UNL d   1       0.649  -2.695   3.927  0.00  0.00     0.058 A 
ATOM     16 CL   UNL d   1      -0.548  -3.324   1.545  0.00  0.00    -0.080 Cl
ATOM     17 CL   UNL d   1       0.168  -4.232   4.558  0.00  0.00    -0.082 Cl
ATOM     18  C   UNL d   1       1.364  -1.852   4.780  0.00  0.00     0.026 A 
ATOM     19  C   UNL d   1       1.783  -0.603   4.332  0.00  0.00     0.004 A 
ATOM     20  C   UNL d   1       1.502  -0.201   3.025  0.00  0.00     0.031 A 
ENDBRANCH   2  13
TORSDOF 2
