REMARK  2 active torsions:
REMARK  status: ('A' for Active; 'I' for Inactive)
REMARK    1  A    between atoms: C_3  and  N_1 
REMARK    2  A    between atoms: S_10  and  C_2 
ROOT
ATOM      1  N   UNL d   1      -0.304  -1.139   0.008  0.00  0.00    -0.300 N 
ATOM      2  C   UNL d   1       0.889  -0.611   0.487  0.00  0.00     0.148 A 
ATOM      3  N   UNL d   1       0.907   0.704   0.441  0.00  0.00    -0.345 N 
ATOM      4  HN  UNL d   1       1.658   1.322   0.748  1.00  0.00     0.167 HD
ATOM      5  C   UNL d   1      -1.050  -0.043  -0.379  0.00  0.00     0.116 A 
ATOM      6  C   UNL d   1      -0.288   1.066  -0.105  0.00  0.00     0.108 A 
ENDROOT
BRANCH   1   7
ATOM      7  C   UNL d   1      -0.759  -2.489  -0.009  0.00  0.00     0.064 A 
ATOM      8  C   UNL d   1      -0.513  -3.297   1.116  0.00  0.00     0.055 A 
ATOM      9  C   UNL d   1      -0.965  -4.617   1.149  0.00  0.00     0.036 A 
ATOM     10 CL   UNL d   1      -0.641  -5.597   2.525  0.00  0.00    -0.084 Cl
ATOM     11  C   UNL d   1      -1.679  -5.146   0.079  0.00  0.00     0.026 A 
ATOM     12  C   UNL d   1      -1.938  -4.349  -1.036  0.00  0.00     0.028 A 
ATOM     13  C   UNL d   1      -1.481  -3.025  -1.092  0.00  0.00     0.061 A 
ATOM     14 CL   UNL d   1      -1.741  -2.200  -2.590  0.00  0.00    -0.082 Cl
ENDBRANCH   1   7
BRANCH   2  15
ATOM     15  S   UNL d   1       2.296  -1.528   0.942  0.00  0.00    -0.106 SA
ATOM     16  H   UNL d   1       2.013  -2.684   0.329  0.00  0.00     0.110 HD
ENDBRANCH   2  15
TORSDOF 2
