REMARK  6 active torsions:
REMARK  status: ('A' for Active; 'I' for Inactive)
REMARK    1  A    between atoms: C_2  and  S_1 
REMARK    2  A    between atoms: C_5  and  S_1 
REMARK    3  A    between atoms: N_7  and  C_3 
REMARK    4  A    between atoms: S_12  and  C_3 
REMARK    5  A    between atoms: C_16  and  N_7 
REMARK    6  A    between atoms: C_15  and  C_16 
ROOT
ATOM      1  C   UNL d   1       0.426   1.556  -0.059  0.00  0.00     0.171 C 
ATOM      2  C   UNL d   1      -0.611   2.125  -0.726  0.00  0.00     0.078 C 
ATOM      3  C   UNL d   1       1.201   2.313   0.840  0.00  0.00     0.114 C 
ATOM      4  N   UNL d   1       1.795   2.956   1.607  0.00  0.00    -0.191 NA
ENDROOT
BRANCH   1   5
ATOM      5  S   UNL d   1       0.811  -0.135  -0.128  0.00  0.00     0.219 S 
ATOM      6  O   UNL d   1       0.729  -0.636  -1.489  0.00  0.00    -0.216 OA
ATOM      7  O   UNL d   1       0.099  -0.820   0.938  0.00  0.00    -0.216 OA
BRANCH   5   8
ATOM      8  C   UNL d   1       2.560  -0.286   0.283  0.00  0.00     0.065 A 
ATOM      9  C   UNL d   1       2.941  -0.518   1.610  0.00  0.00     0.025 A 
ATOM     10  C   UNL d   1       4.267  -0.856   1.901  0.00  0.00     0.025 A 
ATOM     11  C   UNL d   1       5.197  -0.982   0.868  0.00  0.00     0.034 A 
ATOM     12  C   UNL d   1       4.824  -0.735  -0.453  0.00  0.00     0.025 A 
ATOM     13 CL   UNL d   1       6.802  -1.493   1.222  0.00  0.00    -0.084 Cl
ATOM     14  C   UNL d   1       3.503  -0.382  -0.750  0.00  0.00     0.025 A 
ENDBRANCH   5   8
ENDBRANCH   1   5
BRANCH   2  15
ATOM     15  N   UNL d   1      -0.867   3.511  -0.711  0.00  0.00    -0.281 NA
ATOM     16  H   UNL d   1      -0.695   3.942   0.197  0.00  0.00     0.128 HD
BRANCH  15  17
ATOM     17  C   UNL d   1      -0.301   4.383  -1.756  0.00  0.00     0.133 C 
BRANCH  17  18
ATOM     18  C   UNL d   1      -1.154   5.606  -1.938  0.00  0.00    -0.030 A 
ATOM     19  C   UNL d   1      -0.650   6.887  -1.732  0.00  0.00     0.096 A 
ATOM     20  N   UNL d   1      -1.371   8.023  -1.880  0.00  0.00    -0.375 N 
ATOM     21  C   UNL d   1      -2.659   7.881  -2.259  0.00  0.00     0.087 A 
ATOM     22  HN  UNL d   1      -0.961   8.942  -1.713  1.00  0.00     0.164 HD
ATOM     23  C   UNL d   1      -3.253   6.657  -2.513  0.00  0.00     0.018 A 
ATOM     24  C   UNL d   1      -2.485   5.506  -2.354  0.00  0.00     0.011 A 
ENDBRANCH  17  18
ENDBRANCH  15  17
ENDBRANCH   2  15
BRANCH   2  25
ATOM     25  S   UNL d   1      -1.789   1.161  -1.634  0.00  0.00    -0.120 SA
ATOM     26  C   UNL d   1      -2.675   0.339  -0.273  0.00  0.00     0.097 C 
ENDBRANCH   2  25
TORSDOF 6
