REMARK  6 active torsions:
REMARK  status: ('A' for Active; 'I' for Inactive)
REMARK    1  A    between atoms: C_9  and  C_1 
REMARK    2  A    between atoms: C_5  and  C_3 
REMARK    3  A    between atoms: C_6  and  O_14 
REMARK    4  A    between atoms: C_13  and  C_6 
REMARK    5  A    between atoms: C_15  and  C_7 
REMARK    6  A    between atoms: O_14  and  C_15 
ROOT
ATOM      1  C   UNL d   1      -0.344  -1.186   0.024  0.00  0.00     0.033 A 
ATOM      2  S   UNL d   1       1.348  -0.896  -0.002  0.00  0.00    -0.079 SA
ATOM      3  C   UNL d   1       1.142   0.795  -0.018  0.00  0.00     0.059 A 
ATOM      4  C   UNL d   1      -1.043   0.009  -0.019  0.00  0.00     0.023 A 
ATOM      5  C   UNL d   1      -0.185   1.152  -0.024  0.00  0.00     0.029 A 
ENDROOT
BRANCH   3   6
ATOM      6  C   UNL d   1       2.250   1.689  -0.022  0.00  0.00    -0.057 C 
ATOM      7  C   UNL d   1       3.237   2.374  -0.006  0.00  0.00    -0.074 C 
BRANCH   7   8
ATOM      8  C   UNL d   1       4.483   3.140   0.046  0.00  0.00     0.273 C 
BRANCH   8   9
ATOM      9  O   UNL d   1       5.609   2.253   0.126  0.00  0.00    -0.305 OA
BRANCH   9  10
ATOM     10  C   UNL d   1       5.923   1.828   1.375  0.00  0.00     0.294 C 
ATOM     11  O   UNL d   1       5.362   2.158   2.408  0.00  0.00    -0.259 OA
BRANCH  10  12
ATOM     12  C   UNL d   1       7.067   0.876   1.331  0.00  0.00     0.039 A 
ATOM     13  C   UNL d   1       7.498   0.302   2.536  0.00  0.00     0.017 A 
ATOM     14  C   UNL d   1       8.556  -0.610   2.543  0.00  0.00     0.001 A 
ATOM     15  C   UNL d   1       9.192  -0.950   1.350  0.00  0.00     0.000 A 
ATOM     16  C   UNL d   1       8.775  -0.377   0.149  0.00  0.00     0.001 A 
ATOM     17  C   UNL d   1       7.717   0.535   0.137  0.00  0.00     0.017 A 
ENDBRANCH  10  12
ENDBRANCH   9  10
ENDBRANCH   8   9
ENDBRANCH   7   8
ENDBRANCH   3   6
BRANCH   1  18
ATOM     18  C   UNL d   1      -0.868  -2.558   0.055  0.00  0.00     0.049 A 
ATOM     19  N   UNL d   1      -2.067  -2.718  -0.559  0.00  0.00    -0.365 N 
ATOM     20  C   UNL d   1      -2.593  -3.963  -0.571  0.00  0.00     0.088 A 
ATOM     21  HN  UNL d   1      -2.551  -1.932  -0.993  1.00  0.00     0.165 HD
ATOM     22  C   UNL d   1      -1.991  -5.063   0.017  0.00  0.00     0.017 A 
ATOM     23  C   UNL d   1      -0.773  -4.880   0.657  0.00  0.00     0.004 A 
ATOM     24  C   UNL d   1      -0.201  -3.611   0.678  0.00  0.00     0.031 A 
ENDBRANCH   1  18
TORSDOF 6
