REMARK  2 active torsions:
REMARK  status: ('A' for Active; 'I' for Inactive)
REMARK    1  A    between atoms: C_2  and  C_1 
REMARK       I    between atoms: N_3  and  C_1 
REMARK    2  A    between atoms: C_4  and  N_3 
ROOT
ATOM      1  C   UNL d   1       0.894  -0.319   0.015  0.00  0.00     0.262 C 
ATOM      2  N   UNL d   1       0.243   0.411  -0.961  0.00  0.00    -0.321 N 
ATOM      3  O   UNL d   1       2.005  -0.821  -0.146  0.00  0.00    -0.267 OA
ATOM      4  H   UNL d   1      -0.473   1.076  -0.679  0.00  0.00     0.169 HD
ENDROOT
BRANCH   1   5
ATOM      5  C   UNL d   1       0.203  -0.486   1.322  0.00  0.00     0.109 A 
ATOM      6  C   UNL d   1       0.771  -1.314   2.298  0.00  0.00     0.135 A 
ATOM      7  F   UNL d   1       1.962  -1.901   2.122  0.00  0.00    -0.205 F 
ATOM      8  C   UNL d   1       0.111  -1.580   3.501  0.00  0.00     0.043 A 
ATOM      9  C   UNL d   1      -1.139  -1.019   3.747  0.00  0.00     0.006 A 
ATOM     10  C   UNL d   1      -1.712  -0.179   2.797  0.00  0.00     0.043 A 
ATOM     11  C   UNL d   1      -1.040   0.085   1.599  0.00  0.00     0.135 A 
ATOM     12  F   UNL d   1      -1.639   0.902   0.718  0.00  0.00    -0.205 F 
ENDBRANCH   1   5
BRANCH   2  13
ATOM     13  C   UNL d   1       0.614   0.443  -2.327  0.00  0.00     0.056 A 
ATOM     14  C   UNL d   1       0.281   1.553  -3.118  0.00  0.00     0.060 A 
ATOM     15 CL   UNL d   1      -0.510   2.932  -2.435  0.00  0.00    -0.082 Cl
ATOM     16  C   UNL d   1       0.623   1.587  -4.474  0.00  0.00     0.026 A 
ATOM     17  C   UNL d   1       1.263   0.496  -5.061  0.00  0.00     0.002 A 
ATOM     18  C   UNL d   1       1.572  -0.623  -4.292  0.00  0.00     0.002 A 
ATOM     19  C   UNL d   1       1.259  -0.644  -2.931  0.00  0.00     0.031 A 
ENDBRANCH   2  13
TORSDOF 2
