REMARK  3 active torsions:
REMARK  status: ('A' for Active; 'I' for Inactive)
REMARK    1  A    between atoms: C_11  and  C_3 
REMARK    2  A    between atoms: C_13  and  C_4 
REMARK    3  A    between atoms: C_8  and  C_12 
REMARK       I    between atoms: C_10  and  N_9 
ROOT
ATOM      1  N   UNL d   1       1.112   0.405  -0.194  0.00  0.00    -0.322 N 
ATOM      2  HN  UNL d   1       1.977   0.846  -0.506  1.00  0.00     0.169 HD
ATOM      3  C   UNL d   1      -0.057   1.003   0.209  0.00  0.00     0.137 C 
ATOM      4  C   UNL d   1       0.842  -0.870  -0.078  0.00  0.00     0.152 C 
ATOM      5  N   UNL d   1      -1.065   0.137   0.416  0.00  0.00    -0.242 N 
ATOM      6  HN  UNL d   1      -2.038   0.342   0.640  1.00  0.00     0.196 HD
ATOM      7  O   UNL d   1      -0.458  -1.119   0.249  0.00  0.00    -0.222 OA
ENDROOT
BRANCH   3   8
ATOM      8  C   UNL d   1      -0.068   2.422   0.548  0.00  0.00     0.010 A 
ATOM      9  C   UNL d   1       1.145   3.131   0.535  0.00  0.00     0.016 A 
ATOM     10  C   UNL d   1       1.216   4.451   0.977  0.00  0.00     0.017 A 
ATOM     11  C   UNL d   1       0.067   5.099   1.444  0.00  0.00     0.048 A 
ATOM     12  C   UNL d   1      -1.155   4.406   1.427  0.00  0.00     0.017 A 
ATOM     13  C   UNL d   1      -1.224   3.077   0.987  0.00  0.00     0.016 A 
BRANCH  11  14
ATOM     14  C   UNL d   1       0.142   6.511   1.972  0.00  0.00     0.417 C 
ATOM     15  F   UNL d   1       1.409   7.015   1.996  0.00  0.00    -0.166 F 
ATOM     16  F   UNL d   1      -0.593   7.385   1.233  0.00  0.00    -0.166 F 
ATOM     17  F   UNL d   1      -0.321   6.614   3.249  0.00  0.00    -0.166 F 
ENDBRANCH  11  14
ENDBRANCH   3   8
BRANCH   4  18
ATOM     18  C   UNL d   1       1.853  -1.951   0.021  0.00  0.00     0.066 C 
ATOM     19  C   UNL d   1       2.413  -1.957   1.445  0.00  0.00     0.033 C 
ATOM     20  C   UNL d   1       3.605  -2.887   1.529  0.00  0.00     0.126 C 
ATOM     21  N   UNL d   1       3.321  -4.227   1.025  0.00  0.00    -0.352 N 
ATOM     22  C   UNL d   1       2.556  -4.336  -0.225  0.00  0.00     0.126 C 
ATOM     23  C   UNL d   1       4.230  -5.210   1.431  0.00  0.00     0.215 C 
ATOM     24  C   UNL d   1       1.382  -3.355  -0.328  0.00  0.00     0.033 C 
ATOM     25  O   UNL d   1       5.069  -5.016   2.313  0.00  0.00    -0.274 OA
ATOM     26  C   UNL d   1       4.149  -6.556   0.760  0.00  0.00     0.117 C 
ENDBRANCH   4  18
TORSDOF 3
