REMARK  4 active torsions:
REMARK  status: ('A' for Active; 'I' for Inactive)
REMARK    1  A    between atoms: N_3  and  C_9 
REMARK    2  A    between atoms: C_12  and  N_4 
REMARK    3  A    between atoms: C_9  and  C_8 
REMARK    4  A    between atoms: C_19  and  C_12 
ROOT
ATOM      1  N   UNL d   1       5.293   0.156   0.470  0.00  0.00     0.096 N 
ATOM      2  N   UNL d   1       4.651   3.092   0.885  0.00  0.00     0.096 N 
ATOM      3  C   UNL d   1       4.608   0.669   1.672  0.00  0.00     0.303 C 
ATOM      4  C   UNL d   1       5.240   2.584  -0.371  0.00  0.00     0.303 C 
ATOM      5  C   UNL d   1       5.996   1.240  -0.246  0.00  0.00     0.303 C 
ATOM      6  C   UNL d   1       3.845   2.004   1.478  0.00  0.00     0.303 C 
ENDROOT
BRANCH   1   7
ATOM      7  C   UNL d   1       4.388  -0.608  -0.397  0.00  0.00     0.311 C 
BRANCH   7   8
ATOM      8  C   UNL d   1       4.147  -2.014   0.127  0.00  0.00    -0.029 A 
ATOM      9  C   UNL d   1       5.223  -2.901   0.274  0.00  0.00     0.012 A 
ATOM     10  C   UNL d   1       5.014  -4.219   0.681  0.00  0.00     0.038 A 
ATOM     11  C   UNL d   1       3.724  -4.667   0.971  0.00  0.00     0.076 A 
ATOM     12  O   UNL d   1       3.624  -5.984   1.325  0.00  0.00    -0.340 OA
ATOM     13  C   UNL d   1       2.645  -3.783   0.906  0.00  0.00    -0.024 A 
ATOM     14  C   UNL d   1       2.302  -6.526   1.501  0.00  0.00     0.061 C 
ATOM     15  C   UNL d   1       1.353  -5.502   2.141  0.00  0.00     0.042 C 
ATOM     16  C   UNL d   1       2.474  -7.722   2.451  0.00  0.00     0.046 C 
ATOM     17  C   UNL d   1       1.776  -7.052   0.156  0.00  0.00     0.046 C 
ATOM     18  C   UNL d   1       1.269  -4.237   1.294  0.00  0.00     0.044 C 
ATOM     19  C   UNL d   1       2.857  -2.467   0.457  0.00  0.00     0.019 A 
ENDBRANCH   7   8
ENDBRANCH   1   7
BRANCH   2  20
ATOM     20  C   UNL d   1       5.669   3.560   1.849  0.00  0.00     0.311 C 
BRANCH  20  21
ATOM     21  C   UNL d   1       6.466   4.761   1.385  0.00  0.00    -0.030 A 
ATOM     22  C   UNL d   1       5.827   5.967   1.063  0.00  0.00     0.009 A 
ATOM     23  C   UNL d   1       6.572   7.073   0.647  0.00  0.00     0.001 A 
ATOM     24  C   UNL d   1       7.961   6.986   0.554  0.00  0.00     0.000 A 
ATOM     25  C   UNL d   1       8.607   5.797   0.881  0.00  0.00     0.001 A 
ATOM     26  C   UNL d   1       7.865   4.691   1.297  0.00  0.00     0.009 A 
ENDBRANCH  20  21
ENDBRANCH   2  20
TORSDOF 4
