REMARK  8 active torsions:
REMARK  status: ('A' for Active; 'I' for Inactive)
REMARK    1  A    between atoms: N_3  and  S_1 
REMARK    2  A    between atoms: C_5  and  S_1 
REMARK    3  A    between atoms: S_2  and  C_9 
REMARK    4  A    between atoms: C_6  and  S_2 
REMARK    5  A    between atoms: C_4  and  N_3 
REMARK    6  A    between atoms: C_9  and  C_18 
REMARK    7  A    between atoms: S_17  and  C_12 
REMARK    8  A    between atoms: C_18  and  S_17 
ROOT
ATOM      1  C   UNL d   1       0.953  -0.612   2.607  0.00  0.00     0.059 A 
ATOM      2  C   UNL d   1       2.171  -1.315   2.576  0.00  0.00     0.027 A 
ATOM      3  C   UNL d   1      -0.027  -0.976   3.556  0.00  0.00     0.031 A 
ATOM      4  C   UNL d   1       2.362  -2.338   3.537  0.00  0.00     0.021 A 
ATOM      5  C   UNL d   1       0.177  -2.009   4.471  0.00  0.00     0.002 A 
ATOM      6  C   UNL d   1       1.386  -2.681   4.475  0.00  0.00     0.002 A 
ENDROOT
BRANCH   2   7
ATOM      7  S   UNL d   1       3.589  -1.163   1.492  0.00  0.00    -0.127 SA
BRANCH   7   8
ATOM      8  C   UNL d   1       3.585   0.493   0.739  0.00  0.00     0.095 C 
BRANCH   8   9
ATOM      9  C   UNL d   1       3.690   1.695   1.655  0.00  0.00     0.156 C 
BRANCH   9  10
ATOM     10  S   UNL d   1       5.274   1.835   2.449  0.00  0.00     0.176 S 
ATOM     11  O   UNL d   1       5.353   0.887   3.539  0.00  0.00    -0.223 OA
ATOM     12  O   UNL d   1       6.301   1.899   1.429  0.00  0.00    -0.223 OA
BRANCH  10  13
ATOM     13  C   UNL d   1       5.196   3.454   3.204  0.00  0.00     0.059 A 
ATOM     14  C   UNL d   1       4.625   3.589   4.474  0.00  0.00     0.025 A 
ATOM     15  C   UNL d   1       4.631   4.838   5.100  0.00  0.00     0.025 A 
ATOM     16  C   UNL d   1       5.210   5.934   4.460  0.00  0.00     0.034 A 
ATOM     17  C   UNL d   1       5.778   5.797   3.193  0.00  0.00     0.025 A 
ATOM     18 CL   UNL d   1       5.240   7.463   5.249  0.00  0.00    -0.084 Cl
ATOM     19  C   UNL d   1       5.776   4.551   2.560  0.00  0.00     0.025 A 
ENDBRANCH  10  13
ENDBRANCH   9  10
ENDBRANCH   8   9
ENDBRANCH   7   8
ENDBRANCH   2   7
BRANCH   1  20
ATOM     20  N   UNL d   1       0.651   0.527   1.788  0.00  0.00    -0.279 N 
ATOM     21  H   UNL d   1       0.264   1.320   2.300  0.00  0.00     0.179 HD
BRANCH  20  22
ATOM     22  S   UNL d   1      -0.185   0.368   0.317  0.00  0.00     0.263 S 
ATOM     23  O   UNL d   1       0.645  -0.334  -0.634  0.00  0.00    -0.200 OA
ATOM     24  O   UNL d   1      -0.694   1.694   0.028  0.00  0.00    -0.200 OA
BRANCH  22  25
ATOM     25  C   UNL d   1      -1.565  -0.664   0.703  0.00  0.00     0.079 A 
ATOM     26  C   UNL d   1      -2.647  -0.138   1.415  0.00  0.00     0.026 A 
ATOM     27  C   UNL d   1      -3.600  -1.018   1.929  0.00  0.00     0.008 A 
ATOM     28  C   UNL d   1      -3.484  -2.393   1.708  0.00  0.00    -0.062 A 
ATOM     29  C   UNL d   1      -2.462  -2.885   0.883  0.00  0.00     0.008 A 
ATOM     30  C   UNL d   1      -4.398  -3.350   2.420  0.00  0.00     0.048 C 
ATOM     31  C   UNL d   1      -1.502  -2.019   0.374  0.00  0.00     0.026 A 
ENDBRANCH  22  25
ENDBRANCH  20  22
ENDBRANCH   1  20
TORSDOF 8
