REMARK  5 active torsions:
REMARK  status: ('A' for Active; 'I' for Inactive)
REMARK    1  A    between atoms: N_9  and  C_2 
REMARK    2  A    between atoms: C_19  and  C_3 
REMARK       I    between atoms: C_4  and  N_8 
REMARK    3  A    between atoms: C_5  and  C_4 
REMARK    4  A    between atoms: O_24  and  C_16 
REMARK    5  A    between atoms: O_25  and  C_17 
ROOT
ATOM      1  C   UNL d   1       2.468   6.860   0.269  0.00  0.00     0.259 C 
ATOM      2  N   UNL d   1       2.509   5.469   0.445  0.00  0.00    -0.346 N 
ATOM      3  N   UNL d   1       2.111   2.603   0.197  0.00  0.00    -0.265 NA
ATOM      4  O   UNL d   1       3.184   7.421  -0.562  0.00  0.00    -0.267 OA
ATOM      5  C   UNL d   1       3.421   4.663  -0.383  0.00  0.00     0.141 C 
ATOM      6  C   UNL d   1       1.851   4.695   1.506  0.00  0.00     0.141 C 
ATOM      7  C   UNL d   1       1.133   3.460   0.915  0.00  0.00     0.117 C 
ATOM      8  C   UNL d   1       2.773   3.352  -0.903  0.00  0.00     0.117 C 
ENDROOT
BRANCH   3   9
ATOM      9  C   UNL d   1       1.522   1.418  -0.301  0.00  0.00     0.097 A 
ATOM     10  C   UNL d   1       2.201   0.169  -0.388  0.00  0.00     0.048 A 
ATOM     11  C   UNL d   1       3.537  -0.312  -0.035  0.00  0.00    -0.003 A 
ATOM     12  C   UNL d   1       1.453  -0.875  -0.913  0.00  0.00     0.089 A 
ATOM     13  C   UNL d   1       3.686  -1.657  -0.323  0.00  0.00     0.065 A 
ATOM     14  S   UNL d   1       2.296  -2.351  -1.018  0.00  0.00    -0.082 SA
ATOM     15  N   UNL d   1       0.175  -0.838  -1.329  0.00  0.00    -0.346 N 
ATOM     16  C   UNL d   1      -0.367   0.362  -1.173  0.00  0.00     0.182 A 
ATOM     17  HN  UNL d   1      -0.321  -1.640  -1.719  1.00  0.00     0.167 HD
ATOM     18  N   UNL d   1       0.218   1.465  -0.691  0.00  0.00    -0.342 N 
ATOM     19  HN  UNL d   1      -0.309   2.335  -0.617  1.00  0.00     0.167 HD
BRANCH  11  20
ATOM     20  C   UNL d   1       4.651   0.413   0.580  0.00  0.00    -0.024 A 
ATOM     21  C   UNL d   1       4.434   1.280   1.659  0.00  0.00     0.012 A 
ATOM     22  C   UNL d   1       5.487   2.003   2.212  0.00  0.00     0.001 A 
ATOM     23  C   UNL d   1       6.785   1.836   1.728  0.00  0.00     0.000 A 
ATOM     24  C   UNL d   1       7.024   0.941   0.690  0.00  0.00     0.001 A 
ATOM     25  C   UNL d   1       5.962   0.243   0.111  0.00  0.00     0.012 A 
ENDBRANCH  11  20
ENDBRANCH   3   9
BRANCH   1  26
ATOM     26  C   UNL d   1       1.518   7.719   1.056  0.00  0.00     0.098 A 
ATOM     27  C   UNL d   1       1.991   8.885   1.709  0.00  0.00     0.086 A 
ATOM     28  C   UNL d   1       1.083   9.706   2.398  0.00  0.00     0.038 A 
ATOM     29  C   UNL d   1      -0.269   9.390   2.437  0.00  0.00     0.005 A 
ATOM     30  C   UNL d   1      -0.745   8.266   1.766  0.00  0.00     0.038 A 
ATOM     31  C   UNL d   1       0.133   7.447   1.040  0.00  0.00     0.086 A 
BRANCH  27  32
ATOM     32  O   UNL d   1       3.333   9.161   1.638  0.00  0.00    -0.355 OA
ATOM     33  C   UNL d   1       3.827  10.308   2.326  0.00  0.00     0.210 C 
ENDBRANCH  27  32
BRANCH  31  34
ATOM     34  O   UNL d   1      -0.296   6.374   0.301  0.00  0.00    -0.355 OA
ATOM     35  C   UNL d   1      -1.689   6.254   0.053  0.00  0.00     0.210 C 
ENDBRANCH  31  34
ENDBRANCH   1  26
TORSDOF 5
