REMARK  5 active torsions:
REMARK  status: ('A' for Active; 'I' for Inactive)
REMARK    1  A    between atoms: C_6  and  N_1 
REMARK    2  A    between atoms: C_11  and  C_6 
REMARK    3  A    between atoms: C_12  and  N_7 
REMARK    4  A    between atoms: N_8  and  C_11 
REMARK    5  A    between atoms: C_19  and  C_12 
ROOT
ATOM      1  N   UNL d   1       5.882   1.003  -3.195  0.00  0.00     0.096 N 
ATOM      2  N   UNL d   1       5.319   1.281  -0.225  0.00  0.00     0.093 N 
ATOM      3  C   UNL d   1       5.486  -0.139  -2.341  0.00  0.00     0.303 C 
ATOM      4  C   UNL d   1       5.326   2.236  -2.599  0.00  0.00     0.303 C 
ATOM      5  C   UNL d   1       5.834   0.038  -0.844  0.00  0.00     0.302 C 
ATOM      6  C   UNL d   1       5.669   2.431  -1.097  0.00  0.00     0.302 C 
ENDROOT
BRANCH   2   7
ATOM      7  C   UNL d   1       3.861   1.261   0.009  0.00  0.00     0.293 C 
BRANCH   7   8
ATOM      8  C   UNL d   1       3.353   0.169   0.971  0.00  0.00     0.166 C 
BRANCH   8   9
ATOM      9  N   UNL d   1       1.910   0.244   1.133  0.00  0.00    -0.278 N 
ATOM     10  C   UNL d   1       1.270   0.951   2.111  0.00  0.00     0.261 A 
ATOM     11  C   UNL d   1      -0.165   0.819   1.845  0.00  0.00     0.048 A 
ATOM     12  O   UNL d   1       1.739   1.597   3.027  0.00  0.00    -0.267 OA
ATOM     13  C   UNL d   1      -1.255   1.312   2.531  0.00  0.00     0.018 A 
ATOM     14  C   UNL d   1      -0.307   0.076   0.688  0.00  0.00     0.048 A 
ATOM     15  C   UNL d   1      -2.522   1.021   2.011  0.00  0.00     0.001 A 
ATOM     16  C   UNL d   1      -2.665   0.262   0.830  0.00  0.00     0.001 A 
ATOM     17  C   UNL d   1      -1.543  -0.219   0.149  0.00  0.00     0.018 A 
ATOM     18  C   UNL d   1       1.030  -0.271   0.217  0.00  0.00     0.261 A 
ATOM     19  O   UNL d   1       1.262  -0.877  -0.809  0.00  0.00    -0.267 OA
ENDBRANCH   8   9
ENDBRANCH   7   8
ENDBRANCH   2   7
BRANCH   1  20
ATOM     20  C   UNL d   1       7.347   1.120  -3.349  0.00  0.00     0.311 C 
BRANCH  20  21
ATOM     21  C   UNL d   1       7.984  -0.092  -3.994  0.00  0.00    -0.030 A 
ATOM     22  C   UNL d   1       7.603  -0.499  -5.280  0.00  0.00     0.009 A 
ATOM     23  C   UNL d   1       8.134  -1.662  -5.839  0.00  0.00     0.001 A 
ATOM     24  C   UNL d   1       9.061  -2.419  -5.125  0.00  0.00     0.000 A 
ATOM     25  C   UNL d   1       9.470  -2.008  -3.858  0.00  0.00     0.001 A 
ATOM     26  C   UNL d   1       8.937  -0.848  -3.295  0.00  0.00     0.009 A 
ENDBRANCH  20  21
ENDBRANCH   1  20
TORSDOF 5
