REMARK  7 active torsions:
REMARK  status: ('A' for Active; 'I' for Inactive)
REMARK    1  A    between atoms: C_4  and  C_1 
REMARK    2  A    between atoms: C_2  and  C_3 
REMARK       I    between atoms: N_8  and  C_4 
REMARK    3  A    between atoms: C_5  and  N_9 
REMARK    4  A    between atoms: N_7  and  C_5 
REMARK    5  A    between atoms: C_6  and  N_7 
REMARK    6  A    between atoms: N_9  and  N_8 
REMARK    7  A    between atoms: O_20  and  C_10 
ROOT
ATOM      1  N   UNL d   1      -3.583   1.318   0.237  0.00  0.00    -0.273 N 
ATOM      2  H   UNL d   1      -3.061   0.644  -0.325  0.00  0.00     0.189 HD
ENDROOT
BRANCH   1   3
ATOM      3  C   UNL d   1      -4.917   1.473  -0.056  0.00  0.00     0.191 C 
ATOM      4  S   UNL d   1      -5.784   2.894   0.093  0.00  0.00    -0.039 SA
BRANCH   3   5
ATOM      5  N   UNL d   1      -5.548   0.347  -0.528  0.00  0.00    -0.331 N 
ATOM      6  H   UNL d   1      -6.385   0.541  -1.077  0.00  0.00     0.168 HD
BRANCH   5   7
ATOM      7  C   UNL d   1      -5.323  -1.004  -0.159  0.00  0.00     0.049 A 
ATOM      8  C   UNL d   1      -5.875  -2.054  -0.915  0.00  0.00     0.074 A 
ATOM      9  C   UNL d   1      -5.693  -3.385  -0.477  0.00  0.00     0.018 A 
ATOM     10  C   UNL d   1      -4.997  -3.673   0.695  0.00  0.00     0.001 A 
ATOM     11  C   UNL d   1      -4.467  -2.636   1.448  0.00  0.00     0.002 A 
ATOM     12  C   UNL d   1      -4.631  -1.315   1.025  0.00  0.00     0.030 A 
BRANCH   8  13
ATOM     13  C   UNL d   1      -6.615  -1.853  -2.213  0.00  0.00     0.419 C 
ATOM     14  F   UNL d   1      -6.894  -0.552  -2.510  0.00  0.00    -0.166 F 
ATOM     15  F   UNL d   1      -5.927  -2.341  -3.282  0.00  0.00    -0.166 F 
ATOM     16  F   UNL d   1      -7.820  -2.492  -2.226  0.00  0.00    -0.166 F 
ENDBRANCH   8  13
ENDBRANCH   5   7
ENDBRANCH   3   5
ENDBRANCH   1   3
BRANCH   1  17
ATOM     17  N   UNL d   1      -2.821   2.341   0.795  0.00  0.00    -0.264 N 
ATOM     18  C   UNL d   1      -1.563   2.595   0.288  0.00  0.00     0.272 C 
ATOM     19  O   UNL d   1      -1.130   2.135  -0.762  0.00  0.00    -0.266 OA
ATOM     20  H   UNL d   1      -3.238   2.883   1.546  0.00  0.00     0.190 HD
BRANCH  18  21
ATOM     21  C   UNL d   1      -0.719   3.493   1.104  0.00  0.00     0.067 A 
ATOM     22  C   UNL d   1       0.129   4.419   0.492  0.00  0.00     0.081 A 
ATOM     23  C   UNL d   1       0.918   5.260   1.269  0.00  0.00     0.038 A 
ATOM     24  C   UNL d   1       0.907   5.140   2.662  0.00  0.00     0.009 A 
ATOM     25  C   UNL d   1       0.103   4.179   3.289  0.00  0.00    -0.061 A 
ATOM     26  C   UNL d   1      -0.718   3.363   2.503  0.00  0.00     0.026 A 
ATOM     27  C   UNL d   1       0.171   3.992   4.776  0.00  0.00     0.048 C 
BRANCH  22  28
ATOM     28  O   UNL d   1       0.238   4.543  -0.866  0.00  0.00    -0.360 OA
ATOM     29  H   UNL d   1      -0.155   3.742  -1.278  0.00  0.00     0.217 HD
ENDBRANCH  22  28
ENDBRANCH  18  21
ENDBRANCH   1  17
TORSDOF 7
