REMARK  7 active torsions:
REMARK  status: ('A' for Active; 'I' for Inactive)
REMARK    1  A    between atoms: S_7  and  C_1 
REMARK    2  A    between atoms: C_3  and  S_7 
REMARK    3  A    between atoms: C_17  and  C_6 
REMARK    4  A    between atoms: C_18  and  C_10 
REMARK    5  A    between atoms: C_14  and  C_11 
REMARK    6  A    between atoms: O_29  and  C_18 
REMARK    7  A    between atoms: C_32  and  O_29 
ROOT
ATOM      1  C   UNL d   1       1.136  -0.625  -0.053  0.00  0.00     0.096 A 
ATOM      2  N   UNL d   1       1.165   0.733  -0.058  0.00  0.00    -0.332 N 
ATOM      3  HN  UNL d   1       2.058   1.227  -0.059  1.00  0.00     0.168 HD
ATOM      4  C   UNL d   1      -0.065  -1.306  -0.017  0.00  0.00     0.088 A 
ATOM      5  C   UNL d   1       0.000   1.429  -0.062  0.00  0.00     0.191 A 
ATOM      6  N   UNL d   1      -1.203   0.824  -0.034  0.00  0.00    -0.347 N 
ATOM      7  HN  UNL d   1      -2.071   1.359  -0.041  1.00  0.00     0.166 HD
ATOM      8  C   UNL d   1      -1.206  -0.527   0.003  0.00  0.00     0.110 A 
ENDROOT
BRANCH   1   9
ATOM      9  S   UNL d   1       2.735  -1.439  -0.000  0.00  0.00    -0.034 SA
BRANCH   9  10
ATOM     10  C   UNL d   1       3.866  -0.140  -0.215  0.00  0.00     0.167 A 
ATOM     11  N   UNL d   1       3.735   1.084   0.370  0.00  0.00    -0.320 N 
ATOM     12  C   UNL d   1       4.765   1.867  -0.078  0.00  0.00     0.132 A 
ATOM     13  H   UNL d   1       2.918   1.389   0.878  0.00  0.00     0.169 HD
ATOM     14  N   UNL d   1       5.548   1.103  -0.820  0.00  0.00    -0.283 N 
ATOM     15  N   UNL d   1       4.992  -0.165  -0.891  0.00  0.00    -0.278 N 
ATOM     16  HN  UNL d   1       6.417   1.397  -1.266  1.00  0.00     0.188 HD
ATOM     17  HN  UNL d   1       5.385  -0.969  -1.379  1.00  0.00     0.189 HD
BRANCH  12  18
ATOM     18  C   UNL d   1       4.893   3.306   0.177  0.00  0.00     0.013 A 
ATOM     19  C   UNL d   1       4.210   3.933   1.231  0.00  0.00     0.039 A 
ATOM     20  C   UNL d   1       4.295   5.319   1.407  0.00  0.00     0.036 A 
ATOM     21 CL   UNL d   1       3.421   6.063   2.689  0.00  0.00    -0.084 Cl
ATOM     22  C   UNL d   1       5.063   6.100   0.552  0.00  0.00     0.047 A 
ATOM     23  C   UNL d   1       5.762   5.482  -0.479  0.00  0.00     0.036 A 
ATOM     24  C   UNL d   1       5.685   4.098  -0.666  0.00  0.00     0.039 A 
ATOM     25 CL   UNL d   1       6.714   6.439  -1.547  0.00  0.00    -0.084 Cl
ENDBRANCH  12  18
ENDBRANCH   9  10
ENDBRANCH   1   9
BRANCH   4  26
ATOM     26  C   UNL d   1      -0.249  -2.746   0.147  0.00  0.00     0.297 C 
ATOM     27  O   UNL d   1      -0.823  -3.208   1.119  0.00  0.00    -0.259 OA
BRANCH  26  28
ATOM     28  O   UNL d   1       0.164  -3.413  -0.952  0.00  0.00    -0.318 OA
BRANCH  28  29
ATOM     29  C   UNL d   1      -0.028  -4.841  -0.912  0.00  0.00     0.174 C 
ATOM     30  C   UNL d   1      -1.369  -5.231  -1.513  0.00  0.00     0.034 C 
ENDBRANCH  28  29
ENDBRANCH  26  28
ENDBRANCH   4  26
BRANCH   5  31
ATOM     31  C   UNL d   1       0.082   2.963  -0.034  0.00  0.00     0.449 C 
ATOM     32  F   UNL d   1       1.374   3.412   0.053  0.00  0.00    -0.163 F 
ATOM     33  F   UNL d   1      -0.441   3.561  -1.141  0.00  0.00    -0.163 F 
ATOM     34  F   UNL d   1      -0.555   3.514   1.039  0.00  0.00    -0.163 F 
ENDBRANCH   5  31
TORSDOF 7
