REMARK  3 active torsions:
REMARK  status: ('A' for Active; 'I' for Inactive)
REMARK    1  A    between atoms: C_4  and  C_1 
REMARK    2  A    between atoms: C_2  and  C_3 
REMARK       I    between atoms: C_5  and  N_8 
REMARK       I    between atoms: N_18  and  C_5 
REMARK    3  A    between atoms: N_8  and  C_7 
ROOT
ATOM      1  C   UNL d   1       0.435   2.975  -2.205  0.00  0.00     0.050 A 
ATOM      2  C   UNL d   1       0.720   0.882  -0.987  0.00  0.00     0.050 A 
ATOM      3  C   UNL d   1       0.953   2.259  -1.115  0.00  0.00     0.032 A 
ATOM      4  C   UNL d   1      -0.583   0.920  -3.051  0.00  0.00     0.037 A 
ATOM      5  C   UNL d   1      -0.046   0.226  -1.965  0.00  0.00     0.045 A 
ATOM      6  C   UNL d   1      -0.320   2.289  -3.174  0.00  0.00     0.045 A 
ENDROOT
BRANCH   4   7
ATOM      7  N   UNL d   1      -1.389   0.318  -4.040  0.00  0.00    -0.309 N 
ATOM      8  C   UNL d   1      -1.962  -0.936  -3.985  0.00  0.00     0.320 C 
ATOM      9  O   UNL d   1      -1.892  -1.722  -3.050  0.00  0.00    -0.247 OA
ATOM     10  N   UNL d   1      -2.677  -1.215  -5.128  0.00  0.00    -0.347 N 
ATOM     11  C   UNL d   1      -3.434  -2.435  -5.273  0.00  0.00     0.151 C 
ATOM     12  H   UNL d   1      -2.656  -0.573  -5.904  0.00  0.00     0.163 HD
ATOM     13  H   UNL d   1      -1.699   0.908  -4.795  0.00  0.00     0.170 HD
ENDBRANCH   4   7
BRANCH   2  14
ATOM     14  C   UNL d   1       1.274   0.092   0.175  0.00  0.00     0.417 C 
ATOM     15  F   UNL d   1       1.932   0.864   1.085  0.00  0.00    -0.166 F 
ATOM     16  F   UNL d   1       2.166  -0.858  -0.219  0.00  0.00    -0.166 F 
ATOM     17  F   UNL d   1       0.307  -0.562   0.875  0.00  0.00    -0.166 F 
ENDBRANCH   2  14
BRANCH   1  18
ATOM     18  C   UNL d   1       0.668   4.460  -2.348  0.00  0.00     0.417 C 
ATOM     19  F   UNL d   1       1.336   5.011  -1.298  0.00  0.00    -0.166 F 
ATOM     20  F   UNL d   1       1.393   4.766  -3.458  0.00  0.00    -0.166 F 
ATOM     21  F   UNL d   1      -0.497   5.157  -2.459  0.00  0.00    -0.166 F 
ENDBRANCH   1  18
TORSDOF 3
