REMARK  7 active torsions:
REMARK  status: ('A' for Active; 'I' for Inactive)
REMARK    1  A    between atoms: N_2  and  C_1 
REMARK       I    between atoms: C_4  and  N_2 
REMARK    2  A    between atoms: C_8  and  C_3 
REMARK    3  A    between atoms: C_11  and  C_4 
REMARK    4  A    between atoms: C_5  and  C_12 
REMARK    5  A    between atoms: O_10  and  C_5 
REMARK    6  A    between atoms: S_9  and  C_11 
REMARK    7  A    between atoms: C_12  and  S_9 
ROOT
ATOM      1  C   UNL d   1       1.454  -0.361   0.227  0.00  0.00     0.045 A 
ATOM      2  C   UNL d   1       0.507  -1.410   0.121  0.00  0.00     0.001 A 
ATOM      3  C   UNL d   1       1.052   0.986   0.234  0.00  0.00     0.030 A 
ATOM      4  C   UNL d   1      -0.852  -1.023   0.053  0.00  0.00     0.014 A 
ATOM      5  C   UNL d   1      -0.294   1.324   0.121  0.00  0.00     0.002 A 
ATOM      6  C   UNL d   1      -1.247   0.319   0.038  0.00  0.00     0.001 A 
ENDROOT
BRANCH   1   7
ATOM      7  N   UNL d   1       2.851  -0.597   0.216  0.00  0.00    -0.326 N 
ATOM      8  C   UNL d   1       3.560  -0.552   1.412  0.00  0.00     0.231 C 
ATOM      9  O   UNL d   1       3.057  -0.345   2.523  0.00  0.00    -0.272 OA
ATOM     10  H   UNL d   1       3.139  -1.357  -0.394  0.00  0.00     0.169 HD
BRANCH   8  11
ATOM     11  C   UNL d   1       5.029  -0.921   1.280  0.00  0.00     0.177 C 
BRANCH  11  12
ATOM     12  S   UNL d   1       6.113   0.373   1.971  0.00  0.00    -0.149 SA
BRANCH  12  13
ATOM     13  C   UNL d   1       5.605   0.410   3.726  0.00  0.00     0.184 C 
BRANCH  13  14
ATOM     14  C   UNL d   1       5.740  -0.941   4.399  0.00  0.00     0.149 C 
ATOM     15  O   UNL d   1       6.776  -1.373   4.872  0.00  0.00    -0.649 OA
BRANCH  14  16
ATOM     16  O   UNL d   1       4.592  -1.659   4.393  0.00  0.00    -0.776 OA
ATOM     17  H   UNL d   1       3.826  -1.195   3.977  0.00  0.00     0.167 HD
ENDBRANCH  14  16
ENDBRANCH  13  14
ENDBRANCH  12  13
ENDBRANCH  11  12
ENDBRANCH   8  11
ENDBRANCH   1   7
BRANCH   2  18
ATOM     18  C   UNL d   1       0.853  -2.861   0.106  0.00  0.00    -0.024 A 
ATOM     19  C   UNL d   1       1.878  -3.402   0.902  0.00  0.00     0.012 A 
ATOM     20  C   UNL d   1       2.239  -4.752   0.837  0.00  0.00     0.001 A 
ATOM     21  C   UNL d   1       1.523  -5.621   0.026  0.00  0.00     0.000 A 
ATOM     22  C   UNL d   1       0.455  -5.136  -0.720  0.00  0.00     0.001 A 
ATOM     23  C   UNL d   1       0.138  -3.773  -0.694  0.00  0.00     0.012 A 
ENDBRANCH   2  18
TORSDOF 7
