REMARK  1 active torsions:
REMARK  status: ('A' for Active; 'I' for Inactive)
REMARK    1  A    between atoms: C_11  and  C_7 
ROOT
ATOM      1  C   UNL d   1      -0.270   0.743   0.014  0.00  0.00     0.132 A 
ATOM      2  N   UNL d   1      -0.295  -0.644   0.034  0.00  0.00    -0.244 N 
ATOM      3  N   UNL d   1      -1.574  -1.096   0.058  0.00  0.00    -0.292 N 
ATOM      4  HN  UNL d   1      -1.883  -2.067   0.107  1.00  0.00     0.187 HD
ATOM      5  C   UNL d   1      -1.565   1.181  -0.004  0.00  0.00     0.082 A 
ATOM      6  N   UNL d   1       0.922   1.437   0.003  0.00  0.00    -0.308 N 
ATOM      7  C   UNL d   1      -2.350  -0.000   0.004  0.00  0.00     0.062 A 
ATOM      8  C   UNL d   1       0.903  -1.374   0.025  0.00  0.00     0.037 A 
ATOM      9  C   UNL d   1       2.080  -0.717   0.007  0.00  0.00     0.101 A 
ATOM     10  C   UNL d   1       2.125   0.774   0.001  0.00  0.00     0.248 A 
ATOM     11  O   UNL d   1       3.199   1.364  -0.012  0.00  0.00    -0.268 OA
ATOM     12  C   UNL d   1       0.857  -2.871   0.021  0.00  0.00     0.070 C 
ATOM     13  H   UNL d   1       0.942   2.448  -0.010  0.00  0.00     0.170 HD
ENDROOT
BRANCH   7  14
ATOM     14  C   UNL d   1      -3.812  -0.091  -0.050  0.00  0.00    -0.008 A 
ATOM     15  C   UNL d   1      -4.565   0.903  -0.692  0.00  0.00     0.014 A 
ATOM     16  C   UNL d   1      -5.958   0.808  -0.763  0.00  0.00     0.001 A 
ATOM     17  C   UNL d   1      -6.612  -0.279  -0.187  0.00  0.00     0.000 A 
ATOM     18  C   UNL d   1      -5.877  -1.270   0.461  0.00  0.00     0.001 A 
ATOM     19  C   UNL d   1      -4.483  -1.179   0.526  0.00  0.00     0.014 A 
ENDBRANCH   7  14
TORSDOF 1
