REMARK  6 active torsions:
REMARK  status: ('A' for Active; 'I' for Inactive)
REMARK    1  A    between atoms: N_2  and  S_1 
REMARK    2  A    between atoms: C_8  and  S_1 
REMARK    3  A    between atoms: C_3  and  N_2 
REMARK    4  A    between atoms: N_11  and  C_21 
REMARK    5  A    between atoms: C_14  and  C_13 
REMARK    6  A    between atoms: O_24  and  C_18 
ROOT
ATOM      1  C   UNL d   1       0.414  -0.404   1.482  0.00  0.00     0.075 A 
ATOM      2  C   UNL d   1       0.411  -1.732   1.908  0.00  0.00     0.027 A 
ATOM      3  C   UNL d   1       0.077   0.619   2.372  0.00  0.00     0.027 A 
ATOM      4  C   UNL d   1      -0.374  -1.038   4.107  0.00  0.00     0.032 A 
ATOM      5  C   UNL d   1      -0.317   0.294   3.675  0.00  0.00     0.031 A 
ATOM      6  C   UNL d   1       0.023  -2.043   3.215  0.00  0.00     0.031 A 
ENDROOT
BRANCH   1   7
ATOM      7  S   UNL d   1       0.997  -0.009  -0.152  0.00  0.00     0.248 S 
ATOM      8  O   UNL d   1       1.440   1.370  -0.118  0.00  0.00    -0.205 OA
ATOM      9  O   UNL d   1       1.911  -1.055  -0.568  0.00  0.00    -0.205 OA
BRANCH   7  10
ATOM     10  N   UNL d   1      -0.380  -0.015  -1.094  0.00  0.00    -0.151 NA
ATOM     11  H   UNL d   1      -0.299   0.693  -1.817  0.00  0.00     0.149 HD
BRANCH  10  12
ATOM     12  C   UNL d   1      -0.704  -1.254  -1.640  0.00  0.00     0.171 A 
ATOM     13  N   UNL d   1      -1.337  -2.134  -0.861  0.00  0.00    -0.336 N 
ATOM     14  C   UNL d   1      -1.687  -3.291  -1.458  0.00  0.00     0.009 A 
ATOM     15  HN  UNL d   1      -1.542  -1.944   0.120  1.00  0.00     0.168 HD
ATOM     16  C   UNL d   1      -2.466  -4.283  -0.648  0.00  0.00     0.068 C 
ATOM     17  C   UNL d   1      -1.370  -3.571  -2.776  0.00  0.00     0.049 A 
ATOM     18  C   UNL d   1      -0.694  -2.589  -3.478  0.00  0.00     0.009 A 
ATOM     19  N   UNL d   1      -0.377  -1.401  -2.926  0.00  0.00    -0.336 N 
ATOM     20  C   UNL d   1      -0.295  -2.823  -4.904  0.00  0.00     0.068 C 
ATOM     21  HN  UNL d   1       0.083  -0.661  -3.457  1.00  0.00     0.168 HD
ENDBRANCH  10  12
ENDBRANCH   7  10
ENDBRANCH   1   7
BRANCH   4  22
ATOM     22  N   UNL d   1      -0.804  -1.276   5.428  0.00  0.00    -0.365 N 
ATOM     23  C   UNL d   1      -1.500  -2.340   5.682  0.00  0.00     0.102 C 
ATOM     24  HN  UNL d   1      -0.571  -0.619   6.173  1.00  0.00     0.165 HD
BRANCH  23  25
ATOM     25  C   UNL d   1      -2.072  -2.595   7.021  0.00  0.00     0.012 A 
ATOM     26  C   UNL d   1      -1.972  -1.669   8.065  0.00  0.00     0.077 A 
ATOM     27  C   UNL d   1      -2.609  -1.911   9.280  0.00  0.00     0.037 A 
ATOM     28  C   UNL d   1      -3.340  -3.086   9.462  0.00  0.00     0.003 A 
ATOM     29  C   UNL d   1      -3.424  -4.024   8.432  0.00  0.00     0.001 A 
ATOM     30  C   UNL d   1      -2.792  -3.780   7.211  0.00  0.00     0.015 A 
BRANCH  26  31
ATOM     31  O   UNL d   1      -1.274  -0.498   7.955  0.00  0.00    -0.360 OA
ATOM     32  H   UNL d   1      -0.882  -0.480   7.052  0.00  0.00     0.217 HD
ENDBRANCH  26  31
ENDBRANCH  23  25
ENDBRANCH   4  22
TORSDOF 6
