REMARK  0 active torsions:
REMARK  status: ('A' for Active; 'I' for Inactive)
ROOT
ATOM      1  C   UNL d   1      -0.008  -0.819  -0.690  0.00  0.00     0.099 A 
ATOM      2  C   UNL d   1       0.001   0.736  -0.667  0.00  0.00     0.013 A 
ATOM      3  C   UNL d   1       1.246  -1.161   0.075  0.00  0.00     0.166 A 
ATOM      4  C   UNL d   1      -1.266  -1.146   0.074  0.00  0.00     0.166 A 
ATOM      5  C   UNL d   1       1.246   1.089   0.107  0.00  0.00    -0.008 A 
ATOM      6  C   UNL d   1      -1.233   1.103   0.116  0.00  0.00    -0.008 A 
ATOM      7  C   UNL d   1       1.957   0.043   0.532  0.00  0.00     0.048 A 
ATOM      8  C   UNL d   1      -1.957   0.065   0.542  0.00  0.00     0.048 A 
ATOM      9  O   UNL d   1       1.675  -2.280   0.306  0.00  0.00    -0.292 OA
ATOM     10  O   UNL d   1      -1.714  -2.261   0.296  0.00  0.00    -0.292 OA
ATOM     11  C   UNL d   1      -0.012  -1.493  -2.056  0.00  0.00     0.034 C 
ATOM     12  C   UNL d   1       0.003   1.428  -2.033  0.00  0.00     0.025 C 
ENDROOT
TORSDOF 0
