REMARK  1 active torsions:
REMARK  status: ('A' for Active; 'I' for Inactive)
REMARK    1  A    between atoms: N_4  and  C_1 
ROOT
ATOM      1  C   UNL d   1       1.578   1.152  -0.001  0.00  0.00     0.197 A 
ATOM      2  N   UNL d   1       0.266   0.738  -0.001  0.00  0.00    -0.288 N 
ATOM      3  C   UNL d   1       0.331  -0.663  -0.001  0.00  0.00     0.113 A 
ATOM      4  N   UNL d   1       1.573  -1.103  -0.001  0.00  0.00    -0.348 N 
ATOM      5  HN  UNL d   1       1.885  -2.074  -0.001  1.00  0.00     0.167 HD
ATOM      6  C   UNL d   1       2.356   0.020  -0.001  0.00  0.00     0.145 A 
ATOM      7  C   UNL d   1      -0.957   1.418  -0.002  0.00  0.00     0.101 A 
ATOM      8  C   UNL d   1      -0.896  -1.385   0.001  0.00  0.00     0.056 A 
ATOM      9  C   UNL d   1      -2.110   0.728  -0.001  0.00  0.00     0.024 A 
ATOM     10  C   UNL d   1      -2.077  -0.731   0.002  0.00  0.00    -0.057 A 
ATOM     11  C   UNL d   1      -3.385  -1.465   0.008  0.00  0.00     0.048 C 
ENDROOT
BRANCH   1  12
ATOM     12  N   UNL d   1       2.021   2.498  -0.001  0.00  0.00    -0.096 N 
ATOM     13  O   UNL d   1       1.176   3.397  -0.001  0.00  0.00    -0.530 OA
ATOM     14  O   UNL d   1       3.246   2.670   0.001  0.00  0.00    -0.530 OA
ENDBRANCH   1  12
TORSDOF 1
