REMARK  7 active torsions:
REMARK  status: ('A' for Active; 'I' for Inactive)
REMARK    1  A    between atoms: C_2  and  S_1 
REMARK    2  A    between atoms: C_7  and  S_1 
REMARK    3  A    between atoms: N_6  and  C_3 
REMARK    4  A    between atoms: S_14  and  C_3 
REMARK    5  A    between atoms: C_4  and  C_9 
REMARK    6  A    between atoms: C_12  and  N_6 
REMARK    7  A    between atoms: C_27  and  S_14 
ROOT
ATOM      1  C   UNL d   1       0.342   0.022   1.795  0.00  0.00     0.172 C 
ATOM      2  C   UNL d   1      -0.482   1.025   2.212  0.00  0.00     0.083 C 
ATOM      3  C   UNL d   1       0.965  -0.862   2.722  0.00  0.00     0.114 C 
ATOM      4  N   UNL d   1       1.456  -1.624   3.443  0.00  0.00    -0.191 NA
ENDROOT
BRANCH   1   5
ATOM      5  S   UNL d   1       0.950  -0.102   0.171  0.00  0.00     0.219 S 
ATOM      6  O   UNL d   1       2.251   0.548   0.127  0.00  0.00    -0.216 OA
ATOM      7  O   UNL d   1      -0.041   0.236  -0.836  0.00  0.00    -0.216 OA
BRANCH   5   8
ATOM      8  C   UNL d   1       1.260  -1.846  -0.119  0.00  0.00     0.065 A 
ATOM      9  C   UNL d   1       0.241  -2.623  -0.687  0.00  0.00     0.025 A 
ATOM     10  C   UNL d   1       0.511  -3.935  -1.083  0.00  0.00     0.025 A 
ATOM     11  C   UNL d   1       1.791  -4.462  -0.914  0.00  0.00     0.034 A 
ATOM     12  C   UNL d   1       2.805  -3.690  -0.346  0.00  0.00     0.025 A 
ATOM     13 CL   UNL d   1       2.127  -6.064  -1.442  0.00  0.00    -0.084 Cl
ATOM     14  C   UNL d   1       2.547  -2.373   0.046  0.00  0.00     0.025 A 
ENDBRANCH   5   8
ENDBRANCH   1   5
BRANCH   2  15
ATOM     15  N   UNL d   1      -0.686   1.289   3.573  0.00  0.00    -0.252 NA
ATOM     16  H   UNL d   1      -1.008   2.250   3.695  0.00  0.00     0.134 HD
BRANCH  15  17
ATOM     17  C   UNL d   1      -1.461   0.491   4.456  0.00  0.00     0.014 A 
ATOM     18  C   UNL d   1      -1.382   0.775   5.828  0.00  0.00     0.039 A 
ATOM     19  C   UNL d   1      -2.101   0.024   6.771  0.00  0.00     0.049 A 
ATOM     20  C   UNL d   1      -2.937  -1.005   6.317  0.00  0.00     0.016 A 
ATOM     21  C   UNL d   1      -3.039  -1.282   4.955  0.00  0.00     0.003 A 
ATOM     22  C   UNL d   1      -2.302  -0.540   4.029  0.00  0.00     0.024 A 
BRANCH  19  23
ATOM     23  C   UNL d   1      -1.964   0.291   8.250  0.00  0.00     0.417 C 
ATOM     24  F   UNL d   1      -1.115   1.315   8.542  0.00  0.00    -0.166 F 
ATOM     25  F   UNL d   1      -3.151   0.614   8.834  0.00  0.00    -0.166 F 
ATOM     26  F   UNL d   1      -1.494  -0.790   8.931  0.00  0.00    -0.166 F 
ENDBRANCH  19  23
ENDBRANCH  15  17
ENDBRANCH   2  15
BRANCH   2  27
ATOM     27  S   UNL d   1      -1.378   2.031   1.070  0.00  0.00    -0.116 SA
BRANCH  27  28
ATOM     28  C   UNL d   1      -0.817   3.720   1.396  0.00  0.00     0.076 C 
ATOM     29  C   UNL d   1       0.637   3.933   1.026  0.00  0.00     0.016 C 
ENDBRANCH  27  28
ENDBRANCH   2  27
TORSDOF 7
