REMARK  6 active torsions:
REMARK  status: ('A' for Active; 'I' for Inactive)
REMARK    1  A    between atoms: C_2  and  C_1 
REMARK    2  A    between atoms: C_12  and  C_1 
REMARK    3  A    between atoms: C_3  and  C_6 
REMARK    4  A    between atoms: N_4  and  C_7 
REMARK    5  A    between atoms: O_15  and  N_8 
REMARK    6  A    between atoms: O_18  and  C_10 
ROOT
ATOM      1  C   UNL d   1       0.339  -1.383  -0.033  0.00  0.00     0.020 A 
ATOM      2  C   UNL d   1       0.562  -2.423   0.901  0.00  0.00     0.044 A 
ATOM      3  C   UNL d   1      -0.726  -1.470  -0.955  0.00  0.00     0.016 A 
ATOM      4  C   UNL d   1      -0.355  -3.493   0.901  0.00  0.00     0.030 A 
ATOM      5  C   UNL d   1      -1.581  -2.568  -0.958  0.00  0.00     0.001 A 
ATOM      6  C   UNL d   1      -1.404  -3.575  -0.020  0.00  0.00     0.002 A 
ENDROOT
BRANCH   2   7
ATOM      7  N   UNL d   1       1.619  -2.331   1.842  0.00  0.00    -0.364 N 
ATOM      8  C   UNL d   1       1.978  -3.336   2.570  0.00  0.00     0.102 C 
ATOM      9  HN  UNL d   1       2.111  -1.444   1.947  1.00  0.00     0.165 HD
BRANCH   8  10
ATOM     10  C   UNL d   1       2.938  -3.173   3.679  0.00  0.00     0.014 A 
ATOM     11  C   UNL d   1       3.723  -2.027   3.832  0.00  0.00     0.077 A 
ATOM     12  C   UNL d   1       4.589  -1.915   4.918  0.00  0.00     0.039 A 
ATOM     13  C   UNL d   1       4.645  -2.932   5.876  0.00  0.00     0.022 A 
ATOM     14  C   UNL d   1       3.842  -4.061   5.732  0.00  0.00     0.011 A 
ATOM     15  C   UNL d   1       2.996  -4.196   4.633  0.00  0.00     0.034 A 
ATOM     16 BR   UNL d   1       3.874  -5.413   7.055  0.00  0.00    -0.051 Br
BRANCH  11  17
ATOM     17  O   UNL d   1       3.682  -0.972   2.964  0.00  0.00    -0.360 OA
ATOM     18  H   UNL d   1       2.929  -1.112   2.338  0.00  0.00     0.217 HD
ENDBRANCH  11  17
ENDBRANCH   8  10
ENDBRANCH   2   7
BRANCH   1  19
ATOM     19  C   UNL d   1       1.164  -0.131  -0.083  0.00  0.00     0.076 C 
ATOM     20  N   UNL d   1       1.403   0.663   0.929  0.00  0.00    -0.268 N 
ATOM     21  HN  UNL d   1       2.018   1.474   0.873  1.00  0.00     0.194 HD
BRANCH  20  22
ATOM     22  O   UNL d   1       0.732   0.289   2.094  0.00  0.00    -0.289 OA
ATOM     23  H   UNL d   1       1.156   0.851   2.767  0.00  0.00     0.244 HD
ENDBRANCH  20  22
BRANCH  19  24
ATOM     24  C   UNL d   1       1.687   0.325  -1.417  0.00  0.00    -0.007 A 
ATOM     25  C   UNL d   1       1.719   1.702  -1.684  0.00  0.00     0.014 A 
ATOM     26  C   UNL d   1       2.137   2.174  -2.930  0.00  0.00     0.001 A 
ATOM     27  C   UNL d   1       2.532   1.269  -3.913  0.00  0.00     0.000 A 
ATOM     28  C   UNL d   1       2.514  -0.100  -3.654  0.00  0.00     0.001 A 
ATOM     29  C   UNL d   1       2.095  -0.577  -2.407  0.00  0.00     0.014 A 
ENDBRANCH  19  24
ENDBRANCH   1  19
TORSDOF 6
