REMARK  3 active torsions:
REMARK  status: ('A' for Active; 'I' for Inactive)
REMARK    1  A    between atoms: C_2  and  S_1 
REMARK    2  A    between atoms: C_7  and  S_1 
REMARK    3  A    between atoms: N_3  and  C_5 
ROOT
ATOM      1  C   UNL d   1       0.258  -0.040   1.780  0.00  0.00     0.086 A 
ATOM      2  C   UNL d   1       0.557   0.846   2.818  0.00  0.00     0.058 A 
ATOM      3  C   UNL d   1      -0.779  -0.504   4.334  0.00  0.00     0.104 A 
ATOM      4  C   UNL d   1       0.038   0.612   4.100  0.00  0.00     0.061 A 
ATOM      5  C   UNL d   1      -0.571  -1.150   2.019  0.00  0.00     0.028 A 
ATOM      6  C   UNL d   1      -1.094  -1.383   3.292  0.00  0.00     0.037 A 
ATOM      7 CL   UNL d   1       1.545   2.246   2.625  0.00  0.00    -0.083 Cl
ENDROOT
BRANCH   1   8
ATOM      8  S   UNL d   1       1.001   0.109   0.171  0.00  0.00     0.208 S 
ATOM      9  O   UNL d   1       0.403  -0.920  -0.664  0.00  0.00    -0.217 OA
ATOM     10  O   UNL d   1       2.436   0.116   0.383  0.00  0.00    -0.217 OA
BRANCH   8  11
ATOM     11  C   UNL d   1       0.536   1.644  -0.598  0.00  0.00     0.064 A 
ATOM     12  C   UNL d   1       1.531   2.517  -1.054  0.00  0.00     0.025 A 
ATOM     13  C   UNL d   1       1.169   3.656  -1.778  0.00  0.00     0.025 A 
ATOM     14  C   UNL d   1      -0.176   3.912  -2.042  0.00  0.00     0.034 A 
ATOM     15  C   UNL d   1      -1.169   3.048  -1.575  0.00  0.00     0.025 A 
ATOM     16 CL   UNL d   1      -0.615   5.288  -2.977  0.00  0.00    -0.084 Cl
ATOM     17  C   UNL d   1      -0.814   1.905  -0.850  0.00  0.00     0.025 A 
ENDBRANCH   8  11
ENDBRANCH   1   8
BRANCH   3  18
ATOM     18  N   UNL d   1      -1.300  -0.762   5.683  0.00  0.00    -0.116 N 
ATOM     19  O   UNL d   1      -0.973   0.025   6.583  0.00  0.00    -0.532 OA
ATOM     20  O   UNL d   1      -2.036  -1.745   5.836  0.00  0.00    -0.532 OA
ENDBRANCH   3  18
TORSDOF 3
