REMARK  10 active torsions:
REMARK  status: ('A' for Active; 'I' for Inactive)
REMARK       I    between atoms: N_8  and  C_1 
REMARK       I    between atoms: N_9  and  C_1 
REMARK    1  A    between atoms: N_2  and  N_8 
REMARK    2  A    between atoms: N_4  and  N_9 
REMARK    3  A    between atoms: O_23  and  C_6 
REMARK    4  A    between atoms: O_24  and  C_7 
REMARK    5  A    between atoms: O_25  and  C_11 
REMARK    6  A    between atoms: O_26  and  C_12 
REMARK    7  A    between atoms: C_19  and  C_17 
REMARK    8  A    between atoms: C_20  and  C_18 
REMARK    9  A    between atoms: C_27  and  O_25 
REMARK   10  A    between atoms: C_28  and  O_26 
ROOT
ATOM      1  C   UNL d   1       1.075  -0.108  -0.053  0.00  0.00     0.353 C 
ATOM      2  N   UNL d   1       0.390  -0.851  -1.015  0.00  0.00    -0.251 N 
ATOM      3  N   UNL d   1       0.205   0.617   0.760  0.00  0.00    -0.251 N 
ATOM      4  O   UNL d   1       2.297  -0.099   0.066  0.00  0.00    -0.244 OA
ATOM      5  H   UNL d   1      -0.619  -0.839  -1.062  0.00  0.00     0.191 HD
ATOM      6  H   UNL d   1      -0.787   0.619   0.580  0.00  0.00     0.191 HD
ENDROOT
BRANCH   2   7
ATOM      7  N   UNL d   1       1.096  -1.629  -1.884  0.00  0.00    -0.307 N 
ATOM      8  C   UNL d   1       0.419  -2.299  -2.757  0.00  0.00     0.118 C 
ATOM      9  HN  UNL d   1       2.114  -1.680  -1.847  1.00  0.00     0.186 HD
BRANCH   8  10
ATOM     10  C   UNL d   1       1.094  -3.176  -3.740  0.00  0.00    -0.017 A 
ATOM     11  C   UNL d   1       0.320  -3.870  -4.677  0.00  0.00     0.052 A 
ATOM     12  C   UNL d   1       0.926  -4.713  -5.623  0.00  0.00     0.102 A 
ATOM     13  C   UNL d   1       2.331  -4.843  -5.631  0.00  0.00     0.102 A 
ATOM     14  C   UNL d   1       3.090  -4.143  -4.679  0.00  0.00     0.040 A 
ATOM     15  C   UNL d   1       2.480  -3.314  -3.736  0.00  0.00     0.016 A 
BRANCH  12  16
ATOM     16  O   UNL d   1       0.208  -5.426  -6.545  0.00  0.00    -0.353 OA
ATOM     17  C   UNL d   1      -1.208  -5.333  -6.542  0.00  0.00     0.210 C 
ENDBRANCH  12  16
BRANCH  13  18
ATOM     18  O   UNL d   1       3.117  -5.593  -6.473  0.00  0.00    -0.349 OA
BRANCH  18  19
ATOM     19  C   UNL d   1       2.488  -6.330  -7.518  0.00  0.00     0.171 C 
ATOM     20  C   UNL d   1       3.551  -7.035  -8.342  0.00  0.00     0.034 C 
ENDBRANCH  18  19
ENDBRANCH  13  18
ENDBRANCH   8  10
ENDBRANCH   2   7
BRANCH   3  21
ATOM     21  N   UNL d   1       0.713   1.432   1.736  0.00  0.00    -0.307 N 
ATOM     22  C   UNL d   1      -0.155   2.075   2.443  0.00  0.00     0.118 C 
ATOM     23  HN  UNL d   1       1.716   1.526   1.894  1.00  0.00     0.186 HD
BRANCH  22  24
ATOM     24  C   UNL d   1       0.246   3.017   3.509  0.00  0.00    -0.017 A 
ATOM     25  C   UNL d   1      -0.762   3.678   4.220  0.00  0.00     0.052 A 
ATOM     26  C   UNL d   1      -0.444   4.621   5.211  0.00  0.00     0.102 A 
ATOM     27  C   UNL d   1       0.911   4.881   5.501  0.00  0.00     0.102 A 
ATOM     28  C   UNL d   1       1.909   4.198   4.786  0.00  0.00     0.040 A 
ATOM     29  C   UNL d   1       1.585   3.272   3.792  0.00  0.00     0.016 A 
BRANCH  26  30
ATOM     30  O   UNL d   1      -1.402   5.308   5.905  0.00  0.00    -0.353 OA
ATOM     31  C   UNL d   1      -2.771   5.074   5.610  0.00  0.00     0.210 C 
ENDBRANCH  26  30
BRANCH  27  32
ATOM     32  O   UNL d   1       1.433   5.754   6.426  0.00  0.00    -0.349 OA
BRANCH  32  33
ATOM     33  C   UNL d   1       0.536   6.523   7.222  0.00  0.00     0.171 C 
ATOM     34  C   UNL d   1       1.335   7.402   8.168  0.00  0.00     0.034 C 
ENDBRANCH  32  33
ENDBRANCH  27  32
ENDBRANCH  22  24
ENDBRANCH   3  21
TORSDOF 10
