REMARK  6 active torsions:
REMARK  status: ('A' for Active; 'I' for Inactive)
REMARK    1  A    between atoms: N_2  and  S_1 
REMARK    2  A    between atoms: C_3  and  S_1 
REMARK    3  A    between atoms: C_16  and  N_6 
REMARK    4  A    between atoms: C_19  and  C_16 
REMARK    5  A    between atoms: O_17  and  C_19 
REMARK    6  A    between atoms: C_18  and  O_17 
ROOT
ATOM      1  N   UNL d   1       0.378   1.181  -0.503  0.00  0.00    -0.203 NA
ATOM      2  N   UNL d   1      -0.764   2.367   1.980  0.00  0.00     0.092 N 
ATOM      3  C   UNL d   1       0.860   2.508  -0.006  0.00  0.00     0.138 C 
ATOM      4  C   UNL d   1      -1.029   0.929  -0.084  0.00  0.00     0.138 C 
ATOM      5  C   UNL d   1      -1.166   1.046   1.443  0.00  0.00     0.288 C 
ATOM      6  C   UNL d   1       0.613   2.675   1.517  0.00  0.00     0.288 C 
ENDROOT
BRANCH   1   7
ATOM      7  S   UNL d   1       1.442  -0.135  -0.287  0.00  0.00     0.243 S 
ATOM      8  O   UNL d   1       0.687  -1.365  -0.389  0.00  0.00    -0.206 OA
ATOM      9  O   UNL d   1       2.289   0.134   0.856  0.00  0.00    -0.206 OA
BRANCH   7  10
ATOM     10  C   UNL d   1       2.443  -0.044  -1.749  0.00  0.00     0.074 A 
ATOM     11  C   UNL d   1       3.821   0.144  -1.650  0.00  0.00     0.025 A 
ATOM     12  C   UNL d   1       4.606   0.050  -2.800  0.00  0.00     0.008 A 
ATOM     13  C   UNL d   1       4.018  -0.235  -4.042  0.00  0.00    -0.062 A 
ATOM     14  C   UNL d   1       2.627  -0.383  -4.130  0.00  0.00     0.008 A 
ATOM     15  C   UNL d   1       4.885  -0.423  -5.252  0.00  0.00     0.048 C 
ATOM     16  C   UNL d   1       1.838  -0.291  -2.984  0.00  0.00     0.025 A 
ENDBRANCH   7  10
ENDBRANCH   1   7
BRANCH   2  17
ATOM     17  C   UNL d   1      -1.694   3.456   1.629  0.00  0.00     0.299 C 
BRANCH  17  18
ATOM     18  C   UNL d   1      -3.107   3.272   2.200  0.00  0.00     0.206 C 
BRANCH  18  19
ATOM     19  O   UNL d   1      -3.899   4.405   1.835  0.00  0.00    -0.349 OA
BRANCH  19  20
ATOM     20  C   UNL d   1      -5.212   4.368   2.220  0.00  0.00     0.068 A 
ATOM     21  C   UNL d   1      -5.824   3.347   2.952  0.00  0.00     0.037 A 
ATOM     22  C   UNL d   1      -7.178   3.436   3.287  0.00  0.00     0.003 A 
ATOM     23  C   UNL d   1      -7.925   4.544   2.893  0.00  0.00     0.000 A 
ATOM     24  C   UNL d   1      -7.320   5.563   2.160  0.00  0.00     0.003 A 
ATOM     25  C   UNL d   1      -5.969   5.473   1.825  0.00  0.00     0.037 A 
ENDBRANCH  19  20
ENDBRANCH  18  19
ENDBRANCH  17  18
ENDBRANCH   2  17
TORSDOF 6
