REMARK  5 active torsions:
REMARK  status: ('A' for Active; 'I' for Inactive)
REMARK    1  A    between atoms: N_5  and  C_1 
REMARK    2  A    between atoms: C_2  and  C_12 
REMARK    3  A    between atoms: C_12  and  N_5 
REMARK    4  A    between atoms: C_13  and  N_6 
REMARK    5  A    between atoms: C_14  and  C_13 
ROOT
ATOM      1  C   UNL d   1       1.115   0.245  -0.207  0.00  0.00     0.168 C 
ATOM      2  S   UNL d   1       0.102  -0.822   0.577  0.00  0.00    -0.041 SA
ATOM      3  N   UNL d   1       2.439   0.002  -0.202  0.00  0.00    -0.363 N 
ATOM      4  H   UNL d   1       2.670  -0.835   0.323  0.00  0.00     0.162 HD
ENDROOT
BRANCH   1   5
ATOM      5  N   UNL d   1       0.579   1.309  -0.828  0.00  0.00    -0.361 N 
ATOM      6  H   UNL d   1      -0.435   1.312  -0.812  0.00  0.00     0.162 HD
BRANCH   5   7
ATOM      7  C   UNL d   1       1.189   2.601  -1.087  0.00  0.00     0.187 C 
BRANCH   7   8
ATOM      8  C   UNL d   1       0.275   3.676  -0.630  0.00  0.00     0.070 A 
ATOM      9  O   UNL d   1      -0.052   4.632  -1.546  0.00  0.00    -0.325 OA
ATOM     10  C   UNL d   1      -0.856   5.527  -0.914  0.00  0.00     0.142 A 
ATOM     11  C   UNL d   1      -1.052   5.158   0.396  0.00  0.00     0.027 A 
ATOM     12  C   UNL d   1      -0.324   3.959   0.582  0.00  0.00     0.036 A 
ENDBRANCH   7   8
ENDBRANCH   5   7
ENDBRANCH   1   5
BRANCH   3  13
ATOM     13  C   UNL d   1       3.456   0.390  -1.167  0.00  0.00     0.160 C 
BRANCH  13  14
ATOM     14  C   UNL d   1       3.770  -0.715  -2.142  0.00  0.00    -0.038 A 
ATOM     15  C   UNL d   1       2.757  -1.358  -2.862  0.00  0.00     0.025 A 
ATOM     16  C   UNL d   1       3.107  -2.325  -3.789  0.00  0.00     0.088 A 
ATOM     17  N   UNL d   1       4.381  -2.683  -4.055  0.00  0.00    -0.375 N 
ATOM     18  C   UNL d   1       5.346  -2.045  -3.361  0.00  0.00     0.088 A 
ATOM     19  HN  UNL d   1       4.603  -3.399  -4.746  1.00  0.00     0.164 HD
ATOM     20  C   UNL d   1       5.096  -1.068  -2.409  0.00  0.00     0.025 A 
ENDBRANCH  13  14
ENDBRANCH   3  13
TORSDOF 5
