REMARK  4 active torsions:
REMARK  status: ('A' for Active; 'I' for Inactive)
REMARK    1  A    between atoms: C_3  and  C_1 
REMARK    2  A    between atoms: C_5  and  C_1 
REMARK    3  A    between atoms: C_2  and  C_4 
REMARK       I    between atoms: N_11  and  C_2 
REMARK    4  A    between atoms: C_12  and  C_5 
ROOT
ATOM      1  C   UNL d   1       0.523  -4.553  -1.214  0.00  0.00     0.031 A 
ATOM      2  C   UNL d   1       1.458  -4.017  -2.110  0.00  0.00     0.017 A 
ATOM      3  C   UNL d   1       0.491  -4.087   0.103  0.00  0.00     0.017 A 
ATOM      4  C   UNL d   1       2.279  -2.508  -0.398  0.00  0.00    -0.051 A 
ATOM      5  C   UNL d   1       2.333  -3.004  -1.705  0.00  0.00     0.008 A 
ATOM      6  C   UNL d   1       1.371  -3.081   0.509  0.00  0.00     0.008 A 
ENDROOT
BRANCH   4   7
ATOM      7  C   UNL d   1       3.137  -1.333   0.031  0.00  0.00     0.122 C 
BRANCH   7   8
ATOM      8  C   UNL d   1       2.328  -0.074   0.336  0.00  0.00     0.164 C 
ATOM      9  O   UNL d   1       1.099  -0.062   0.412  0.00  0.00    -0.292 OA
BRANCH   8  10
ATOM     10  C   UNL d   1       3.061   1.193   0.635  0.00  0.00     0.016 A 
ATOM     11  C   UNL d   1       2.552   2.451   0.247  0.00  0.00    -0.048 A 
ATOM     12  C   UNL d   1       1.375   2.650  -0.672  0.00  0.00     0.049 C 
ATOM     13  C   UNL d   1       3.183   3.613   0.729  0.00  0.00     0.007 A 
ATOM     14  C   UNL d   1       4.313   3.536   1.540  0.00  0.00     0.001 A 
ATOM     15  C   UNL d   1       4.844   2.296   1.870  0.00  0.00     0.001 A 
ATOM     16  C   UNL d   1       4.221   1.127   1.423  0.00  0.00     0.015 A 
ENDBRANCH   8  10
ENDBRANCH   7   8
ENDBRANCH   4   7
BRANCH   1  17
ATOM     17  C   UNL d   1      -0.450  -5.555  -1.728  0.00  0.00     0.249 C 
ATOM     18  O   UNL d   1      -0.659  -5.694  -2.927  0.00  0.00    -0.268 OA
ATOM     19  N   UNL d   1      -1.103  -6.339  -0.817  0.00  0.00    -0.366 N 
ATOM     20  H   UNL d   1      -0.837  -6.406   0.154  0.00  0.00     0.159 HD
ATOM     21  H   UNL d   1      -1.720  -7.047  -1.192  0.00  0.00     0.159 HD
ENDBRANCH   1  17
TORSDOF 4
