REMARK  5 active torsions:
REMARK  status: ('A' for Active; 'I' for Inactive)
REMARK    1  A    between atoms: N_2  and  S_1 
REMARK    2  A    between atoms: C_9  and  S_1 
REMARK    3  A    between atoms: C_3  and  N_2 
REMARK       I    between atoms: C_4  and  N_10 
REMARK    4  A    between atoms: C_13  and  C_4 
REMARK    5  A    between atoms: N_10  and  C_22 
ROOT
ATOM      1  C   UNL d   1       0.290  -1.399   0.535  0.00  0.00     0.075 A 
ATOM      2  C   UNL d   1       0.360  -2.528  -0.282  0.00  0.00     0.027 A 
ATOM      3  C   UNL d   1      -0.127  -1.515   1.861  0.00  0.00     0.027 A 
ATOM      4  C   UNL d   1      -0.333  -3.921   1.593  0.00  0.00     0.035 A 
ATOM      5  C   UNL d   1      -0.441  -2.773   2.382  0.00  0.00     0.031 A 
ATOM      6  C   UNL d   1       0.036  -3.784   0.246  0.00  0.00     0.031 A 
ENDROOT
BRANCH   1   7
ATOM      7  S   UNL d   1       0.915   0.159  -0.056  0.00  0.00     0.248 S 
ATOM      8  O   UNL d   1       1.204   0.967   1.115  0.00  0.00    -0.205 OA
ATOM      9  O   UNL d   1       1.950  -0.133  -1.025  0.00  0.00    -0.205 OA
BRANCH   7  10
ATOM     10  N   UNL d   1      -0.442   0.851  -0.756  0.00  0.00    -0.151 NA
ATOM     11  H   UNL d   1      -0.577   1.760  -0.320  0.00  0.00     0.149 HD
BRANCH  10  12
ATOM     12  C   UNL d   1      -0.297   1.016  -2.130  0.00  0.00     0.171 A 
ATOM     13  N   UNL d   1      -0.656  -0.007  -2.907  0.00  0.00    -0.336 N 
ATOM     14  C   UNL d   1      -0.414   0.158  -4.222  0.00  0.00     0.009 A 
ATOM     15  HN  UNL d   1      -1.084  -0.853  -2.532  1.00  0.00     0.168 HD
ATOM     16  C   UNL d   1      -0.839  -0.944  -5.145  0.00  0.00     0.068 C 
ATOM     17  C   UNL d   1       0.214   1.285  -4.725  0.00  0.00     0.049 A 
ATOM     18  C   UNL d   1       0.560   2.268  -3.816  0.00  0.00     0.009 A 
ATOM     19  N   UNL d   1       0.282   2.159  -2.502  0.00  0.00    -0.336 N 
ATOM     20  C   UNL d   1       1.303   3.489  -4.269  0.00  0.00     0.068 C 
ATOM     21  HN  UNL d   1       0.500   2.901  -1.837  1.00  0.00     0.168 HD
ENDBRANCH  10  12
ENDBRANCH   7  10
ENDBRANCH   1   7
BRANCH   4  22
ATOM     22  N   UNL d   1      -0.549  -5.230   2.082  0.00  0.00    -0.323 N 
ATOM     23  C   UNL d   1      -0.815  -5.595   3.391  0.00  0.00     0.256 C 
ATOM     24  O   UNL d   1      -0.947  -4.849   4.354  0.00  0.00    -0.267 OA
ATOM     25  H   UNL d   1      -0.500  -5.966   1.391  0.00  0.00     0.169 HD
BRANCH  23  26
ATOM     26  C   UNL d   1      -0.996  -7.059   3.623  0.00  0.00     0.032 A 
ATOM     27  C   UNL d   1      -0.265  -8.027   2.922  0.00  0.00     0.018 A 
ATOM     28  C   UNL d   1      -0.531  -9.385   3.132  0.00  0.00     0.025 A 
ATOM     29  C   UNL d   1      -1.512  -9.770   4.047  0.00  0.00     0.034 A 
ATOM     30  C   UNL d   1      -2.204  -8.813   4.785  0.00  0.00     0.025 A 
ATOM     31 CL   UNL d   1      -1.876 -11.438   4.257  0.00  0.00    -0.084 Cl
ATOM     32  C   UNL d   1      -1.940  -7.458   4.579  0.00  0.00     0.018 A 
ENDBRANCH  23  26
ENDBRANCH   4  22
TORSDOF 5
