REMARK  7 active torsions:
REMARK  status: ('A' for Active; 'I' for Inactive)
REMARK    1  A    between atoms: C_13  and  N_1 
REMARK    2  A    between atoms: C_6  and  C_3 
REMARK    3  A    between atoms: C_18  and  N_5 
REMARK    4  A    between atoms: C_17  and  C_10 
REMARK    5  A    between atoms: C_15  and  C_13 
REMARK    6  A    between atoms: O_25  and  C_15 
REMARK    7  A    between atoms: C_29  and  O_25 
ROOT
ATOM      1  N   UNL d   1      -0.735   1.154   0.044  0.00  0.00    -0.256 N 
ATOM      2  C   UNL d   1      -1.373  -0.052  -0.219  0.00  0.00     0.332 C 
ATOM      3  C   UNL d   1       1.448   0.066   0.113  0.00  0.00     0.082 C 
ATOM      4  C   UNL d   1       0.634   1.307   0.209  0.00  0.00     0.266 C 
ATOM      5  N   UNL d   1      -0.588  -1.192  -0.016  0.00  0.00    -0.304 N 
ATOM      6  C   UNL d   1       0.788  -1.102   0.052  0.00  0.00     0.116 C 
ATOM      7  O   UNL d   1      -2.545  -0.108  -0.584  0.00  0.00    -0.246 OA
ATOM      8  O   UNL d   1       1.145   2.407   0.384  0.00  0.00    -0.267 OA
ENDROOT
BRANCH   3   9
ATOM      9  C   UNL d   1       2.875   0.059   0.035  0.00  0.00     0.091 A 
ATOM     10  N   UNL d   1       3.588  -0.842  -0.625  0.00  0.00    -0.349 N 
ATOM     11  C   UNL d   1       4.948  -0.599  -0.513  0.00  0.00     0.050 A 
ATOM     12  HN  UNL d   1       3.186  -1.619  -1.150  1.00  0.00     0.166 HD
ATOM     13  C   UNL d   1       5.271   0.513   0.233  0.00  0.00     0.082 A 
ATOM     14  S   UNL d   1       3.854   1.228   0.862  0.00  0.00    -0.081 SA
BRANCH  11  15
ATOM     15  C   UNL d   1       5.927  -1.482  -1.133  0.00  0.00    -0.009 A 
ATOM     16  C   UNL d   1       5.604  -2.165  -2.315  0.00  0.00     0.015 A 
ATOM     17  C   UNL d   1       6.514  -3.059  -2.892  0.00  0.00     0.024 A 
ATOM     18  C   UNL d   1       7.749  -3.276  -2.286  0.00  0.00     0.034 A 
ATOM     19  C   UNL d   1       8.089  -2.599  -1.118  0.00  0.00     0.024 A 
ATOM     20 CL   UNL d   1       8.856  -4.400  -2.971  0.00  0.00    -0.084 Cl
ATOM     21  C   UNL d   1       7.181  -1.703  -0.544  0.00  0.00     0.015 A 
ENDBRANCH  11  15
ENDBRANCH   3   9
BRANCH   1  22
ATOM     22  C   UNL d   1      -1.534   2.375   0.041  0.00  0.00     0.248 C 
BRANCH  22  23
ATOM     23  C   UNL d   1      -1.455   3.154  -1.267  0.00  0.00     0.277 C 
ATOM     24  O   UNL d   1      -2.106   4.169  -1.478  0.00  0.00    -0.263 OA
BRANCH  23  25
ATOM     25  O   UNL d   1      -0.617   2.563  -2.164  0.00  0.00    -0.321 OA
BRANCH  25  26
ATOM     26  C   UNL d   1      -0.737   3.013  -3.517  0.00  0.00     0.174 C 
ATOM     27  C   UNL d   1      -1.786   2.143  -4.184  0.00  0.00     0.034 C 
ENDBRANCH  25  26
ENDBRANCH  23  25
ENDBRANCH  22  23
ENDBRANCH   1  22
BRANCH   5  28
ATOM     28  C   UNL d   1      -1.249  -2.517  -0.062  0.00  0.00     0.086 C 
ATOM     29  C   UNL d   1      -1.115  -3.173  -1.435  0.00  0.00     0.032 C 
ATOM     30  C   UNL d   1      -0.787  -3.467   1.052  0.00  0.00     0.032 C 
ENDBRANCH   5  28
TORSDOF 7
