REMARK  0 active torsions:
REMARK  status: ('A' for Active; 'I' for Inactive)
ROOT
ATOM      1  C   UNL d   1      -0.036  -0.714   0.002  0.00  0.00     0.052 A 
ATOM      2  C   UNL d   1       1.223  -1.473   0.005  0.00  0.00     0.192 A 
ATOM      3  C   UNL d   1       0.004   0.679  -0.000  0.00  0.00     0.111 A 
ATOM      4  O   UNL d   1       1.192   1.371  -0.001  0.00  0.00    -0.319 OA
ATOM      5  C   UNL d   1       2.475  -0.685   0.002  0.00  0.00     0.011 A 
ATOM      6  C   UNL d   1       2.362   0.649  -0.001  0.00  0.00     0.153 A 
ATOM      7  C   UNL d   1      -1.200   1.391  -0.001  0.00  0.00     0.070 A 
ATOM      8  C   UNL d   1      -2.424   0.713  -0.001  0.00  0.00     0.050 A 
ATOM      9  C   UNL d   1      -1.254  -1.401   0.001  0.00  0.00     0.042 A 
ATOM     10  C   UNL d   1      -2.442  -0.680   0.000  0.00  0.00     0.036 A 
ATOM     11  O   UNL d   1       1.218  -2.696   0.010  0.00  0.00    -0.287 OA
ATOM     12 CL   UNL d   1      -1.223   3.117  -0.002  0.00  0.00    -0.081 Cl
ATOM     13 CL   UNL d   1      -3.944  -1.518   0.000  0.00  0.00    -0.084 Cl
ATOM     14  C   UNL d   1       3.778  -1.413   0.003  0.00  0.00     0.054 C 
ENDROOT
TORSDOF 0
