REMARK  7 active torsions:
REMARK  status: ('A' for Active; 'I' for Inactive)
REMARK    1  A    between atoms: C_2  and  C_1 
REMARK       I    between atoms: N_13  and  C_2 
REMARK       I    between atoms: C_4  and  N_5 
REMARK    2  A    between atoms: N_5  and  C_8 
REMARK    3  A    between atoms: C_18  and  N_13 
REMARK    4  A    between atoms: C_14  and  O_16 
REMARK    5  A    between atoms: C_15  and  C_18 
REMARK    6  A    between atoms: C_21  and  C_15 
REMARK    7  A    between atoms: O_16  and  C_21 
ROOT
ATOM      1  O   UNL d   1       2.918   8.063  -0.137  0.00  0.00    -0.351 OA
ENDROOT
BRANCH   1   2
ATOM      2  C   UNL d   1       2.770   9.430  -0.132  0.00  0.00     0.070 A 
ATOM      3  C   UNL d   1       1.710  10.089   0.489  0.00  0.00     0.066 A 
ATOM      4  C   UNL d   1       1.558  11.471   0.416  0.00  0.00     0.037 A 
ATOM      5  C   UNL d   1       2.541  12.216  -0.243  0.00  0.00     0.029 A 
ATOM      6  C   UNL d   1       3.643  11.571  -0.823  0.00  0.00     0.005 A 
ATOM      7  C   UNL d   1       3.755  10.179  -0.770  0.00  0.00     0.037 A 
BRANCH   4   8
ATOM      8  N   UNL d   1       0.441  12.142   0.966  0.00  0.00    -0.327 N 
ATOM      9  C   UNL d   1      -0.646  11.554   1.599  0.00  0.00     0.218 C 
ATOM     10  O   UNL d   1      -0.821  10.358   1.816  0.00  0.00    -0.274 OA
ATOM     11  C   UNL d   1      -1.696  12.536   2.046  0.00  0.00     0.117 C 
ATOM     12  H   UNL d   1       0.420  13.146   0.840  0.00  0.00     0.169 HD
ENDBRANCH   4   8
ENDBRANCH   1   2
BRANCH   1  13
ATOM     13  C   UNL d   1       1.675   7.349  -0.074  0.00  0.00     0.177 C 
BRANCH  13  14
ATOM     14  C   UNL d   1       1.930   5.850  -0.110  0.00  0.00     0.046 C 
BRANCH  14  15
ATOM     15  C   UNL d   1       0.605   5.101  -0.030  0.00  0.00     0.125 C 
BRANCH  15  16
ATOM     16  N   UNL d   1       0.799   3.671  -0.015  0.00  0.00    -0.356 N 
ATOM     17  C   UNL d   1       0.901   2.914  -1.165  0.00  0.00     0.258 C 
ATOM     18  O   UNL d   1       0.793   3.413  -2.280  0.00  0.00    -0.267 OA
ATOM     19  H   UNL d   1       0.946   3.204   0.871  0.00  0.00     0.162 HD
BRANCH  17  20
ATOM     20  C   UNL d   1       1.143   1.492  -0.950  0.00  0.00     0.072 A 
ATOM     21  S   UNL d   1       1.330   0.823   0.621  0.00  0.00    -0.097 SA
ATOM     22  C   UNL d   1       1.555  -0.753   0.001  0.00  0.00     0.050 A 
ATOM     23  C   UNL d   1       1.492  -0.780  -1.373  0.00  0.00     0.009 A 
ATOM     24  C   UNL d   1       1.256   0.514  -1.921  0.00  0.00     0.025 A 
ENDBRANCH  17  20
ENDBRANCH  15  16
ENDBRANCH  14  15
ENDBRANCH  13  14
ENDBRANCH   1  13
TORSDOF 7
