REMARK  7 active torsions:
REMARK  status: ('A' for Active; 'I' for Inactive)
REMARK    1  A    between atoms: N_2  and  S_1 
REMARK    2  A    between atoms: C_4  and  N_2 
REMARK    3  A    between atoms: C_3  and  N_6 
REMARK    4  A    between atoms: N_10  and  C_3 
REMARK    5  A    between atoms: N_6  and  C_11 
REMARK    6  A    between atoms: C_16  and  N_10 
REMARK    7  A    between atoms: C_17  and  C_16 
ROOT
ATOM      1  C   UNL d   1       1.094   1.808   1.965  0.00  0.00     0.030 A 
ATOM      2  C   UNL d   1      -0.065   2.133   2.683  0.00  0.00     0.054 A 
ATOM      3  C   UNL d   1       0.002   2.406   4.051  0.00  0.00     0.036 A 
ATOM      4  C   UNL d   1       2.334   1.734   2.613  0.00  0.00    -0.040 A 
ATOM      5  C   UNL d   1       2.382   1.956   3.997  0.00  0.00     0.011 A 
ATOM      6  C   UNL d   1       1.226   2.282   4.710  0.00  0.00     0.030 A 
ATOM      7  C   UNL d   1       3.615   1.414   1.898  0.00  0.00     0.050 C 
ENDROOT
BRANCH   3   8
ATOM      8  N   UNL d   1      -1.129   2.728   4.828  0.00  0.00    -0.333 N 
ATOM      9  H   UNL d   1      -1.009   2.670   5.833  0.00  0.00     0.168 HD
BRANCH   8  10
ATOM     10  C   UNL d   1      -2.278   3.384   4.462  0.00  0.00     0.172 C 
ATOM     11  S   UNL d   1      -2.482   4.473   3.213  0.00  0.00    -0.041 SA
BRANCH  10  12
ATOM     12  N   UNL d   1      -3.351   3.148   5.281  0.00  0.00    -0.363 N 
ATOM     13  H   UNL d   1      -4.181   3.670   5.023  0.00  0.00     0.162 HD
BRANCH  12  14
ATOM     14  C   UNL d   1      -3.585   1.913   6.011  0.00  0.00     0.160 C 
BRANCH  14  15
ATOM     15  C   UNL d   1      -3.566   2.046   7.513  0.00  0.00    -0.041 A 
ATOM     16  C   UNL d   1      -3.469   3.273   8.182  0.00  0.00     0.009 A 
ATOM     17  C   UNL d   1      -3.491   3.326   9.579  0.00  0.00     0.001 A 
ATOM     18  C   UNL d   1      -3.613   2.154  10.324  0.00  0.00     0.000 A 
ATOM     19  C   UNL d   1      -3.711   0.927   9.675  0.00  0.00     0.001 A 
ATOM     20  C   UNL d   1      -3.689   0.875   8.280  0.00  0.00     0.009 A 
ENDBRANCH  14  15
ENDBRANCH  12  14
ENDBRANCH  10  12
ENDBRANCH   8  10
ENDBRANCH   3   8
BRANCH   1  21
ATOM     21  N   UNL d   1       0.984   1.550   0.561  0.00  0.00    -0.185 NA
ATOM     22  H   UNL d   1       0.386   2.217   0.067  0.00  0.00     0.146 HD
BRANCH  21  23
ATOM     23  S   UNL d   1       0.547  -0.011   0.068  0.00  0.00     0.210 S 
ATOM     24  O   UNL d   1      -0.280   0.185  -1.103  0.00  0.00    -0.211 OA
ATOM     25  O   UNL d   1       0.088  -0.793   1.193  0.00  0.00    -0.211 OA
ATOM     26  C   UNL d   1       2.108  -0.658  -0.491  0.00  0.00     0.180 C 
ENDBRANCH  21  23
ENDBRANCH   1  21
TORSDOF 7
