REMARK  6 active torsions:
REMARK  status: ('A' for Active; 'I' for Inactive)
REMARK    1  A    between atoms: OXT_8  and  C_1 
REMARK    2  A    between atoms: CA_3  and  C_1 
REMARK       I    between atoms: C_4  and  N_2 
REMARK    3  A    between atoms: CA_3  and  N_2 
REMARK    4  A    between atoms: C_7  and  CA_3 
REMARK    5  A    between atoms: C_9  and  C_7 
REMARK    6  A    between atoms: C_10  and  C_9 
ROOT
ATOM      1  CA  UNL d   1       0.282  -0.674   1.107  0.00  0.00     0.182 C 
ENDROOT
BRANCH   1   2
ATOM      2  C   UNL d   1      -0.669  -1.797   0.671  0.00  0.00     0.041 C 
BRANCH   2   3
ATOM      3  C   UNL d   1      -1.674  -1.340  -0.393  0.00  0.00     0.041 C 
BRANCH   3   4
ATOM      4  C   UNL d   1      -2.584  -2.460  -0.829  0.00  0.00    -0.058 A 
ATOM      5  C   UNL d   1      -3.830  -2.652  -0.220  0.00  0.00     0.007 A 
ATOM      6  C   UNL d   1      -4.674  -3.678  -0.648  0.00  0.00     0.001 A 
ATOM      7  C   UNL d   1      -4.278  -4.524  -1.683  0.00  0.00     0.000 A 
ATOM      8  C   UNL d   1      -3.032  -4.352  -2.284  0.00  0.00     0.001 A 
ATOM      9  C   UNL d   1      -2.188  -3.327  -1.857  0.00  0.00     0.007 A 
ENDBRANCH   3   4
ENDBRANCH   2   3
ENDBRANCH   1   2
BRANCH   1  10
ATOM     10  C   UNL d   1       1.107  -0.135  -0.082  0.00  0.00     0.163 C 
ATOM     11  O   UNL d   1       0.717   0.788  -0.787  0.00  0.00    -0.648 OA
BRANCH  10  12
ATOM     12  OXT UNL d   1       2.230  -0.819  -0.387  0.00  0.00    -0.775 OA
ATOM     13  HXT UNL d   1       2.351  -1.635   0.155  0.00  0.00     0.167 HD
ENDBRANCH  10  12
ENDBRANCH   1  10
BRANCH   1  14
ATOM     14  N   UNL d   1       1.079  -1.041   2.293  0.00  0.00    -0.347 N 
ATOM     15  C   UNL d   1       1.988  -2.066   2.332  0.00  0.00     0.214 C 
ATOM     16  O   UNL d   1       2.278  -2.707   1.327  0.00  0.00    -0.274 OA
ATOM     17  C   UNL d   1       2.692  -2.259   3.644  0.00  0.00     0.117 C 
ATOM     18  H   UNL d   1       0.767  -0.657   3.176  0.00  0.00     0.163 HD
ENDBRANCH   1  14
TORSDOF 6
