REMARK  4 active torsions:
REMARK  status: ('A' for Active; 'I' for Inactive)
REMARK    1  A    between atoms: C_2  and  C_1 
REMARK       I    between atoms: N_3  and  C_2 
REMARK    2  A    between atoms: C_6  and  C_12 
REMARK    3  A    between atoms: O_17  and  C_6 
REMARK    4  A    between atoms: C_18  and  O_17 
ROOT
ATOM      1  C   UNL d   1       0.121   2.491   0.050  0.00  0.00     0.262 C 
ATOM      2  N   UNL d   1       1.069   3.529   0.071  0.00  0.00    -0.347 N 
ATOM      3  O   UNL d   1      -0.781   2.468   0.891  0.00  0.00    -0.267 OA
ATOM      4  C   UNL d   1       1.134   4.385   1.252  0.00  0.00     0.127 C 
ATOM      5  C   UNL d   1       2.076   3.794  -0.960  0.00  0.00     0.127 C 
ATOM      6  C   UNL d   1       2.205   6.208  -0.130  0.00  0.00     0.088 C 
ATOM      7  C   UNL d   1       1.087   5.860   0.862  0.00  0.00     0.034 C 
ATOM      8  C   UNL d   1       2.105   5.277  -1.346  0.00  0.00     0.034 C 
ENDROOT
BRANCH   1   9
ATOM      9  C   UNL d   1       0.201   1.459  -0.970  0.00  0.00     0.094 A 
ATOM     10  C   UNL d   1      -0.824   0.968  -1.757  0.00  0.00     0.057 A 
ATOM     11  C   UNL d   1      -0.401  -0.103  -2.598  0.00  0.00     0.032 A 
ATOM     12 CL   UNL d   1      -2.440   1.535  -1.788  0.00  0.00    -0.083 Cl
ATOM     13  C   UNL d   1       0.925  -0.417  -2.409  0.00  0.00     0.052 A 
ATOM     14  S   UNL d   1       1.631   0.526  -1.171  0.00  0.00    -0.095 SA
ENDBRANCH   1   9
BRANCH   6  15
ATOM     15  C   UNL d   1       3.582   6.128   0.527  0.00  0.00     0.263 C 
ATOM     16  O   UNL d   1       4.540   5.518   0.066  0.00  0.00    -0.265 OA
BRANCH  15  17
ATOM     17  O   UNL d   1       3.586   6.810   1.704  0.00  0.00    -0.322 OA
BRANCH  17  18
ATOM     18  C   UNL d   1       4.684   6.545   2.588  0.00  0.00     0.174 C 
ATOM     19  C   UNL d   1       5.695   7.672   2.557  0.00  0.00     0.034 C 
ENDBRANCH  17  18
ENDBRANCH  15  17
ENDBRANCH   6  15
TORSDOF 4
