REMARK  3 active torsions:
REMARK  status: ('A' for Active; 'I' for Inactive)
REMARK    1  A    between atoms: O_14  and  C_3 
REMARK    2  A    between atoms: C_10  and  C_4 
REMARK    3  A    between atoms: N_5  and  C_9 
ROOT
ATOM      1  N   UNL d   1       2.419  -0.835  -0.065  0.00  0.00    -0.345 N 
ATOM      2  HN  UNL d   1       3.274  -1.389  -0.103  1.00  0.00     0.164 HD
ATOM      3  C   UNL d   1       1.260  -1.374  -0.059  0.00  0.00     0.150 C 
ATOM      4  C   UNL d   1       2.441   0.630  -0.013  0.00  0.00     0.218 C 
ATOM      5  N   UNL d   1       1.196   1.368  -0.129  0.00  0.00    -0.364 N 
ATOM      6  C   UNL d   1      -0.042  -0.714  -0.016  0.00  0.00     0.041 A 
ATOM      7  C   UNL d   1      -0.004   0.680  -0.002  0.00  0.00     0.044 A 
ATOM      8  C   UNL d   1      -1.252  -1.418   0.021  0.00  0.00     0.018 A 
ATOM      9  C   UNL d   1      -1.220   1.371  -0.007  0.00  0.00     0.030 A 
ATOM     10  C   UNL d   1      -2.453  -0.714   0.045  0.00  0.00     0.001 A 
ATOM     11  C   UNL d   1      -2.438   0.681   0.025  0.00  0.00     0.002 A 
ATOM     12  H   UNL d   1       1.212   2.308   0.249  0.00  0.00     0.162 HD
ENDROOT
BRANCH   4  13
ATOM     13  C   UNL d   1       3.190   1.083   1.238  0.00  0.00    -0.014 A 
ATOM     14  C   UNL d   1       2.741   0.713   2.518  0.00  0.00     0.047 A 
ATOM     15  C   UNL d   1       3.489   1.062   3.652  0.00  0.00     0.103 A 
ATOM     16  C   UNL d   1       4.673   1.800   3.527  0.00  0.00     0.036 A 
ATOM     17  C   UNL d   1       5.108   2.189   2.261  0.00  0.00     0.003 A 
ATOM     18  C   UNL d   1       4.373   1.834   1.126  0.00  0.00     0.011 A 
BRANCH  15  19
ATOM     19  N   UNL d   1       3.042   0.628   4.982  0.00  0.00    -0.116 N 
ATOM     20  O   UNL d   1       1.992  -0.028   5.054  0.00  0.00    -0.532 OA
ATOM     21  O   UNL d   1       3.741   0.942   5.956  0.00  0.00    -0.532 OA
ENDBRANCH  15  19
ENDBRANCH   4  13
BRANCH   3  22
ATOM     22  O   UNL d   1       1.200  -2.713  -0.076  0.00  0.00    -0.346 OA
ATOM     23  H   UNL d   1       2.116  -3.039  -0.084  0.00  0.00     0.219 HD
ENDBRANCH   3  22
TORSDOF 3
