REMARK  1 active torsions:
REMARK  status: ('A' for Active; 'I' for Inactive)
REMARK    1  A    between atoms: C_7  and  C_1 
ROOT
ATOM      1  C   UNL d   1       2.424  -0.706  -0.026  0.00  0.00     0.029 A 
ATOM      2  C   UNL d   1       2.406   0.700   0.002  0.00  0.00     0.027 A 
ATOM      3  C   UNL d   1       1.203  -1.402  -0.023  0.00  0.00     0.056 A 
ATOM      4  C   UNL d   1       1.184   1.388   0.023  0.00  0.00     0.059 A 
ATOM      5  C   UNL d   1      -0.007  -0.708  -0.005  0.00  0.00     0.103 A 
ATOM      6  C   UNL d   1      -0.015   0.686   0.000  0.00  0.00     0.103 A 
ATOM      7  O   UNL d   1      -1.149  -1.468   0.003  0.00  0.00    -0.346 OA
ATOM      8  O   UNL d   1      -1.167   1.431  -0.007  0.00  0.00    -0.346 OA
ATOM      9 BR   UNL d   1       3.968   1.783  -0.055  0.00  0.00    -0.050 Br
ATOM     10  C   UNL d   1      -2.304   0.639  -0.371  0.00  0.00     0.202 C 
ATOM     11  C   UNL d   1      -2.294  -0.688   0.371  0.00  0.00     0.202 C 
ENDROOT
BRANCH   1  12
ATOM     12  C   UNL d   1       3.690  -1.497  -0.001  0.00  0.00     0.157 C 
ATOM     13  O   UNL d   1       4.642  -1.124   0.677  0.00  0.00    -0.293 OA
ATOM     14  C   UNL d   1       3.776  -2.779  -0.793  0.00  0.00     0.097 C 
ENDBRANCH   1  12
TORSDOF 1
