REMARK  5 active torsions:
REMARK  status: ('A' for Active; 'I' for Inactive)
REMARK       I    between atoms: N_2  and  C_1 
REMARK    1  A    between atoms: C_6  and  C_1 
REMARK    2  A    between atoms: N_3  and  N_2 
REMARK    3  A    between atoms: C_5  and  N_3 
REMARK    4  A    between atoms: C_9  and  C_6 
REMARK    5  A    between atoms: C_14  and  C_9 
ROOT
ATOM      1  C   UNL d   1       0.766   0.136  -0.053  0.00  0.00     0.232 C 
ATOM      2  N   UNL d   1       0.188   0.073  -1.308  0.00  0.00    -0.287 N 
ATOM      3  O   UNL d   1       0.089   0.143   0.977  0.00  0.00    -0.272 OA
ATOM      4  H   UNL d   1       0.665   0.526  -2.078  0.00  0.00     0.184 HD
ENDROOT
BRANCH   2   5
ATOM      5  N   UNL d   1      -1.215   0.264  -1.333  0.00  0.00    -0.203 NA
ATOM      6  H   UNL d   1      -1.594   0.196  -0.378  0.00  0.00     0.153 HD
BRANCH   5   7
ATOM      7  C   UNL d   1      -1.909  -0.588  -2.227  0.00  0.00     0.027 A 
ATOM      8  C   UNL d   1      -3.259  -0.882  -1.966  0.00  0.00     0.028 A 
ATOM      9  C   UNL d   1      -4.018  -1.643  -2.859  0.00  0.00     0.044 A 
ATOM     10  C   UNL d   1      -3.441  -2.089  -4.039  0.00  0.00     0.116 A 
ATOM     11  C   UNL d   1      -2.123  -1.777  -4.346  0.00  0.00     0.044 A 
ATOM     12  F   UNL d   1      -4.166  -2.814  -4.899  0.00  0.00    -0.206 F 
ATOM     13  C   UNL d   1      -1.365  -1.017  -3.449  0.00  0.00     0.028 A 
ENDBRANCH   5   7
ENDBRANCH   2   5
BRANCH   1  14
ATOM     14  C   UNL d   1       2.284   0.055   0.014  0.00  0.00     0.108 C 
BRANCH  14  15
ATOM     15  C   UNL d   1       3.090   0.542  -1.190  0.00  0.00     0.048 C 
BRANCH  15  16
ATOM     16  C   UNL d   1       2.916   2.005  -1.518  0.00  0.00    -0.058 A 
ATOM     17  C   UNL d   1       3.259   2.997  -0.588  0.00  0.00     0.007 A 
ATOM     18  C   UNL d   1       3.082   4.347  -0.894  0.00  0.00     0.001 A 
ATOM     19  C   UNL d   1       2.563   4.722  -2.131  0.00  0.00     0.000 A 
ATOM     20  C   UNL d   1       2.239   3.747  -3.071  0.00  0.00     0.001 A 
ATOM     21  C   UNL d   1       2.425   2.397  -2.773  0.00  0.00     0.007 A 
ENDBRANCH  15  16
ENDBRANCH  14  15
ENDBRANCH   1  14
TORSDOF 5
