REMARK  3 active torsions:
REMARK  status: ('A' for Active; 'I' for Inactive)
REMARK    1  A    between atoms: C_9  and  C_1 
REMARK       I    between atoms: C_6  and  N_8 
REMARK    2  A    between atoms: C_12  and  C_6 
REMARK    3  A    between atoms: N_8  and  C_16 
ROOT
ATOM      1  C   UNL d   1      -3.900  -0.776  -0.002  0.00  0.00    -0.002 A 
ATOM      2  C   UNL d   1      -4.674  -0.285  -1.068  0.00  0.00     0.016 A 
ATOM      3  C   UNL d   1      -4.556  -1.556   0.958  0.00  0.00     0.016 A 
ATOM      4  C   UNL d   1      -6.699  -1.283  -0.159  0.00  0.00     0.035 A 
ATOM      5  C   UNL d   1      -5.926  -1.807   0.877  0.00  0.00     0.030 A 
ATOM      6  C   UNL d   1      -6.055  -0.542  -1.154  0.00  0.00     0.030 A 
ENDROOT
BRANCH   1   7
ATOM      7  C   UNL d   1      -2.455  -0.469   0.076  0.00  0.00     0.085 A 
ATOM      8  N   UNL d   1      -1.786   0.216  -0.831  0.00  0.00    -0.349 N 
ATOM      9  C   UNL d   1      -0.451   0.331  -0.468  0.00  0.00     0.050 A 
ATOM     10  HN  UNL d   1      -2.193   0.606  -1.681  1.00  0.00     0.166 HD
ATOM     11  C   UNL d   1       0.556   0.991  -1.199  0.00  0.00     0.031 A 
ATOM     12  C   UNL d   1      -0.106  -0.274   0.737  0.00  0.00     0.034 A 
ATOM     13  C   UNL d   1       1.869   1.021  -0.707  0.00  0.00     0.009 A 
ATOM     14  C   UNL d   1       2.198   0.405   0.503  0.00  0.00    -0.061 A 
ATOM     15  C   UNL d   1       1.206  -0.252   1.242  0.00  0.00     0.028 A 
ATOM     16  C   UNL d   1       3.612   0.450   1.007  0.00  0.00     0.048 C 
ATOM     17  S   UNL d   1      -1.502  -0.994   1.417  0.00  0.00    -0.070 SA
ENDBRANCH   1   7
BRANCH   4  18
ATOM     18  N   UNL d   1      -8.098  -1.489  -0.240  0.00  0.00    -0.323 N 
ATOM     19  C   UNL d   1      -8.889  -1.914   0.819  0.00  0.00     0.256 C 
ATOM     20  O   UNL d   1      -8.514  -2.046   1.980  0.00  0.00    -0.267 OA
ATOM     21  H   UNL d   1      -8.559  -1.172  -1.082  0.00  0.00     0.169 HD
BRANCH  19  22
ATOM     22  C   UNL d   1     -10.325  -2.196   0.542  0.00  0.00     0.032 A 
ATOM     23  C   UNL d   1     -10.798  -2.603  -0.709  0.00  0.00     0.017 A 
ATOM     24  C   UNL d   1     -12.145  -2.951  -0.860  0.00  0.00     0.001 A 
ATOM     25  C   UNL d   1     -13.016  -2.898   0.231  0.00  0.00     0.000 A 
ATOM     26  C   UNL d   1     -12.550  -2.489   1.477  0.00  0.00     0.001 A 
ATOM     27  C   UNL d   1     -11.211  -2.140   1.630  0.00  0.00     0.017 A 
ENDBRANCH  19  22
ENDBRANCH   4  18
TORSDOF 3
