REMARK  6 active torsions:
REMARK  status: ('A' for Active; 'I' for Inactive)
REMARK    1  A    between atoms: C_4  and  N_1 
REMARK    2  A    between atoms: C_2  and  O_9 
REMARK       I    between atoms: N_8  and  C_2 
REMARK    3  A    between atoms: O_9  and  C_3 
REMARK    4  A    between atoms: C_16  and  C_4 
REMARK    5  A    between atoms: C_17  and  C_4 
REMARK    6  A    between atoms: C_7  and  N_8 
ROOT
ATOM      1  N   UNL d   1       0.496   1.064  -0.559  0.00  0.00     0.106 N 
ATOM      2  C   UNL d   1      -0.238  -0.932  -0.418  0.00  0.00     0.190 C 
ATOM      3  C   UNL d   1      -0.835   0.480  -0.268  0.00  0.00     0.308 C 
ATOM      4  C   UNL d   1       1.130  -0.228  -0.212  0.00  0.00     0.308 C 
ENDROOT
BRANCH   1   5
ATOM      5  C   UNL d   1       0.843   2.134   0.419  0.00  0.00     0.289 C 
BRANCH   5   6
ATOM      6  C   UNL d   1       2.258   2.681   0.184  0.00  0.00    -0.021 A 
ATOM      7  C   UNL d   1       2.618   3.250  -1.050  0.00  0.00     0.010 A 
ATOM      8  C   UNL d   1       3.880   3.815  -1.244  0.00  0.00     0.001 A 
ATOM      9  C   UNL d   1       4.813   3.807  -0.211  0.00  0.00     0.000 A 
ATOM     10  C   UNL d   1       4.484   3.231   1.015  0.00  0.00     0.001 A 
ATOM     11  C   UNL d   1       3.216   2.673   1.214  0.00  0.00     0.010 A 
ENDBRANCH   5   6
BRANCH   5  12
ATOM     12  C   UNL d   1      -0.179   3.287   0.414  0.00  0.00    -0.021 A 
ATOM     13  C   UNL d   1      -0.478   3.974   1.603  0.00  0.00     0.010 A 
ATOM     14  C   UNL d   1      -1.432   4.994   1.616  0.00  0.00     0.001 A 
ATOM     15  C   UNL d   1      -2.097   5.347   0.443  0.00  0.00     0.000 A 
ATOM     16  C   UNL d   1      -1.795   4.695  -0.750  0.00  0.00     0.001 A 
ATOM     17  C   UNL d   1      -0.838   3.681  -0.765  0.00  0.00     0.010 A 
ENDBRANCH   5  12
ENDBRANCH   1   5
BRANCH   2  18
ATOM     18  O   UNL d   1      -0.533  -1.615  -1.667  0.00  0.00    -0.295 OA
BRANCH  18  19
ATOM     19  C   UNL d   1       0.203  -2.734  -1.876  0.00  0.00     0.365 C 
ATOM     20  N   UNL d   1      -0.215  -3.574  -2.879  0.00  0.00    -0.303 N 
ATOM     21  H   UNL d   1       0.410  -4.369  -2.938  0.00  0.00     0.171 HD
ATOM     22  O   UNL d   1       1.176  -3.047  -1.202  0.00  0.00    -0.238 OA
BRANCH  20  23
ATOM     23  C   UNL d   1      -1.395  -3.643  -3.643  0.00  0.00     0.040 A 
ATOM     24  C   UNL d   1      -2.394  -2.671  -3.669  0.00  0.00     0.053 A 
ATOM     25  C   UNL d   1      -3.583  -2.909  -4.372  0.00  0.00     0.037 A 
ATOM     26 CL   UNL d   1      -4.828  -1.718  -4.365  0.00  0.00    -0.084 Cl
ATOM     27  C   UNL d   1      -3.788  -4.100  -5.064  0.00  0.00     0.048 A 
ATOM     28  C   UNL d   1      -2.773  -5.047  -5.079  0.00  0.00     0.037 A 
ATOM     29  C   UNL d   1      -1.582  -4.821  -4.385  0.00  0.00     0.053 A 
ATOM     30 CL   UNL d   1      -2.993  -6.522  -5.936  0.00  0.00    -0.084 Cl
ENDBRANCH  20  23
ENDBRANCH  18  19
ENDBRANCH   2  18
TORSDOF 6
