REMARK  4 active torsions:
REMARK  status: ('A' for Active; 'I' for Inactive)
REMARK    1  A    between atoms: N_3  and  C_1 
REMARK    2  A    between atoms: N_4  and  C_2 
REMARK    3  A    between atoms: C_11  and  C_9 
REMARK    4  A    between atoms: C_10  and  C_11 
ROOT
ATOM      1  C   UNL d   1      -2.835   0.450  -0.168  0.00  0.00     0.077 C 
ENDROOT
BRANCH   1   2
ATOM      2  C   UNL d   1      -3.749  -0.745  -0.216  0.00  0.00    -0.054 A 
ATOM      3  C   UNL d   1      -4.202  -1.359   0.957  0.00  0.00     0.010 A 
ATOM      4  C   UNL d   1      -5.119  -2.419   0.905  0.00  0.00     0.030 A 
ATOM      5  C   UNL d   1      -5.624  -2.917  -0.306  0.00  0.00     0.029 A 
ATOM      6  C   UNL d   1      -5.125  -2.312  -1.471  0.00  0.00     0.030 A 
ATOM      7  C   UNL d   1      -4.204  -1.253  -1.434  0.00  0.00     0.010 A 
BRANCH   5   8
ATOM      8  N   UNL d   1      -6.578  -3.922  -0.357  0.00  0.00    -0.390 N 
ATOM      9  C   UNL d   1      -6.653  -4.860  -1.472  0.00  0.00     0.149 C 
ATOM     10  C   UNL d   1      -7.465  -4.211   0.763  0.00  0.00     0.149 C 
ENDBRANCH   5   8
ENDBRANCH   1   2
BRANCH   1  11
ATOM     11  C   UNL d   1      -1.355   0.140  -0.153  0.00  0.00    -0.054 A 
ATOM     12  C   UNL d   1      -0.631   0.022  -1.341  0.00  0.00     0.010 A 
ATOM     13  C   UNL d   1       0.758  -0.184  -1.319  0.00  0.00     0.030 A 
ATOM     14  C   UNL d   1       1.483  -0.280  -0.121  0.00  0.00     0.029 A 
ATOM     15  C   UNL d   1       0.727  -0.181   1.059  0.00  0.00     0.030 A 
ATOM     16  C   UNL d   1      -0.661   0.016   1.052  0.00  0.00     0.010 A 
BRANCH  14  17
ATOM     17  N   UNL d   1       2.868  -0.391  -0.081  0.00  0.00    -0.390 N 
ATOM     18  C   UNL d   1       3.516  -1.195   0.955  0.00  0.00     0.149 C 
ATOM     19  C   UNL d   1       3.693  -0.139  -1.258  0.00  0.00     0.149 C 
ENDBRANCH  14  17
ENDBRANCH   1  11
TORSDOF 4
