REMARK  2 active torsions:
REMARK  status: ('A' for Active; 'I' for Inactive)
REMARK    1  A    between atoms: C_13  and  C_9 
REMARK    2  A    between atoms: C_14  and  C_11 
ROOT
ATOM      1  N   UNL d   1       0.417   1.390   0.215  0.00  0.00    -0.194 N 
ATOM      2  C   UNL d   1       0.855   0.119   0.165  0.00  0.00     0.176 A 
ATOM      3  N   UNL d   1       2.154   0.065   0.229  0.00  0.00    -0.319 N 
ATOM      4  HN  UNL d   1       2.766  -0.751   0.204  1.00  0.00     0.169 HD
ATOM      5  N   UNL d   1       1.435   2.256   0.325  0.00  0.00    -0.273 N 
ATOM      6  HN  UNL d   1       1.417   3.274   0.382  1.00  0.00     0.189 HD
ATOM      7  C   UNL d   1      -0.936   1.637   0.170  0.00  0.00     0.285 A 
ATOM      8  C   UNL d   1      -1.593   0.293   0.057  0.00  0.00     0.079 A 
ATOM      9  C   UNL d   1       2.491   1.413   0.338  0.00  0.00     0.133 A 
ATOM     10  S   UNL d   1      -0.419  -1.024   0.064  0.00  0.00    -0.046 SA
ATOM     11  C   UNL d   1      -2.911   0.076  -0.063  0.00  0.00     0.036 C 
ATOM     12  O   UNL d   1      -1.409   2.756   0.229  0.00  0.00    -0.265 OA
ENDROOT
BRANCH  11  13
ATOM     13  C   UNL d   1      -3.905   1.147  -0.150  0.00  0.00    -0.035 A 
ATOM     14  C   UNL d   1      -4.256   1.657  -1.406  0.00  0.00     0.011 A 
ATOM     15  C   UNL d   1      -5.148   2.726  -1.504  0.00  0.00     0.001 A 
ATOM     16  C   UNL d   1      -5.695   3.285  -0.351  0.00  0.00     0.000 A 
ATOM     17  C   UNL d   1      -5.358   2.772   0.902  0.00  0.00     0.001 A 
ATOM     18  C   UNL d   1      -4.465   1.703   1.004  0.00  0.00     0.011 A 
ENDBRANCH  11  13
BRANCH   9  19
ATOM     19  C   UNL d   1       3.869   1.871   0.491  0.00  0.00     0.009 A 
ATOM     20  C   UNL d   1       4.147   3.228   0.719  0.00  0.00     0.015 A 
ATOM     21  C   UNL d   1       5.460   3.666   0.899  0.00  0.00     0.001 A 
ATOM     22  C   UNL d   1       6.511   2.752   0.847  0.00  0.00     0.000 A 
ATOM     23  C   UNL d   1       6.249   1.403   0.612  0.00  0.00     0.001 A 
ATOM     24  C   UNL d   1       4.934   0.963   0.435  0.00  0.00     0.015 A 
ENDBRANCH   9  19
TORSDOF 2
