REMARK  6 active torsions:
REMARK  status: ('A' for Active; 'I' for Inactive)
REMARK    1  A    between atoms: C_7  and  C_1 
REMARK    2  A    between atoms: C_8  and  N_4 
REMARK    3  A    between atoms: C_15  and  C_8 
REMARK    4  A    between atoms: O_11  and  C_14 
REMARK    5  A    between atoms: C_14  and  C_16 
REMARK    6  A    between atoms: C_16  and  C_15 
ROOT
ATOM      1  C   UNL d   1       2.385   0.116  -0.070  0.00  0.00     0.118 A 
ATOM      2  N   UNL d   1       1.569   1.164  -0.025  0.00  0.00    -0.340 N 
ATOM      3  HN  UNL d   1       1.843   2.146  -0.009  1.00  0.00     0.167 HD
ATOM      4  N   UNL d   1       1.640  -1.057  -0.006  0.00  0.00    -0.331 N 
ATOM      5  C   UNL d   1       0.298  -0.714  -0.010  0.00  0.00     0.063 A 
ATOM      6  C   UNL d   1       0.295   0.674  -0.004  0.00  0.00     0.060 A 
ATOM      7  C   UNL d   1      -0.892  -1.459  -0.013  0.00  0.00     0.032 A 
ATOM      8  C   UNL d   1      -0.923   1.370   0.014  0.00  0.00     0.032 A 
ATOM      9  C   UNL d   1      -2.099  -0.751   0.001  0.00  0.00     0.002 A 
ATOM     10  C   UNL d   1      -2.118   0.642   0.018  0.00  0.00     0.002 A 
ENDROOT
BRANCH   1  11
ATOM     11  C   UNL d   1       3.853   0.259  -0.103  0.00  0.00     0.008 A 
ATOM     12  C   UNL d   1       4.437   1.367   0.534  0.00  0.00     0.015 A 
ATOM     13  C   UNL d   1       5.825   1.533   0.580  0.00  0.00     0.001 A 
ATOM     14  C   UNL d   1       6.654   0.583  -0.008  0.00  0.00     0.000 A 
ATOM     15  C   UNL d   1       6.095  -0.498  -0.682  0.00  0.00     0.001 A 
ATOM     16  C   UNL d   1       4.705  -0.640  -0.755  0.00  0.00     0.015 A 
ENDBRANCH   1  11
BRANCH   4  17
ATOM     17  C   UNL d   1       2.118  -2.427   0.044  0.00  0.00     0.131 C 
BRANCH  17  18
ATOM     18  C   UNL d   1       2.960  -2.810   1.265  0.00  0.00     0.022 C 
BRANCH  18  19
ATOM     19  C   UNL d   1       2.250  -2.672   2.616  0.00  0.00     0.028 C 
BRANCH  19  20
ATOM     20  C   UNL d   1       1.005  -3.537   2.760  0.00  0.00     0.164 C 
BRANCH  20  21
ATOM     21  O   UNL d   1       1.325  -4.891   2.475  0.00  0.00    -0.401 OA
ATOM     22  H   UNL d   1       0.518  -5.414   2.627  0.00  0.00     0.209 HD
ENDBRANCH  20  21
ENDBRANCH  19  20
ENDBRANCH  18  19
ENDBRANCH  17  18
ENDBRANCH   4  17
TORSDOF 6
