REMARK  10 active torsions:
REMARK  status: ('A' for Active; 'I' for Inactive)
REMARK    1  A    between atoms: C_8  and  N_1 
REMARK    2  A    between atoms: S_11  and  C_2 
REMARK    3  A    between atoms: C_13  and  C_7 
REMARK    4  A    between atoms: C_16  and  S_11 
REMARK    5  A    between atoms: C_12  and  C_16 
REMARK       I    between atoms: N_14  and  C_12 
REMARK    6  A    between atoms: C_19  and  C_13 
REMARK    7  A    between atoms: C_17  and  N_14 
REMARK    8  A    between atoms: S_18  and  C_19 
REMARK    9  A    between atoms: C_20  and  S_18 
REMARK   10  A    between atoms: O_32  and  C_22 
ROOT
ATOM      1  N   UNL d   1      -0.505  -1.392  -0.181  0.00  0.00    -0.310 N 
ATOM      2  C   UNL d   1       0.686  -0.894  -0.645  0.00  0.00     0.163 C 
ATOM      3  N   UNL d   1       0.670   0.417  -0.588  0.00  0.00    -0.278 N 
ATOM      4  HN  UNL d   1       1.449   1.040  -0.803  1.00  0.00     0.189 HD
ATOM      5  N   UNL d   1      -0.584   0.797  -0.189  0.00  0.00    -0.287 N 
ATOM      6  HN  UNL d   1      -0.896   1.755  -0.033  1.00  0.00     0.188 HD
ATOM      7  C   UNL d   1      -1.321  -0.291  -0.039  0.00  0.00     0.101 C 
ENDROOT
BRANCH   2   8
ATOM      8  S   UNL d   1       2.055  -1.785  -1.192  0.00  0.00    -0.083 SA
BRANCH   8   9
ATOM      9  C   UNL d   1       1.477  -2.486  -2.746  0.00  0.00     0.185 C 
BRANCH   9  10
ATOM     10  C   UNL d   1       1.051  -1.552  -3.868  0.00  0.00     0.231 C 
ATOM     11  N   UNL d   1       1.111  -0.195  -3.646  0.00  0.00    -0.327 N 
ATOM     12  H   UNL d   1       1.536   0.126  -2.781  0.00  0.00     0.169 HD
ATOM     13  O   UNL d   1       0.674  -2.077  -4.919  0.00  0.00    -0.272 OA
BRANCH  11  14
ATOM     14  C   UNL d   1       0.625   0.823  -4.504  0.00  0.00     0.034 A 
ATOM     15  C   UNL d   1      -0.119   0.573  -5.662  0.00  0.00     0.032 A 
ATOM     16  C   UNL d   1      -0.581   1.626  -6.457  0.00  0.00     0.044 A 
ATOM     17  C   UNL d   1      -0.306   2.934  -6.088  0.00  0.00     0.116 A 
ATOM     18  C   UNL d   1       0.421   3.208  -4.938  0.00  0.00     0.044 A 
ATOM     19  F   UNL d   1      -0.786   3.943  -6.828  0.00  0.00    -0.206 F 
ATOM     20  C   UNL d   1       0.884   2.154  -4.142  0.00  0.00     0.032 A 
ENDBRANCH  11  14
ENDBRANCH   9  10
ENDBRANCH   8   9
ENDBRANCH   2   8
BRANCH   1  21
ATOM     21  C   UNL d   1      -0.801  -2.784   0.088  0.00  0.00     0.093 A 
ATOM     22  C   UNL d   1      -1.932  -3.324   0.929  0.00  0.00     0.028 A 
ATOM     23  C   UNL d   1      -0.527  -3.389   1.448  0.00  0.00     0.028 A 
ENDBRANCH   1  21
BRANCH   7  24
ATOM     24  C   UNL d   1      -2.807  -0.286   0.076  0.00  0.00     0.088 C 
BRANCH  24  25
ATOM     25  C   UNL d   1      -3.461   0.624  -0.973  0.00  0.00     0.087 C 
BRANCH  25  26
ATOM     26  S   UNL d   1      -3.388  -0.129  -2.643  0.00  0.00    -0.130 SA
BRANCH  26  27
ATOM     27  C   UNL d   1      -4.269   1.120  -3.557  0.00  0.00     0.000 A 
ATOM     28  C   UNL d   1      -3.575   1.955  -4.431  0.00  0.00     0.021 A 
ATOM     29  C   UNL d   1      -4.245   2.914  -5.200  0.00  0.00     0.038 A 
ATOM     30  C   UNL d   1      -5.627   3.055  -5.086  0.00  0.00     0.068 A 
ATOM     31  C   UNL d   1      -6.324   2.222  -4.204  0.00  0.00     0.038 A 
ATOM     32  C   UNL d   1      -5.653   1.254  -3.451  0.00  0.00     0.021 A 
BRANCH  30  33
ATOM     33  O   UNL d   1      -6.405   3.956  -5.758  0.00  0.00    -0.356 OA
ATOM     34  C   UNL d   1      -5.750   4.790  -6.708  0.00  0.00     0.210 C 
ENDBRANCH  30  33
ENDBRANCH  26  27
ENDBRANCH  25  26
ENDBRANCH  24  25
ENDBRANCH   7  24
TORSDOF 10
