REMARK  6 active torsions:
REMARK  status: ('A' for Active; 'I' for Inactive)
REMARK    1  A    between atoms: C_3  and  C_1 
REMARK    2  A    between atoms: O_13  and  C_3 
REMARK    3  A    between atoms: C_11  and  C_5 
REMARK    4  A    between atoms: S_7  and  C_11 
REMARK    5  A    between atoms: C_8  and  S_7 
REMARK    6  A    between atoms: N_12  and  C_10 
ROOT
ATOM      1  S   UNL d   1       0.567  -3.698   0.059  0.00  0.00    -0.122 SA
ENDROOT
BRANCH   1   2
ATOM      2  C   UNL d   1      -0.763  -2.438  -0.011  0.00  0.00     0.144 C 
BRANCH   2   3
ATOM      3  C   UNL d   1      -0.139  -1.076  -0.040  0.00  0.00     0.063 A 
ATOM      4  O   UNL d   1      -0.830  -0.055   0.558  0.00  0.00    -0.308 OA
ATOM      5  C   UNL d   1      -0.071   1.086   0.444  0.00  0.00     0.150 A 
ATOM      6  C   UNL d   1       1.098   0.789  -0.232  0.00  0.00     0.046 A 
ATOM      7  C   UNL d   1       1.046  -0.584  -0.556  0.00  0.00     0.036 A 
BRANCH   5   8
ATOM      8  C   UNL d   1      -0.524   2.342   0.992  0.00  0.00     0.316 C 
ATOM      9  O   UNL d   1       0.089   3.407   0.935  0.00  0.00    -0.257 OA
BRANCH   8  10
ATOM     10  O   UNL d   1      -1.746   2.189   1.586  0.00  0.00    -0.321 OA
ATOM     11  C   UNL d   1      -2.276   3.386   2.157  0.00  0.00     0.213 C 
ENDBRANCH   8  10
ENDBRANCH   5   8
ENDBRANCH   2   3
ENDBRANCH   1   2
BRANCH   1  12
ATOM     12  C   UNL d   1      -0.228  -5.308  -0.001  0.00  0.00     0.021 A 
ATOM     13  C   UNL d   1       0.633  -6.438   0.004  0.00  0.00     0.022 A 
ATOM     14  C   UNL d   1       0.092  -7.728  -0.043  0.00  0.00     0.024 A 
ATOM     15  C   UNL d   1      -1.287  -7.917  -0.029  0.00  0.00     0.002 A 
ATOM     16  C   UNL d   1      -2.138  -6.811  -0.009  0.00  0.00     0.001 A 
ATOM     17  C   UNL d   1      -1.613  -5.513   0.001  0.00  0.00     0.020 A 
BRANCH  13  18
ATOM     18  N   UNL d   1       2.029  -6.295  -0.167  0.00  0.00    -0.302 NA
ATOM     19  H   UNL d   1       2.338  -5.367   0.122  0.00  0.00     0.124 HD
ATOM     20  H   UNL d   1       2.577  -7.043   0.243  0.00  0.00     0.124 HD
ENDBRANCH  13  18
ENDBRANCH   1  12
TORSDOF 6
