REMARK  7 active torsions:
REMARK  status: ('A' for Active; 'I' for Inactive)
REMARK    1  A    between atoms: C_5  and  S_1 
REMARK    2  A    between atoms: N_7  and  S_1 
REMARK    3  A    between atoms: N_3  and  C_2 
REMARK    4  A    between atoms: S_9  and  C_6 
REMARK    5  A    between atoms: C_10  and  N_7 
REMARK    6  A    between atoms: C_8  and  C_10 
REMARK    7  A    between atoms: C_18  and  S_9 
ROOT
ATOM      1  C   UNL d   1       0.977   3.461   2.568  0.00  0.00     0.121 A 
ATOM      2  C   UNL d   1       1.333   2.535   1.575  0.00  0.00     0.062 A 
ATOM      3  C   UNL d   1       0.663   1.318   1.542  0.00  0.00     0.082 A 
ATOM      4  C   UNL d   1       0.003   3.199   3.544  0.00  0.00     0.038 A 
ATOM      5  C   UNL d   1      -0.570   1.919   3.550  0.00  0.00     0.023 A 
ATOM      6  C   UNL d   1      -0.247   0.982   2.555  0.00  0.00     0.027 A 
ENDROOT
BRANCH   3   7
ATOM      7  S   UNL d   1       0.900   0.235   0.147  0.00  0.00     0.260 S 
ATOM      8  O   UNL d   1      -0.109  -0.796   0.216  0.00  0.00    -0.200 OA
ATOM      9  O   UNL d   1       2.307  -0.097   0.138  0.00  0.00    -0.200 OA
BRANCH   7  10
ATOM     10  N   UNL d   1       0.646   1.206  -1.221  0.00  0.00    -0.294 N 
ATOM     11  H   UNL d   1       1.408   1.106  -1.890  0.00  0.00     0.174 HD
BRANCH  10  12
ATOM     12  C   UNL d   1      -0.706   1.474  -1.774  0.00  0.00     0.103 C 
ATOM     13  C   UNL d   1      -1.293   0.204  -2.415  0.00  0.00     0.045 C 
ATOM     14  C   UNL d   1      -0.554  -0.188  -3.704  0.00  0.00     0.004 C 
ATOM     15  C   UNL d   1      -0.707   0.900  -4.755  0.00  0.00     0.000 C 
ATOM     16  C   UNL d   1      -0.134   2.215  -4.252  0.00  0.00     0.004 C 
ATOM     17  C   UNL d   1      -0.645   2.596  -2.865  0.00  0.00     0.045 C 
BRANCH  12  18
ATOM     18  C   UNL d   1      -1.541   2.080  -0.713  0.00  0.00    -0.085 C 
ATOM     19  C   UNL d   1      -2.101   2.807   0.068  0.00  0.00     0.015 C 
ENDBRANCH  12  18
ENDBRANCH  10  12
ENDBRANCH   7  10
ENDBRANCH   3   7
BRANCH   1  20
ATOM     20  N   UNL d   1       1.606   4.761   2.493  0.00  0.00    -0.114 N 
ATOM     21  O   UNL d   1       2.667   4.899   3.101  0.00  0.00    -0.532 OA
ATOM     22  O   UNL d   1       1.050   5.603   1.771  0.00  0.00    -0.532 OA
ENDBRANCH   1  20
BRANCH   4  23
ATOM     23  S   UNL d   1      -0.737   4.446   4.594  0.00  0.00    -0.088 SA
BRANCH  23  24
ATOM     24  C   UNL d   1       0.328   4.480   6.015  0.00  0.00     0.005 A 
ATOM     25  C   UNL d   1       1.334   5.448   6.115  0.00  0.00     0.020 A 
ATOM     26  C   UNL d   1       2.134   5.522   7.258  0.00  0.00     0.025 A 
ATOM     27  C   UNL d   1       1.915   4.640   8.313  0.00  0.00     0.034 A 
ATOM     28  C   UNL d   1       0.897   3.692   8.238  0.00  0.00     0.025 A 
ATOM     29 CL   UNL d   1       2.899   4.729   9.721  0.00  0.00    -0.084 Cl
ATOM     30  C   UNL d   1       0.102   3.615   7.090  0.00  0.00     0.020 A 
ENDBRANCH  23  24
ENDBRANCH   4  23
TORSDOF 7
