REMARK  3 active torsions:
REMARK  status: ('A' for Active; 'I' for Inactive)
REMARK    1  A    between atoms: S_4  and  C_1 
REMARK    2  A    between atoms: C_17  and  N_2 
REMARK    3  A    between atoms: C_3  and  S_4 
ROOT
ATOM      1  C   UNL d   1       1.804  -3.224   0.478  0.00  0.00     0.099 A 
ATOM      2  C   UNL d   1       2.280  -4.461   0.025  0.00  0.00     0.085 A 
ATOM      3  N   UNL d   1       1.139  -3.091   1.650  0.00  0.00    -0.349 N 
ATOM      4  HN  UNL d   1       0.792  -2.178   1.945  1.00  0.00     0.166 HD
ATOM      5  C   UNL d   1       2.078  -5.604   0.826  0.00  0.00    -0.026 A 
ATOM      6  C   UNL d   1       1.411  -5.459   2.072  0.00  0.00    -0.002 A 
ATOM      7  C   UNL d   1       3.008  -4.545  -1.205  0.00  0.00     0.103 C 
ATOM      8  C   UNL d   1       0.941  -4.173   2.420  0.00  0.00     0.043 A 
ATOM      9  N   UNL d   1       3.618  -4.639  -2.192  0.00  0.00    -0.191 NA
ATOM     10  C   UNL d   1       2.600  -6.962   0.409  0.00  0.00     0.050 C 
ATOM     11  C   UNL d   1       1.227  -6.519   2.993  0.00  0.00     0.014 A 
ATOM     12  C   UNL d   1       0.285  -4.004   3.633  0.00  0.00     0.030 A 
ATOM     13  C   UNL d   1       0.610  -6.313   4.224  0.00  0.00     0.001 A 
ATOM     14  C   UNL d   1       0.128  -5.053   4.541  0.00  0.00     0.002 A 
ENDROOT
BRANCH   1  15
ATOM     15  S   UNL d   1       2.244  -1.699  -0.348  0.00  0.00    -0.033 SA
BRANCH  15  16
ATOM     16  C   UNL d   1       0.832  -0.717  -0.196  0.00  0.00     0.172 A 
ATOM     17  N   UNL d   1       0.925   0.641  -0.060  0.00  0.00    -0.272 N 
ATOM     18  C   UNL d   1      -0.382   1.055  -0.005  0.00  0.00     0.343 A 
ATOM     19  O   UNL d   1      -0.846   2.170   0.157  0.00  0.00    -0.245 OA
ATOM     20  N   UNL d   1      -1.158  -0.081  -0.150  0.00  0.00    -0.249 N 
ATOM     21  N   UNL d   1      -0.379  -1.186  -0.272  0.00  0.00    -0.275 N 
ATOM     22  H   UNL d   1      -2.167  -0.113  -0.090  0.00  0.00     0.192 HD
ATOM     23  HN  UNL d   1      -0.673  -2.155  -0.395  1.00  0.00     0.189 HD
BRANCH  17  24
ATOM     24  C   UNL d   1       2.125   1.474   0.165  0.00  0.00     0.097 C 
ATOM     25  C   UNL d   1       2.275   1.920   1.625  0.00  0.00     0.026 C 
ATOM     26  C   UNL d   1       1.424   3.126   2.004  0.00  0.00     0.002 C 
ATOM     27  C   UNL d   1       1.545   4.290   1.026  0.00  0.00     0.000 C 
ATOM     28  C   UNL d   1       1.506   3.914  -0.453  0.00  0.00     0.002 C 
ATOM     29  C   UNL d   1       2.290   2.655  -0.803  0.00  0.00     0.026 C 
ENDBRANCH  17  24
ENDBRANCH  15  16
ENDBRANCH   1  15
TORSDOF 3
