REMARK  3 active torsions:
REMARK  status: ('A' for Active; 'I' for Inactive)
REMARK       I    between atoms: N_5  and  C_1 
REMARK    1  A    between atoms: O_7  and  C_1 
REMARK    2  A    between atoms: N_2  and  O_7 
REMARK    3  A    between atoms: C_13  and  N_5 
ROOT
ATOM      1  C   UNL d   1       1.076   0.385  -1.681  0.00  0.00     0.387 C 
ATOM      2  N   UNL d   1       0.426  -0.366  -2.632  0.00  0.00    -0.301 N 
ATOM      3  O   UNL d   1       2.274   0.645  -1.645  0.00  0.00    -0.236 OA
ATOM      4  H   UNL d   1      -0.561  -0.474  -2.429  0.00  0.00     0.171 HD
ENDROOT
BRANCH   1   5
ATOM      5  O   UNL d   1       0.264   0.830  -0.654  0.00  0.00    -0.181 OA
BRANCH   5   6
ATOM      6  N   UNL d   1      -1.116   0.625  -0.873  0.00  0.00    -0.264 N 
ATOM      7  C   UNL d   1      -1.776   0.867   0.224  0.00  0.00     0.014 C 
ATOM      8  C   UNL d   1      -3.281   0.786   0.224  0.00  0.00     0.084 C 
ATOM      9  C   UNL d   1      -1.173   1.183   1.576  0.00  0.00     0.084 C 
ATOM     10  C   UNL d   1      -3.682  -0.283   1.236  0.00  0.00     0.277 C 
ATOM     11  N   UNL d   1      -3.098  -0.043   2.571  0.00  0.00     0.084 N 
ATOM     12  C   UNL d   1      -1.628   0.073   2.523  0.00  0.00     0.277 C 
ATOM     13  C   UNL d   1      -3.482  -1.126   3.482  0.00  0.00     0.309 C 
ATOM     14  HN  UNL d   1      -1.533   0.332  -1.757  1.00  0.00     0.194 HD
ENDBRANCH   5   6
ENDBRANCH   1   5
BRANCH   2  15
ATOM     15  C   UNL d   1       0.989  -1.018  -3.745  0.00  0.00     0.036 A 
ATOM     16  C   UNL d   1       2.329  -0.883  -4.124  0.00  0.00     0.029 A 
ATOM     17  C   UNL d   1       2.833  -1.568  -5.233  0.00  0.00     0.002 A 
ATOM     18  C   UNL d   1       2.003  -2.399  -5.979  0.00  0.00     0.000 A 
ATOM     19  C   UNL d   1       0.665  -2.538  -5.617  0.00  0.00     0.002 A 
ATOM     20  C   UNL d   1       0.159  -1.847  -4.509  0.00  0.00     0.029 A 
ENDBRANCH   2  15
TORSDOF 3
