REMARK  6 active torsions:
REMARK  status: ('A' for Active; 'I' for Inactive)
REMARK    1  A    between atoms: O_8  and  C_1 
REMARK    2  A    between atoms: C_2  and  N_7 
REMARK    3  A    between atoms: N_3  and  C_9 
REMARK    4  A    between atoms: N_7  and  N_3 
REMARK    5  A    between atoms: C_17  and  O_8 
REMARK    6  A    between atoms: C_9  and  C_13 
ROOT
ATOM      1  C   UNL d   1      -5.773  -5.006  -1.183  0.00  0.00    -0.012 A 
ATOM      2  C   UNL d   1      -6.864  -5.869  -1.359  0.00  0.00     0.016 A 
ATOM      3  C   UNL d   1      -5.628  -3.924  -2.061  0.00  0.00     0.016 A 
ATOM      4  C   UNL d   1      -7.691  -4.521  -3.195  0.00  0.00     0.076 A 
ATOM      5  C   UNL d   1      -7.803  -5.643  -2.375  0.00  0.00     0.038 A 
ATOM      6  C   UNL d   1      -6.581  -3.684  -3.057  0.00  0.00     0.038 A 
ENDROOT
BRANCH   1   7
ATOM      7  C   UNL d   1      -4.764  -5.214  -0.080  0.00  0.00     0.032 C 
ATOM      8  C   UNL d   1      -5.071  -6.303   0.930  0.00  0.00     0.070 C 
BRANCH   7   9
ATOM      9  N   UNL d   1      -3.709  -4.445  -0.061  0.00  0.00    -0.302 N 
ATOM     10  HN  UNL d   1      -3.589  -3.727  -0.777  1.00  0.00     0.186 HD
BRANCH   9  11
ATOM     11  N   UNL d   1      -2.768  -4.600   0.914  0.00  0.00    -0.276 N 
ATOM     12  H   UNL d   1      -2.841  -5.319   1.620  0.00  0.00     0.189 HD
BRANCH  11  13
ATOM     13  C   UNL d   1      -1.647  -3.820   0.955  0.00  0.00     0.184 C 
ATOM     14  S   UNL d   1      -0.474  -4.022   2.108  0.00  0.00    -0.040 SA
ATOM     15  N   UNL d   1      -1.556  -2.869  -0.004  0.00  0.00    -0.375 N 
ATOM     16  H   UNL d   1      -2.295  -2.834  -0.690  0.00  0.00     0.158 HD
ATOM     17  H   UNL d   1      -0.753  -2.261  -0.071  0.00  0.00     0.158 HD
ENDBRANCH  11  13
ENDBRANCH   9  11
ENDBRANCH   7   9
ENDBRANCH   1   7
BRANCH   4  18
ATOM     18  O   UNL d   1      -8.592  -4.139  -4.164  0.00  0.00    -0.307 OA
BRANCH  18  19
ATOM     19  C   UNL d   1      -9.878  -4.635  -4.154  0.00  0.00     0.122 A 
ATOM     20  C   UNL d   1     -10.765  -4.485  -3.082  0.00  0.00     0.085 A 
ATOM     21 CL   UNL d   1     -10.386  -3.636  -1.630  0.00  0.00    -0.080 Cl
ATOM     22  C   UNL d   1     -12.046  -5.011  -3.213  0.00  0.00     0.114 A 
ATOM     23  N   UNL d   1     -12.511  -5.613  -4.333  0.00  0.00    -0.372 N 
ATOM     24  C   UNL d   1     -11.657  -5.676  -5.380  0.00  0.00     0.114 A 
ATOM     25  HN  UNL d   1     -13.455  -5.997  -4.385  1.00  0.00     0.164 HD
ATOM     26  C   UNL d   1     -10.350  -5.210  -5.340  0.00  0.00     0.085 A 
ATOM     27 CL   UNL d   1      -9.373  -5.336  -6.755  0.00  0.00    -0.080 Cl
ENDBRANCH  18  19
ENDBRANCH   4  18
TORSDOF 6
