REMARK  6 active torsions:
REMARK  status: ('A' for Active; 'I' for Inactive)
REMARK    1  A    between atoms: C_4  and  N_1 
REMARK    2  A    between atoms: C_2  and  O_7 
REMARK       I    between atoms: N_8  and  C_2 
REMARK    3  A    between atoms: O_7  and  C_3 
REMARK    4  A    between atoms: C_10  and  C_4 
REMARK    5  A    between atoms: C_11  and  C_4 
REMARK    6  A    between atoms: C_12  and  N_8 
ROOT
ATOM      1  N   UNL d   1       0.471   1.054  -0.515  0.00  0.00     0.106 N 
ATOM      2  C   UNL d   1      -0.245  -0.942  -0.380  0.00  0.00     0.190 C 
ATOM      3  C   UNL d   1      -0.841   0.458  -0.160  0.00  0.00     0.308 C 
ATOM      4  C   UNL d   1       1.123  -0.240  -0.191  0.00  0.00     0.308 C 
ENDROOT
BRANCH   1   5
ATOM      5  C   UNL d   1       0.841   2.124   0.452  0.00  0.00     0.289 C 
BRANCH   5   6
ATOM      6  C   UNL d   1       2.245   2.677   0.190  0.00  0.00    -0.021 A 
ATOM      7  C   UNL d   1       2.585   3.249  -1.047  0.00  0.00     0.010 A 
ATOM      8  C   UNL d   1       3.844   3.817  -1.255  0.00  0.00     0.001 A 
ATOM      9  C   UNL d   1       4.790   3.812  -0.233  0.00  0.00     0.000 A 
ATOM     10  C   UNL d   1       4.479   3.234   0.996  0.00  0.00     0.001 A 
ATOM     11  C   UNL d   1       3.216   2.672   1.208  0.00  0.00     0.010 A 
ENDBRANCH   5   6
BRANCH   5  12
ATOM     12  C   UNL d   1      -0.191   3.267   0.483  0.00  0.00    -0.021 A 
ATOM     13  C   UNL d   1      -0.453   3.943   1.686  0.00  0.00     0.010 A 
ATOM     14  C   UNL d   1      -1.422   4.948   1.740  0.00  0.00     0.001 A 
ATOM     15  C   UNL d   1      -2.137   5.295   0.596  0.00  0.00     0.000 A 
ATOM     16  C   UNL d   1      -1.871   4.654  -0.611  0.00  0.00     0.001 A 
ATOM     17  C   UNL d   1      -0.898   3.658  -0.670  0.00  0.00     0.010 A 
ENDBRANCH   5  12
ENDBRANCH   1   5
BRANCH   2  18
ATOM     18  O   UNL d   1      -0.551  -1.550  -1.658  0.00  0.00    -0.295 OA
BRANCH  18  19
ATOM     19  C   UNL d   1      -0.081  -2.811  -1.814  0.00  0.00     0.365 C 
ATOM     20  N   UNL d   1      -0.519  -3.482  -2.926  0.00  0.00    -0.303 N 
ATOM     21  H   UNL d   1      -0.163  -4.428  -2.929  0.00  0.00     0.171 HD
ATOM     22  O   UNL d   1       0.653  -3.369  -1.006  0.00  0.00    -0.238 OA
BRANCH  20  23
ATOM     23  C   UNL d   1      -1.410  -3.135  -3.958  0.00  0.00     0.036 A 
ATOM     24  C   UNL d   1      -1.987  -1.879  -4.136  0.00  0.00     0.031 A 
ATOM     25  C   UNL d   1      -2.902  -1.654  -5.175  0.00  0.00     0.026 A 
ATOM     26  C   UNL d   1      -3.240  -2.687  -6.045  0.00  0.00     0.034 A 
ATOM     27  C   UNL d   1      -2.656  -3.939  -5.898  0.00  0.00     0.026 A 
ATOM     28 CL   UNL d   1      -4.384  -2.414  -7.300  0.00  0.00    -0.084 Cl
ATOM     29  C   UNL d   1      -1.743  -4.159  -4.861  0.00  0.00     0.031 A 
ENDBRANCH  20  23
ENDBRANCH  18  19
ENDBRANCH   2  18
TORSDOF 6
