REMARK  4 active torsions:
REMARK  status: ('A' for Active; 'I' for Inactive)
REMARK    1  A    between atoms: C_2  and  C_1 
REMARK       I    between atoms: N_3  and  C_2 
REMARK    2  A    between atoms: N_6  and  N_3 
REMARK    3  A    between atoms: C_8  and  N_6 
REMARK    4  A    between atoms: O_16  and  C_11 
ROOT
ATOM      1  C   UNL d   1       0.336   1.947   0.585  0.00  0.00     0.271 C 
ATOM      2  N   UNL d   1       1.412   2.802   0.395  0.00  0.00    -0.282 N 
ATOM      3  O   UNL d   1       0.348   0.812   0.118  0.00  0.00    -0.266 OA
ATOM      4  H   UNL d   1       1.340   3.803   0.564  0.00  0.00     0.184 HD
ENDROOT
BRANCH   2   5
ATOM      5  N   UNL d   1       2.402   2.410  -0.510  0.00  0.00    -0.203 NA
ATOM      6  H   UNL d   1       2.280   1.433  -0.809  0.00  0.00     0.153 HD
BRANCH   5   7
ATOM      7  C   UNL d   1       3.737   2.680  -0.122  0.00  0.00     0.027 A 
ATOM      8  C   UNL d   1       4.090   3.466   0.983  0.00  0.00     0.028 A 
ATOM      9  C   UNL d   1       5.428   3.796   1.248  0.00  0.00     0.038 A 
ATOM     10  C   UNL d   1       6.439   3.369   0.391  0.00  0.00     0.068 A 
ATOM     11  C   UNL d   1       6.101   2.588  -0.714  0.00  0.00     0.038 A 
ATOM     12  C   UNL d   1       4.767   2.249  -0.969  0.00  0.00     0.028 A 
BRANCH  10  13
ATOM     13  O   UNL d   1       7.771   3.653   0.508  0.00  0.00    -0.356 OA
ATOM     14  C   UNL d   1       8.162   4.475   1.601  0.00  0.00     0.210 C 
ENDBRANCH  10  13
ENDBRANCH   5   7
ENDBRANCH   2   5
BRANCH   1  15
ATOM     15  C   UNL d   1      -0.816   2.480   1.387  0.00  0.00     0.093 A 
ATOM     16  C   UNL d   1      -0.718   3.736   2.010  0.00  0.00     0.133 A 
ATOM     17  F   UNL d   1       0.375   4.503   1.863  0.00  0.00    -0.205 F 
ATOM     18  C   UNL d   1      -1.740   4.257   2.804  0.00  0.00     0.043 A 
ATOM     19  C   UNL d   1      -2.904   3.528   2.998  0.00  0.00     0.005 A 
ATOM     20  C   UNL d   1      -3.039   2.287   2.380  0.00  0.00     0.025 A 
ATOM     21  C   UNL d   1      -2.010   1.761   1.577  0.00  0.00     0.052 A 
ATOM     22 CL   UNL d   1      -2.354   0.224   0.862  0.00  0.00    -0.083 Cl
ENDBRANCH   1  15
TORSDOF 4
