REMARK  3 active torsions:
REMARK  status: ('A' for Active; 'I' for Inactive)
REMARK    1  A    between atoms: C_5  and  C_1 
REMARK    2  A    between atoms: C_10  and  C_6 
REMARK    3  A    between atoms: N_8  and  C_9 
ROOT
ATOM      1  C   UNL d   1      -0.843   0.541  -0.279  0.00  0.00     0.134 A 
ATOM      2  N   UNL d   1      -0.043   1.369   0.420  0.00  0.00    -0.296 N 
ATOM      3  HN  UNL d   1      -0.256   2.306   0.761  1.00  0.00     0.187 HD
ATOM      4  C   UNL d   1      -0.172  -0.680  -0.559  0.00  0.00     0.067 A 
ATOM      5  C   UNL d   1       1.081  -0.574   0.012  0.00  0.00     0.060 A 
ATOM      6  N   UNL d   1       1.100   0.680   0.567  0.00  0.00    -0.300 N 
ATOM      7  H   UNL d   1       1.870   1.131   1.048  0.00  0.00     0.187 HD
ENDROOT
BRANCH   5   8
ATOM      8  C   UNL d   1       2.217  -1.492   0.047  0.00  0.00    -0.008 A 
ATOM      9  C   UNL d   1       2.438  -2.389  -1.003  0.00  0.00     0.016 A 
ATOM     10  C   UNL d   1       3.541  -3.254  -0.995  0.00  0.00     0.031 A 
ATOM     11  C   UNL d   1       4.448  -3.243   0.073  0.00  0.00     0.038 A 
ATOM     12  C   UNL d   1       4.216  -2.362   1.137  0.00  0.00     0.031 A 
ATOM     13  C   UNL d   1       3.113  -1.498   1.122  0.00  0.00     0.016 A 
BRANCH  11  14
ATOM     14  N   UNL d   1       5.593  -4.101   0.071  0.00  0.00    -0.333 N 
ATOM     15  C   UNL d   1       6.547  -4.210   1.068  0.00  0.00     0.096 A 
ATOM     16  C   UNL d   1       7.511  -5.118   0.688  0.00  0.00     0.019 A 
ATOM     17  C   UNL d   1       7.147  -5.601  -0.582  0.00  0.00     0.019 A 
ATOM     18  C   UNL d   1       5.971  -4.974  -0.934  0.00  0.00     0.096 A 
ENDBRANCH  11  14
ENDBRANCH   5   8
BRANCH   1  19
ATOM     19  C   UNL d   1      -2.248   0.895  -0.690  0.00  0.00     0.434 C 
ATOM     20  F   UNL d   1      -2.638   2.139  -0.306  0.00  0.00    -0.165 F 
ATOM     21  F   UNL d   1      -2.400   0.839  -2.042  0.00  0.00    -0.165 F 
ATOM     22  F   UNL d   1      -3.155   0.023  -0.170  0.00  0.00    -0.165 F 
ENDBRANCH   1  19
TORSDOF 3
