REMARK  5 active torsions:
REMARK  status: ('A' for Active; 'I' for Inactive)
REMARK    1  A    between atoms: N_5  and  C_1 
REMARK    2  A    between atoms: N_7  and  C_1 
REMARK    3  A    between atoms: N_2  and  N_5 
REMARK    4  A    between atoms: C_12  and  C_6 
REMARK    5  A    between atoms: C_11  and  C_10 
ROOT
ATOM      1  N   UNL d   1      -1.165  -2.756   2.063  0.00  0.00    -0.309 N 
ATOM      2  HN  UNL d   1      -1.675  -3.184   2.836  1.00  0.00     0.186 HD
ATOM      3  C   UNL d   1      -1.778  -2.287   1.024  0.00  0.00     0.118 C 
ENDROOT
BRANCH   3   4
ATOM      4  C   UNL d   1      -3.253  -2.352   0.947  0.00  0.00    -0.019 A 
ATOM      5  C   UNL d   1      -3.972  -2.942   1.990  0.00  0.00     0.013 A 
ATOM      6  C   UNL d   1      -5.362  -2.994   1.938  0.00  0.00     0.008 A 
ATOM      7  C   UNL d   1      -6.058  -2.463   0.843  0.00  0.00    -0.055 A 
ATOM      8  C   UNL d   1      -5.323  -1.878  -0.202  0.00  0.00     0.008 A 
ATOM      9  C   UNL d   1      -3.924  -1.821  -0.154  0.00  0.00     0.013 A 
BRANCH   7  10
ATOM     10  C   UNL d   1      -7.577  -2.510   0.787  0.00  0.00     0.010 C 
ATOM     11  C   UNL d   1      -8.097  -3.950   0.819  0.00  0.00     0.015 C 
ATOM     12  C   UNL d   1      -8.200  -1.686   1.918  0.00  0.00     0.015 C 
ENDBRANCH   7  10
ENDBRANCH   3   4
BRANCH   1  13
ATOM     13  N   UNL d   1       0.194  -2.649   2.074  0.00  0.00    -0.277 N 
ATOM     14  H   UNL d   1       0.696  -2.224   1.301  0.00  0.00     0.189 HD
BRANCH  13  15
ATOM     15  C   UNL d   1       0.911  -3.104   3.167  0.00  0.00     0.186 C 
ATOM     16  S   UNL d   1       2.568  -2.963   3.199  0.00  0.00    -0.040 SA
BRANCH  15  17
ATOM     17  N   UNL d   1       0.104  -3.640   4.136  0.00  0.00    -0.370 N 
ATOM     18  C   UNL d   1       0.451  -4.213   5.415  0.00  0.00     0.148 C 
ATOM     19  H   UNL d   1      -0.873  -3.613   3.857  0.00  0.00     0.161 HD
ENDBRANCH  15  17
ENDBRANCH  13  15
ENDBRANCH   1  13
TORSDOF 5
