REMARK  14 active torsions:
REMARK  status: ('A' for Active; 'I' for Inactive)
REMARK       I    between atoms: N_11  and  C1_1 
REMARK    1  A    between atoms: O3_3  and  C1_1 
REMARK    2  A    between atoms: C16_4  and  O3_3 
REMARK    3  A    between atoms: C21_5  and  C16_4 
REMARK    4  A    between atoms: C_16  and  N_11 
REMARK    5  A    between atoms: C_12  and  N_13 
REMARK    6  A    between atoms: C_17  and  C_12 
REMARK    7  A    between atoms: C_18  and  C_12 
REMARK       I    between atoms: N_13  and  C_15 
REMARK    8  A    between atoms: C_14  and  C_16 
REMARK    9  A    between atoms: O_27  and  C_14 
REMARK   10  A    between atoms: C_15  and  C_26 
REMARK   11  A    between atoms: C_21  and  C_16 
REMARK   12  A    between atoms: C_26  and  C_21 
REMARK   13  A    between atoms: O_35  and  C_28 
REMARK   14  A    between atoms: O_34  and  C_29 
ROOT
ATOM      1  N   UNK d   1      -1.753   1.640  -5.702  0.00  0.00    -0.348 N 
ATOM      2  C   UNK d   1      -0.392   1.496  -5.860  0.00  0.00     0.218 C 
ATOM      3  O   UNK d   1       0.355   1.125  -4.959  0.00  0.00    -0.274 OA
ATOM      4  H   UNK d   1      -2.286   2.066  -6.448  0.00  0.00     0.163 HD
ENDROOT
BRANCH   2   5
ATOM      5  C   UNK d   1       0.109   1.804  -7.271  0.00  0.00     0.105 C 
BRANCH   5   6
ATOM      6  C   UNK d   1       1.642   1.681  -7.369  0.00  0.00     0.045 C 
BRANCH   6   7
ATOM      7  C   UNK d   1       2.275   1.887  -8.762  0.00  0.00     0.185 C 
BRANCH   7   8
ATOM      8  C   UNK d   1       2.134   3.346  -9.251  0.00  0.00     0.163 C 
ATOM      9  O   UNK d   1       1.495   4.213  -8.670  0.00  0.00    -0.648 OA
BRANCH   8  10
ATOM     10  O   UNK d   1       2.851   3.634 -10.363  0.00  0.00    -0.775 OA
ATOM     11  H   UNK d   1       3.309   2.852 -10.759  0.00  0.00     0.167 HD
ENDBRANCH   8  10
ENDBRANCH   7   8
BRANCH   7  12
ATOM     12  N   UNK d   1       1.803   0.891  -9.729  0.00  0.00    -0.322 N 
ATOM     13  C1  <1> d   1       2.413   0.634 -10.921  0.00  0.00     0.361 C 
ATOM     14  O1  <1> d   1       3.312   1.327 -11.383  0.00  0.00    -0.238 OA
ATOM     15  H   UNK d   1       1.159   0.171  -9.432  0.00  0.00     0.165 HD
BRANCH  13  16
ATOM     16  O3  <1> d   1       1.820  -0.426 -11.511  0.00  0.00    -0.299 OA
BRANCH  16  17
ATOM     17  C16 <1> d   1       2.101  -0.624 -12.904  0.00  0.00     0.219 C 
BRANCH  17  18
ATOM     18  C21 <1> d   1       3.036  -1.781 -13.153  0.00  0.00    -0.034 A 
ATOM     19  C22 <1> d   1       2.689  -3.082 -12.764  0.00  0.00     0.009 A 
ATOM     20  C26 <1> d   1       3.527  -4.163 -13.065  0.00  0.00     0.001 A 
ATOM     21  C28 <1> d   1       4.720  -3.950 -13.756  0.00  0.00     0.000 A 
ATOM     22  C27 <1> d   1       5.076  -2.662 -14.145  0.00  0.00     0.001 A 
ATOM     23  C23 <1> d   1       4.241  -1.583 -13.845  0.00  0.00     0.009 A 
ENDBRANCH  17  18
ENDBRANCH  16  17
ENDBRANCH  13  16
ENDBRANCH   7  12
ENDBRANCH   6   7
ENDBRANCH   5   6
ENDBRANCH   2   5
BRANCH   1  24
ATOM     24  C   UNK d   1      -2.422   1.445  -4.419  0.00  0.00     0.151 C 
BRANCH  24  25
ATOM     25  C   UNK d   1      -3.080   2.739  -3.931  0.00  0.00    -0.031 A 
ATOM     26  C   UNK d   1      -4.093   3.370  -4.674  0.00  0.00     0.012 A 
ATOM     27  C   UNK d   1      -4.757   4.500  -4.184  0.00  0.00     0.037 A 
ATOM     28  C   UNK d   1      -4.415   5.031  -2.944  0.00  0.00     0.068 A 
ATOM     29  C   UNK d   1      -3.422   4.404  -2.188  0.00  0.00     0.037 A 
ATOM     30  C   UNK d   1      -2.761   3.269  -2.671  0.00  0.00     0.012 A 
BRANCH  28  31
ATOM     31  O   UNK d   1      -4.977   6.137  -2.367  0.00  0.00    -0.356 OA
ATOM     32  C   UNK d   1      -5.916   6.858  -3.157  0.00  0.00     0.210 C 
ENDBRANCH  28  31
ENDBRANCH  24  25
BRANCH  24  33
ATOM     33  C   UNK d   1      -3.462   0.323  -4.437  0.00  0.00    -0.031 A 
ATOM     34  C   UNK d   1      -3.716  -0.385  -3.249  0.00  0.00     0.012 A 
ATOM     35  C   UNK d   1      -4.805  -1.257  -3.143  0.00  0.00     0.037 A 
ATOM     36  C   UNK d   1      -5.662  -1.440  -4.225  0.00  0.00     0.068 A 
ATOM     37  C   UNK d   1      -5.394  -0.777  -5.424  0.00  0.00     0.037 A 
ATOM     38  C   UNK d   1      -4.303   0.090  -5.536  0.00  0.00     0.012 A 
BRANCH  36  39
ATOM     39  O   UNK d   1      -6.785  -2.221  -4.240  0.00  0.00    -0.356 OA
ATOM     40  C   UNK d   1      -7.156  -2.830  -3.009  0.00  0.00     0.210 C 
ENDBRANCH  36  39
ENDBRANCH  24  33
ENDBRANCH   1  24
TORSDOF 14
