REMARK  8 active torsions:
REMARK  status: ('A' for Active; 'I' for Inactive)
REMARK    1  A    between atoms: C_6  and  C_1 
REMARK    2  A    between atoms: C_2  and  C_8 
REMARK    3  A    between atoms: C_7  and  C_2 
REMARK    4  A    between atoms: N_3  and  C_6 
REMARK    5  A    between atoms: O_21  and  C_4 
REMARK    6  A    between atoms: O_18  and  C_11 
REMARK    7  A    between atoms: C_22  and  O_18 
REMARK    8  A    between atoms: C_26  and  C_22 
ROOT
ATOM      1  C   UNL d   1       1.432  -0.103   0.011  0.00  0.00     0.003 C 
ATOM      2  C   UNL d   1       0.961   1.064   0.654  0.00  0.00     0.078 C 
ATOM      3  C   UNL d   1      -0.401   1.391   0.705  0.00  0.00     0.074 C 
ATOM      4  C   UNL d   1       0.502  -0.779  -0.781  0.00  0.00     0.014 C 
ATOM      5  C   UNL d   1      -1.324   0.631  -0.005  0.00  0.00     0.071 C 
ATOM      6  C   UNL d   1      -0.851  -0.406  -0.808  0.00  0.00     0.037 C 
ENDROOT
BRANCH   1   7
ATOM      7  C   UNL d   1       2.902  -0.474   0.128  0.00  0.00     0.313 C 
BRANCH   7   8
ATOM      8  N   UNL d   1       3.339  -1.907   0.068  0.00  0.00     0.092 N 
ATOM      9  C   UNL d   1       3.446  -2.374  -1.324  0.00  0.00     0.273 C 
ATOM     10  C   UNL d   1       4.316  -3.611  -1.600  0.00  0.00     0.043 C 
ATOM     11  C   UNL d   1       5.622  -3.720  -0.807  0.00  0.00     0.064 C 
ATOM     12  C   UNL d   1       5.372  -3.304   0.638  0.00  0.00     0.043 C 
ATOM     13  C   UNL d   1       4.641  -1.973   0.759  0.00  0.00     0.273 C 
BRANCH  11  14
ATOM     14  C   UNL d   1       6.812  -3.001  -1.465  0.00  0.00     0.163 C 
ATOM     15  O   UNL d   1       6.651  -2.178  -2.365  0.00  0.00    -0.292 OA
BRANCH  14  16
ATOM     16  C   UNL d   1       8.222  -3.321  -1.020  0.00  0.00     0.010 A 
ATOM     17  C   UNL d   1       8.501  -4.217   0.020  0.00  0.00     0.018 A 
ATOM     18  C   UNL d   1       9.815  -4.399   0.475  0.00  0.00     0.043 A 
ATOM     19  C   UNL d   1      10.854  -3.714  -0.136  0.00  0.00     0.116 A 
ATOM     20  C   UNL d   1      10.615  -2.874  -1.213  0.00  0.00     0.043 A 
ATOM     21  F   UNL d   1      12.104  -3.863   0.326  0.00  0.00    -0.206 F 
ATOM     22  C   UNL d   1       9.291  -2.678  -1.659  0.00  0.00     0.018 A 
ENDBRANCH  14  16
ENDBRANCH  11  14
ENDBRANCH   7   8
ENDBRANCH   1   7
BRANCH   2  23
ATOM     23  O   UNL d   1       1.820   1.950   1.262  0.00  0.00    -0.355 OA
ATOM     24  C   UNL d   1       2.623   2.631   0.289  0.00  0.00     0.210 C 
ENDBRANCH   2  23
BRANCH   5  25
ATOM     25  O   UNL d   1      -2.638   0.998   0.128  0.00  0.00    -0.347 OA
BRANCH  25  26
ATOM     26  C   UNL d   1      -3.595   0.017  -0.290  0.00  0.00     0.214 C 
BRANCH  26  27
ATOM     27  C   UNL d   1      -4.963   0.260   0.312  0.00  0.00    -0.034 A 
ATOM     28  C   UNL d   1      -6.100  -0.249  -0.336  0.00  0.00     0.009 A 
ATOM     29  C   UNL d   1      -7.367  -0.121   0.238  0.00  0.00     0.001 A 
ATOM     30  C   UNL d   1      -7.511   0.512   1.470  0.00  0.00     0.000 A 
ATOM     31  C   UNL d   1      -6.391   1.016   2.127  0.00  0.00     0.001 A 
ATOM     32  C   UNL d   1      -5.123   0.886   1.556  0.00  0.00     0.009 A 
ENDBRANCH  26  27
ENDBRANCH  25  26
ENDBRANCH   5  25
TORSDOF 8
