REMARK  3 active torsions:
REMARK  status: ('A' for Active; 'I' for Inactive)
REMARK    1  A    between atoms: C_11  and  C_2 
REMARK    2  A    between atoms: N_3  and  C_8 
REMARK    3  A    between atoms: C_9  and  C_6 
ROOT
ATOM      1  N   UNL d   1      -0.262   1.153   0.005  0.00  0.00    -0.353 N 
ATOM      2  C   UNL d   1       1.039   0.583   0.080  0.00  0.00     0.123 C 
ATOM      3  N   UNL d   1       1.017  -0.712   0.163  0.00  0.00    -0.304 N 
ATOM      4  HN  UNL d   1       1.818  -1.343   0.170  1.00  0.00     0.182 HD
ATOM      5  C   UNL d   1      -1.199   0.044  -0.123  0.00  0.00     0.209 C 
ATOM      6  N   UNL d   1      -0.312  -1.055   0.238  0.00  0.00    -0.211 NA
ATOM      7  H   UNL d   1      -0.481   2.127  -0.108  0.00  0.00     0.163 HD
ATOM      8  H   UNL d   1      -0.542  -1.936  -0.220  0.00  0.00     0.149 HD
ENDROOT
BRANCH   5   9
ATOM      9  C   UNL d   1      -1.674   0.016  -1.563  0.00  0.00    -0.018 A 
ATOM     10  C   UNL d   1      -0.766  -0.148  -2.631  0.00  0.00     0.046 A 
ATOM     11  C   UNL d   1      -1.201  -0.084  -3.961  0.00  0.00     0.103 A 
ATOM     12  C   UNL d   1      -2.553   0.116  -4.250  0.00  0.00     0.036 A 
ATOM     13  C   UNL d   1      -3.464   0.257  -3.201  0.00  0.00     0.003 A 
ATOM     14  C   UNL d   1      -3.028   0.214  -1.871  0.00  0.00     0.011 A 
BRANCH  11  15
ATOM     15  N   UNL d   1      -0.215  -0.201  -5.046  0.00  0.00    -0.116 N 
ATOM     16  O   UNL d   1       0.975  -0.317  -4.727  0.00  0.00    -0.532 OA
ATOM     17  O   UNL d   1      -0.636  -0.156  -6.210  0.00  0.00    -0.532 OA
ENDBRANCH  11  15
ENDBRANCH   5   9
BRANCH   2  18
ATOM     18  C   UNL d   1       2.230   1.427  -0.052  0.00  0.00     0.009 A 
ATOM     19  C   UNL d   1       2.211   2.766   0.352  0.00  0.00     0.017 A 
ATOM     20  C   UNL d   1       3.366   3.543   0.228  0.00  0.00     0.025 A 
ATOM     21  C   UNL d   1       4.528   2.986  -0.309  0.00  0.00     0.034 A 
ATOM     22  C   UNL d   1       4.543   1.660  -0.737  0.00  0.00     0.025 A 
ATOM     23 CL   UNL d   1       5.952   3.940  -0.430  0.00  0.00    -0.084 Cl
ATOM     24  C   UNL d   1       3.394   0.876  -0.606  0.00  0.00     0.017 A 
ENDBRANCH   2  18
TORSDOF 3
