REMARK  5 active torsions:
REMARK  status: ('A' for Active; 'I' for Inactive)
REMARK    1  A    between atoms: C_2  and  C_1 
REMARK    2  A    between atoms: O_11  and  C_2 
REMARK    3  A    between atoms: C_12  and  C_3 
REMARK    4  A    between atoms: C_4  and  C_9 
REMARK    5  A    between atoms: C_14  and  C_12 
ROOT
ATOM      1  C   UNL d   1       2.097   1.308   0.076  0.00  0.00     0.054 A 
ATOM      2  N   UNL d   1       1.989  -1.109   0.109  0.00  0.00    -0.373 N 
ATOM      3  HN  UNL d   1       2.455  -2.017   0.110  1.00  0.00     0.164 HD
ATOM      4  C   UNL d   1       0.703   1.392   0.129  0.00  0.00     0.041 A 
ATOM      5  C   UNL d   1      -0.039   0.210   0.174  0.00  0.00     0.034 A 
ATOM      6  C   UNL d   1       2.687   0.050   0.050  0.00  0.00     0.105 A 
ATOM      7  C   UNL d   1       0.641  -1.001   0.167  0.00  0.00     0.108 A 
ENDROOT
BRANCH   5   8
ATOM      8  C   UNL d   1      -1.467   0.231   0.185  0.00  0.00    -0.066 C 
ATOM      9  C   UNL d   1      -2.665   0.162   0.150  0.00  0.00    -0.101 C 
BRANCH   9  10
ATOM     10  C   UNL d   1      -4.122  -0.024   0.065  0.00  0.00     0.099 C 
BRANCH  10  11
ATOM     11  C   UNL d   1      -4.548  -0.645  -1.283  0.00  0.00    -0.003 C 
ATOM     12  C   UNL d   1      -6.080  -0.755  -1.377  0.00  0.00     0.005 C 
ATOM     13  C   UNL d   1      -6.652  -1.866  -0.497  0.00  0.00     0.000 C 
ATOM     14  C   UNL d   1      -6.005  -3.212  -0.806  0.00  0.00     0.000 C 
ATOM     15  C   UNL d   1      -4.484  -3.148  -0.718  0.00  0.00     0.000 C 
ATOM     16  C   UNL d   1      -3.909  -2.019  -1.570  0.00  0.00     0.005 C 
ENDBRANCH  10  11
ENDBRANCH   9  10
ENDBRANCH   5   8
BRANCH   1  17
ATOM     17  C   UNL d   1       2.981   2.488  -0.008  0.00  0.00     0.177 C 
ATOM     18  O   UNL d   1       4.060   2.458  -0.573  0.00  0.00    -0.646 OA
BRANCH  17  19
ATOM     19  O   UNL d   1       2.506   3.584   0.620  0.00  0.00    -0.773 OA
ATOM     20  H   UNL d   1       1.727   3.448   1.189  0.00  0.00     0.167 HD
ENDBRANCH  17  19
ENDBRANCH   1  17
TORSDOF 5
