REMARK  5 active torsions:
REMARK  status: ('A' for Active; 'I' for Inactive)
REMARK    1  A    between atoms: N_2  and  C_1 
REMARK    2  A    between atoms: C_3  and  N_2 
REMARK    3  A    between atoms: C_10  and  N_5 
REMARK    4  A    between atoms: O_11  and  C_8 
REMARK    5  A    between atoms: C_9  and  C_10 
ROOT
ATOM      1  C   UNL d   1       1.137  -0.287   0.764  0.00  0.00     0.172 C 
ATOM      2  S   UNL d   1       0.402  -1.511  -0.099  0.00  0.00    -0.041 SA
ATOM      3  N   UNL d   1       2.412  -0.463   1.190  0.00  0.00    -0.363 N 
ATOM      4  H   UNL d   1       2.796  -1.350   0.888  0.00  0.00     0.162 HD
ENDROOT
BRANCH   1   5
ATOM      5  N   UNL d   1       0.434   0.823   1.087  0.00  0.00    -0.331 N 
ATOM      6  H   UNL d   1      -0.572   0.723   0.986  0.00  0.00     0.168 HD
BRANCH   5   7
ATOM      7  C   UNL d   1       0.854   2.173   1.040  0.00  0.00     0.068 A 
ATOM      8  C   UNL d   1       0.055   3.180   1.609  0.00  0.00     0.095 A 
ATOM      9  C   UNL d   1       0.404   4.527   1.431  0.00  0.00     0.039 A 
ATOM     10  C   UNL d   1       1.538   4.877   0.696  0.00  0.00     0.003 A 
ATOM     11  C   UNL d   1       2.331   3.884   0.131  0.00  0.00     0.002 A 
ATOM     12  C   UNL d   1       1.994   2.540   0.306  0.00  0.00     0.032 A 
BRANCH   8  13
ATOM     13  O   UNL d   1      -1.117   2.989   2.298  0.00  0.00    -0.354 OA
ATOM     14  C   UNL d   1      -1.111   1.954   3.277  0.00  0.00     0.210 C 
ENDBRANCH   8  13
ENDBRANCH   5   7
ENDBRANCH   1   5
BRANCH   3  15
ATOM     15  C   UNL d   1       3.021   0.093   2.392  0.00  0.00     0.162 C 
BRANCH  15  16
ATOM     16  C   UNL d   1       2.813  -0.783   3.597  0.00  0.00    -0.025 A 
ATOM     17  C   UNL d   1       2.163  -0.295   4.729  0.00  0.00     0.096 A 
ATOM     18  N   UNL d   1       1.962  -1.007   5.860  0.00  0.00    -0.375 N 
ATOM     19  C   UNL d   1       2.432  -2.270   5.877  0.00  0.00     0.087 A 
ATOM     20  HN  UNL d   1       1.478  -0.606   6.664  1.00  0.00     0.164 HD
ATOM     21  C   UNL d   1       3.098  -2.854   4.809  0.00  0.00     0.018 A 
ATOM     22  C   UNL d   1       3.289  -2.096   3.657  0.00  0.00     0.011 A 
ENDBRANCH  15  16
ENDBRANCH   3  15
TORSDOF 5
