REMARK  6 active torsions:
REMARK  status: ('A' for Active; 'I' for Inactive)
REMARK       I    between atoms: C_4  and  N_1 
REMARK    1  A    between atoms: C_14  and  C_4 
REMARK    2  A    between atoms: O_18  and  C_8 
REMARK    3  A    between atoms: O_19  and  C_10 
REMARK    4  A    between atoms: C_11  and  C_16 
REMARK    5  A    between atoms: O_17  and  C_11 
REMARK    6  A    between atoms: C_16  and  C_14 
ROOT
ATOM      1  N   UNL d   1      -2.501   0.609  -0.325  0.00  0.00    -0.343 N 
ATOM      2  C   UNL d   1      -0.056   0.634   0.017  0.00  0.00    -0.026 A 
ATOM      3  C   UNL d   1      -1.349   1.435   0.048  0.00  0.00     0.116 C 
ATOM      4  C   UNL d   1      -3.383   1.074  -1.289  0.00  0.00     0.220 C 
ATOM      5  C   UNL d   1      -0.045  -0.768  -0.037  0.00  0.00    -0.045 A 
ATOM      6  C   UNL d   1       1.164   1.323   0.053  0.00  0.00     0.049 A 
ATOM      7  C   UNL d   1      -2.542  -0.719   0.296  0.00  0.00     0.131 C 
ATOM      8  C   UNL d   1       2.386   0.646   0.061  0.00  0.00     0.102 A 
ATOM      9  C   UNL d   1       1.180  -1.451  -0.071  0.00  0.00     0.047 A 
ATOM     10  C   UNL d   1       2.398  -0.759  -0.021  0.00  0.00     0.102 A 
ATOM     11  C   UNL d   1      -1.335  -1.546  -0.141  0.00  0.00     0.059 C 
ATOM     12  O   UNL d   1      -3.266   2.182  -1.823  0.00  0.00    -0.273 OA
ATOM     13  C   UNL d   1      -1.555   2.067   1.431  0.00  0.00     0.037 C 
ENDROOT
BRANCH   4  14
ATOM     14  C   UNL d   1      -4.522   0.153  -1.660  0.00  0.00     0.113 C 
BRANCH  14  15
ATOM     15  C   UNL d   1      -5.416   0.742  -2.745  0.00  0.00     0.119 C 
BRANCH  15  16
ATOM     16  C   UNL d   1      -6.552  -0.196  -3.051  0.00  0.00     0.139 C 
ATOM     17  O   UNL d   1      -6.735  -1.278  -2.510  0.00  0.00    -0.650 OA
BRANCH  16  18
ATOM     18  O   UNL d   1      -7.378   0.279  -4.008  0.00  0.00    -0.776 OA
ATOM     19  H   UNL d   1      -7.114   1.153  -4.354  0.00  0.00     0.167 HD
ENDBRANCH  16  18
ENDBRANCH  15  16
ENDBRANCH  14  15
ENDBRANCH   4  14
BRANCH   8  20
ATOM     20  O   UNL d   1       3.594   1.301   0.102  0.00  0.00    -0.353 OA
ATOM     21  C   UNL d   1       3.580   2.588   0.720  0.00  0.00     0.210 C 
ENDBRANCH   8  20
BRANCH  10  22
ATOM     22  O   UNL d   1       3.628  -1.371  -0.040  0.00  0.00    -0.353 OA
ATOM     23  C   UNL d   1       3.645  -2.792  -0.114  0.00  0.00     0.210 C 
ENDBRANCH  10  22
TORSDOF 6
