REMARK  6 active torsions:
REMARK  status: ('A' for Active; 'I' for Inactive)
REMARK    1  A    between atoms: N_6  and  C_2 
REMARK    2  A    between atoms: C_8  and  C_3 
REMARK    3  A    between atoms: O_25  and  C_12 
REMARK    4  A    between atoms: C_21  and  C_13 
REMARK    5  A    between atoms: O_26  and  C_14 
REMARK    6  A    between atoms: C_18  and  C_15 
ROOT
ATOM      1  C   UNL d   1      -0.326  -1.136   0.138  0.00  0.00     0.085 A 
ATOM      2  C   UNL d   1       1.016  -0.827   0.233  0.00  0.00     0.096 A 
ATOM      3  C   UNL d   1      -0.443   1.213   0.102  0.00  0.00     0.025 A 
ATOM      4  S   UNL d   1       1.224   0.865   0.345  0.00  0.00    -0.070 SA
ATOM      5  C   UNL d   1      -1.189   0.035   0.076  0.00  0.00    -0.020 A 
ATOM      6  C   UNL d   1      -0.800  -2.490   0.065  0.00  0.00     0.103 C 
ATOM      7  N   UNL d   1      -1.195  -3.580   0.031  0.00  0.00    -0.191 NA
ATOM      8  C   UNL d   1      -2.678  -0.093  -0.053  0.00  0.00     0.051 C 
ENDROOT
BRANCH   2   9
ATOM      9  N   UNL d   1       2.166  -1.544   0.188  0.00  0.00    -0.358 N 
ATOM     10  C   UNL d   1       2.305  -2.607   0.904  0.00  0.00     0.100 C 
ATOM     11  HN  UNL d   1       2.928  -1.239  -0.418  1.00  0.00     0.166 HD
BRANCH  10  12
ATOM     12  C   UNL d   1       3.605  -3.313   0.891  0.00  0.00    -0.021 A 
ATOM     13  C   UNL d   1       4.694  -2.735   0.235  0.00  0.00     0.013 A 
ATOM     14  C   UNL d   1       5.927  -3.387   0.216  0.00  0.00     0.013 A 
ATOM     15  C   UNL d   1       6.116  -4.623   0.859  0.00  0.00    -0.026 A 
ATOM     16  C   UNL d   1       5.004  -5.175   1.529  0.00  0.00     0.013 A 
ATOM     17  C   UNL d   1       3.756  -4.532   1.544  0.00  0.00     0.013 A 
BRANCH  15  18
ATOM     18  C   UNL d   1       7.430  -5.309   0.805  0.00  0.00    -0.026 A 
ATOM     19  C   UNL d   1       7.531  -6.712   0.781  0.00  0.00     0.012 A 
ATOM     20  C   UNL d   1       8.771  -7.354   0.686  0.00  0.00     0.001 A 
ATOM     21  C   UNL d   1       9.941  -6.607   0.600  0.00  0.00     0.000 A 
ATOM     22  C   UNL d   1       9.874  -5.219   0.626  0.00  0.00     0.001 A 
ATOM     23  C   UNL d   1       8.635  -4.581   0.738  0.00  0.00     0.012 A 
ENDBRANCH  15  18
ENDBRANCH  10  12
ENDBRANCH   2   9
BRANCH   3  24
ATOM     24  C   UNL d   1      -0.819   2.644  -0.010  0.00  0.00    -0.016 A 
ATOM     25  C   UNL d   1       0.013   3.555  -0.697  0.00  0.00     0.052 A 
ATOM     26  C   UNL d   1      -0.262   4.932  -0.769  0.00  0.00     0.102 A 
ATOM     27  C   UNL d   1      -1.437   5.411  -0.174  0.00  0.00     0.101 A 
ATOM     28  C   UNL d   1      -2.287   4.508   0.482  0.00  0.00     0.040 A 
ATOM     29  C   UNL d   1      -1.975   3.148   0.583  0.00  0.00     0.016 A 
BRANCH  26  30
ATOM     30  O   UNL d   1       0.565   5.823  -1.400  0.00  0.00    -0.353 OA
ATOM     31  C   UNL d   1       1.813   5.359  -1.901  0.00  0.00     0.210 C 
ENDBRANCH  26  30
BRANCH  27  32
ATOM     32  O   UNL d   1      -1.914   6.696  -0.123  0.00  0.00    -0.353 OA
ATOM     33  C   UNL d   1      -1.125   7.742  -0.670  0.00  0.00     0.210 C 
ENDBRANCH  27  32
ENDBRANCH   3  24
TORSDOF 6
