REMARK  2 active torsions:
REMARK  status: ('A' for Active; 'I' for Inactive)
REMARK    1  A    between atoms: N_4  and  C_1 
REMARK    2  A    between atoms: N_2  and  N_4 
ROOT
ATOM      1  N   UNL d   1       0.916  -1.576  -2.040  0.00  0.00    -0.307 N 
ATOM      2  HN  UNL d   1       1.936  -1.604  -2.060  1.00  0.00     0.186 HD
ATOM      3  C   UNL d   1       0.222  -2.238  -2.923  0.00  0.00     0.004 C 
ATOM      4  C   UNL d   1       1.011  -3.027  -3.962  0.00  0.00     0.054 C 
ATOM      5  C   UNL d   1      -1.294  -2.308  -3.032  0.00  0.00     0.054 C 
ATOM      6  C   UNL d   1       0.994  -4.509  -3.614  0.00  0.00     0.006 C 
ATOM      7  C   UNL d   1      -1.827  -3.736  -2.905  0.00  0.00     0.006 C 
ATOM      8  C   UNL d   1      -1.559  -4.580  -4.150  0.00  0.00     0.000 C 
ATOM      9  C   UNL d   1      -0.200  -5.281  -4.178  0.00  0.00     0.000 C 
ENDROOT
BRANCH   1  10
ATOM     10  N   UNL d   1       0.268  -0.846  -1.089  0.00  0.00    -0.277 N 
ATOM     11  H   UNL d   1      -0.742  -0.812  -1.040  0.00  0.00     0.189 HD
BRANCH  10  12
ATOM     12  C   UNL d   1       0.934  -0.107  -0.138  0.00  0.00     0.186 C 
ATOM     13  S   UNL d   1       0.037   0.752   0.976  0.00  0.00    -0.040 SA
ATOM     14  N   UNL d   1       2.295  -0.168  -0.227  0.00  0.00    -0.370 N 
ATOM     15  C   UNL d   1       3.279   0.477   0.616  0.00  0.00     0.148 C 
ATOM     16  H   UNL d   1       2.608  -0.756  -0.994  0.00  0.00     0.161 HD
ENDBRANCH  10  12
ENDBRANCH   1  10
TORSDOF 2
