REMARK  5 active torsions:
REMARK  status: ('A' for Active; 'I' for Inactive)
REMARK    1  A    between atoms: C_2  and  S_1 
REMARK    2  A    between atoms: N_5  and  S_1 
REMARK    3  A    between atoms: C_7  and  N_9 
REMARK    4  A    between atoms: C_29  and  C_22 
REMARK    5  A    between atoms: C_30  and  C_29 
ROOT
ATOM      1  N   UNL d   1       0.471   1.298   0.655  0.00  0.00    -0.203 NA
ATOM      2  N   UNL d   1       1.048   3.768  -0.678  0.00  0.00    -0.215 N 
ATOM      3  C   UNL d   1      -0.548   1.946  -0.239  0.00  0.00     0.128 C 
ATOM      4  C   UNL d   1       1.369   2.334   1.264  0.00  0.00     0.128 C 
ATOM      5  C   UNL d   1       0.099   2.854  -1.310  0.00  0.00     0.157 C 
ATOM      6  C   UNL d   1       2.068   3.179   0.185  0.00  0.00     0.157 C 
ENDROOT
BRANCH   1   7
ATOM      7  S   UNL d   1       1.267  -0.053   0.007  0.00  0.00     0.251 S 
ATOM      8  O   UNL d   1       1.323   0.078  -1.435  0.00  0.00    -0.205 OA
ATOM      9  O   UNL d   1       2.464  -0.294   0.784  0.00  0.00    -0.205 OA
BRANCH   7  10
ATOM     10  C   UNL d   1       0.308  -1.532   0.271  0.00  0.00     0.122 A 
ATOM     11  S   UNL d   1      -1.089  -1.388   1.228  0.00  0.00    -0.076 SA
ATOM     12  C   UNL d   1      -1.416  -3.072   1.156  0.00  0.00     0.017 A 
ATOM     13  C   UNL d   1      -2.484  -3.754   1.774  0.00  0.00     0.021 A 
ATOM     14  C   UNL d   1      -0.459  -3.743   0.391  0.00  0.00    -0.009 A 
ATOM     15  C   UNL d   1      -2.571  -5.141   1.633  0.00  0.00     0.025 A 
ATOM     16  C   UNL d   1      -1.624  -5.829   0.891  0.00  0.00     0.035 A 
ATOM     17  C   UNL d   1      -0.577  -5.150   0.264  0.00  0.00     0.037 A 
ATOM     18 CL   UNL d   1      -1.730  -7.541   0.745  0.00  0.00    -0.084 Cl
ATOM     19  C   UNL d   1       0.530  -2.836  -0.144  0.00  0.00    -0.021 A 
ATOM     20  C   UNL d   1       1.678  -3.263  -1.004  0.00  0.00     0.051 C 
ENDBRANCH   7  10
ENDBRANCH   1   7
BRANCH   2  21
ATOM     21  C   UNL d   1       1.142   5.065  -1.103  0.00  0.00     0.679 A 
ATOM     22  N   UNL d   1       2.088   5.859  -0.578  0.00  0.00    -0.201 N 
ATOM     23  C   UNL d   1       2.080   7.159  -0.928  0.00  0.00     0.114 A 
ATOM     24  HN  UNL d   1       2.789   5.489   0.064  1.00  0.00     0.183 HD
ATOM     25  C   UNL d   1       1.159   7.717  -1.783  0.00  0.00    -0.026 A 
ATOM     26  C   UNL d   1       0.254   6.821  -2.297  0.00  0.00     0.114 A 
ATOM     27  N   UNL d   1       0.227   5.517  -1.975  0.00  0.00    -0.201 N 
ATOM     28  HN  UNL d   1      -0.468   4.889  -2.380  1.00  0.00     0.183 HD
BRANCH  25  29
ATOM     29  C   UNL d   1       1.137   9.175  -2.116  0.00  0.00     0.041 C 
BRANCH  29  30
ATOM     30  C   UNL d   1      -0.175   9.875  -1.742  0.00  0.00     0.000 C 
ATOM     31  C   UNL d   1      -0.454   9.870  -0.245  0.00  0.00     0.005 C 
ENDBRANCH  29  30
ENDBRANCH  25  29
ENDBRANCH   2  21
TORSDOF 5
