REMARK  5 active torsions:
REMARK  status: ('A' for Active; 'I' for Inactive)
REMARK    1  A    between atoms: N_16  and  C_1 
REMARK    2  A    between atoms: C_19  and  C_4 
REMARK    3  A    between atoms: C_8  and  N_13 
REMARK    4  A    between atoms: C_9  and  C_10 
REMARK    5  A    between atoms: C_28  and  N_16 
ROOT
ATOM      1  N   UNL d   1       0.126   2.185  -0.277  0.00  0.00    -0.370 N 
ATOM      2  H   UNL d   1       0.141   1.183  -0.091  0.00  0.00     0.161 HD
ENDROOT
BRANCH   1   3
ATOM      3  C   UNL d   1      -0.808   2.344  -1.270  0.00  0.00     0.127 A 
ATOM      4  N   UNL d   1      -1.440   1.174  -1.499  0.00  0.00    -0.326 N 
ATOM      5  C   UNL d   1      -2.437   1.132  -2.404  0.00  0.00     0.134 A 
ATOM      6  HN  UNL d   1      -1.167   0.331  -0.993  1.00  0.00     0.169 HD
ATOM      7  N   UNL d   1      -2.828   2.199  -3.124  0.00  0.00    -0.343 N 
ATOM      8  C   UNL d   1      -2.198   3.372  -2.881  0.00  0.00     0.032 A 
ATOM      9  HN  UNL d   1      -3.567   2.127  -3.824  1.00  0.00     0.167 HD
ATOM     10  C   UNL d   1      -1.171   3.502  -1.947  0.00  0.00     0.100 A 
ATOM     11  C   UNL d   1      -2.677   4.526  -3.716  0.00  0.00     0.070 C 
ATOM     12 CL   UNL d   1      -0.461   5.048  -1.662  0.00  0.00    -0.078 Cl
BRANCH   5  13
ATOM     13  C   UNL d   1      -3.144  -0.157  -2.633  0.00  0.00     0.076 A 
ATOM     14  N   UNL d   1      -2.917  -1.169  -1.746  0.00  0.00    -0.363 N 
ATOM     15  C   UNL d   1      -3.554  -2.344  -1.942  0.00  0.00     0.088 A 
ATOM     16  HN  UNL d   1      -2.285  -1.041  -0.955  1.00  0.00     0.165 HD
ATOM     17  C   UNL d   1      -4.415  -2.588  -2.997  0.00  0.00     0.017 A 
ATOM     18  C   UNL d   1      -4.648  -1.562  -3.900  0.00  0.00     0.004 A 
ATOM     19  C   UNL d   1      -4.011  -0.334  -3.715  0.00  0.00     0.033 A 
ENDBRANCH   5  13
ENDBRANCH   1   3
BRANCH   1  20
ATOM     20  C   UNL d   1       1.398   2.875  -0.076  0.00  0.00     0.086 C 
ATOM     21  C   UNL d   1       2.426   2.592  -1.169  0.00  0.00     0.045 C 
ATOM     22  C   UNL d   1       2.983   1.165  -1.135  0.00  0.00     0.126 C 
ATOM     23  N   UNL d   1       3.389   0.768   0.220  0.00  0.00    -0.366 N 
ATOM     24  C   UNL d   1       2.437   1.021   1.295  0.00  0.00     0.126 C 
ATOM     25  C   UNL d   1       1.984   2.477   1.283  0.00  0.00     0.045 C 
BRANCH  23  26
ATOM     26  C   UNL d   1       4.188  -0.381   0.234  0.00  0.00     0.125 A 
ATOM     27  N   UNL d   1       5.350  -0.259  -0.466  0.00  0.00    -0.350 N 
ATOM     28  C   UNL d   1       6.254  -1.270  -0.465  0.00  0.00     0.106 A 
ATOM     29  HN  UNL d   1       5.540   0.595  -0.991  1.00  0.00     0.166 HD
ATOM     30  C   UNL d   1       6.077  -2.464   0.202  0.00  0.00     0.065 A 
ATOM     31  C   UNL d   1       4.878  -2.622   0.889  0.00  0.00     0.045 A 
ATOM     32  C   UNL d   1       3.926  -1.590   0.910  0.00  0.00     0.078 A 
ATOM     33 CL   UNL d   1       2.458  -1.996   1.734  0.00  0.00    -0.080 Cl
BRANCH  30  34
ATOM     34  C   UNL d   1       7.139  -3.515   0.171  0.00  0.00     0.418 C 
ATOM     35  F   UNL d   1       6.814  -4.635   0.878  0.00  0.00    -0.166 F 
ATOM     36  F   UNL d   1       7.419  -3.942  -1.091  0.00  0.00    -0.166 F 
ATOM     37  F   UNL d   1       8.319  -3.080   0.689  0.00  0.00    -0.166 F 
ENDBRANCH  30  34
ENDBRANCH  23  26
ENDBRANCH   1  20
TORSDOF 5
