REMARK  8 active torsions:
REMARK  status: ('A' for Active; 'I' for Inactive)
REMARK    1  A    between atoms: C_14  and  N_5 
REMARK    2  A    between atoms: C_20  and  N_11 
REMARK    3  A    between atoms: C_18  and  C_12 
REMARK    4  A    between atoms: C_16  and  C_14 
REMARK    5  A    between atoms: O_21  and  C_16 
REMARK    6  A    between atoms: C_25  and  C_20 
REMARK    7  A    between atoms: C_24  and  O_21 
REMARK    8  A    between atoms: C_26  and  C_25 
ROOT
ATOM      1  N   UNL d   1       1.204  -0.560   0.109  0.00  0.00    -0.203 N 
ATOM      2  C   UNL d   1       1.186   0.833   0.024  0.00  0.00     0.136 A 
ATOM      3  C   UNL d   1      -1.199  -0.631   0.040  0.00  0.00     0.062 A 
ATOM      4  C   UNL d   1      -1.160   0.701  -0.061  0.00  0.00     0.118 A 
ATOM      5  N   UNL d   1      -0.019   1.486  -0.032  0.00  0.00    -0.317 N 
ATOM      6  C   UNL d   1       0.057  -1.383   0.146  0.00  0.00     0.278 A 
ATOM      7  N   UNL d   1       2.471  -1.054   0.136  0.00  0.00    -0.289 N 
ATOM      8  HN  UNL d   1       2.755  -2.031   0.210  1.00  0.00     0.188 HD
ATOM      9  C   UNL d   1       2.500   1.222   0.007  0.00  0.00     0.082 A 
ATOM     10  C   UNL d   1      -2.577   1.131  -0.201  0.00  0.00     0.271 C 
ATOM     11  N   UNL d   1      -3.352   0.000   0.005  0.00  0.00    -0.342 N 
ATOM     12  C   UNL d   1       3.266   0.025   0.042  0.00  0.00     0.062 A 
ATOM     13  C   UNL d   1      -2.555  -1.208   0.063  0.00  0.00     0.173 C 
ATOM     14  O   UNL d   1       0.117  -2.604   0.236  0.00  0.00    -0.265 OA
ATOM     15  O   UNL d   1      -2.946   2.260  -0.475  0.00  0.00    -0.266 OA
ENDROOT
BRANCH   5  16
ATOM     16  C   UNL d   1      -0.063   2.966  -0.051  0.00  0.00     0.242 C 
BRANCH  16  17
ATOM     17  C   UNL d   1      -0.824   3.577   1.129  0.00  0.00     0.277 C 
ATOM     18  O   UNL d   1      -1.312   2.973   2.075  0.00  0.00    -0.263 OA
BRANCH  17  19
ATOM     19  O   UNL d   1      -0.886   4.933   0.947  0.00  0.00    -0.321 OA
BRANCH  19  20
ATOM     20  C   UNL d   1      -1.886   5.633   1.700  0.00  0.00     0.174 C 
ATOM     21  C   UNL d   1      -1.269   6.429   2.833  0.00  0.00     0.034 C 
ENDBRANCH  19  20
ENDBRANCH  17  19
ENDBRANCH  16  17
ENDBRANCH   5  16
BRANCH  12  22
ATOM     22  C   UNL d   1       4.728  -0.079  -0.015  0.00  0.00    -0.008 A 
ATOM     23  C   UNL d   1       5.494   0.954  -0.581  0.00  0.00     0.014 A 
ATOM     24  C   UNL d   1       6.887   0.870  -0.625  0.00  0.00     0.001 A 
ATOM     25  C   UNL d   1       7.533  -0.247  -0.105  0.00  0.00     0.000 A 
ATOM     26  C   UNL d   1       6.786  -1.285   0.452  0.00  0.00     0.001 A 
ATOM     27  C   UNL d   1       5.388  -1.202   0.494  0.00  0.00     0.014 A 
ENDBRANCH  12  22
BRANCH  11  28
ATOM     28  C   UNL d   1      -4.803  -0.000  -0.037  0.00  0.00     0.126 C 
BRANCH  28  29
ATOM     29  C   UNL d   1      -5.458  -0.707   1.151  0.00  0.00     0.020 C 
BRANCH  29  30
ATOM     30  C   UNL d   1      -5.125  -0.063   2.499  0.00  0.00    -0.003 C 
ATOM     31  C   UNL d   1      -5.829  -0.783   3.641  0.00  0.00     0.005 C 
ENDBRANCH  29  30
ENDBRANCH  28  29
ENDBRANCH  11  28
TORSDOF 8
