REMARK  2 active torsions:
REMARK  status: ('A' for Active; 'I' for Inactive)
REMARK    1  A    between atoms: C_4  and  C_9 
REMARK       I    between atoms: N_6  and  C_4 
REMARK    2  A    between atoms: C_11  and  N_6 
ROOT
ATOM      1  C   UNL d   1      -3.872   1.004   0.037  0.00  0.00     0.256 C 
ATOM      2  N   UNL d   1      -4.006   2.350   0.322  0.00  0.00    -0.322 N 
ATOM      3  O   UNL d   1      -2.903   0.479  -0.504  0.00  0.00    -0.267 OA
ATOM      4  H   UNL d   1      -4.699   2.616   1.005  0.00  0.00     0.169 HD
ENDROOT
BRANCH   1   5
ATOM      5  C   UNL d   1      -4.981   0.130   0.525  0.00  0.00     0.034 A 
ATOM      6  C   UNL d   1      -6.289   0.607   0.665  0.00  0.00     0.049 A 
ATOM      7  C   UNL d   1      -7.301  -0.256   1.132  0.00  0.00     0.064 A 
ATOM      8  N   UNL d   1      -8.634   0.077   1.346  0.00  0.00    -0.292 N 
ATOM      9  C   UNL d   1      -6.974  -1.586   1.416  0.00  0.00     0.047 A 
ATOM     10  N   UNL d   1      -9.336  -0.950   1.789  0.00  0.00    -0.061 NA
ATOM     11  HN  UNL d   1      -9.024   1.005   1.179  1.00  0.00     0.183 HD
ATOM     12  S   UNL d   1      -8.426  -2.343   1.951  0.00  0.00     0.002 SA
ATOM     13  C   UNL d   1      -5.681  -2.093   1.255  0.00  0.00     0.023 A 
ATOM     14  C   UNL d   1      -4.692  -1.214   0.801  0.00  0.00     0.018 A 
ENDBRANCH   1   5
BRANCH   2  15
ATOM     15  C   UNL d   1      -3.127   3.373  -0.101  0.00  0.00     0.041 A 
ATOM     16  C   UNL d   1      -2.991   4.543   0.672  0.00  0.00    -0.035 A 
ATOM     17  C   UNL d   1      -3.583   4.713   2.046  0.00  0.00     0.050 C 
ATOM     18  C   UNL d   1      -2.196   5.597   0.182  0.00  0.00     0.009 A 
ATOM     19  C   UNL d   1      -1.530   5.488  -1.037  0.00  0.00     0.001 A 
ATOM     20  C   UNL d   1      -1.639   4.319  -1.779  0.00  0.00     0.002 A 
ATOM     21  C   UNL d   1      -2.430   3.267  -1.313  0.00  0.00     0.030 A 
ENDBRANCH   2  15
TORSDOF 2
