REMARK  5 active torsions:
REMARK  status: ('A' for Active; 'I' for Inactive)
REMARK    1  A    between atoms: C_6  and  N_1 
REMARK    2  A    between atoms: S_10  and  C_2 
REMARK    3  A    between atoms: C_20  and  S_10 
REMARK    4  A    between atoms: C_11  and  C_14 
REMARK    5  A    between atoms: C_14  and  C_20 
ROOT
ATOM      1  N   UNL d   1       0.967  -0.702  -0.032  0.00  0.00    -0.241 N 
ATOM      2  C   UNL d   1       0.915   0.659  -0.190  0.00  0.00     0.170 A 
ATOM      3  C   UNL d   1      -0.363  -1.069   0.105  0.00  0.00     0.347 A 
ATOM      4  N   UNL d   1      -0.278   1.182  -0.130  0.00  0.00    -0.275 N 
ATOM      5  HN  UNL d   1      -0.539   2.165  -0.210  1.00  0.00     0.189 HD
ATOM      6  N   UNL d   1      -1.093   0.114   0.063  0.00  0.00    -0.249 N 
ATOM      7  O   UNL d   1      -0.875  -2.165   0.260  0.00  0.00    -0.245 OA
ATOM      8  H   UNL d   1      -2.102   0.181   0.114  0.00  0.00     0.192 HD
ENDROOT
BRANCH   2   9
ATOM      9  S   UNL d   1       2.293   1.637  -0.570  0.00  0.00    -0.084 SA
BRANCH   9  10
ATOM     10  C   UNL d   1       1.595   3.309  -0.489  0.00  0.00     0.166 C 
BRANCH  10  11
ATOM     11  C   UNL d   1       2.667   4.367  -0.723  0.00  0.00     0.169 C 
ATOM     12  O   UNL d   1       3.872   4.125  -0.765  0.00  0.00    -0.291 OA
BRANCH  11  13
ATOM     13  C   UNL d   1       2.238   5.792  -0.896  0.00  0.00     0.012 A 
ATOM     14  C   UNL d   1       0.912   6.206  -0.733  0.00  0.00     0.040 A 
ATOM     15  C   UNL d   1       0.566   7.552  -0.928  0.00  0.00     0.056 A 
ATOM     16 CL   UNL d   1      -1.094   7.985  -0.718  0.00  0.00    -0.083 Cl
ATOM     17  C   UNL d   1       1.543   8.490  -1.281  0.00  0.00     0.055 A 
ATOM     18  C   UNL d   1       2.869   8.082  -1.430  0.00  0.00     0.026 A 
ATOM     19 CL   UNL d   1       1.177  10.156  -1.552  0.00  0.00    -0.083 Cl
ATOM     20  C   UNL d   1       3.214   6.741  -1.237  0.00  0.00     0.017 A 
ENDBRANCH  11  13
ENDBRANCH  10  11
ENDBRANCH   9  10
ENDBRANCH   2   9
BRANCH   1  21
ATOM     21  C   UNL d   1       2.063  -1.613  -0.029  0.00  0.00     0.049 A 
ATOM     22  C   UNL d   1       1.879  -2.961  -0.384  0.00  0.00     0.069 A 
ATOM     23  C   UNL d   1       2.958  -3.852  -0.446  0.00  0.00     0.104 A 
ATOM     24  O   UNL d   1       2.674  -5.147  -0.802  0.00  0.00    -0.346 OA
ATOM     25  C   UNL d   1       4.251  -3.408  -0.174  0.00  0.00     0.102 A 
ATOM     26  C   UNL d   1       3.781  -6.017  -0.533  0.00  0.00     0.202 C 
ATOM     27  C   UNL d   1       5.075  -5.393  -1.026  0.00  0.00     0.202 C 
ATOM     28  O   UNL d   1       5.363  -4.201  -0.285  0.00  0.00    -0.346 OA
ATOM     29  C   UNL d   1       4.449  -2.102   0.245  0.00  0.00     0.042 A 
ATOM     30  C   UNL d   1       3.363  -1.222   0.330  0.00  0.00     0.033 A 
ENDBRANCH   1  21
TORSDOF 5
