REMARK  7 active torsions:
REMARK  status: ('A' for Active; 'I' for Inactive)
REMARK    1  A    between atoms: N_2  and  C_1 
REMARK    2  A    between atoms: N_4  and  C_1 
REMARK    3  A    between atoms: C_3  and  N_2 
REMARK    4  A    between atoms: C_8  and  N_4 
REMARK    5  A    between atoms: C_13  and  N_4 
REMARK    6  A    between atoms: C_12  and  C_8 
REMARK    7  A    between atoms: C_11  and  C_13 
ROOT
ATOM      1  N   UNL d   1      -1.596   1.983   2.796  0.00  0.00    -0.197 NA
ATOM      2  C   UNL d   1      -1.725   0.869   2.507  0.00  0.00     0.060 C 
ATOM      3  C   UNL d   1      -1.865  -0.532   2.105  0.00  0.00     0.143 C 
ENDROOT
BRANCH   3   4
ATOM      4  C   UNL d   1      -1.078  -0.817   0.825  0.00  0.00     0.139 C 
BRANCH   4   5
ATOM      5  N   UNL d   1       0.387  -0.611   0.927  0.00  0.00    -0.353 N 
BRANCH   5   6
ATOM      6  C   UNL d   1       1.071   0.339   0.128  0.00  0.00     0.174 C 
ATOM      7  S   UNL d   1       2.746   0.369  -0.086  0.00  0.00    -0.041 SA
BRANCH   6   8
ATOM      8  N   UNL d   1       0.223   1.323  -0.396  0.00  0.00    -0.332 N 
ATOM      9  H   UNL d   1      -0.208   1.853   0.351  0.00  0.00     0.168 HD
BRANCH   8  10
ATOM     10  C   UNL d   1       0.494   2.061  -1.586  0.00  0.00     0.046 C 
ATOM     11  C   UNL d   1       0.782   1.379  -2.792  0.00  0.00    -0.035 C 
ATOM     12  C   UNL d   1       1.199   2.107  -3.919  0.00  0.00     0.009 C 
ATOM     13  C   UNL d   1       0.630  -0.110  -2.966  0.00  0.00     0.050 C 
ATOM     14  C   UNL d   1       1.257   3.493  -3.886  0.00  0.00     0.001 C 
ATOM     15  C   UNL d   1       0.856   4.169  -2.740  0.00  0.00     0.009 C 
ATOM     16  C   UNL d   1       0.445   3.474  -1.585  0.00  0.00    -0.035 C 
ATOM     17  C   UNL d   1       0.048   4.329  -0.411  0.00  0.00     0.050 C 
ENDBRANCH   8  10
ENDBRANCH   6   8
ENDBRANCH   5   6
BRANCH   5  18
ATOM     18  C   UNL d   1       1.125  -1.516   1.833  0.00  0.00     0.163 C 
BRANCH  18  19
ATOM     19  C   UNL d   1       1.403  -2.928   1.362  0.00  0.00    -0.040 A 
ATOM     20  C   UNL d   1       1.062  -3.431   0.100  0.00  0.00     0.009 A 
ATOM     21  C   UNL d   1       1.313  -4.771  -0.223  0.00  0.00     0.001 A 
ATOM     22  C   UNL d   1       1.928  -5.616   0.699  0.00  0.00     0.000 A 
ATOM     23  C   UNL d   1       2.309  -5.122   1.941  0.00  0.00     0.001 A 
ATOM     24  C   UNL d   1       2.048  -3.791   2.268  0.00  0.00     0.009 A 
ENDBRANCH  18  19
ENDBRANCH   5  18
ENDBRANCH   4   5
ENDBRANCH   3   4
TORSDOF 7
