REMARK  18 active torsions:
REMARK  status: ('A' for Active; 'I' for Inactive)
REMARK    1  A    between atoms: O_7  and  C_1 
REMARK    2  A    between atoms: C_8  and  C_1 
REMARK    3  A    between atoms: C_4  and  C_9 
REMARK    4  A    between atoms: C_6  and  C_10 
REMARK    5  A    between atoms: C_11  and  C_6 
REMARK    6  A    between atoms: C_12  and  C_8 
REMARK    7  A    between atoms: C_9  and  C_13 
REMARK    8  A    between atoms: C_10  and  C_15 
REMARK    9  A    between atoms: C_14  and  C_11 
REMARK   10  A    between atoms: C_17  and  C_12 
REMARK   11  A    between atoms: C_13  and  C_22 
REMARK   12  A    between atoms: C_16  and  C_14 
REMARK   13  A    between atoms: C_15  and  C_19 
REMARK   14  A    between atoms: C_18  and  C_16 
REMARK   15  A    between atoms: C_21  and  C_17 
REMARK   16  A    between atoms: C_20  and  C_18 
REMARK   17  A    between atoms: C_19  and  C_21 
REMARK   18  A    between atoms: C_22  and  C_20 
ROOT
ATOM      1  O   UNL d   1       8.208   3.571   5.604  0.00  0.00    -0.298 OA
ATOM      2  C   UNL d   1       8.987   2.733   5.152  0.00  0.00     0.127 C 
ENDROOT
BRANCH   2   3
ATOM      3  C   UNL d   1       8.503   1.541   4.354  0.00  0.00     0.078 C 
BRANCH   3   4
ATOM      4  C   UNL d   1       7.216   1.885   3.621  0.00  0.00     0.007 C 
BRANCH   4   5
ATOM      5  C   UNL d   1       6.697   0.704   2.810  0.00  0.00     0.000 C 
BRANCH   5   6
ATOM      6  C   UNL d   1       5.412   1.093   2.087  0.00  0.00     0.000 C 
BRANCH   6   7
ATOM      7  C   UNL d   1       4.856  -0.068   1.268  0.00  0.00     0.001 C 
BRANCH   7   8
ATOM      8  C   UNL d   1       3.573   0.353   0.555  0.00  0.00     0.010 C 
BRANCH   8   9
ATOM      9  C   UNL d   1       2.990  -0.785  -0.275  0.00  0.00     0.110 C 
BRANCH   9  10
ATOM     10  C   UNL d   1       1.721  -0.359  -0.979  0.00  0.00     0.139 C 
ATOM     11  O   UNL d   1       1.209   0.745  -0.910  0.00  0.00    -0.650 OA
BRANCH  10  12
ATOM     12  O   UNL d   1       1.188  -1.358  -1.722  0.00  0.00    -0.776 OA
ATOM     13  H   UNL d   1       1.698  -2.189  -1.687  0.00  0.00     0.167 HD
ENDBRANCH  10  12
ENDBRANCH   9  10
ENDBRANCH   8   9
ENDBRANCH   7   8
ENDBRANCH   6   7
ENDBRANCH   5   6
ENDBRANCH   4   5
ENDBRANCH   3   4
ENDBRANCH   2   3
BRANCH   2  14
ATOM     14  C   UNL d   1      10.481   2.837   5.366  0.00  0.00     0.078 C 
BRANCH  14  15
ATOM     15  C   UNL d   1      10.776   3.553   6.675  0.00  0.00     0.007 C 
BRANCH  15  16
ATOM     16  C   UNL d   1      12.273   3.677   6.918  0.00  0.00     0.000 C 
BRANCH  16  17
ATOM     17  C   UNL d   1      12.527   4.391   8.240  0.00  0.00     0.000 C 
BRANCH  17  18
ATOM     18  C   UNL d   1      14.020   4.534   8.503  0.00  0.00     0.000 C 
BRANCH  18  19
ATOM     19  C   UNL d   1      14.266   5.250   9.827  0.00  0.00     0.000 C 
BRANCH  19  20
ATOM     20  C   UNL d   1      15.761   5.395  10.096  0.00  0.00     0.004 C 
BRANCH  20  21
ATOM     21  C   UNL d   1      16.005   6.112  11.422  0.00  0.00     0.026 C 
BRANCH  21  22
ATOM     22  C   UNL d   1      17.473   6.253  11.698  0.00  0.00    -0.037 C 
ATOM     23  C   UNL d   1      18.079   5.725  12.769  0.00  0.00     0.007 C 
ENDBRANCH  21  22
ENDBRANCH  20  21
ENDBRANCH  19  20
ENDBRANCH  18  19
ENDBRANCH  17  18
ENDBRANCH  16  17
ENDBRANCH  15  16
ENDBRANCH  14  15
ENDBRANCH   2  14
TORSDOF 18
