REMARK  5 active torsions:
REMARK  status: ('A' for Active; 'I' for Inactive)
REMARK    1  A    between atoms: N_3  and  S_1 
REMARK    2  A    between atoms: C_4  and  S_1 
REMARK    3  A    between atoms: C_2  and  C_7 
REMARK    4  A    between atoms: C_20  and  N_3 
REMARK    5  A    between atoms: C_21  and  C_20 
ROOT
ATOM      1  S   UNL d   1       0.953  -0.221  -0.396  0.00  0.00     0.241 S 
ATOM      2  O   UNL d   1       2.197  -0.787  -0.861  0.00  0.00    -0.206 OA
ATOM      3  O   UNL d   1       0.823   1.193  -0.056  0.00  0.00    -0.206 OA
ENDROOT
BRANCH   1   4
ATOM      4  N   UNL d   1       0.410  -1.089   0.950  0.00  0.00    -0.211 NA
ATOM      5  H   UNL d   1      -0.591  -0.991   1.080  0.00  0.00     0.140 HD
BRANCH   4   6
ATOM      6  C   UNL d   1       0.856  -2.483   1.099  0.00  0.00     0.143 C 
BRANCH   6   7
ATOM      7  C   UNL d   1       0.401  -3.055   2.431  0.00  0.00    -0.044 C 
ATOM      8  C   UNL d   1       0.864  -2.379   3.561  0.00  0.00     0.018 C 
ATOM      9  C   UNL d   1       0.853  -3.038   4.763  0.00  0.00    -0.022 C 
ATOM     10  C   UNL d   1       1.592  -2.646   5.974  0.00  0.00     0.068 C 
ATOM     11  C   UNL d   1       0.264  -4.279   4.922  0.00  0.00     0.075 C 
ATOM     12  C   UNL d   1       1.576  -3.990   6.685  0.00  0.00     0.180 C 
ATOM     13  O   UNL d   1       0.481  -4.801   6.169  0.00  0.00    -0.350 OA
ATOM     14  C   UNL d   1      -0.380  -4.893   3.869  0.00  0.00     0.038 C 
ATOM     15  C   UNL d   1      -0.272  -4.290   2.596  0.00  0.00     0.011 C 
ENDBRANCH   6   7
ENDBRANCH   4   6
ENDBRANCH   1   4
BRANCH   1  16
ATOM     16  C   UNL d   1      -0.323  -0.572  -1.583  0.00  0.00     0.074 A 
ATOM     17  C   UNL d   1      -1.444   0.261  -1.720  0.00  0.00     0.025 A 
ATOM     18  C   UNL d   1      -2.436  -0.055  -2.642  0.00  0.00     0.018 A 
ATOM     19  C   UNL d   1      -2.325  -1.201  -3.448  0.00  0.00     0.048 A 
ATOM     20  C   UNL d   1      -1.177  -2.003  -3.332  0.00  0.00     0.018 A 
ATOM     21  C   UNL d   1      -0.171  -1.685  -2.416  0.00  0.00     0.025 A 
BRANCH  19  22
ATOM     22  C   UNL d   1      -3.415  -1.595  -4.421  0.00  0.00     0.417 C 
ATOM     23  F   UNL d   1      -4.481  -0.747  -4.423  0.00  0.00    -0.166 F 
ATOM     24  F   UNL d   1      -2.975  -1.649  -5.708  0.00  0.00    -0.166 F 
ATOM     25  F   UNL d   1      -3.922  -2.829  -4.148  0.00  0.00    -0.166 F 
ENDBRANCH  19  22
ENDBRANCH   1  16
TORSDOF 5
