REMARK  3 active torsions:
REMARK  status: ('A' for Active; 'I' for Inactive)
REMARK    1  A    between atoms: C_4  and  C_1 
REMARK    2  A    between atoms: C_7  and  C_4 
REMARK    3  A    between atoms: O_9  and  C_7 
ROOT
ATOM      1  C   UNL d   1       2.122   0.212  -0.002  0.00  0.00    -0.000 A 
ATOM      2  S   UNL d   1       1.373  -1.321  -0.093  0.00  0.00    -0.093 SA
ATOM      3  C   UNL d   1       1.192   1.238   0.091  0.00  0.00    -0.037 A 
ATOM      4  C   UNL d   1      -0.169   0.737   0.024  0.00  0.00    -0.012 A 
ATOM      5  C   UNL d   1      -0.206  -0.657  -0.033  0.00  0.00     0.016 A 
ATOM      6  C   UNL d   1       1.520   2.693   0.236  0.00  0.00     0.050 C 
ATOM      7  C   UNL d   1      -1.409   1.427   0.027  0.00  0.00     0.013 A 
ATOM      8  C   UNL d   1      -1.423  -1.369  -0.041  0.00  0.00     0.019 A 
ATOM      9  C   UNL d   1      -2.620   0.728   0.001  0.00  0.00     0.001 A 
ATOM     10  C   UNL d   1      -2.624  -0.659  -0.020  0.00  0.00     0.001 A 
ENDROOT
BRANCH   1  11
ATOM     11  C   UNL d   1       3.627   0.278  -0.004  0.00  0.00     0.156 C 
BRANCH  11  12
ATOM     12  C   UNL d   1       4.204   1.029  -1.187  0.00  0.00     0.144 C 
ATOM     13  O   UNL d   1       5.296   1.580  -1.141  0.00  0.00    -0.650 OA
BRANCH  12  14
ATOM     14  O   UNL d   1       3.484   0.998  -2.330  0.00  0.00    -0.776 OA
ATOM     15  H   UNL d   1       2.637   0.514  -2.267  0.00  0.00     0.167 HD
ENDBRANCH  12  14
ENDBRANCH  11  12
ENDBRANCH   1  11
TORSDOF 3
