REMARK  5 active torsions:
REMARK  status: ('A' for Active; 'I' for Inactive)
REMARK    1  A    between atoms: C_2  and  S_1 
REMARK    2  A    between atoms: N_14  and  S_1 
REMARK    3  A    between atoms: C_10  and  C_3 
REMARK    4  A    between atoms: C_4  and  C_7 
REMARK    5  A    between atoms: C_19  and  N_14 
ROOT
ATOM      1  C   UNL d   1       0.382  -0.222   1.692  0.00  0.00     0.087 A 
ATOM      2  C   UNL d   1      -0.867  -0.777   2.108  0.00  0.00     0.047 A 
ATOM      3  C   UNL d   1      -1.017  -0.735   3.480  0.00  0.00     0.035 A 
ATOM      4  S   UNL d   1       0.341  -0.031   4.247  0.00  0.00    -0.098 SA
ATOM      5  C   UNL d   1       1.141   0.213   2.757  0.00  0.00     0.075 A 
ENDROOT
BRANCH   1   6
ATOM      6  S   UNL d   1       0.872  -0.037   0.040  0.00  0.00     0.263 S 
ATOM      7  O   UNL d   1       0.085  -0.993  -0.705  0.00  0.00    -0.200 OA
ATOM      8  O   UNL d   1       2.317  -0.108   0.084  0.00  0.00    -0.200 OA
BRANCH   6   9
ATOM      9  N   UNL d   1       0.482   1.537  -0.421  0.00  0.00    -0.281 N 
ATOM     10  H   UNL d   1       1.146   1.913  -1.095  0.00  0.00     0.179 HD
BRANCH   9  11
ATOM     11  C   UNL d   1      -0.886   1.855  -0.629  0.00  0.00     0.045 A 
ATOM     12  C   UNL d   1      -1.551   2.547   0.380  0.00  0.00     0.069 A 
ATOM     13  C   UNL d   1      -2.885   2.907   0.215  0.00  0.00     0.104 A 
ATOM     14  O   UNL d   1      -3.466   3.579   1.257  0.00  0.00    -0.346 OA
ATOM     15  C   UNL d   1      -3.555   2.597  -0.974  0.00  0.00     0.102 A 
ATOM     16  C   UNL d   1      -4.892   3.593   1.137  0.00  0.00     0.202 C 
ATOM     17  C   UNL d   1      -5.306   3.951  -0.282  0.00  0.00     0.202 C 
ATOM     18  O   UNL d   1      -4.854   2.959  -1.209  0.00  0.00    -0.346 OA
ATOM     19  C   UNL d   1      -2.894   1.887  -1.977  0.00  0.00     0.042 A 
ATOM     20  C   UNL d   1      -1.556   1.516  -1.808  0.00  0.00     0.033 A 
ENDBRANCH   9  11
ENDBRANCH   6   9
ENDBRANCH   1   6
BRANCH   3  21
ATOM     21  C   UNL d   1      -2.227  -1.229   4.211  0.00  0.00     0.074 A 
ATOM     22  C   UNL d   1      -2.459  -1.160   5.604  0.00  0.00     0.077 A 
ATOM     23  C   UNL d   1      -3.710  -1.708   5.773  0.00  0.00     0.184 A 
ATOM     24  O   UNL d   1      -4.187  -2.105   4.564  0.00  0.00    -0.233 OA
ATOM     25  N   UNL d   1      -3.262  -1.801   3.581  0.00  0.00    -0.260 N 
ATOM     26  HN  UNL d   1      -3.349  -1.977   2.580  1.00  0.00     0.195 HD
BRANCH  23  27
ATOM     27  C   UNL d   1      -4.592  -1.923   6.931  0.00  0.00     0.441 C 
ATOM     28  F   UNL d   1      -4.047  -1.424   8.073  0.00  0.00    -0.164 F 
ATOM     29  F   UNL d   1      -5.795  -1.313   6.779  0.00  0.00    -0.164 F 
ATOM     30  F   UNL d   1      -4.836  -3.237   7.159  0.00  0.00    -0.164 F 
ENDBRANCH  23  27
ENDBRANCH   3  21
TORSDOF 5
