REMARK  3 active torsions:
REMARK  status: ('A' for Active; 'I' for Inactive)
REMARK    1  A    between atoms: C_8  and  N_1 
REMARK    2  A    between atoms: S_15  and  C_7 
REMARK    3  A    between atoms: C_9  and  C_11 
ROOT
ATOM      1  N   UNL d   1      -0.078  -1.154  -0.013  0.00  0.00    -0.068 N 
ATOM      2  C   UNL d   1      -0.598  -0.172  -0.858  0.00  0.00     0.701 A 
ATOM      3  N   UNL d   1      -0.021   0.977  -0.598  0.00  0.00    -0.168 N 
ATOM      4  HN  UNL d   1      -0.187   1.882  -1.038  1.00  0.00     0.186 HD
ATOM      5  N   UNL d   1       0.837  -0.594   0.823  0.00  0.00    -0.257 N 
ATOM      6  HN  UNL d   1       1.371  -1.028   1.576  1.00  0.00     0.190 HD
ATOM      7  C   UNL d   1       0.855   0.672   0.402  0.00  0.00     0.174 A 
ATOM      8  N   UNL d   1      -1.553  -0.385  -1.781  0.00  0.00    -0.233 N 
ATOM      9  H   UNL d   1      -2.046  -1.277  -1.806  0.00  0.00     0.174 HD
ATOM     10  H   UNL d   1      -2.037   0.409  -2.187  0.00  0.00     0.174 HD
ENDROOT
BRANCH   1  11
ATOM     11  C   UNL d   1      -0.389  -2.547   0.021  0.00  0.00     0.146 A 
ATOM     12  C   UNL d   1       0.191  -3.341   1.012  0.00  0.00     0.067 A 
ATOM     13  C   UNL d   1      -0.081  -4.716   1.027  0.00  0.00     0.052 A 
ATOM     14  C   UNL d   1      -0.908  -5.247   0.033  0.00  0.00     0.033 A 
ATOM     15  C   UNL d   1      -1.449  -4.389  -0.908  0.00  0.00     0.090 A 
ATOM     16  N   UNL d   1      -1.228  -3.057  -0.924  0.00  0.00    -0.350 N 
ATOM     17  HN  UNL d   1      -1.672  -2.455  -1.618  1.00  0.00     0.166 HD
BRANCH  13  18
ATOM     18  C   UNL d   1       0.501  -5.620   2.083  0.00  0.00     0.417 C 
ATOM     19  F   UNL d   1       1.239  -4.965   3.019  0.00  0.00    -0.166 F 
ATOM     20  F   UNL d   1      -0.463  -6.293   2.770  0.00  0.00    -0.166 F 
ATOM     21  F   UNL d   1       1.318  -6.572   1.556  0.00  0.00    -0.166 F 
ENDBRANCH  13  18
ENDBRANCH   1  11
BRANCH   7  22
ATOM     22  S   UNL d   1       1.949   1.829   1.108  0.00  0.00    -0.097 SA
ATOM     23  C   UNL d   1       1.693   3.233   0.004  0.00  0.00     0.099 C 
ENDBRANCH   7  22
TORSDOF 3
