REMARK  9 active torsions:
REMARK  status: ('A' for Active; 'I' for Inactive)
REMARK    1  A    between atoms: C_15  and  N_1 
REMARK    2  A    between atoms: C_16  and  N_2 
REMARK    3  A    between atoms: C_3  and  C_13 
REMARK    4  A    between atoms: C_14  and  C_4 
REMARK    5  A    between atoms: C_17  and  N_20 
REMARK    6  A    between atoms: N_19  and  C_18 
REMARK    7  A    between atoms: C_27  and  N_19 
REMARK    8  A    between atoms: N_20  and  C_28 
REMARK    9  A    between atoms: C_28  and  C_27 
ROOT
ATOM      1  C   UNL d   1       4.899  -2.692  -0.080  0.00  0.00     0.141 C 
ENDROOT
BRANCH   1   2
ATOM      2  N   UNL d   1       3.554  -3.317  -0.023  0.00  0.00    -0.393 N 
ATOM      3  C   UNL d   1       3.353  -4.234   1.101  0.00  0.00     0.148 C 
BRANCH   2   4
ATOM      4  C   UNL d   1       2.588  -3.162  -1.012  0.00  0.00     0.089 C 
ATOM      5  C   UNL d   1       2.756  -2.743  -2.273  0.00  0.00     0.068 C 
BRANCH   5   6
ATOM      6  C   UNL d   1       1.657  -2.502  -3.130  0.00  0.00     0.139 C 
ATOM      7  N   UNL d   1       0.907  -3.496  -3.763  0.00  0.00    -0.225 N 
ATOM      8  N   UNL d   1      -0.163  -2.883  -4.339  0.00  0.00     0.001 NA
ATOM      9  N   UNL d   1       0.024  -1.584  -4.190  0.00  0.00    -0.007 NA
ATOM     10  N   UNL d   1       1.143  -1.332  -3.452  0.00  0.00    -0.270 N 
ATOM     11  HN  UNL d   1       1.511  -0.415  -3.198  1.00  0.00     0.185 HD
BRANCH   7  12
ATOM     12  C   UNL d   1       1.098  -4.893  -3.949  0.00  0.00     0.056 A 
ATOM     13  C   UNL d   1       0.000  -5.677  -4.348  0.00  0.00     0.033 A 
ATOM     14  C   UNL d   1       0.154  -7.044  -4.595  0.00  0.00     0.026 A 
ATOM     15  C   UNL d   1       1.408  -7.630  -4.469  0.00  0.00     0.034 A 
ATOM     16  C   UNL d   1       2.507  -6.864  -4.083  0.00  0.00     0.026 A 
ATOM     17 CL   UNL d   1       1.608  -9.305  -4.809  0.00  0.00    -0.084 Cl
ATOM     18  C   UNL d   1       2.355  -5.497  -3.811  0.00  0.00     0.033 A 
ENDBRANCH   7  12
ENDBRANCH   5   6
ENDBRANCH   2   4
ENDBRANCH   1   2
BRANCH   1  19
ATOM     19  C   UNL d   1       4.843  -1.155   0.060  0.00  0.00     0.141 C 
BRANCH  19  20
ATOM     20  N   UNL d   1       6.194  -0.556  -0.026  0.00  0.00    -0.393 N 
ATOM     21  C   UNL d   1       6.591  -0.139  -1.378  0.00  0.00     0.148 C 
BRANCH  20  22
ATOM     22  C   UNL d   1       6.960  -0.226   1.085  0.00  0.00     0.089 C 
ATOM     23  C   UNL d   1       6.854  -0.691   2.341  0.00  0.00     0.068 C 
BRANCH  23  24
ATOM     24  C   UNL d   1       7.680  -0.201   3.379  0.00  0.00     0.139 A 
ATOM     25  N   UNL d   1       9.035  -0.506   3.515  0.00  0.00    -0.225 N 
ATOM     26  N   UNL d   1       9.529   0.288   4.501  0.00  0.00     0.001 NA
ATOM     27  N   UNL d   1       8.496   0.929   5.019  0.00  0.00    -0.007 NA
ATOM     28  N   UNL d   1       7.348   0.633   4.345  0.00  0.00    -0.270 N 
ATOM     29  HN  UNL d   1       6.414   0.988   4.548  1.00  0.00     0.185 HD
BRANCH  25  30
ATOM     30  C   UNL d   1       9.884  -1.453   2.874  0.00  0.00     0.056 A 
ATOM     31  C   UNL d   1      11.278  -1.281   2.965  0.00  0.00     0.033 A 
ATOM     32  C   UNL d   1      12.148  -2.187   2.349  0.00  0.00     0.026 A 
ATOM     33  C   UNL d   1      11.632  -3.284   1.666  0.00  0.00     0.034 A 
ATOM     34  C   UNL d   1      10.255  -3.482   1.595  0.00  0.00     0.026 A 
ATOM     35 CL   UNL d   1      12.699  -4.404   0.915  0.00  0.00    -0.084 Cl
ATOM     36  C   UNL d   1       9.379  -2.568   2.193  0.00  0.00     0.033 A 
ENDBRANCH  25  30
ENDBRANCH  23  24
ENDBRANCH  20  22
ENDBRANCH  19  20
ENDBRANCH   1  19
TORSDOF 9
