REMARK  3 active torsions:
REMARK  status: ('A' for Active; 'I' for Inactive)
REMARK    1  A    between atoms: N_3  and  C_1 
REMARK    2  A    between atoms: N_4  and  N_3 
REMARK    3  A    between atoms: C_9  and  N_4 
ROOT
ATOM      1  N   UNL d   1      -1.529   3.422  -0.074  0.00  0.00    -0.297 N 
ATOM      2  H   UNL d   1      -2.323   4.020  -0.296  0.00  0.00     0.187 HD
ENDROOT
BRANCH   1   3
ATOM      3  C   UNL d   1      -1.814   2.046   0.088  0.00  0.00     0.091 A 
ATOM      4  C   UNL d   1      -1.025   1.162   0.861  0.00  0.00     0.065 A 
ATOM      5  C   UNL d   1      -1.333  -0.203   0.940  0.00  0.00     0.050 A 
ATOM      6 CL   UNL d   1       0.292   1.675   1.869  0.00  0.00    -0.082 Cl
ATOM      7  C   UNL d   1      -2.419  -0.714   0.243  0.00  0.00     0.037 A 
ATOM      8  C   UNL d   1      -3.207   0.118  -0.541  0.00  0.00     0.050 A 
ATOM      9 CL   UNL d   1      -2.798  -2.387   0.367  0.00  0.00    -0.084 Cl
ATOM     10  C   UNL d   1      -2.901   1.482  -0.617  0.00  0.00     0.065 A 
ATOM     11 CL   UNL d   1      -3.914   2.467  -1.624  0.00  0.00    -0.082 Cl
ENDBRANCH   1   3
BRANCH   1  12
ATOM     12  N   UNL d   1      -0.258   3.849   0.003  0.00  0.00    -0.303 N 
ATOM     13  HN  UNL d   1       0.491   3.172   0.143  1.00  0.00     0.186 HD
BRANCH  12  14
ATOM     14  C   UNL d   1       0.033   5.108  -0.097  0.00  0.00     0.038 C 
ATOM     15  C   UNL d   1       1.423   5.457   0.080  0.00  0.00     0.019 A 
ATOM     16  C   UNL d   1       1.849   6.743  -0.134  0.00  0.00     0.064 A 
ATOM     17  C   UNL d   1       2.578   4.726   0.463  0.00  0.00     0.040 A 
ATOM     18  O   UNL d   1       3.177   6.874   0.097  0.00  0.00    -0.326 OA
ATOM     19  C   UNL d   1       1.043   7.909  -0.563  0.00  0.00     0.066 C 
ATOM     20  C   UNL d   1       3.615   5.637   0.462  0.00  0.00     0.143 A 
ATOM     21  C   UNL d   1      -0.279   7.390  -1.165  0.00  0.00     0.013 C 
ATOM     22  C   UNL d   1      -0.933   6.272  -0.324  0.00  0.00     0.060 C 
ENDBRANCH  12  14
ENDBRANCH   1  12
TORSDOF 3
