REMARK  5 active torsions:
REMARK  status: ('A' for Active; 'I' for Inactive)
REMARK       I    between atoms: N_2  and  C_1 
REMARK    1  A    between atoms: C_8  and  C_1 
REMARK    2  A    between atoms: C_4  and  N_2 
REMARK    3  A    between atoms: N_3  and  C_8 
REMARK    4  A    between atoms: O_7  and  C_6 
REMARK    5  A    between atoms: C_14  and  O_7 
ROOT
ATOM      1  C   UNL d   1       0.992  -1.652  -1.706  0.00  0.00     0.069 A 
ATOM      2  C   UNL d   1       1.294  -1.875  -3.059  0.00  0.00     0.102 A 
ATOM      3  C   UNL d   1       1.307  -2.629  -0.757  0.00  0.00     0.032 A 
ATOM      4  C   UNL d   1       1.813  -3.120  -3.453  0.00  0.00     0.039 A 
ATOM      5  C   UNL d   1       1.876  -3.846  -1.155  0.00  0.00     0.002 A 
ATOM      6  C   UNL d   1       2.116  -4.091  -2.504  0.00  0.00     0.003 A 
ENDROOT
BRANCH   1   7
ATOM      7  N   UNL d   1       0.301  -0.482  -1.295  0.00  0.00    -0.323 N 
ATOM      8  C   UNL d   1       0.871   0.399  -0.382  0.00  0.00     0.250 C 
ATOM      9  O   UNL d   1       2.046   0.305  -0.015  0.00  0.00    -0.271 OA
ATOM     10  H   UNL d   1      -0.304  -0.063  -1.986  0.00  0.00     0.169 HD
BRANCH   8  11
ATOM     11  C   UNL d   1      -0.060   1.564   0.028  0.00  0.00     0.375 C 
BRANCH  11  12
ATOM     12  N   UNL d   1      -0.054   1.863   1.484  0.00  0.00     0.100 N 
ATOM     13  C   UNL d   1       1.269   2.298   1.983  0.00  0.00     0.303 C 
ATOM     14  C   UNL d   1       1.239   2.675   3.486  0.00  0.00     0.302 C 
ATOM     15  N   UNL d   1       0.253   3.700   3.860  0.00  0.00     0.087 N 
ATOM     16  C   UNL d   1      -1.059   3.343   3.283  0.00  0.00     0.302 C 
ATOM     17  C   UNL d   1       0.680   5.039   3.462  0.00  0.00     0.310 C 
ATOM     18  C   UNL d   1      -1.039   2.928   1.788  0.00  0.00     0.303 C 
ENDBRANCH  11  12
ENDBRANCH   8  11
ENDBRANCH   1   7
BRANCH   2  19
ATOM     19  O   UNL d   1       1.132  -0.840  -3.965  0.00  0.00    -0.309 OA
BRANCH  19  20
ATOM     20  C   UNL d   1       2.099  -0.707  -4.948  0.00  0.00     0.076 A 
ATOM     21  C   UNL d   1       1.660  -0.428  -6.245  0.00  0.00     0.037 A 
ATOM     22  C   UNL d   1       2.578  -0.370  -7.295  0.00  0.00     0.003 A 
ATOM     23  C   UNL d   1       3.936  -0.584  -7.057  0.00  0.00     0.000 A 
ATOM     24  C   UNL d   1       4.385  -0.815  -5.757  0.00  0.00     0.003 A 
ATOM     25  C   UNL d   1       3.474  -0.848  -4.700  0.00  0.00     0.037 A 
ENDBRANCH  19  20
ENDBRANCH   2  19
TORSDOF 5
