REMARK  2 active torsions:
REMARK  status: ('A' for Active; 'I' for Inactive)
REMARK    1  A    between atoms: C_2  and  C_1 
REMARK    2  A    between atoms: O_9  and  N_4 
ROOT
ATOM      1  C   UNL d   1       0.000  -1.100   0.354  0.00  0.00     0.000 C 
ATOM      2  C   UNL d   1       0.015   0.086   1.336  0.00  0.00     0.020 C 
ATOM      3  C   UNL d   1      -1.266  -0.775  -0.471  0.00  0.00     0.016 C 
ATOM      4  C   UNL d   1       1.247  -0.779  -0.503  0.00  0.00     0.016 C 
ATOM      5  C   UNL d   1       0.003   1.143   0.240  0.00  0.00    -0.013 C 
ATOM      6  C   UNL d   1      -1.264   0.760  -0.539  0.00  0.00     0.006 C 
ATOM      7  C   UNL d   1       1.247   0.756  -0.572  0.00  0.00     0.006 C 
ENDROOT
BRANCH   1   8
ATOM      8  C   UNL d   1       0.004  -2.502   0.971  0.00  0.00     0.014 C 
ATOM      9  N   UNL d   1       0.001  -3.616   0.295  0.00  0.00    -0.277 N 
ATOM     10  HN  UNL d   1       0.004  -4.539   0.730  1.00  0.00     0.193 HD
ATOM     11  C   UNL d   1       0.007  -2.669   2.476  0.00  0.00     0.066 C 
BRANCH   9  12
ATOM     12  O   UNL d   1      -0.007  -3.413  -1.083  0.00  0.00    -0.290 OA
ATOM     13  H   UNL d   1      -0.010  -4.326  -1.429  0.00  0.00     0.244 HD
ENDBRANCH   9  12
ENDBRANCH   1   8
TORSDOF 2
