REMARK  3 active torsions:
REMARK  status: ('A' for Active; 'I' for Inactive)
REMARK       I    between atoms: C_2  and  N_1 
REMARK    1  A    between atoms: O_6  and  C_2 
REMARK    2  A    between atoms: C_9  and  O_6 
REMARK    3  A    between atoms: C_12  and  C_9 
ROOT
ATOM      1  N   UNL d   1      -1.445  -0.953   0.152  0.00  0.00    -0.318 N 
ATOM      2  C   UNL d   1      -2.118  -2.021   0.712  0.00  0.00     0.363 C 
ATOM      3  C   UNL d   1      -1.617   0.696  -1.764  0.00  0.00     0.235 C 
ATOM      4  C   UNL d   1      -2.119   0.234  -0.382  0.00  0.00     0.230 C 
ATOM      5  N   UNL d   1      -0.437   0.171  -2.233  0.00  0.00    -0.358 N 
ATOM      6  O   UNL d   1      -1.575  -3.081   1.001  0.00  0.00    -0.238 OA
ATOM      7  O   UNL d   1      -2.183   1.579  -2.405  0.00  0.00    -0.272 OA
ATOM      8  C   UNL d   1      -0.019  -1.054  -0.142  0.00  0.00     0.148 C 
ATOM      9  C   UNL d   1       0.184  -1.005  -1.655  0.00  0.00     0.142 C 
ATOM     10  H   UNL d   1      -0.182   0.472  -3.166  0.00  0.00     0.162 HD
ENDROOT
BRANCH   2  11
ATOM     11  O   UNL d   1      -3.442  -1.774   0.878  0.00  0.00    -0.299 OA
BRANCH  11  12
ATOM     12  C   UNL d   1      -4.274  -2.914   1.121  0.00  0.00     0.219 C 
BRANCH  12  13
ATOM     13  C   UNL d   1      -4.992  -2.830   2.443  0.00  0.00    -0.034 A 
ATOM     14  C   UNL d   1      -6.393  -2.777   2.494  0.00  0.00     0.009 A 
ATOM     15  C   UNL d   1      -7.064  -2.786   3.719  0.00  0.00     0.001 A 
ATOM     16  C   UNL d   1      -6.340  -2.849   4.908  0.00  0.00     0.000 A 
ATOM     17  C   UNL d   1      -4.948  -2.895   4.872  0.00  0.00     0.001 A 
ATOM     18  C   UNL d   1      -4.276  -2.886   3.647  0.00  0.00     0.009 A 
ENDBRANCH  12  13
ENDBRANCH  11  12
ENDBRANCH   2  11
TORSDOF 3
