REMARK  2 active torsions:
REMARK  status: ('A' for Active; 'I' for Inactive)
REMARK       I    between atoms: N_2  and  C_1 
REMARK       I    between atoms: N_3  and  C_1 
REMARK    1  A    between atoms: C_5  and  N_2 
REMARK    2  A    between atoms: C_6  and  N_3 
ROOT
ATOM      1  C   UNL d   1       0.861  -0.085   0.012  0.00  0.00     0.321 C 
ATOM      2  N   UNL d   1       2.221  -0.019   0.231  0.00  0.00    -0.309 N 
ATOM      3  N   UNL d   1       0.181   0.797   0.826  0.00  0.00    -0.338 N 
ATOM      4  O   UNL d   1       0.285  -0.810  -0.792  0.00  0.00    -0.247 OA
ATOM      5  H   UNL d   1       2.515   0.500   1.042  0.00  0.00     0.170 HD
ATOM      6  H   UNL d   1       0.681   1.228   1.586  0.00  0.00     0.164 HD
ENDROOT
BRANCH   2   7
ATOM      7  C   UNL d   1       3.228  -0.734  -0.448  0.00  0.00     0.036 A 
ATOM      8  C   UNL d   1       3.015  -1.428  -1.641  0.00  0.00     0.029 A 
ATOM      9  C   UNL d   1       4.057  -2.140  -2.243  0.00  0.00     0.002 A 
ATOM     10  C   UNL d   1       5.321  -2.164  -1.658  0.00  0.00     0.000 A 
ATOM     11  C   UNL d   1       5.550  -1.456  -0.480  0.00  0.00     0.002 A 
ATOM     12  C   UNL d   1       4.511  -0.736   0.115  0.00  0.00     0.029 A 
ENDBRANCH   2   7
BRANCH   3  13
ATOM     13  C   UNL d   1      -1.266   0.823   0.876  0.00  0.00     0.086 C 
ATOM     14  C   UNL d   1      -1.804   2.205   1.227  0.00  0.00     0.025 C 
ATOM     15  C   UNL d   1      -3.205   1.951   1.777  0.00  0.00     0.002 C 
ATOM     16  C   UNL d   1      -3.245   0.479   2.190  0.00  0.00     0.002 C 
ATOM     17  C   UNL d   1      -1.828  -0.048   1.996  0.00  0.00     0.025 C 
ENDBRANCH   3  13
TORSDOF 2
