REMARK  4 active torsions:
REMARK  status: ('A' for Active; 'I' for Inactive)
REMARK    1  A    between atoms: C_4  and  C_1 
REMARK       I    between atoms: N_7  and  C_1 
REMARK    2  A    between atoms: C_5  and  C_6 
REMARK    3  A    between atoms: O_15  and  C_5 
REMARK    4  A    between atoms: C_8  and  N_7 
ROOT
ATOM      1  C   UNL d   1       1.051  -1.179   1.644  0.00  0.00     0.245 C 
ATOM      2  N   UNL d   1       0.169  -0.893   0.624  0.00  0.00    -0.324 N 
ATOM      3  O   UNL d   1       0.793  -1.723   2.710  0.00  0.00    -0.268 OA
ATOM      4  H   UNL d   1       0.550  -0.570  -0.258  0.00  0.00     0.169 HD
ENDROOT
BRANCH   2   5
ATOM      5  C   UNL d   1      -1.238  -1.018   0.681  0.00  0.00     0.037 A 
ATOM      6  C   UNL d   1      -1.938  -1.252   1.865  0.00  0.00     0.072 A 
ATOM      7  C   UNL d   1      -3.329  -1.312   1.854  0.00  0.00     0.124 A 
ATOM      8  F   UNL d   1      -3.975  -1.514   3.012  0.00  0.00    -0.205 F 
ATOM      9  C   UNL d   1      -4.059  -1.150   0.676  0.00  0.00    -0.023 A 
ATOM     10  C   UNL d   1      -3.360  -0.930  -0.514  0.00  0.00     0.012 A 
ATOM     11  C   UNL d   1      -5.554  -1.199   0.719  0.00  0.00     0.051 C 
ATOM     12  C   UNL d   1      -1.960  -0.856  -0.508  0.00  0.00     0.030 A 
ENDBRANCH   2   5
BRANCH   1  13
ATOM     13  C   UNL d   1       2.443  -0.765   1.336  0.00  0.00     0.081 C 
ATOM     14  C   UNL d   1       3.388  -0.978   2.265  0.00  0.00     0.086 C 
BRANCH  14  15
ATOM     15  C   UNL d   1       4.766  -0.541   2.002  0.00  0.00     0.165 C 
ATOM     16  O   UNL d   1       5.127  -0.003   0.971  0.00  0.00    -0.647 OA
BRANCH  15  17
ATOM     17  O   UNL d   1       5.588  -0.794   3.039  0.00  0.00    -0.773 OA
ATOM     18  H   UNL d   1       5.174  -1.222   3.812  0.00  0.00     0.167 HD
ENDBRANCH  15  17
ENDBRANCH  14  15
ENDBRANCH   1  13
TORSDOF 4
