REMARK  5 active torsions:
REMARK  status: ('A' for Active; 'I' for Inactive)
REMARK       I    between atoms: N_2  and  C_1 
REMARK    1  A    between atoms: C_7  and  C_1 
REMARK    2  A    between atoms: C_5  and  N_2 
REMARK    3  A    between atoms: C_3  and  O_8 
REMARK    4  A    between atoms: N_4  and  C_6 
REMARK    5  A    between atoms: O_8  and  C_16 
ROOT
ATOM      1  C   UNL d   1       0.660  -0.705  -0.631  0.00  0.00     0.256 C 
ATOM      2  N   UNL d   1       0.317  -1.007   0.677  0.00  0.00    -0.321 N 
ATOM      3  O   UNL d   1       1.545  -1.226  -1.298  0.00  0.00    -0.267 OA
ATOM      4  H   UNL d   1      -0.689  -0.995   0.814  0.00  0.00     0.169 HD
ENDROOT
BRANCH   2   5
ATOM      5  C   UNL d   1       0.976  -2.026   1.399  0.00  0.00     0.061 A 
ATOM      6  C   UNL d   1       2.189  -1.806   2.097  0.00  0.00     0.057 A 
ATOM      7  C   UNL d   1       2.674  -2.900   2.842  0.00  0.00     0.031 A 
ATOM      8  C   UNL d   1       2.033  -4.145   2.859  0.00  0.00     0.002 A 
ATOM      9  C   UNL d   1       0.866  -4.336   2.135  0.00  0.00     0.002 A 
ATOM     10  C   UNL d   1       0.321  -3.273   1.430  0.00  0.00     0.032 A 
BRANCH   6  11
ATOM     11  N   UNL d   1       2.899  -0.612   2.057  0.00  0.00    -0.375 N 
ATOM     12  C   UNL d   1       4.350  -0.593   2.313  0.00  0.00     0.149 C 
ATOM     13  C   UNL d   1       4.988   0.523   1.467  0.00  0.00     0.187 C 
ATOM     14  O   UNL d   1       4.398   1.800   1.756  0.00  0.00    -0.388 OA
ATOM     15  C   UNL d   1       2.985   1.767   1.478  0.00  0.00     0.187 C 
ATOM     16  C   UNL d   1       2.268   0.691   2.317  0.00  0.00     0.149 C 
ENDBRANCH   6  11
ENDBRANCH   2   5
BRANCH   1  17
ATOM     17  C   UNL d   1      -0.241   0.316  -1.252  0.00  0.00     0.032 A 
ATOM     18  C   UNL d   1      -0.780   1.351  -0.475  0.00  0.00     0.020 A 
ATOM     19  C   UNL d   1      -1.593   2.329  -1.058  0.00  0.00     0.038 A 
ATOM     20  C   UNL d   1      -1.841   2.303  -2.427  0.00  0.00     0.078 A 
ATOM     21  C   UNL d   1      -1.346   1.238  -3.191  0.00  0.00     0.038 A 
ATOM     22  C   UNL d   1      -0.539   0.252  -2.613  0.00  0.00     0.020 A 
BRANCH  20  23
ATOM     23  O   UNL d   1      -2.558   3.225  -3.127  0.00  0.00    -0.255 OA
BRANCH  23  24
ATOM     24  C   UNL d   1      -2.616   4.566  -2.654  0.00  0.00     0.530 C 
ATOM     25  F   UNL d   1      -1.664   4.869  -1.746  0.00  0.00    -0.144 F 
ATOM     26  F   UNL d   1      -2.456   5.397  -3.707  0.00  0.00    -0.144 F 
ATOM     27  F   UNL d   1      -3.829   4.800  -2.112  0.00  0.00    -0.144 F 
ENDBRANCH  23  24
ENDBRANCH  20  23
ENDBRANCH   1  17
TORSDOF 5
