REMARK  4 active torsions:
REMARK  status: ('A' for Active; 'I' for Inactive)
REMARK    1  A    between atoms: C_4  and  C_1 
REMARK    2  A    between atoms: C_10  and  C_1 
REMARK    3  A    between atoms: O_12  and  N_2 
REMARK    4  A    between atoms: C_11  and  C_5 
ROOT
ATOM      1  C   UNL d   1       0.154   0.653  -0.930  0.00  0.00    -0.011 A 
ATOM      2  C   UNL d   1      -1.236   2.387  -2.680  0.00  0.00    -0.055 A 
ATOM      3  C   UNL d   1       0.464   0.677  -2.292  0.00  0.00     0.014 A 
ATOM      4  C   UNL d   1      -0.855   1.495  -0.446  0.00  0.00     0.014 A 
ATOM      5  C   UNL d   1      -1.544   2.350  -1.313  0.00  0.00     0.008 A 
ATOM      6  C   UNL d   1      -0.232   1.529  -3.159  0.00  0.00     0.008 A 
ENDROOT
BRANCH   1   7
ATOM      7  C   UNL d   1       0.918  -0.200   0.046  0.00  0.00     0.045 C 
ATOM      8  N   UNL d   1       1.060   0.281   1.251  0.00  0.00    -0.272 N 
ATOM      9  HN  UNL d   1       0.669   1.176   1.546  1.00  0.00     0.194 HD
BRANCH   8  10
ATOM     10  O   UNL d   1       1.797  -0.545   2.096  0.00  0.00    -0.290 OA
ATOM     11  H   UNL d   1       1.831  -0.025   2.918  0.00  0.00     0.244 HD
ENDBRANCH   8  10
BRANCH   7  12
ATOM     12  C   UNL d   1       1.465  -1.556  -0.447  0.00  0.00     0.030 C 
ATOM     13  C   UNL d   1       2.992  -1.605  -0.416  0.00  0.00     0.016 C 
ATOM     14  C   UNL d   1       0.835  -2.738   0.290  0.00  0.00     0.016 C 
ENDBRANCH   7  12
ENDBRANCH   1   7
BRANCH   2  15
ATOM     15  C   UNL d   1      -1.954   3.361  -3.595  0.00  0.00     0.010 C 
ATOM     16  C   UNL d   1      -0.979   4.370  -4.211  0.00  0.00     0.015 C 
ATOM     17  C   UNL d   1      -2.751   2.644  -4.687  0.00  0.00     0.015 C 
ENDBRANCH   2  15
TORSDOF 4
