REMARK  4 active torsions:
REMARK  status: ('A' for Active; 'I' for Inactive)
REMARK    1  A    between atoms: C_2  and  N_1 
REMARK    2  A    between atoms: C_6  and  C_2 
REMARK    3  A    between atoms: C_7  and  C_2 
REMARK    4  A    between atoms: O_8  and  C_5 
ROOT
ATOM      1  C   UNL d   1       1.305  -0.016  -1.868  0.00  0.00     0.289 C 
ENDROOT
BRANCH   1   2
ATOM      2  N   UNL d   1       1.345  -0.018  -0.381  0.00  0.00     0.106 N 
ATOM      3  C   UNL d   1       0.449   1.004   0.204  0.00  0.00     0.307 C 
ATOM      4  C   UNL d   1      -0.587  -0.076   0.554  0.00  0.00     0.174 C 
ATOM      5  C   UNL d   1       0.510  -1.095   0.194  0.00  0.00     0.307 C 
BRANCH   4   6
ATOM      6  O   UNL d   1      -1.809  -0.106  -0.219  0.00  0.00    -0.392 OA
ATOM      7  H   UNL d   1      -1.530  -0.092  -1.151  0.00  0.00     0.210 HD
ENDBRANCH   4   6
ENDBRANCH   1   2
BRANCH   1   8
ATOM      8  C   UNL d   1       1.809   1.315  -2.441  0.00  0.00    -0.021 A 
ATOM      9  C   UNL d   1       3.096   1.792  -2.145  0.00  0.00     0.010 A 
ATOM     10  C   UNL d   1       3.552   2.997  -2.681  0.00  0.00     0.001 A 
ATOM     11  C   UNL d   1       2.723   3.747  -3.511  0.00  0.00     0.000 A 
ATOM     12  C   UNL d   1       1.436   3.298  -3.801  0.00  0.00     0.001 A 
ATOM     13  C   UNL d   1       0.981   2.088  -3.273  0.00  0.00     0.010 A 
ENDBRANCH   1   8
BRANCH   1  14
ATOM     14  C   UNL d   1       2.088  -1.182  -2.495  0.00  0.00    -0.021 A 
ATOM     15  C   UNL d   1       1.672  -1.718  -3.728  0.00  0.00     0.010 A 
ATOM     16  C   UNL d   1       2.403  -2.732  -4.353  0.00  0.00     0.001 A 
ATOM     17  C   UNL d   1       3.564  -3.222  -3.761  0.00  0.00     0.000 A 
ATOM     18  C   UNL d   1       3.995  -2.701  -2.543  0.00  0.00     0.001 A 
ATOM     19  C   UNL d   1       3.263  -1.690  -1.915  0.00  0.00     0.010 A 
ENDBRANCH   1  14
TORSDOF 4
