REMARK  5 active torsions:
REMARK  status: ('A' for Active; 'I' for Inactive)
REMARK       I    between atoms: N_2  and  C_1 
REMARK       I    between atoms: N_5  and  C_1 
REMARK    1  A    between atoms: C_4  and  N_2 
REMARK    2  A    between atoms: S_7  and  C_3 
REMARK    3  A    between atoms: C_12  and  N_5 
REMARK    4  A    between atoms: C_11  and  S_7 
REMARK    5  A    between atoms: C_15  and  C_11 
ROOT
ATOM      1  C   UNL d   1       0.662   3.141   1.652  0.00  0.00     0.029 A 
ATOM      2  C   UNL d   1       1.171   2.357   0.598  0.00  0.00     0.053 A 
ATOM      3  C   UNL d   1       1.346   4.322   1.988  0.00  0.00     0.044 A 
ATOM      4  C   UNL d   1       2.347   2.727  -0.071  0.00  0.00     0.032 A 
ATOM      5  C   UNL d   1       2.495   4.704   1.293  0.00  0.00     0.035 A 
ATOM      6  C   UNL d   1       2.997   3.913   0.264  0.00  0.00     0.026 A 
ATOM      7 CL   UNL d   1       3.289   6.177   1.693  0.00  0.00    -0.084 Cl
ENDROOT
BRANCH   2   8
ATOM      8  N   UNL d   1       0.509   1.209   0.129  0.00  0.00    -0.307 N 
ATOM      9  C   UNL d   1      -0.484   1.203  -0.829  0.00  0.00     0.325 C 
ATOM     10  N   UNL d   1      -0.967   2.428  -1.207  0.00  0.00    -0.309 N 
ATOM     11  O   UNL d   1      -0.807   0.114  -1.297  0.00  0.00    -0.247 OA
ATOM     12  H   UNL d   1      -0.512   3.234  -0.805  0.00  0.00     0.170 HD
ATOM     13  H   UNL d   1       1.071   0.374  -0.000  0.00  0.00     0.170 HD
BRANCH  10  14
ATOM     14  C   UNL d   1      -1.968   2.712  -2.157  0.00  0.00     0.036 A 
ATOM     15  C   UNL d   1      -2.749   1.741  -2.786  0.00  0.00     0.029 A 
ATOM     16  C   UNL d   1      -3.740   2.114  -3.700  0.00  0.00     0.002 A 
ATOM     17  C   UNL d   1      -3.954   3.459  -3.996  0.00  0.00     0.000 A 
ATOM     18  C   UNL d   1      -3.175   4.434  -3.380  0.00  0.00     0.002 A 
ATOM     19  C   UNL d   1      -2.189   4.061  -2.463  0.00  0.00     0.029 A 
ENDBRANCH  10  14
ENDBRANCH   2   8
BRANCH   1  20
ATOM     20  S   UNL d   1      -0.848   2.830   2.576  0.00  0.00    -0.123 SA
BRANCH  20  21
ATOM     21  C   UNL d   1      -0.765   1.039   2.946  0.00  0.00     0.118 C 
BRANCH  21  22
ATOM     22  C   UNL d   1      -1.862   0.621   3.901  0.00  0.00    -0.049 A 
ATOM     23  C   UNL d   1      -3.143   0.314   3.414  0.00  0.00     0.008 A 
ATOM     24  C   UNL d   1      -4.162  -0.086   4.281  0.00  0.00     0.001 A 
ATOM     25  C   UNL d   1      -3.913  -0.183   5.649  0.00  0.00     0.000 A 
ATOM     26  C   UNL d   1      -2.650   0.126   6.148  0.00  0.00     0.001 A 
ATOM     27  C   UNL d   1      -1.629   0.528   5.282  0.00  0.00     0.008 A 
ENDBRANCH  21  22
ENDBRANCH  20  21
ENDBRANCH   1  20
TORSDOF 5
