REMARK  3 active torsions:
REMARK  status: ('A' for Active; 'I' for Inactive)
REMARK    1  A    between atoms: N_7  and  C_1 
REMARK    2  A    between atoms: C_5  and  C_2 
REMARK       I    between atoms: C_8  and  N_9 
REMARK    3  A    between atoms: C_17  and  C_8 
ROOT
ATOM      1  C   UNL d   1      -0.980  -1.485  -0.172  0.00  0.00     0.045 A 
ATOM      2  C   UNL d   1      -1.304   0.720   0.762  0.00  0.00     0.119 A 
ATOM      3  N   UNL d   1      -1.216   1.301  -0.464  0.00  0.00    -0.352 N 
ATOM      4  HN  UNL d   1      -1.308   2.311  -0.566  1.00  0.00     0.166 HD
ATOM      5  C   UNL d   1      -1.209  -0.659   0.932  0.00  0.00     0.064 A 
ATOM      6  C   UNL d   1      -0.878  -0.878  -1.453  0.00  0.00     0.017 A 
ATOM      7  C   UNL d   1      -1.004   0.523  -1.536  0.00  0.00     0.045 A 
ATOM      8  C   UNL d   1      -0.611  -1.606  -2.639  0.00  0.00     0.016 A 
ATOM      9  C   UNL d   1      -0.876   1.137  -2.775  0.00  0.00     0.030 A 
ATOM     10  C   UNL d   1      -0.492  -0.969  -3.873  0.00  0.00     0.001 A 
ATOM     11  C   UNL d   1      -0.625   0.409  -3.941  0.00  0.00     0.002 A 
ENDROOT
BRANCH   1  12
ATOM     12  N   UNL d   1      -0.778  -2.866  -0.026  0.00  0.00    -0.377 N 
ATOM     13  C   UNL d   1      -0.038  -3.328   1.164  0.00  0.00     0.143 C 
ATOM     14  C   UNL d   1       0.481  -4.750   0.899  0.00  0.00     0.146 C 
ATOM     15  N   UNL d   1      -0.638  -5.652   0.576  0.00  0.00    -0.345 N 
ATOM     16  C   UNL d   1      -0.732  -6.980   0.974  0.00  0.00     0.253 C 
ATOM     17  C   UNL d   1      -1.465  -5.189  -0.550  0.00  0.00     0.146 C 
ATOM     18  O   UNL d   1      -1.444  -7.802   0.399  0.00  0.00    -0.267 OA
ATOM     19  C   UNL d   1      -1.939  -3.729  -0.358  0.00  0.00     0.143 C 
BRANCH  16  20
ATOM     20  C   UNL d   1       0.030  -7.440   2.162  0.00  0.00     0.032 A 
ATOM     21  C   UNL d   1       0.020  -6.712   3.358  0.00  0.00     0.017 A 
ATOM     22  C   UNL d   1       0.751  -7.165   4.457  0.00  0.00     0.001 A 
ATOM     23  C   UNL d   1       1.457  -8.366   4.375  0.00  0.00     0.000 A 
ATOM     24  C   UNL d   1       1.427  -9.119   3.200  0.00  0.00     0.001 A 
ATOM     25  C   UNL d   1       0.711  -8.660   2.094  0.00  0.00     0.017 A 
ENDBRANCH  16  20
ENDBRANCH   1  12
BRANCH   2  26
ATOM     26  C   UNL d   1      -1.484   1.594   1.995  0.00  0.00     0.432 C 
ATOM     27  F   UNL d   1      -1.375   2.932   1.762  0.00  0.00    -0.165 F 
ATOM     28  F   UNL d   1      -2.699   1.415   2.591  0.00  0.00    -0.165 F 
ATOM     29  F   UNL d   1      -0.563   1.315   2.966  0.00  0.00    -0.165 F 
ENDBRANCH   2  26
TORSDOF 3
