REMARK  9 active torsions:
REMARK  status: ('A' for Active; 'I' for Inactive)
REMARK    1  A    between atoms: C_2  and  C_1 
REMARK    2  A    between atoms: N_8  and  C_1 
REMARK    3  A    between atoms: C_3  and  C_9 
REMARK    4  A    between atoms: O_11  and  N_4 
REMARK    5  A    between atoms: C_6  and  O_14 
REMARK    6  A    between atoms: C_7  and  O_11 
REMARK       I    between atoms: N_10  and  C_7 
REMARK    7  A    between atoms: C_21  and  N_8 
REMARK    8  A    between atoms: C_17  and  N_10 
REMARK    9  A    between atoms: O_14  and  C_25 
ROOT
ATOM      1  C   UNL d   1       1.092  -0.225   0.149  0.00  0.00     0.140 C 
ATOM      2  N   UNL d   1       0.469   0.352   1.150  0.00  0.00    -0.239 N 
ATOM      3  HN  UNL d   1       0.919   0.756   1.971  1.00  0.00     0.196 HD
ENDROOT
BRANCH   1   4
ATOM      4  C   UNL d   1       2.593  -0.254   0.225  0.00  0.00     0.053 A 
ATOM      5  C   UNL d   1       3.319  -1.445   0.030  0.00  0.00     0.049 A 
ATOM      6 CL   UNL d   1       2.585  -3.012  -0.055  0.00  0.00    -0.083 Cl
ATOM      7  C   UNL d   1       4.718  -1.421  -0.044  0.00  0.00     0.025 A 
ATOM      8  C   UNL d   1       5.414  -0.232   0.151  0.00  0.00     0.003 A 
ATOM      9  C   UNL d   1       4.711   0.937   0.425  0.00  0.00     0.025 A 
ATOM     10  C   UNL d   1       3.309   0.936   0.449  0.00  0.00     0.049 A 
ATOM     11 CL   UNL d   1       2.556   2.473   0.718  0.00  0.00    -0.083 Cl
ENDBRANCH   1   4
BRANCH   1  12
ATOM     12  N   UNL d   1       0.405  -0.803  -0.911  0.00  0.00    -0.340 N 
ATOM     13  H   UNL d   1      -0.588  -0.937  -0.750  0.00  0.00     0.167 HD
BRANCH  12  14
ATOM     14  C   UNL d   1       0.856  -1.194  -2.183  0.00  0.00     0.033 A 
ATOM     15  C   UNL d   1       0.328  -2.360  -2.763  0.00  0.00     0.032 A 
ATOM     16  C   UNL d   1       0.886  -2.907  -3.927  0.00  0.00     0.039 A 
ATOM     17  C   UNL d   1       1.995  -2.307  -4.515  0.00  0.00     0.078 A 
ATOM     18  C   UNL d   1       2.464  -1.098  -4.002  0.00  0.00     0.039 A 
ATOM     19  C   UNL d   1       1.902  -0.551  -2.845  0.00  0.00     0.032 A 
BRANCH  17  20
ATOM     20  O   UNL d   1       2.623  -2.757  -5.635  0.00  0.00    -0.255 OA
BRANCH  20  21
ATOM     21  C   UNL d   1       2.919  -4.147  -5.727  0.00  0.00     0.530 C 
ATOM     22  F   UNL d   1       2.413  -4.898  -4.726  0.00  0.00    -0.144 F 
ATOM     23  F   UNL d   1       2.436  -4.616  -6.898  0.00  0.00    -0.144 F 
ATOM     24  F   UNL d   1       4.262  -4.309  -5.733  0.00  0.00    -0.144 F 
ENDBRANCH  20  21
ENDBRANCH  17  20
ENDBRANCH  12  14
ENDBRANCH   1  12
BRANCH   2  25
ATOM     25  O   UNL d   1      -0.922   0.326   0.909  0.00  0.00    -0.179 OA
BRANCH  25  26
ATOM     26  C   UNL d   1      -1.652   1.187   1.704  0.00  0.00     0.387 C 
ATOM     27  N   UNL d   1      -0.926   1.911   2.623  0.00  0.00    -0.301 N 
ATOM     28  H   UNL d   1       0.076   1.792   2.516  0.00  0.00     0.171 HD
ATOM     29  O   UNL d   1      -2.865   1.272   1.516  0.00  0.00    -0.236 OA
BRANCH  27  30
ATOM     30  C   UNL d   1      -1.434   2.818   3.577  0.00  0.00     0.037 A 
ATOM     31  C   UNL d   1      -2.802   2.922   3.869  0.00  0.00     0.045 A 
ATOM     32  C   UNL d   1      -3.291   3.858   4.798  0.00  0.00     0.050 A 
ATOM     33  C   UNL d   1      -2.383   4.698   5.449  0.00  0.00     0.016 A 
ATOM     34  C   UNL d   1      -1.017   4.588   5.190  0.00  0.00     0.003 A 
ATOM     35  C   UNL d   1      -0.547   3.650   4.266  0.00  0.00     0.029 A 
BRANCH  32  36
ATOM     36  C   UNL d   1      -4.772   3.965   5.069  0.00  0.00     0.417 C 
ATOM     37  F   UNL d   1      -5.522   3.019   4.439  0.00  0.00    -0.166 F 
ATOM     38  F   UNL d   1      -5.068   3.848   6.395  0.00  0.00    -0.166 F 
ATOM     39  F   UNL d   1      -5.285   5.167   4.681  0.00  0.00    -0.166 F 
ENDBRANCH  32  36
ENDBRANCH  27  30
ENDBRANCH  25  26
ENDBRANCH   2  25
TORSDOF 9
