REMARK  6 active torsions:
REMARK  status: ('A' for Active; 'I' for Inactive)
REMARK    1  A    between atoms: C_3  and  S_1 
REMARK    2  A    between atoms: N_12  and  S_1 
REMARK    3  A    between atoms: C_10  and  C_2 
REMARK    4  A    between atoms: C_8  and  C_11 
REMARK    5  A    between atoms: C_13  and  N_12 
REMARK    6  A    between atoms: N_16  and  C_17 
ROOT
ATOM      1  S   UNL d   1       0.233   0.003   0.030  0.00  0.00     0.269 S 
ATOM      2  O   UNL d   1      -0.220  -0.212  -1.330  0.00  0.00    -0.200 OA
ATOM      3  O   UNL d   1       1.577  -0.340   0.424  0.00  0.00    -0.200 OA
ENDROOT
BRANCH   1   4
ATOM      4  C   UNL d   1      -0.808  -1.042   1.029  0.00  0.00     0.121 A 
ATOM      5  S   UNL d   1      -2.504  -0.825   0.901  0.00  0.00    -0.074 SA
ATOM      6  C   UNL d   1      -2.814  -2.001   2.102  0.00  0.00     0.034 A 
ATOM      7  C   UNL d   1      -1.649  -2.596   2.543  0.00  0.00     0.023 A 
ATOM      8  C   UNL d   1      -0.494  -2.051   1.918  0.00  0.00     0.034 A 
BRANCH   6   9
ATOM      9  C   UNL d   1      -4.163  -2.345   2.664  0.00  0.00     0.067 A 
ATOM     10  C   UNL d   1      -5.433  -1.944   2.196  0.00  0.00     0.068 A 
ATOM     11  C   UNL d   1      -6.344  -2.466   3.099  0.00  0.00     0.136 A 
ATOM     12  N   UNL d   1      -5.590  -3.096   4.050  0.00  0.00    -0.292 N 
ATOM     13  N   UNL d   1      -4.275  -3.094   3.768  0.00  0.00    -0.297 N 
ATOM     14  C   UNL d   1      -6.016  -3.677   5.304  0.00  0.00     0.178 C 
ATOM     15  HN  UNL d   1      -3.528  -3.560   4.283  1.00  0.00     0.187 HD
BRANCH  11  16
ATOM     16  C   UNL d   1      -7.818  -2.390   3.137  0.00  0.00     0.434 C 
ATOM     17  F   UNL d   1      -8.365  -3.031   4.201  0.00  0.00    -0.165 F 
ATOM     18  F   UNL d   1      -8.245  -1.105   3.199  0.00  0.00    -0.165 F 
ATOM     19  F   UNL d   1      -8.373  -2.939   2.028  0.00  0.00    -0.165 F 
ENDBRANCH  11  16
ENDBRANCH   6   9
ENDBRANCH   1   4
BRANCH   1  20
ATOM     20  N   UNL d   1      -0.127   1.606   0.383  0.00  0.00    -0.278 N 
ATOM     21  H   UNL d   1      -0.148   2.155  -0.467  0.00  0.00     0.179 HD
BRANCH  20  22
ATOM     22  C   UNL d   1       0.499   2.248   1.496  0.00  0.00     0.069 A 
ATOM     23  C   UNL d   1       1.819   2.772   1.469  0.00  0.00     0.058 A 
ATOM     24  C   UNL d   1       2.233   3.458   2.634  0.00  0.00     0.031 A 
ATOM     25  C   UNL d   1       1.426   3.579   3.768  0.00  0.00     0.002 A 
ATOM     26  C   UNL d   1       0.160   3.011   3.780  0.00  0.00     0.002 A 
ATOM     27  C   UNL d   1      -0.301   2.355   2.643  0.00  0.00     0.032 A 
BRANCH  23  28
ATOM     28  N   UNL d   1       2.717   2.562   0.414  0.00  0.00    -0.375 N 
ATOM     29  C   UNL d   1       4.171   2.646   0.710  0.00  0.00     0.149 C 
ATOM     30  C   UNL d   1       4.968   1.897  -0.366  0.00  0.00     0.187 C 
ATOM     31  O   UNL d   1       4.688   2.419  -1.676  0.00  0.00    -0.388 OA
ATOM     32  C   UNL d   1       3.285   2.287  -1.962  0.00  0.00     0.187 C 
ATOM     33  C   UNL d   1       2.424   3.061  -0.942  0.00  0.00     0.149 C 
ENDBRANCH  23  28
ENDBRANCH  20  22
ENDBRANCH   1  20
TORSDOF 6
