REMARK  4 active torsions:
REMARK  status: ('A' for Active; 'I' for Inactive)
REMARK    1  A    between atoms: C_2  and  N_1 
REMARK    2  A    between atoms: C_10  and  N_3 
REMARK    3  A    between atoms: C_8  and  C_10 
REMARK    4  A    between atoms: O_16  and  C_9 
ROOT
ATOM      1  N   UNL d   1      -1.205   0.142   0.772  0.00  0.00    -0.375 N 
ATOM      2  N   UNL d   1       1.487   0.143  -0.468  0.00  0.00     0.095 N 
ATOM      3  C   UNL d   1      -0.645  -1.098   0.221  0.00  0.00     0.153 C 
ATOM      4  C   UNL d   1      -0.706   1.371   0.119  0.00  0.00     0.153 C 
ATOM      5  C   UNL d   1       0.903  -1.022   0.251  0.00  0.00     0.292 C 
ATOM      6  C   UNL d   1       0.849   1.371   0.078  0.00  0.00     0.292 C 
ENDROOT
BRANCH   2   7
ATOM      7  C   UNL d   1       1.238  -0.002  -1.905  0.00  0.00     0.311 C 
BRANCH   7   8
ATOM      8  C   UNL d   1       2.139   0.792  -2.824  0.00  0.00    -0.029 C 
ATOM      9  C   UNL d   1       1.565   1.689  -3.737  0.00  0.00     0.021 C 
ATOM     10  C   UNL d   1       2.263   2.082  -4.886  0.00  0.00    -0.025 A 
ATOM     11  C   UNL d   1       1.635   2.843  -5.883  0.00  0.00     0.012 A 
ATOM     12  C   UNL d   1       3.585   1.626  -5.085  0.00  0.00    -0.026 A 
ATOM     13  C   UNL d   1       2.270   3.076  -7.102  0.00  0.00     0.001 A 
ATOM     14  C   UNL d   1       3.552   2.581  -7.323  0.00  0.00     0.001 A 
ATOM     15  C   UNL d   1       4.218   1.886  -6.311  0.00  0.00     0.012 A 
ATOM     16  C   UNL d   1       4.211   0.877  -4.075  0.00  0.00     0.013 C 
ATOM     17  C   UNL d   1       3.492   0.459  -2.953  0.00  0.00     0.010 C 
ENDBRANCH   7   8
ENDBRANCH   2   7
BRANCH   1  18
ATOM     18  C   UNL d   1      -2.543   0.165   1.188  0.00  0.00     0.064 A 
ATOM     19  C   UNL d   1      -2.968   1.039   2.219  0.00  0.00     0.094 A 
ATOM     20  C   UNL d   1      -4.301   1.034   2.665  0.00  0.00     0.039 A 
ATOM     21  C   UNL d   1      -5.221   0.146   2.123  0.00  0.00     0.003 A 
ATOM     22  C   UNL d   1      -4.824  -0.729   1.116  0.00  0.00     0.002 A 
ATOM     23  C   UNL d   1      -3.496  -0.717   0.657  0.00  0.00     0.032 A 
BRANCH  19  24
ATOM     24  O   UNL d   1      -2.026   1.891   2.749  0.00  0.00    -0.354 OA
ATOM     25  C   UNL d   1      -2.138   2.140   4.144  0.00  0.00     0.210 C 
ENDBRANCH  19  24
ENDBRANCH   1  18
TORSDOF 4
