REMARK  5 active torsions:
REMARK  status: ('A' for Active; 'I' for Inactive)
REMARK    1  A    between atoms: N_2  and  C_1 
REMARK    2  A    between atoms: N_3  and  C_1 
REMARK    3  A    between atoms: C_4  and  N_2 
REMARK    4  A    between atoms: C_6  and  N_3 
REMARK    5  A    between atoms: O_14  and  C_11 
ROOT
ATOM      1  C   UNL d   1       1.173  -0.170  -0.540  0.00  0.00     0.172 C 
ATOM      2  S   UNL d   1       2.527  -0.006  -1.502  0.00  0.00    -0.041 SA
ENDROOT
BRANCH   1   3
ATOM      3  N   UNL d   1       0.752  -1.321   0.070  0.00  0.00    -0.362 N 
ATOM      4  H   UNL d   1      -0.211  -1.326   0.381  0.00  0.00     0.162 HD
BRANCH   3   5
ATOM      5  C   UNL d   1       1.565  -2.483   0.374  0.00  0.00     0.088 C 
ATOM      6  C   UNL d   1       0.941  -3.434   1.421  0.00  0.00     0.009 C 
ATOM      7  C   UNL d   1       1.920  -4.605   1.317  0.00  0.00     0.011 C 
ATOM      8  C   UNL d   1      -0.366  -4.078   0.907  0.00  0.00     0.007 C 
ATOM      9  C   UNL d   1       1.634  -4.831  -0.170  0.00  0.00    -0.012 C 
ATOM     10  C   UNL d   1       1.877  -3.438  -0.794  0.00  0.00     0.030 C 
ATOM     11  C   UNL d   1       0.122  -5.088  -0.142  0.00  0.00     0.005 C 
ENDBRANCH   3   5
ENDBRANCH   1   3
BRANCH   1  12
ATOM     12  N   UNL d   1       0.365   0.923  -0.370  0.00  0.00    -0.331 N 
ATOM     13  H   UNL d   1       0.550   1.687  -1.012  0.00  0.00     0.168 HD
BRANCH  12  14
ATOM     14  C   UNL d   1      -0.475   1.258   0.716  0.00  0.00     0.068 A 
ATOM     15  C   UNL d   1      -1.448   2.260   0.565  0.00  0.00     0.095 A 
ATOM     16  C   UNL d   1      -2.187   2.689   1.677  0.00  0.00     0.039 A 
ATOM     17  C   UNL d   1      -1.973   2.123   2.933  0.00  0.00     0.003 A 
ATOM     18  C   UNL d   1      -1.011   1.134   3.091  0.00  0.00     0.002 A 
ATOM     19  C   UNL d   1      -0.264   0.707   1.990  0.00  0.00     0.032 A 
BRANCH  15  20
ATOM     20  O   UNL d   1      -1.726   2.932  -0.598  0.00  0.00    -0.354 OA
ATOM     21  C   UNL d   1      -1.914   2.116  -1.754  0.00  0.00     0.210 C 
ENDBRANCH  15  20
ENDBRANCH  12  14
ENDBRANCH   1  12
TORSDOF 5
