REMARK  8 active torsions:
REMARK  status: ('A' for Active; 'I' for Inactive)
REMARK    1  A    between atoms: N_2  and  S_1 
REMARK    2  A    between atoms: C_9  and  S_1 
REMARK    3  A    between atoms: C_3  and  N_2 
REMARK       I    between atoms: C_4  and  N_12 
REMARK       I    between atoms: N_13  and  C_4 
REMARK    4  A    between atoms: N_12  and  C_20 
REMARK    5  A    between atoms: C_21  and  N_13 
REMARK    6  A    between atoms: O_22  and  C_23 
REMARK    7  A    between atoms: C_26  and  O_22 
REMARK    8  A    between atoms: C_31  and  C_26 
ROOT
ATOM      1  C   UNL d   1       1.809   1.334  -1.692  0.00  0.00     0.075 A 
ATOM      2  C   UNL d   1       1.749   2.727  -1.679  0.00  0.00     0.027 A 
ATOM      3  C   UNL d   1       0.978   0.600  -2.537  0.00  0.00     0.027 A 
ATOM      4  C   UNL d   1       0.031   2.660  -3.403  0.00  0.00     0.036 A 
ATOM      5  C   UNL d   1       0.083   1.265  -3.385  0.00  0.00     0.031 A 
ATOM      6  C   UNL d   1       0.853   3.385  -2.528  0.00  0.00     0.031 A 
ENDROOT
BRANCH   4   7
ATOM      7  N   UNL d   1      -0.764   3.400  -4.301  0.00  0.00    -0.309 N 
ATOM      8  C   UNL d   1      -1.555   2.929  -5.321  0.00  0.00     0.325 C 
ATOM      9  N   UNL d   1      -2.040   3.872  -6.198  0.00  0.00    -0.309 N 
ATOM     10  O   UNL d   1      -1.773   1.747  -5.582  0.00  0.00    -0.247 OA
ATOM     11  H   UNL d   1      -2.237   3.454  -7.100  0.00  0.00     0.170 HD
ATOM     12  H   UNL d   1      -0.598   4.394  -4.294  0.00  0.00     0.170 HD
BRANCH   9  13
ATOM     13  C   UNL d   1      -1.954   5.268  -6.123  0.00  0.00     0.036 A 
ATOM     14  C   UNL d   1      -1.574   5.967  -7.268  0.00  0.00     0.032 A 
ATOM     15  C   UNL d   1      -1.306   7.335  -7.187  0.00  0.00     0.039 A 
ATOM     16  C   UNL d   1      -1.458   8.008  -5.973  0.00  0.00     0.069 A 
ATOM     17  C   UNL d   1      -1.977   7.333  -4.869  0.00  0.00     0.039 A 
ATOM     18  C   UNL d   1      -2.221   5.963  -4.941  0.00  0.00     0.032 A 
BRANCH  16  19
ATOM     19  O   UNL d   1      -1.153   9.327  -5.775  0.00  0.00    -0.347 OA
BRANCH  19  20
ATOM     20  C   UNL d   1       0.017   9.765  -6.476  0.00  0.00     0.214 C 
BRANCH  20  21
ATOM     21  C   UNL d   1       0.433  11.151  -6.036  0.00  0.00    -0.034 A 
ATOM     22  C   UNL d   1       1.773  11.547  -6.169  0.00  0.00     0.009 A 
ATOM     23  C   UNL d   1       2.159  12.858  -5.884  0.00  0.00     0.001 A 
ATOM     24  C   UNL d   1       1.210  13.788  -5.465  0.00  0.00     0.000 A 
ATOM     25  C   UNL d   1      -0.121  13.405  -5.317  0.00  0.00     0.001 A 
ATOM     26  C   UNL d   1      -0.509  12.095  -5.604  0.00  0.00     0.009 A 
ENDBRANCH  20  21
ENDBRANCH  19  20
ENDBRANCH  16  19
ENDBRANCH   9  13
ENDBRANCH   4   7
BRANCH   1  27
ATOM     27  S   UNL d   1       3.070   0.499  -0.764  0.00  0.00     0.248 S 
ATOM     28  O   UNL d   1       3.324  -0.761  -1.438  0.00  0.00    -0.205 OA
ATOM     29  O   UNL d   1       4.154   1.435  -0.546  0.00  0.00    -0.205 OA
BRANCH  27  30
ATOM     30  N   UNL d   1       2.308   0.099   0.668  0.00  0.00    -0.151 NA
ATOM     31  H   UNL d   1       2.667  -0.793   0.992  0.00  0.00     0.149 HD
BRANCH  30  32
ATOM     32  C   UNL d   1       2.421   1.081   1.646  0.00  0.00     0.171 A 
ATOM     33  N   UNL d   1       1.493   2.040   1.667  0.00  0.00    -0.336 N 
ATOM     34  C   UNL d   1       1.665   2.989   2.608  0.00  0.00     0.009 A 
ATOM     35  HN  UNL d   1       0.709   2.054   1.015  1.00  0.00     0.168 HD
ATOM     36  C   UNL d   1       0.611   4.049   2.726  0.00  0.00     0.068 C 
ATOM     37  C   UNL d   1       2.769   3.013   3.443  0.00  0.00     0.049 A 
ATOM     38  C   UNL d   1       3.686   1.986   3.294  0.00  0.00     0.009 A 
ATOM     39  N   UNL d   1       3.500   0.980   2.421  0.00  0.00    -0.336 N 
ATOM     40  C   UNL d   1       4.949   1.973   4.100  0.00  0.00     0.068 C 
ATOM     41  HN  UNL d   1       4.143   0.191   2.357  1.00  0.00     0.168 HD
ENDBRANCH  30  32
ENDBRANCH  27  30
ENDBRANCH   1  27
TORSDOF 8
