REMARK  6 active torsions:
REMARK  status: ('A' for Active; 'I' for Inactive)
REMARK    1  A    between atoms: C_9  and  C_1 
REMARK    2  A    between atoms: C_2  and  C_10 
REMARK    3  A    between atoms: C_3  and  O_14 
REMARK    4  A    between atoms: C_21  and  N_4 
REMARK    5  A    between atoms: O_14  and  C_9 
REMARK       I    between atoms: C_10  and  N_20 
REMARK    6  A    between atoms: N_20  and  C_28 
ROOT
ATOM      1  C   UNL d   1       3.848  -2.259   0.007  0.00  0.00     0.175 A 
ATOM      2  N   UNL d   1       4.242  -3.408   0.699  0.00  0.00    -0.234 N 
ATOM      3  N   UNL d   1       3.610  -4.520   0.235  0.00  0.00    -0.296 N 
ATOM      4  HN  UNL d   1       3.774  -5.488   0.509  1.00  0.00     0.187 HD
ATOM      5  C   UNL d   1       2.889  -2.688  -0.890  0.00  0.00     0.084 A 
ATOM      6  C   UNL d   1       2.727  -4.066  -0.656  0.00  0.00     0.026 A 
ATOM      7  C   UNL d   1       1.731  -4.981  -1.262  0.00  0.00     0.070 C 
ENDROOT
BRANCH   2   8
ATOM      8  C   UNL d   1       5.191  -3.521   1.753  0.00  0.00     0.059 A 
ATOM      9  C   UNL d   1       5.454  -2.449   2.606  0.00  0.00     0.034 A 
ATOM     10  C   UNL d   1       6.504  -2.523   3.527  0.00  0.00     0.032 A 
ATOM     11  C   UNL d   1       7.300  -3.668   3.612  0.00  0.00     0.035 A 
ATOM     12  C   UNL d   1       6.964  -4.777   2.833  0.00  0.00     0.032 A 
ATOM     13  C   UNL d   1       5.904  -4.713   1.916  0.00  0.00     0.034 A 
BRANCH  11  14
ATOM     14  N   UNL d   1       8.444  -3.584   4.433  0.00  0.00    -0.322 N 
ATOM     15  C   UNL d   1       9.446  -4.533   4.595  0.00  0.00     0.264 C 
ATOM     16  O   UNL d   1       9.343  -5.689   4.200  0.00  0.00    -0.267 OA
ATOM     17  H   UNL d   1       8.621  -2.684   4.860  0.00  0.00     0.169 HD
BRANCH  15  18
ATOM     18  C   UNL d   1      10.661  -4.042   5.251  0.00  0.00     0.096 A 
ATOM     19  S   UNL d   1      10.844  -2.388   5.668  0.00  0.00    -0.082 SA
ATOM     20  C   UNL d   1      12.466  -2.596   6.191  0.00  0.00     0.017 A 
ATOM     21  C   UNL d   1      13.343  -1.591   6.648  0.00  0.00     0.020 A 
ATOM     22  C   UNL d   1      12.858  -3.932   6.112  0.00  0.00     0.004 A 
ATOM     23  C   UNL d   1      14.642  -1.942   7.021  0.00  0.00     0.001 A 
ATOM     24  C   UNL d   1      15.057  -3.264   6.965  0.00  0.00     0.001 A 
ATOM     25  C   UNL d   1      14.179  -4.257   6.524  0.00  0.00     0.014 A 
ATOM     26  C   UNL d   1      11.800  -4.755   5.583  0.00  0.00     0.068 A 
ATOM     27 CL   UNL d   1      12.023  -6.450   5.372  0.00  0.00    -0.082 Cl
ENDBRANCH  15  18
ENDBRANCH  11  14
ENDBRANCH   2   8
BRANCH   1  28
ATOM     28  O   UNL d   1       4.415  -1.078   0.243  0.00  0.00    -0.255 OA
BRANCH  28  29
ATOM     29  C   UNL d   1       3.861   0.074  -0.206  0.00  0.00     0.308 C 
ATOM     30  O   UNL d   1       2.820   0.151  -0.857  0.00  0.00    -0.258 OA
BRANCH  29  31
ATOM     31  C   UNL d   1       4.610   1.232   0.270  0.00  0.00     0.103 C 
ATOM     32  S   UNL d   1       3.898   2.777   0.027  0.00  0.00    -0.082 SA
ATOM     33  C   UNL d   1       5.147   3.597   0.864  0.00  0.00     0.018 A 
ATOM     34  C   UNL d   1       5.251   4.986   1.074  0.00  0.00     0.020 A 
ATOM     35  C   UNL d   1       6.104   2.707   1.350  0.00  0.00     0.004 A 
ATOM     36  C   UNL d   1       6.311   5.480   1.835  0.00  0.00     0.001 A 
ATOM     37  C   UNL d   1       7.242   4.614   2.387  0.00  0.00     0.001 A 
ATOM     38  C   UNL d   1       7.156   3.241   2.142  0.00  0.00     0.014 A 
ATOM     39  C   UNL d   1       5.836   1.363   0.897  0.00  0.00     0.068 C 
ATOM     40 CL   UNL d   1       7.000   0.124   1.151  0.00  0.00    -0.082 Cl
ENDBRANCH  29  31
ENDBRANCH  28  29
ENDBRANCH   1  28
TORSDOF 6
