REMARK  2 active torsions:
REMARK  status: ('A' for Active; 'I' for Inactive)
REMARK    1  A    between atoms: C_12  and  C_3 
REMARK    2  A    between atoms: N_8  and  C_13 
ROOT
ATOM      1  N   UNL d   1       0.578   0.759   0.003  0.00  0.00    -0.304 N 
ATOM      2  C   UNL d   1      -0.131  -0.416  -0.015  0.00  0.00     0.123 A 
ATOM      3  C   UNL d   1      -0.080   2.064  -0.000  0.00  0.00     0.225 C 
ATOM      4  N   UNL d   1       0.684  -1.452  -0.040  0.00  0.00    -0.340 N 
ATOM      5  HN  UNL d   1       0.428  -2.438  -0.085  1.00  0.00     0.167 HD
ATOM      6  N   UNL d   1      -1.540   2.055   0.186  0.00  0.00    -0.364 N 
ATOM      7  C   UNL d   1      -1.586  -0.398  -0.005  0.00  0.00     0.035 A 
ATOM      8  C   UNL d   1       1.917   0.470   0.048  0.00  0.00     0.065 A 
ATOM      9  C   UNL d   1      -2.243   0.850   0.045  0.00  0.00     0.043 A 
ATOM     10  C   UNL d   1       1.951  -0.922   0.007  0.00  0.00     0.061 A 
ATOM     11  C   UNL d   1      -2.321  -1.589  -0.036  0.00  0.00     0.017 A 
ATOM     12  C   UNL d   1       3.073   1.257   0.110  0.00  0.00     0.032 A 
ATOM     13  C   UNL d   1      -3.642   0.862   0.110  0.00  0.00     0.030 A 
ATOM     14  C   UNL d   1       3.191  -1.579   0.023  0.00  0.00     0.032 A 
ATOM     15  C   UNL d   1      -3.713  -1.554   0.013  0.00  0.00     0.001 A 
ATOM     16  C   UNL d   1       4.299   0.582   0.127  0.00  0.00     0.002 A 
ATOM     17  C   UNL d   1       4.360  -0.811   0.084  0.00  0.00     0.002 A 
ATOM     18  C   UNL d   1      -4.373  -0.330   0.089  0.00  0.00     0.002 A 
ATOM     19  H   UNL d   1      -2.022   2.866  -0.188  0.00  0.00     0.162 HD
ENDROOT
BRANCH   3  20
ATOM     20  C   UNL d   1       0.257   2.843  -1.270  0.00  0.00    -0.013 A 
ATOM     21  C   UNL d   1       0.908   4.088  -1.190  0.00  0.00     0.047 A 
ATOM     22  C   UNL d   1       1.195   4.808  -2.361  0.00  0.00     0.103 A 
ATOM     23  C   UNL d   1       0.833   4.306  -3.616  0.00  0.00     0.036 A 
ATOM     24  C   UNL d   1       0.192   3.070  -3.699  0.00  0.00     0.003 A 
ATOM     25  C   UNL d   1      -0.091   2.346  -2.539  0.00  0.00     0.011 A 
BRANCH  22  26
ATOM     26  N   UNL d   1       1.879   6.106  -2.269  0.00  0.00    -0.116 N 
ATOM     27  O   UNL d   1       2.194   6.509  -1.139  0.00  0.00    -0.532 OA
ATOM     28  O   UNL d   1       2.095   6.721  -3.321  0.00  0.00    -0.532 OA
ENDBRANCH  22  26
ENDBRANCH   3  20
TORSDOF 2
