REMARK  1 active torsions:
REMARK  status: ('A' for Active; 'I' for Inactive)
REMARK       I    between atoms: C_3  and  N_4 
REMARK    1  A    between atoms: N_4  and  C_5 
ROOT
ATOM      1  C   UNL d   1      -1.428  -0.181  -0.025  0.00  0.00     0.053 A 
ATOM      2  C   UNL d   1      -0.897   1.116  -0.042  0.00  0.00     0.054 A 
ATOM      3  C   UNL d   1       0.485   1.322  -0.063  0.00  0.00     0.036 A 
ATOM      4  C   UNL d   1      -0.573  -1.286  -0.026  0.00  0.00     0.032 A 
ATOM      5  C   UNL d   1       0.809  -1.089  -0.035  0.00  0.00     0.023 A 
ATOM      6 CL   UNL d   1      -3.150  -0.339  -0.009  0.00  0.00    -0.083 Cl
ATOM      7  C   UNL d   1       1.333   0.208  -0.052  0.00  0.00     0.031 A 
ATOM      8 BR   UNL d   1      -1.203  -3.077  -0.022  0.00  0.00    -0.049 Br
ENDROOT
BRANCH   3   9
ATOM      9  N   UNL d   1       1.092   2.597  -0.107  0.00  0.00    -0.327 N 
ATOM     10  C   UNL d   1       0.459   3.825  -0.152  0.00  0.00     0.218 C 
ATOM     11  O   UNL d   1      -0.750   4.026  -0.134  0.00  0.00    -0.274 OA
ATOM     12  C   UNL d   1       1.416   4.989  -0.233  0.00  0.00     0.117 C 
ATOM     13  H   UNL d   1       2.105   2.604  -0.123  0.00  0.00     0.169 HD
ENDBRANCH   3   9
TORSDOF 1
