REMARK  2 active torsions:
REMARK  status: ('A' for Active; 'I' for Inactive)
REMARK    1  A    between atoms: C_8  and  N_7 
REMARK    2  A    between atoms: O_14  and  C_9 
ROOT
ATOM      1  C   UNL d   1       2.323  -2.764   0.003  0.00  0.00     0.034 A 
ATOM      2  C   UNL d   1       2.452  -5.585  -0.114  0.00  0.00     0.068 A 
ATOM      3  C   UNL d   1       1.721  -3.476  -1.041  0.00  0.00     0.032 A 
ATOM      4  C   UNL d   1       3.003  -3.494   0.987  0.00  0.00     0.032 A 
ATOM      5  C   UNL d   1       3.073  -4.891   0.923  0.00  0.00     0.039 A 
ATOM      6  C   UNL d   1       1.792  -4.872  -1.108  0.00  0.00     0.039 A 
ENDROOT
BRANCH   1   7
ATOM      7  N   UNL d   1       2.200  -1.369   0.150  0.00  0.00    -0.335 N 
ATOM      8  C   UNL d   1       1.169  -0.603  -0.288  0.00  0.00     0.175 A 
ATOM      9  N   UNL d   1       0.060  -0.988  -0.893  0.00  0.00    -0.265 N 
ATOM     10  S   UNL d   1       1.147   1.119  -0.042  0.00  0.00     0.035 SA
ATOM     11  N   UNL d   1      -0.795   0.071  -1.167  0.00  0.00    -0.017 NA
ATOM     12  HN  UNL d   1      -0.146  -1.957  -1.134  1.00  0.00     0.186 HD
ATOM     13  N   UNL d   1      -0.354   1.256  -0.774  0.00  0.00    -0.044 NA
ATOM     14  H   UNL d   1       2.920  -0.937   0.712  0.00  0.00     0.168 HD
ENDBRANCH   1   7
BRANCH   2  15
ATOM     15  O   UNL d   1       2.578  -6.946  -0.072  0.00  0.00    -0.356 OA
ATOM     16  C   UNL d   1       1.525  -7.673  -0.699  0.00  0.00     0.210 C 
ENDBRANCH   2  15
TORSDOF 2
