REMARK  3 active torsions:
REMARK  status: ('A' for Active; 'I' for Inactive)
REMARK    1  A    between atoms: C_2  and  C_1 
REMARK    2  A    between atoms: C_4  and  C_2 
REMARK    3  A    between atoms: O_8  and  C_4 
ROOT
ATOM      1  C   UNL d   1       1.327   1.294  -0.432  0.00  0.00     0.263 C 
ATOM      2  C   UNL d   1      -0.016   0.636  -0.172  0.00  0.00    -0.018 A 
ATOM      3  N   UNL d   1       2.441   0.616   0.265  0.00  0.00     0.093 N 
ATOM      4  C   UNL d   1      -0.100  -0.767  -0.181  0.00  0.00    -0.048 A 
ATOM      5  C   UNL d   1       2.271  -0.829   0.497  0.00  0.00     0.275 C 
ATOM      6  C   UNL d   1      -1.179   1.395   0.010  0.00  0.00     0.010 A 
ATOM      7  C   UNL d   1       1.184  -1.537  -0.321  0.00  0.00     0.069 C 
ATOM      8  C   UNL d   1      -1.339  -1.398  -0.048  0.00  0.00     0.008 A 
ATOM      9  C   UNL d   1      -2.410   0.759   0.164  0.00  0.00     0.001 A 
ATOM     10  C   UNL d   1      -2.491  -0.633   0.128  0.00  0.00     0.001 A 
ATOM     11  H   UNL d   1       2.564   1.062   1.175  0.00  0.00     0.316 HD
ENDROOT
BRANCH   1  12
ATOM     12  C   UNL d   1       1.652   1.370  -1.930  0.00  0.00     0.150 C 
BRANCH  12  13
ATOM     13  C   UNL d   1       0.645   2.201  -2.679  0.00  0.00     0.141 C 
ATOM     14  O   UNL d   1       0.738   3.412  -2.827  0.00  0.00    -0.650 OA
BRANCH  13  15
ATOM     15  O   UNL d   1      -0.393   1.493  -3.176  0.00  0.00    -0.776 OA
ATOM     16  H   UNL d   1      -0.410   0.559  -2.885  0.00  0.00     0.167 HD
ENDBRANCH  13  15
ENDBRANCH  12  13
ENDBRANCH   1  12
TORSDOF 3
