REMARK  7 active torsions:
REMARK  status: ('A' for Active; 'I' for Inactive)
REMARK    1  A    between atoms: C_2  and  C_1 
REMARK    2  A    between atoms: O_5  and  C_2 
REMARK    3  A    between atoms: N_4  and  C_3 
REMARK    4  A    between atoms: C_11  and  N_4 
REMARK    5  A    between atoms: C_8  and  O_5 
REMARK    6  A    between atoms: C_6  and  C_8 
REMARK    7  A    between atoms: C_10  and  C_6 
ROOT
ATOM      1  C   UNL d   1       1.221  -0.125  -0.191  0.00  0.00     0.066 A 
ATOM      2  C   UNL d   1       0.441  -1.290  -0.049  0.00  0.00     0.049 A 
ATOM      3  C   UNL d   1       0.603   1.140  -0.226  0.00  0.00     0.020 A 
ATOM      4  C   UNL d   1      -0.954  -1.142   0.056  0.00  0.00     0.030 A 
ATOM      5  C   UNL d   1      -0.780   1.256  -0.106  0.00  0.00     0.001 A 
ATOM      6  C   UNL d   1      -1.558   0.113   0.041  0.00  0.00     0.002 A 
ENDROOT
BRANCH   1   7
ATOM      7  C   UNL d   1       2.702  -0.210  -0.253  0.00  0.00     0.296 C 
ATOM      8  O   UNL d   1       3.351  -1.147  -0.686  0.00  0.00    -0.259 OA
BRANCH   7   9
ATOM      9  O   UNL d   1       3.219   0.858   0.415  0.00  0.00    -0.310 OA
BRANCH   9  10
ATOM     10  C   UNL d   1       4.499   0.595   0.994  0.00  0.00     0.263 C 
BRANCH  10  11
ATOM     11  C   UNL d   1       4.340  -0.305   2.220  0.00  0.00     0.183 C 
ATOM     12  O   UNL d   1       3.247  -0.748   2.579  0.00  0.00    -0.290 OA
BRANCH  11  13
ATOM     13  C   UNL d   1       5.550  -0.646   3.017  0.00  0.00     0.012 A 
ATOM     14  C   UNL d   1       6.838  -0.256   2.632  0.00  0.00     0.015 A 
ATOM     15  C   UNL d   1       7.938  -0.608   3.418  0.00  0.00     0.001 A 
ATOM     16  C   UNL d   1       7.758  -1.347   4.586  0.00  0.00     0.000 A 
ATOM     17  C   UNL d   1       6.479  -1.736   4.976  0.00  0.00     0.001 A 
ATOM     18  C   UNL d   1       5.378  -1.388   4.195  0.00  0.00     0.015 A 
ENDBRANCH  11  13
ENDBRANCH  10  11
ENDBRANCH   9  10
ENDBRANCH   7   9
ENDBRANCH   1   7
BRANCH   2  19
ATOM     19  N   UNL d   1       1.010  -2.583  -0.015  0.00  0.00    -0.355 N 
ATOM     20  H   UNL d   1       1.829  -2.653   0.586  0.00  0.00     0.166 HD
BRANCH  19  21
ATOM     21  C   UNL d   1       0.445  -3.799  -0.432  0.00  0.00     0.032 A 
ATOM     22  C   UNL d   1      -0.371  -3.862  -1.575  0.00  0.00     0.032 A 
ATOM     23  C   UNL d   1      -1.027  -5.039  -1.927  0.00  0.00     0.044 A 
ATOM     24  C   UNL d   1      -0.872  -6.166  -1.130  0.00  0.00     0.116 A 
ATOM     25  C   UNL d   1      -0.056  -6.135  -0.006  0.00  0.00     0.044 A 
ATOM     26  F   UNL d   1      -1.521  -7.291  -1.449  0.00  0.00    -0.206 F 
ATOM     27  C   UNL d   1       0.603  -4.955   0.342  0.00  0.00     0.032 A 
ENDBRANCH  19  21
ENDBRANCH   2  19
TORSDOF 7
