REMARK  4 active torsions:
REMARK  status: ('A' for Active; 'I' for Inactive)
REMARK    1  A    between atoms: C_3  and  C_1 
REMARK    2  A    between atoms: N_20  and  C_2 
REMARK    3  A    between atoms: C_10  and  C_8 
REMARK    4  A    between atoms: O_24  and  C_22 
ROOT
ATOM      1  C   UNL d   1       0.504   0.867  -3.443  0.00  0.00     0.155 A 
ATOM      2  C   UNL d   1       0.200  -0.015  -1.349  0.00  0.00     0.121 A 
ATOM      3  N   UNL d   1       0.477   1.060  -2.127  0.00  0.00    -0.329 N 
ATOM      4  HN  UNL d   1       0.656   1.978  -1.721  1.00  0.00     0.168 HD
ATOM      5  N   UNL d   1       0.237  -0.290  -4.046  0.00  0.00    -0.332 N 
ATOM      6  HN  UNL d   1       0.253  -0.368  -5.063  1.00  0.00     0.168 HD
ATOM      7  C   UNL d   1      -0.054  -1.357  -3.271  0.00  0.00     0.046 A 
ATOM      8  C   UNL d   1      -0.072  -1.258  -1.894  0.00  0.00     0.064 A 
ENDROOT
BRANCH   7   9
ATOM      9  C   UNL d   1      -0.352  -2.611  -3.995  0.00  0.00    -0.009 A 
ATOM     10  C   UNL d   1       0.247  -2.878  -5.242  0.00  0.00     0.026 A 
ATOM     11  C   UNL d   1      -0.037  -4.044  -5.976  0.00  0.00    -0.025 A 
ATOM     12  C   UNL d   1       0.559  -4.292  -7.222  0.00  0.00     0.015 A 
ATOM     13  C   UNL d   1      -0.949  -4.983  -5.455  0.00  0.00    -0.023 A 
ATOM     14  C   UNL d   1       0.248  -5.444  -7.952  0.00  0.00     0.037 A 
ATOM     15  C   UNL d   1      -0.662  -6.368  -7.445  0.00  0.00     0.069 A 
ATOM     16  C   UNL d   1      -1.250  -6.136  -6.198  0.00  0.00     0.049 A 
ATOM     17  C   UNL d   1      -1.542  -4.737  -4.209  0.00  0.00     0.013 A 
ATOM     18  C   UNL d   1      -1.250  -3.569  -3.495  0.00  0.00     0.014 A 
BRANCH  15  19
ATOM     19  O   UNL d   1      -1.064  -7.522  -8.060  0.00  0.00    -0.356 OA
ATOM     20  C   UNL d   1      -0.516  -7.790  -9.344  0.00  0.00     0.210 C 
ENDBRANCH  15  19
ENDBRANCH   7   9
BRANCH   1  21
ATOM     21  N   UNL d   1       0.788   1.953  -4.241  0.00  0.00    -0.274 NA
ATOM     22  H   UNL d   1       0.562   2.811  -3.757  0.00  0.00     0.127 HD
ATOM     23  H   UNL d   1       0.393   1.821  -5.161  0.00  0.00     0.127 HD
ENDBRANCH   1  21
BRANCH   2  24
ATOM     24  C   UNL d   1       0.184   0.140   0.161  0.00  0.00     0.432 C 
ATOM     25  F   UNL d   1       0.475   1.394   0.604  0.00  0.00    -0.165 F 
ATOM     26  F   UNL d   1       1.075  -0.691   0.777  0.00  0.00    -0.165 F 
ATOM     27  F   UNL d   1      -1.032  -0.172   0.698  0.00  0.00    -0.165 F 
ENDBRANCH   2  24
TORSDOF 4
