REMARK  4 active torsions:
REMARK  status: ('A' for Active; 'I' for Inactive)
REMARK    1  A    between atoms: C_2  and  C_1 
REMARK       I    between atoms: N_5  and  C_2 
REMARK    2  A    between atoms: N_7  and  N_5 
REMARK    3  A    between atoms: C_10  and  N_7 
REMARK    4  A    between atoms: C_13  and  C_11 
ROOT
ATOM      1  C   UNL d   1       1.875   1.033  -1.161  0.00  0.00     0.274 C 
ATOM      2  N   UNL d   1       2.260   2.372  -1.161  0.00  0.00    -0.282 N 
ATOM      3  O   UNL d   1       1.565   0.551  -2.251  0.00  0.00    -0.266 OA
ATOM      4  H   UNL d   1       2.043   2.865  -2.023  0.00  0.00     0.184 HD
ENDROOT
BRANCH   2   5
ATOM      5  N   UNL d   1       2.287   3.193  -0.010  0.00  0.00    -0.203 NA
ATOM      6  H   UNL d   1       2.456   2.638   0.836  0.00  0.00     0.153 HD
BRANCH   5   7
ATOM      7  C   UNL d   1       3.331   4.167  -0.038  0.00  0.00     0.034 A 
ATOM      8  C   UNL d   1       3.268   5.267   0.849  0.00  0.00    -0.036 A 
ATOM      9  C   UNL d   1       4.352   6.162   0.917  0.00  0.00     0.009 A 
ATOM     10  C   UNL d   1       5.484   5.982   0.125  0.00  0.00     0.001 A 
ATOM     11  C   UNL d   1       5.553   4.900  -0.743  0.00  0.00     0.002 A 
ATOM     12  C   UNL d   1       4.494   3.996  -0.815  0.00  0.00     0.026 A 
BRANCH   8  13
ATOM     13  C   UNL d   1       2.058   5.544   1.716  0.00  0.00     0.036 C 
ATOM     14  C   UNL d   1       2.206   5.021   3.137  0.00  0.00     0.010 C 
ENDBRANCH   8  13
ENDBRANCH   5   7
ENDBRANCH   2   5
BRANCH   1  15
ATOM     15  C   UNL d   1       1.832   0.266   0.080  0.00  0.00     0.095 A 
ATOM     16  C   UNL d   1       1.000  -0.799   0.380  0.00  0.00     0.057 A 
ATOM     17  C   UNL d   1       1.203  -1.303   1.698  0.00  0.00     0.032 A 
ATOM     18 CL   UNL d   1      -0.209  -1.472  -0.633  0.00  0.00    -0.083 Cl
ATOM     19  C   UNL d   1       2.206  -0.635   2.360  0.00  0.00     0.052 A 
ATOM     20  S   UNL d   1       2.944   0.536   1.366  0.00  0.00    -0.095 SA
ENDBRANCH   1  15
TORSDOF 4
