REMARK  1 active torsions:
REMARK  status: ('A' for Active; 'I' for Inactive)
REMARK    1  A    between atoms: C_8  and  C_3 
ROOT
ATOM      1  N   UNL d   1       1.438  -0.511  -0.157  0.00  0.00    -0.320 N 
ATOM      2  HN  UNL d   1       2.369  -0.866  -0.376  1.00  0.00     0.169 HD
ATOM      3  C   UNL d   1       1.119   0.824   0.075  0.00  0.00     0.131 A 
ATOM      4  N   UNL d   1      -0.145   1.146   0.374  0.00  0.00    -0.308 N 
ATOM      5  HN  UNL d   1      -0.502   2.077   0.594  1.00  0.00     0.176 HD
ATOM      6  C   UNL d   1       0.353  -1.245  -0.051  0.00  0.00     0.162 A 
ATOM      7  S   UNL d   1      -1.024  -0.269   0.318  0.00  0.00     0.024 SA
ATOM      8  N   UNL d   1       0.275  -2.583  -0.211  0.00  0.00    -0.374 N 
ATOM      9  C   UNL d   1       1.459  -3.391  -0.009  0.00  0.00     0.148 C 
ATOM     10  H   UNL d   1      -0.597  -3.036   0.039  0.00  0.00     0.161 HD
ENDROOT
BRANCH   3  11
ATOM     11  C   UNL d   1       2.186   1.883  -0.005  0.00  0.00     0.049 A 
ATOM     12  S   UNL d   1       3.796   1.570  -0.486  0.00  0.00    -0.098 SA
ATOM     13  C   UNL d   1       4.236   3.214  -0.307  0.00  0.00     0.050 A 
ATOM     14  C   UNL d   1       3.181   3.986   0.128  0.00  0.00     0.009 A 
ATOM     15  C   UNL d   1       1.992   3.216   0.295  0.00  0.00     0.023 A 
ENDBRANCH   3  11
TORSDOF 1
