REMARK  6 active torsions:
REMARK  status: ('A' for Active; 'I' for Inactive)
REMARK    1  A    between atoms: C_9  and  C_1 
REMARK    2  A    between atoms: C_3  and  N_2 
REMARK    3  A    between atoms: C_13  and  C_4 
REMARK    4  A    between atoms: C_17  and  C_11 
REMARK    5  A    between atoms: O_25  and  C_13 
REMARK    6  A    between atoms: C_28  and  O_25 
ROOT
ATOM      1  N   UNL d   1       9.525   3.974  -4.079  0.00  0.00    -0.191 NA
ATOM      2  C   UNL d   1       8.578   3.728  -3.458  0.00  0.00     0.099 C 
ATOM      3  C   UNL d   1       5.053   2.921  -1.210  0.00  0.00    -0.009 A 
ATOM      4  C   UNL d   1       5.304   2.243  -2.410  0.00  0.00     0.015 A 
ATOM      5  C   UNL d   1       6.010   3.836  -0.742  0.00  0.00     0.015 A 
ATOM      6  C   UNL d   1       7.400   3.437  -2.688  0.00  0.00     0.044 A 
ATOM      7  C   UNL d   1       7.173   4.096  -1.477  0.00  0.00     0.023 A 
ATOM      8  C   UNL d   1       6.466   2.505  -3.149  0.00  0.00     0.023 A 
ENDROOT
BRANCH   3   9
ATOM      9  C   UNL d   1       3.788   2.715  -0.509  0.00  0.00     0.051 A 
ATOM     10  N   UNL d   1       3.095   1.506  -0.551  0.00  0.00    -0.334 N 
ATOM     11  C   UNL d   1       1.948   1.644   0.086  0.00  0.00     0.171 A 
ATOM     12  HN  UNL d   1       3.422   0.651  -1.002  1.00  0.00     0.168 HD
ATOM     13  S   UNL d   1       1.628   3.187   0.751  0.00  0.00    -0.062 SA
ATOM     14  C   UNL d   1       3.147   3.727   0.182  0.00  0.00     0.083 A 
BRANCH  11  15
ATOM     15  N   UNL d   1       0.981   0.633   0.223  0.00  0.00    -0.228 N 
ATOM     16  C   UNL d   1       1.059  -0.734   0.062  0.00  0.00     0.160 C 
ATOM     17  C   UNL d   1      -0.247  -1.208   0.004  0.00  0.00     0.090 C 
ATOM     18  C   UNL d   1      -1.035  -0.080   0.278  0.00  0.00     0.127 C 
ATOM     19  N   UNL d   1      -0.306   1.013   0.483  0.00  0.00    -0.302 N 
ATOM     20  HN  UNL d   1      -0.635   1.934   0.772  1.00  0.00     0.186 HD
BRANCH  16  21
ATOM     21  C   UNL d   1       2.333  -1.467   0.011  0.00  0.00     0.435 C 
ATOM     22  F   UNL d   1       3.386  -0.786   0.518  0.00  0.00    -0.165 F 
ATOM     23  F   UNL d   1       2.262  -2.600   0.760  0.00  0.00    -0.165 F 
ATOM     24  F   UNL d   1       2.652  -1.842  -1.250  0.00  0.00    -0.165 F 
ENDBRANCH  16  21
BRANCH  17  25
ATOM     25  C   UNL d   1      -0.684  -2.562  -0.272  0.00  0.00     0.297 C 
ATOM     26  O   UNL d   1       0.084  -3.473  -0.543  0.00  0.00    -0.259 OA
BRANCH  25  27
ATOM     27  O   UNL d   1      -2.043  -2.668  -0.257  0.00  0.00    -0.318 OA
BRANCH  27  28
ATOM     28  C   UNL d   1      -2.577  -3.921  -0.708  0.00  0.00     0.174 C 
ATOM     29  C   UNL d   1      -2.696  -3.902  -2.221  0.00  0.00     0.034 C 
ENDBRANCH  27  28
ENDBRANCH  25  27
ENDBRANCH  17  25
ENDBRANCH  11  15
ENDBRANCH   3   9
TORSDOF 6
