REMARK  5 active torsions:
REMARK  status: ('A' for Active; 'I' for Inactive)
REMARK    1  A    between atoms: C_2  and  C_1 
REMARK       I    between atoms: N_10  and  C_1 
REMARK    2  A    between atoms: C_3  and  C_6 
REMARK    3  A    between atoms: C_4  and  C_8 
REMARK    4  A    between atoms: C_5  and  C_9 
REMARK    5  A    between atoms: C_6  and  C_7 
ROOT
ATOM      1  C   UNL d   1       1.618   2.656   0.605  0.00  0.00     0.193 C 
ATOM      2  O   UNL d   1       1.841   2.464  -0.585  0.00  0.00    -0.287 OA
ENDROOT
BRANCH   1   3
ATOM      3  C   UNL d   1       2.473   3.602   1.395  0.00  0.00     0.016 A 
ATOM      4  C   UNL d   1       3.191   4.593   0.710  0.00  0.00     0.031 A 
ATOM      5  C   UNL d   1       3.910   5.574   1.412  0.00  0.00     0.049 A 
ATOM      6  C   UNL d   1       3.902   5.548   2.818  0.00  0.00     0.032 A 
ATOM      7  C   UNL d   1       3.210   4.550   3.522  0.00  0.00     0.049 A 
ATOM      8  C   UNL d   1       2.518   3.566   2.798  0.00  0.00     0.031 A 
BRANCH   5   9
ATOM      9  C   UNL d   1       4.658   6.671   0.690  0.00  0.00     0.417 C 
ATOM     10  F   UNL d   1       4.601   6.577  -0.666  0.00  0.00    -0.166 F 
ATOM     11  F   UNL d   1       4.173   7.906   1.000  0.00  0.00    -0.166 F 
ATOM     12  F   UNL d   1       5.979   6.698   1.014  0.00  0.00    -0.166 F 
ENDBRANCH   5   9
BRANCH   7  13
ATOM     13  C   UNL d   1       3.185   4.574   5.034  0.00  0.00     0.417 C 
ATOM     14  F   UNL d   1       2.452   3.566   5.581  0.00  0.00    -0.166 F 
ATOM     15  F   UNL d   1       4.426   4.482   5.581  0.00  0.00    -0.166 F 
ATOM     16  F   UNL d   1       2.646   5.729   5.517  0.00  0.00    -0.166 F 
ENDBRANCH   7  13
ENDBRANCH   1   3
BRANCH   1  17
ATOM     17  C   UNL d   1       0.414   2.046   1.224  0.00  0.00     0.030 A 
ATOM     18  C   UNL d   1       0.108   0.686   1.100  0.00  0.00     0.046 A 
ATOM     19  C   UNL d   1      -0.989   0.155   1.801  0.00  0.00     0.018 A 
ATOM     20  C   UNL d   1      -1.831   0.990   2.536  0.00  0.00     0.001 A 
ATOM     21  C   UNL d   1      -1.579   2.358   2.587  0.00  0.00     0.001 A 
ATOM     22  C   UNL d   1      -0.464   2.885   1.934  0.00  0.00     0.016 A 
BRANCH  18  23
ATOM     23  C   UNL d   1       0.954  -0.252   0.332  0.00  0.00     0.254 C 
ATOM     24  N   UNL d   1       0.387  -0.933  -0.751  0.00  0.00    -0.344 N 
ATOM     25  C   UNL d   1       1.108  -2.089  -1.290  0.00  0.00     0.152 C 
ATOM     26  C   UNL d   1      -1.023  -0.844  -1.158  0.00  0.00     0.152 C 
ATOM     27  C   UNL d   1       0.800  -2.325  -2.772  0.00  0.00     0.187 C 
ATOM     28  O   UNL d   1      -0.616  -2.395  -3.002  0.00  0.00    -0.388 OA
ATOM     29  C   UNL d   1      -1.230  -1.152  -2.642  0.00  0.00     0.187 C 
ATOM     30  O   UNL d   1       2.098  -0.432   0.740  0.00  0.00    -0.267 OA
ENDBRANCH  18  23
ENDBRANCH   1  17
TORSDOF 5
