REMARK  4 active torsions:
REMARK  status: ('A' for Active; 'I' for Inactive)
REMARK    1  A    between atoms: N_4  and  C_1 
REMARK    2  A    between atoms: S_2  and  N_4 
REMARK    3  A    between atoms: C_9  and  S_2 
REMARK    4  A    between atoms: C_8  and  C_3 
REMARK       I    between atoms: N_15  and  C_8 
ROOT
ATOM      1  C   UNL d   1      -2.148  -0.811   0.038  0.00  0.00     0.080 A 
ATOM      2  C   UNL d   1      -1.060  -1.672   0.015  0.00  0.00     0.068 A 
ATOM      3  S   UNL d   1      -1.736   0.833  -0.106  0.00  0.00    -0.080 SA
ATOM      4  C   UNL d   1       0.167  -0.884   0.033  0.00  0.00    -0.027 A 
ATOM      5  C   UNL d   1      -0.075   0.476  -0.015  0.00  0.00    -0.008 A 
ATOM      6  C   UNL d   1       1.579  -1.423   0.021  0.00  0.00     0.041 C 
ATOM      7  C   UNL d   1       0.975   1.549   0.002  0.00  0.00     0.046 C 
ATOM      8  C   UNL d   1       2.606  -0.354   0.428  0.00  0.00     0.005 C 
ATOM      9  C   UNL d   1       2.365   0.971  -0.304  0.00  0.00     0.005 C 
ENDROOT
BRANCH   1  10
ATOM     10  N   UNL d   1      -3.522  -1.255   0.021  0.00  0.00    -0.174 NA
ATOM     11  H   UNL d   1      -4.156  -0.718  -0.567  0.00  0.00     0.146 HD
BRANCH  10  12
ATOM     12  S   UNL d   1      -4.244  -1.501   1.550  0.00  0.00     0.246 S 
ATOM     13  O   UNL d   1      -5.633  -1.796   1.259  0.00  0.00    -0.206 OA
ATOM     14  O   UNL d   1      -3.436  -2.424   2.312  0.00  0.00    -0.206 OA
BRANCH  12  15
ATOM     15  C   UNL d   1      -4.209   0.084   2.370  0.00  0.00     0.074 A 
ATOM     16  C   UNL d   1      -5.279   0.972   2.209  0.00  0.00     0.025 A 
ATOM     17  C   UNL d   1      -5.275   2.192   2.893  0.00  0.00     0.008 A 
ATOM     18  C   UNL d   1      -4.216   2.526   3.748  0.00  0.00    -0.062 A 
ATOM     19  C   UNL d   1      -3.172   1.612   3.932  0.00  0.00     0.008 A 
ATOM     20  C   UNL d   1      -4.216   3.849   4.463  0.00  0.00     0.048 C 
ATOM     21  C   UNL d   1      -3.172   0.388   3.255  0.00  0.00     0.025 A 
ENDBRANCH  12  15
ENDBRANCH  10  12
ENDBRANCH   1  10
BRANCH   2  22
ATOM     22  C   UNL d   1      -1.127  -3.125  -0.061  0.00  0.00     0.252 C 
ATOM     23  O   UNL d   1      -0.217  -3.869   0.289  0.00  0.00    -0.268 OA
ATOM     24  N   UNL d   1      -2.255  -3.648  -0.614  0.00  0.00    -0.366 N 
ATOM     25  H   UNL d   1      -3.073  -3.067  -0.761  0.00  0.00     0.159 HD
ATOM     26  H   UNL d   1      -2.394  -4.652  -0.530  0.00  0.00     0.159 HD
ENDBRANCH   2  22
TORSDOF 4
