REMARK  12 active torsions:
REMARK  status: ('A' for Active; 'I' for Inactive)
REMARK       I    between atoms: N_2  and  C_1 
REMARK    1  A    between atoms: CA_3  and  C_1 
REMARK    2  A    between atoms: CA_5  and  N_2 
REMARK    3  A    between atoms: N_4  and  CA_3 
REMARK    4  A    between atoms: CB_10  and  CA_3 
REMARK       I    between atoms: C2_25  and  N_4 
REMARK    5  A    between atoms: C_6  and  CA_5 
REMARK    6  A    between atoms: CB_8  and  CA_5 
REMARK    7  A    between atoms: OXT_12  and  C_6 
REMARK    8  A    between atoms: CG_11  and  CB_8 
REMARK    9  A    between atoms: OH_18  and  CZ_13 
REMARK   10  A    between atoms: O4_27  and  C2_25 
REMARK   11  A    between atoms: C10_28  and  O4_27 
REMARK   12  A    between atoms: C15_29  and  C10_28 
ROOT
ATOM      1  C   TYR d   1       1.131   0.023  -0.099  0.00  0.00     0.241 C 
ATOM      2  N   TYR d   1       0.731   0.113  -1.405  0.00  0.00    -0.345 N 
ATOM      3  O   TYR d   1       2.158  -0.594   0.204  0.00  0.00    -0.271 OA
ATOM      4  H   TYR d   1       0.137   0.911  -1.644  0.00  0.00     0.163 HD
ENDROOT
BRANCH   1   5
ATOM      5  CA  TYR d   1       0.323   0.851   0.931  0.00  0.00     0.182 C 
BRANCH   5   6
ATOM      6  N   TYR d   1       0.749   2.245   0.848  0.00  0.00    -0.323 N 
ATOM      7  C2  <1> d   1       0.495   3.063  -0.211  0.00  0.00     0.361 C 
ATOM      8  O2  <1> d   1      -0.049   2.701  -1.245  0.00  0.00    -0.238 OA
ATOM      9  H   TYR d   1       1.170   2.688   1.654  0.00  0.00     0.165 HD
BRANCH   7  10
ATOM     10  O4  <1> d   1       0.969   4.299   0.052  0.00  0.00    -0.299 OA
BRANCH  10  11
ATOM     11  C10 <1> d   1       0.883   5.242  -1.025  0.00  0.00     0.219 C 
BRANCH  11  12
ATOM     12  C15 <1> d   1      -0.011   6.392  -0.636  0.00  0.00    -0.034 A 
ATOM     13  C18 <1> d   1       0.338   7.239   0.425  0.00  0.00     0.009 A 
ATOM     14  C20 <1> d   1      -0.467   8.331   0.755  0.00  0.00     0.001 A 
ATOM     15  C22 <1> d   1      -1.631   8.584   0.030  0.00  0.00     0.000 A 
ATOM     16  C21 <1> d   1      -1.994   7.742  -1.019  0.00  0.00     0.001 A 
ATOM     17  C19 <1> d   1      -1.190   6.649  -1.349  0.00  0.00     0.009 A 
ENDBRANCH  11  12
ENDBRANCH  10  11
ENDBRANCH   7  10
ENDBRANCH   5   6
BRANCH   5  18
ATOM     18  CB  TYR d   1      -1.211   0.665   0.857  0.00  0.00     0.009 C 
ATOM     19  CG1 TYR d   1      -1.611  -0.811   0.943  0.00  0.00     0.012 C 
ATOM     20  CG2 TYR d   1      -1.909   1.423   1.992  0.00  0.00     0.012 C 
ENDBRANCH   5  18
ENDBRANCH   1   5
BRANCH   2  21
ATOM     21  CA  TYR d   1       1.341  -0.615  -2.522  0.00  0.00     0.186 C 
BRANCH  21  22
ATOM     22  C   TYR d   1       2.738  -0.087  -2.885  0.00  0.00     0.163 C 
ATOM     23  O   TYR d   1       3.038   0.280  -4.012  0.00  0.00    -0.648 OA
BRANCH  22  24
ATOM     24  OXT TYR d   1       3.641  -0.120  -1.879  0.00  0.00    -0.775 OA
ATOM     25  HXT TYR d   1       3.256  -0.430  -1.023  0.00  0.00     0.167 HD
ENDBRANCH  22  24
ENDBRANCH  21  22
BRANCH  21  26
ATOM     26  CB  TYR d   1       1.373  -2.148  -2.343  0.00  0.00     0.074 C 
BRANCH  26  27
ATOM     27  CG  TYR d   1       0.030  -2.801  -2.078  0.00  0.00    -0.056 A 
ATOM     28  CD1 TYR d   1      -1.139  -2.388  -2.736  0.00  0.00     0.010 A 
ATOM     29  CE1 TYR d   1      -2.367  -2.985  -2.448  0.00  0.00     0.037 A 
ATOM     30  CZ  TYR d   1      -2.432  -4.021  -1.524  0.00  0.00     0.065 A 
ATOM     31  CE2 TYR d   1      -1.286  -4.473  -0.885  0.00  0.00     0.037 A 
ATOM     32  CD2 TYR d   1      -0.057  -3.867  -1.165  0.00  0.00     0.010 A 
BRANCH  30  33
ATOM     33  OH  TYR d   1      -3.655  -4.566  -1.273  0.00  0.00    -0.361 OA
ATOM     34  HH  TYR d   1      -3.544  -5.293  -0.637  0.00  0.00     0.217 HD
ENDBRANCH  30  33
ENDBRANCH  26  27
ENDBRANCH  21  26
ENDBRANCH   2  21
TORSDOF 12
