REMARK  4 active torsions:
REMARK  status: ('A' for Active; 'I' for Inactive)
REMARK    1  A    between atoms: N_2  and  C_1 
REMARK    2  A    between atoms: C_3  and  N_2 
REMARK    3  A    between atoms: C_10  and  N_5 
REMARK    4  A    between atoms: C_9  and  C_10 
ROOT
ATOM      1  C   UNL d   1       1.206   0.057  -0.127  0.00  0.00     0.172 C 
ATOM      2  S   UNL d   1       0.310  -0.354   1.218  0.00  0.00    -0.041 SA
ATOM      3  N   UNL d   1       2.556  -0.059  -0.098  0.00  0.00    -0.361 N 
ATOM      4  H   UNL d   1       2.930  -0.390   0.786  0.00  0.00     0.162 HD
ENDROOT
BRANCH   1   5
ATOM      5  N   UNL d   1       0.597   0.607  -1.211  0.00  0.00    -0.332 N 
ATOM      6  H   UNL d   1      -0.282   1.073  -1.016  0.00  0.00     0.168 HD
BRANCH   5   7
ATOM      7  C   UNL d   1       0.840   0.354  -2.583  0.00  0.00     0.056 A 
ATOM      8  C   UNL d   1       0.295   1.220  -3.547  0.00  0.00     0.060 A 
ATOM      9 CL   UNL d   1      -0.552   2.654  -3.085  0.00  0.00    -0.082 Cl
ATOM     10  C   UNL d   1       0.459   0.958  -4.909  0.00  0.00     0.026 A 
ATOM     11  C   UNL d   1       1.141  -0.187  -5.321  0.00  0.00     0.002 A 
ATOM     12  C   UNL d   1       1.673  -1.057  -4.374  0.00  0.00     0.002 A 
ATOM     13  C   UNL d   1       1.533  -0.785  -3.010  0.00  0.00     0.031 A 
ENDBRANCH   5   7
ENDBRANCH   1   5
BRANCH   3  14
ATOM     14  C   UNL d   1       3.486   0.820  -0.804  0.00  0.00     0.179 C 
BRANCH  14  15
ATOM     15  C   UNL d   1       4.452   1.514   0.140  0.00  0.00     0.026 A 
ATOM     16  N   UNL d   1       4.756   0.900   1.315  0.00  0.00    -0.368 N 
ATOM     17  C   UNL d   1       5.657   1.511   2.116  0.00  0.00     0.088 A 
ATOM     18  HN  UNL d   1       4.322   0.016   1.581  1.00  0.00     0.165 HD
ATOM     19  C   UNL d   1       6.292   2.703   1.800  0.00  0.00     0.017 A 
ATOM     20  C   UNL d   1       5.977   3.313   0.595  0.00  0.00     0.003 A 
ATOM     21  C   UNL d   1       5.045   2.716  -0.249  0.00  0.00     0.027 A 
ENDBRANCH  14  15
ENDBRANCH   3  14
TORSDOF 4
