REMARK  6 active torsions:
REMARK  status: ('A' for Active; 'I' for Inactive)
REMARK    1  A    between atoms: C_2  and  S_1 
REMARK    2  A    between atoms: N_8  and  S_1 
REMARK    3  A    between atoms: S_5  and  C_11 
REMARK    4  A    between atoms: C_20  and  S_5 
REMARK    5  A    between atoms: C_16  and  N_8 
REMARK    6  A    between atoms: C_26  and  C_20 
ROOT
ATOM      1  S   UNL d   1       0.078   0.036  -0.186  0.00  0.00     0.270 S 
ATOM      2  O   UNL d   1      -0.275  -1.252   0.376  0.00  0.00    -0.200 OA
ATOM      3  O   UNL d   1       1.093   0.867   0.422  0.00  0.00    -0.200 OA
ENDROOT
BRANCH   1   4
ATOM      4  C   UNL d   1      -1.446   0.997  -0.130  0.00  0.00     0.128 A 
ATOM      5  S   UNL d   1      -2.782   0.205  -0.852  0.00  0.00    -0.075 SA
ATOM      6  C   UNL d   1      -3.847   1.515  -0.556  0.00  0.00     0.017 A 
ATOM      7  C   UNL d   1      -5.208   1.589  -0.915  0.00  0.00     0.021 A 
ATOM      8  C   UNL d   1      -3.200   2.555   0.110  0.00  0.00    -0.009 A 
ATOM      9  C   UNL d   1      -5.932   2.743  -0.606  0.00  0.00     0.025 A 
ATOM     10  C   UNL d   1      -5.314   3.794   0.051  0.00  0.00     0.035 A 
ATOM     11  C   UNL d   1      -3.967   3.714   0.419  0.00  0.00     0.037 A 
ATOM     12 CL   UNL d   1      -6.212   5.217   0.414  0.00  0.00    -0.084 Cl
ATOM     13  C   UNL d   1      -1.803   2.244   0.379  0.00  0.00    -0.020 A 
ATOM     14  C   UNL d   1      -0.906   3.191   1.115  0.00  0.00     0.051 C 
ENDBRANCH   1   4
BRANCH   1  15
ATOM     15  N   UNL d   1       0.501  -0.241  -1.809  0.00  0.00    -0.280 N 
ATOM     16  H   UNL d   1      -0.078  -0.970  -2.224  0.00  0.00     0.179 HD
BRANCH  15  17
ATOM     17  C   UNL d   1       0.779   0.903  -2.609  0.00  0.00     0.042 A 
ATOM     18  C   UNL d   1       2.067   1.440  -2.600  0.00  0.00     0.031 A 
ATOM     19  C   UNL d   1       2.332   2.637  -3.267  0.00  0.00     0.026 A 
ATOM     20  C   UNL d   1       1.294   3.304  -3.924  0.00  0.00     0.059 A 
ATOM     21  C   UNL d   1       0.017   2.741  -3.990  0.00  0.00     0.026 A 
ATOM     22  C   UNL d   1      -0.239   1.536  -3.327  0.00  0.00     0.031 A 
BRANCH  20  23
ATOM     23  S   UNL d   1       1.607   4.888  -4.679  0.00  0.00     0.175 S 
ATOM     24  O   UNL d   1       2.989   5.231  -4.400  0.00  0.00    -0.223 OA
ATOM     25  O   UNL d   1       1.116   4.799  -6.044  0.00  0.00    -0.223 OA
BRANCH  23  26
ATOM     26  C   UNL d   1       0.571   6.025  -3.769  0.00  0.00     0.145 C 
BRANCH  26  27
ATOM     27  C   UNL d   1       0.790   7.461  -4.238  0.00  0.00     0.011 C 
ATOM     28  C   UNL d   1      -0.098   8.443  -3.491  0.00  0.00     0.006 C 
ENDBRANCH  26  27
ENDBRANCH  23  26
ENDBRANCH  20  23
ENDBRANCH  15  17
ENDBRANCH   1  15
TORSDOF 6
