REMARK  3 active torsions:
REMARK  status: ('A' for Active; 'I' for Inactive)
REMARK    1  A    between atoms: C_2  and  C_1 
REMARK       I    between atoms: N_6  and  C_2 
REMARK    2  A    between atoms: C_16  and  C_5 
REMARK    3  A    between atoms: C_9  and  N_6 
ROOT
ATOM      1  C   UNL d   1      -0.006  -1.124   0.186  0.00  0.00     0.093 A 
ATOM      2  N   UNL d   1      -1.016   0.924   0.248  0.00  0.00    -0.259 N 
ATOM      3  HN  UNL d   1      -1.716   1.665   0.288  1.00  0.00     0.195 HD
ATOM      4  C   UNL d   1      -1.245  -0.398   0.347  0.00  0.00     0.083 A 
ATOM      5  O   UNL d   1       0.330   1.086   0.083  0.00  0.00    -0.241 OA
ATOM      6  C   UNL d   1       0.944  -0.121   0.065  0.00  0.00     0.090 A 
ATOM      7  C   UNL d   1       2.410  -0.050  -0.105  0.00  0.00     0.080 C 
ENDROOT
BRANCH   1   8
ATOM      8  C   UNL d   1       0.189  -2.565   0.108  0.00  0.00     0.261 C 
ATOM      9  N   UNL d   1       1.445  -3.039   0.455  0.00  0.00    -0.321 N 
ATOM     10  H   UNL d   1       2.163  -2.366   0.688  0.00  0.00     0.169 HD
ATOM     11  O   UNL d   1      -0.723  -3.292  -0.278  0.00  0.00    -0.267 OA
BRANCH   9  12
ATOM     12  C   UNL d   1       1.901  -4.383   0.388  0.00  0.00     0.058 A 
ATOM     13  C   UNL d   1       1.035  -5.474   0.260  0.00  0.00     0.057 A 
ATOM     14  C   UNL d   1       1.534  -6.778   0.133  0.00  0.00     0.058 A 
ATOM     15 CL   UNL d   1       0.388  -8.063  -0.020  0.00  0.00    -0.082 Cl
ATOM     16  C   UNL d   1       2.913  -7.004   0.133  0.00  0.00     0.057 A 
ATOM     17  C   UNL d   1       3.789  -5.932   0.303  0.00  0.00     0.051 A 
ATOM     18 CL   UNL d   1       3.594  -8.577  -0.075  0.00  0.00    -0.082 Cl
ATOM     19  C   UNL d   1       3.285  -4.635   0.444  0.00  0.00     0.062 A 
ATOM     20 CL   UNL d   1       4.418  -3.343   0.647  0.00  0.00    -0.082 Cl
ENDBRANCH   9  12
ENDBRANCH   1   8
BRANCH   4  21
ATOM     21  C   UNL d   1      -2.613  -0.856   0.644  0.00  0.00    -0.006 A 
ATOM     22  C   UNL d   1      -3.718  -0.078   0.249  0.00  0.00     0.014 A 
ATOM     23  C   UNL d   1      -5.020  -0.432   0.619  0.00  0.00     0.001 A 
ATOM     24  C   UNL d   1      -5.240  -1.574   1.382  0.00  0.00     0.000 A 
ATOM     25  C   UNL d   1      -4.161  -2.363   1.771  0.00  0.00     0.001 A 
ATOM     26  C   UNL d   1      -2.857  -2.002   1.411  0.00  0.00     0.014 A 
ENDBRANCH   4  21
TORSDOF 3
