REMARK  4 active torsions:
REMARK  status: ('A' for Active; 'I' for Inactive)
REMARK    1  A    between atoms: N_3  and  C_1 
REMARK    2  A    between atoms: C_2  and  C_10 
REMARK    3  A    between atoms: C_11  and  N_3 
REMARK    4  A    between atoms: C_10  and  N_6 
ROOT
ATOM      1  C   UNL d   1       0.128   0.628   1.233  0.00  0.00     0.168 C 
ATOM      2  S   UNL d   1      -0.269   1.133   2.778  0.00  0.00    -0.041 SA
ATOM      3  N   UNL d   1       0.254   1.604   0.303  0.00  0.00    -0.361 N 
ATOM      4  H   UNL d   1       0.158   2.526   0.712  0.00  0.00     0.162 HD
ENDROOT
BRANCH   1   5
ATOM      5  N   UNL d   1       0.335  -0.662   0.831  0.00  0.00    -0.363 N 
ATOM      6  H   UNL d   1       0.526  -0.810  -0.148  0.00  0.00     0.162 HD
BRANCH   5   7
ATOM      7  C   UNL d   1       0.686  -1.772   1.735  0.00  0.00     0.083 C 
ATOM      8  C   UNL d   1       2.212  -1.883   1.841  0.00  0.00     0.025 C 
ATOM      9  C   UNL d   1       2.830  -2.447   0.563  0.00  0.00     0.002 C 
ATOM     10  C   UNL d   1       2.240  -3.811   0.226  0.00  0.00     0.000 C 
ATOM     11  C   UNL d   1       0.719  -3.764   0.110  0.00  0.00     0.002 C 
ATOM     12  C   UNL d   1       0.055  -3.107   1.318  0.00  0.00     0.025 C 
ENDBRANCH   5   7
ENDBRANCH   1   5
BRANCH   3  13
ATOM     13  C   UNL d   1       0.815   1.574  -1.035  0.00  0.00     0.187 C 
BRANCH  13  14
ATOM     14  C   UNL d   1       0.912   2.981  -1.500  0.00  0.00     0.070 A 
ATOM     15  O   UNL d   1       2.118   3.600  -1.333  0.00  0.00    -0.325 OA
ATOM     16  C   UNL d   1       1.958   4.898  -1.718  0.00  0.00     0.142 A 
ATOM     17  C   UNL d   1       0.669   5.119  -2.133  0.00  0.00     0.027 A 
ATOM     18  C   UNL d   1      -0.007   3.881  -2.006  0.00  0.00     0.036 A 
ENDBRANCH  13  14
ENDBRANCH   3  13
TORSDOF 4
