REMARK  6 active torsions:
REMARK  status: ('A' for Active; 'I' for Inactive)
REMARK    1  A    between atoms: C_10  and  C_1 
REMARK    2  A    between atoms: C_4  and  O_9 
REMARK    3  A    between atoms: C_13  and  C_4 
REMARK    4  A    between atoms: O_9  and  N_6 
REMARK    5  A    between atoms: C_8  and  C_10 
REMARK    6  A    between atoms: N_14  and  C_8 
ROOT
ATOM      1  N   UNL d   1      -1.205  -2.638  -0.326  0.00  0.00    -0.250 N 
ATOM      2  HN  UNL d   1      -2.169  -2.850  -0.583  1.00  0.00     0.196 HD
ATOM      3  C   UNL d   1      -0.335  -3.549  -0.018  0.00  0.00     0.080 C 
ENDROOT
BRANCH   3   4
ATOM      4  C   UNL d   1      -0.863  -4.980   0.035  0.00  0.00     0.111 C 
BRANCH   4   5
ATOM      5  C   UNL d   1      -0.358  -5.914  -1.036  0.00  0.00    -0.033 A 
ATOM      6  C   UNL d   1      -0.103  -7.247  -0.764  0.00  0.00     0.058 A 
ATOM      7  S   UNL d   1       0.451  -8.121  -2.109  0.00  0.00    -0.101 SA
ATOM      8  C   UNL d   1       0.335  -6.748  -3.134  0.00  0.00     0.015 A 
ATOM      9  C   UNL d   1      -0.151  -5.626  -2.447  0.00  0.00    -0.012 A 
ATOM     10  C   UNL d   1       0.662  -6.704  -4.506  0.00  0.00     0.019 A 
ATOM     11  C   UNL d   1      -0.355  -4.447  -3.211  0.00  0.00     0.013 A 
ATOM     12  C   UNL d   1      -0.032  -4.401  -4.573  0.00  0.00     0.001 A 
ATOM     13  C   UNL d   1       0.484  -5.518  -5.211  0.00  0.00     0.001 A 
ENDBRANCH   4   5
ENDBRANCH   3   4
BRANCH   3  14
ATOM     14  N   UNL d   1       0.987  -3.320   0.281  0.00  0.00    -0.290 NA
ATOM     15  H   UNL d   1       1.327  -2.422  -0.046  0.00  0.00     0.125 HD
ATOM     16  H   UNL d   1       1.625  -4.084   0.083  0.00  0.00     0.125 HD
ENDBRANCH   3  14
BRANCH   1  17
ATOM     17  O   UNL d   1      -0.689  -1.328  -0.270  0.00  0.00    -0.194 OA
BRANCH  17  18
ATOM     18  C   UNL d   1      -1.523  -0.513  -0.983  0.00  0.00     0.315 C 
ATOM     19  O   UNL d   1      -2.322  -0.857  -1.847  0.00  0.00    -0.257 OA
BRANCH  18  20
ATOM     20  C   UNL d   1      -1.386   0.915  -0.575  0.00  0.00     0.041 A 
ATOM     21  C   UNL d   1      -2.220   1.853  -1.207  0.00  0.00     0.017 A 
ATOM     22  C   UNL d   1      -2.185   3.197  -0.837  0.00  0.00     0.001 A 
ATOM     23  C   UNL d   1      -1.317   3.618   0.168  0.00  0.00     0.000 A 
ATOM     24  C   UNL d   1      -0.481   2.695   0.798  0.00  0.00     0.001 A 
ATOM     25  C   UNL d   1      -0.513   1.345   0.432  0.00  0.00     0.017 A 
ENDBRANCH  18  20
ENDBRANCH  17  18
ENDBRANCH   1  17
TORSDOF 6
