REMARK  4 active torsions:
REMARK  status: ('A' for Active; 'I' for Inactive)
REMARK    1  A    between atoms: C_2  and  C_1 
REMARK    2  A    between atoms: C_3  and  S_6 
REMARK    3  A    between atoms: S_6  and  C_11 
REMARK    4  A    between atoms: C_11  and  C_7 
ROOT
ATOM      1  C   UNL d   1       1.043   1.505   0.386  0.00  0.00     0.064 A 
ATOM      2  N   UNL d   1       0.867   3.880   0.744  0.00  0.00    -0.366 N 
ATOM      3  HN  UNL d   1       1.211   4.723   1.203  1.00  0.00     0.165 HD
ATOM      4  C   UNL d   1      -0.220   3.935  -0.081  0.00  0.00     0.040 A 
ATOM      5  C   UNL d   1      -0.099   1.553  -0.419  0.00  0.00     0.043 A 
ATOM      6  C   UNL d   1      -0.744   2.773  -0.653  0.00  0.00     0.058 A 
ATOM      7  C   UNL d   1       1.479   2.693   0.942  0.00  0.00     0.104 A 
ATOM      8 CL   UNL d   1      -2.164   2.761  -1.630  0.00  0.00    -0.082 Cl
ENDROOT
BRANCH   4   9
ATOM      9  C   UNL d   1      -0.869   5.300  -0.278  0.00  0.00     0.138 C 
BRANCH   9  10
ATOM     10  S   UNL d   1       0.366   6.654  -0.259  0.00  0.00    -0.120 SA
BRANCH  10  11
ATOM     11  C   UNL d   1      -0.445   8.260  -0.414  0.00  0.00     0.044 A 
ATOM     12  C   UNL d   1      -1.816   8.550  -0.568  0.00  0.00     0.052 A 
ATOM     13 CL   UNL d   1      -3.087   7.379  -0.614  0.00  0.00    -0.083 Cl
ATOM     14  C   UNL d   1      -2.271   9.878  -0.703  0.00  0.00     0.025 A 
ATOM     15  C   UNL d   1      -1.387  10.950  -0.686  0.00  0.00     0.003 A 
ATOM     16  C   UNL d   1      -0.036  10.702  -0.525  0.00  0.00     0.025 A 
ATOM     17  C   UNL d   1       0.431   9.386  -0.390  0.00  0.00     0.052 A 
ATOM     18 CL   UNL d   1       2.160   9.257  -0.191  0.00  0.00    -0.083 Cl
ENDBRANCH  10  11
ENDBRANCH   9  10
ENDBRANCH   4   9
BRANCH   1  19
ATOM     19  C   UNL d   1       1.796   0.244   0.670  0.00  0.00     0.418 C 
ATOM     20  F   UNL d   1       1.248  -0.858   0.088  0.00  0.00    -0.166 F 
ATOM     21  F   UNL d   1       1.864  -0.033   2.001  0.00  0.00    -0.166 F 
ATOM     22  F   UNL d   1       3.084   0.296   0.233  0.00  0.00    -0.166 F 
ENDBRANCH   1  19
TORSDOF 4
