REMARK  7 active torsions:
REMARK  status: ('A' for Active; 'I' for Inactive)
REMARK    1  A    between atoms: N_2  and  C_1 
REMARK    2  A    between atoms: C_5  and  C_3 
REMARK       I    between atoms: N_10  and  C_5 
REMARK    3  A    between atoms: O_18  and  C_6 
REMARK    4  A    between atoms: C_7  and  N_11 
REMARK    5  A    between atoms: N_14  and  C_7 
REMARK    6  A    between atoms: N_11  and  N_10 
REMARK    7  A    between atoms: C_19  and  N_14 
ROOT
ATOM      1  C   UNL d   1       0.821  -2.162   0.697  0.00  0.00     0.271 C 
ATOM      2  N   UNL d   1       0.263  -3.323   1.202  0.00  0.00    -0.264 N 
ATOM      3  O   UNL d   1       0.318  -1.493  -0.199  0.00  0.00    -0.266 OA
ATOM      4  H   UNL d   1       0.842  -4.020   1.666  0.00  0.00     0.190 HD
ENDROOT
BRANCH   1   5
ATOM      5  C   UNL d   1       2.089  -1.724   1.347  0.00  0.00     0.051 A 
ATOM      6  C   UNL d   1       2.406  -2.026   2.666  0.00  0.00     0.059 A 
ATOM      7  C   UNL d   1       3.572  -1.483   3.245  0.00  0.00     0.154 A 
ATOM      8  C   UNL d   1       4.407  -0.648   2.519  0.00  0.00     0.175 A 
ATOM      9  N   UNL d   1       4.101  -0.377   1.223  0.00  0.00    -0.344 N 
ATOM     10  C   UNL d   1       2.966  -0.893   0.667  0.00  0.00     0.107 A 
ATOM     11  HN  UNL d   1       4.719   0.212   0.665  1.00  0.00     0.167 HD
BRANCH   7  12
ATOM     12  N   UNL d   1       3.798  -1.812   4.619  0.00  0.00    -0.111 N 
ATOM     13  O   UNL d   1       3.015  -1.335   5.450  0.00  0.00    -0.532 OA
ATOM     14  O   UNL d   1       4.717  -2.605   4.870  0.00  0.00    -0.532 OA
ENDBRANCH   7  12
BRANCH   8  15
ATOM     15  O   UNL d   1       5.529   0.021   2.869  0.00  0.00    -0.339 OA
ATOM     16  C   UNL d   1       6.069   0.005   4.178  0.00  0.00     0.211 C 
ENDBRANCH   8  15
ENDBRANCH   1   5
BRANCH   2  17
ATOM     17  N   UNL d   1      -0.954  -3.822   0.677  0.00  0.00    -0.274 N 
ATOM     18  H   UNL d   1      -1.578  -3.132   0.267  0.00  0.00     0.189 HD
BRANCH  17  19
ATOM     19  C   UNL d   1      -1.042  -5.135   0.298  0.00  0.00     0.186 C 
ATOM     20  S   UNL d   1       0.247  -6.212   0.282  0.00  0.00    -0.040 SA
BRANCH  19  21
ATOM     21  N   UNL d   1      -2.269  -5.638  -0.001  0.00  0.00    -0.361 N 
ATOM     22  H   UNL d   1      -2.210  -6.626  -0.219  0.00  0.00     0.162 HD
BRANCH  21  23
ATOM     23  C   UNL d   1      -3.610  -5.142   0.339  0.00  0.00     0.083 C 
ATOM     24  C   UNL d   1      -3.829  -5.035   1.856  0.00  0.00     0.025 C 
ATOM     25  C   UNL d   1      -3.771  -6.400   2.542  0.00  0.00     0.002 C 
ATOM     26  C   UNL d   1      -4.783  -7.375   1.950  0.00  0.00     0.000 C 
ATOM     27  C   UNL d   1      -4.699  -7.462   0.426  0.00  0.00     0.002 C 
ATOM     28  C   UNL d   1      -4.681  -6.083  -0.249  0.00  0.00     0.025 C 
ENDBRANCH  21  23
ENDBRANCH  19  21
ENDBRANCH  17  19
ENDBRANCH   2  17
TORSDOF 7
