REMARK  7 active torsions:
REMARK  status: ('A' for Active; 'I' for Inactive)
REMARK    1  A    between atoms: C_2  and  C_1 
REMARK    2  A    between atoms: O_8  and  C_2 
REMARK    3  A    between atoms: N_3  and  O_8 
REMARK    4  A    between atoms: C_5  and  C_14 
REMARK    5  A    between atoms: C_19  and  C_6 
REMARK    6  A    between atoms: C_11  and  C_7 
REMARK    7  A    between atoms: N_17  and  C_7 
ROOT
ATOM      1  C   UNL d   1       5.159   2.104   0.870  0.00  0.00     0.316 C 
ATOM      2  O   UNL d   1       6.382   1.876   0.822  0.00  0.00    -0.257 OA
ENDROOT
BRANCH   1   3
ATOM      3  C   UNL d   1       4.178   1.056   0.421  0.00  0.00     0.058 A 
ATOM      4  C   UNL d   1       2.789   1.243   0.462  0.00  0.00     0.041 A 
ATOM      5  C   UNL d   1       1.933   0.207   0.061  0.00  0.00     0.034 A 
ATOM      6  C   UNL d   1       2.491  -1.000  -0.395  0.00  0.00     0.108 A 
ATOM      7  N   UNL d   1       3.818  -1.218  -0.445  0.00  0.00    -0.373 N 
ATOM      8  C   UNL d   1       4.622  -0.194  -0.029  0.00  0.00     0.105 A 
ATOM      9  HN  UNL d   1       4.204  -2.102  -0.777  1.00  0.00     0.164 HD
BRANCH   5  10
ATOM     10  C   UNL d   1       0.518   0.303   0.109  0.00  0.00    -0.060 C 
ATOM     11  C   UNL d   1      -0.662   0.264   0.114  0.00  0.00    -0.061 C 
BRANCH  11  12
ATOM     12  C   UNL d   1      -2.093   0.126   0.072  0.00  0.00     0.018 A 
ATOM     13  C   UNL d   1      -2.699  -1.068   0.481  0.00  0.00     0.020 A 
ATOM     14  C   UNL d   1      -4.086  -1.198   0.423  0.00  0.00     0.001 A 
ATOM     15  C   UNL d   1      -4.865  -0.139  -0.045  0.00  0.00     0.000 A 
ATOM     16  C   UNL d   1      -4.259   1.047  -0.459  0.00  0.00     0.001 A 
ATOM     17  C   UNL d   1      -2.876   1.182  -0.402  0.00  0.00     0.020 A 
ENDBRANCH  11  12
ENDBRANCH   5  10
ENDBRANCH   1   3
BRANCH   1  18
ATOM     18  O   UNL d   1       4.582   3.283   1.295  0.00  0.00    -0.193 OA
BRANCH  18  19
ATOM     19  N   UNL d   1       5.138   3.670   2.561  0.00  0.00    -0.241 N 
ATOM     20  C   UNL d   1       4.738   4.845   2.991  0.00  0.00     0.129 C 
ATOM     21  HN  UNL d   1       5.787   3.081   3.083  1.00  0.00     0.196 HD
BRANCH  20  22
ATOM     22  C   UNL d   1       5.123   5.264   4.418  0.00  0.00     0.009 A 
ATOM     23  C   UNL d   1       5.860   4.383   5.225  0.00  0.00     0.016 A 
ATOM     24  C   UNL d   1       6.215   4.717   6.539  0.00  0.00     0.007 A 
ATOM     25  C   UNL d   1       5.848   5.949   7.085  0.00  0.00    -0.062 A 
ATOM     26  C   UNL d   1       5.106   6.837   6.298  0.00  0.00     0.007 A 
ATOM     27  C   UNL d   1       6.260   6.285   8.489  0.00  0.00     0.048 C 
ATOM     28  C   UNL d   1       4.744   6.495   4.978  0.00  0.00     0.016 A 
ENDBRANCH  20  22
BRANCH  20  29
ATOM     29  N   UNL d   1       3.970   5.694   2.228  0.00  0.00    -0.383 N 
ATOM     30  H   UNL d   1       3.948   5.471   1.243  0.00  0.00     0.157 HD
ATOM     31  H   UNL d   1       3.950   6.689   2.423  0.00  0.00     0.157 HD
ENDBRANCH  20  29
ENDBRANCH  18  19
ENDBRANCH   1  18
TORSDOF 7
