REMARK  7 active torsions:
REMARK  status: ('A' for Active; 'I' for Inactive)
REMARK    1  A    between atoms: S_9  and  C_2 
REMARK    2  A    between atoms: C_11  and  C_3 
REMARK       I    between atoms: C_8  and  N_10 
REMARK    3  A    between atoms: O_12  and  C_8 
REMARK    4  A    between atoms: C_16  and  S_9 
REMARK    5  A    between atoms: N_10  and  C_11 
REMARK    6  A    between atoms: C_14  and  O_12 
REMARK    7  A    between atoms: C_18  and  C_16 
ROOT
ATOM      1  N   UNL d   1       0.879   0.256   0.100  0.00  0.00    -0.318 N 
ATOM      2  C   UNL d   1       0.014   1.316   0.139  0.00  0.00     0.162 A 
ATOM      3  C   UNL d   1       0.082  -0.873   0.086  0.00  0.00     0.117 A 
ATOM      4  N   UNL d   1      -1.223   0.876   0.126  0.00  0.00    -0.278 N 
ATOM      5  HN  UNL d   1      -2.065   1.452   0.136  1.00  0.00     0.189 HD
ATOM      6  N   UNL d   1      -1.183  -0.494   0.098  0.00  0.00    -0.285 N 
ATOM      7  HN  UNL d   1      -1.992  -1.115   0.088  1.00  0.00     0.188 HD
ATOM      8  C   UNL d   1       2.318   0.277   0.088  0.00  0.00     0.160 C 
ENDROOT
BRANCH   3   9
ATOM      9  C   UNL d   1       0.552  -2.281  -0.038  0.00  0.00     0.203 C 
BRANCH   9  10
ATOM     10  N   UNL d   1       1.125  -2.776   1.192  0.00  0.00    -0.330 N 
ATOM     11  C   UNL d   1       2.461  -3.012   1.318  0.00  0.00     0.361 C 
ATOM     12  O   UNL d   1       3.299  -2.638   0.517  0.00  0.00    -0.238 OA
ATOM     13  H   UNL d   1       0.522  -3.123   1.926  0.00  0.00     0.165 HD
BRANCH  11  14
ATOM     14  O   UNL d   1       2.709  -3.689   2.466  0.00  0.00    -0.294 OA
BRANCH  14  15
ATOM     15  C   UNL d   1       4.076  -3.888   2.914  0.00  0.00     0.061 C 
ATOM     16  C   UNL d   1       4.717  -2.529   3.235  0.00  0.00     0.046 C 
ATOM     17  C   UNL d   1       3.973  -4.718   4.206  0.00  0.00     0.046 C 
ATOM     18  C   UNL d   1       4.923  -4.684   1.908  0.00  0.00     0.046 C 
ENDBRANCH  14  15
ENDBRANCH  11  14
ENDBRANCH   9  10
ENDBRANCH   3   9
BRANCH   2  19
ATOM     19  S   UNL d   1       0.482   2.984   0.219  0.00  0.00    -0.088 SA
BRANCH  19  20
ATOM     20  C   UNL d   1      -1.060   3.695   0.865  0.00  0.00     0.121 C 
BRANCH  20  21
ATOM     21  C   UNL d   1      -0.985   5.187   1.093  0.00  0.00    -0.048 A 
ATOM     22  C   UNL d   1      -1.487   6.081   0.134  0.00  0.00     0.009 A 
ATOM     23  C   UNL d   1      -1.492   7.458   0.379  0.00  0.00     0.024 A 
ATOM     24  C   UNL d   1      -0.985   7.950   1.579  0.00  0.00     0.034 A 
ATOM     25  C   UNL d   1      -0.460   7.079   2.531  0.00  0.00     0.024 A 
ATOM     26 CL   UNL d   1      -1.019   9.642   1.893  0.00  0.00    -0.084 Cl
ATOM     27  C   UNL d   1      -0.456   5.702   2.288  0.00  0.00     0.009 A 
ENDBRANCH  20  21
ENDBRANCH  19  20
ENDBRANCH   2  19
TORSDOF 7
