REMARK  7 active torsions:
REMARK  status: ('A' for Active; 'I' for Inactive)
REMARK    1  A    between atoms: C_15  and  C_1 
REMARK    2  A    between atoms: C_13  and  C_2 
REMARK    3  A    between atoms: C_14  and  C_3 
REMARK    4  A    between atoms: C_16  and  C_4 
REMARK    5  A    between atoms: O_17  and  C_5 
REMARK    6  A    between atoms: O_18  and  C_6 
REMARK    7  A    between atoms: C_7  and  C_8 
ROOT
ATOM      1  C   UNL d   1      -5.451   0.814  -1.164  0.00  0.00    -0.016 C 
ATOM      2  C   UNL d   1      -5.584  -0.397   1.010  0.00  0.00    -0.016 C 
ATOM      3  C   UNL d   1      -6.173   0.318  -0.061  0.00  0.00     0.079 C 
ATOM      4  C   UNL d   1      -3.382   0.062  -0.028  0.00  0.00    -0.025 C 
ATOM      5  C   UNL d   1      -4.173  -0.452   1.014  0.00  0.00     0.023 C 
ATOM      6  C   UNL d   1      -4.054   0.640  -1.116  0.00  0.00     0.023 C 
ENDROOT
BRANCH   4   7
ATOM      7  C   UNL d   1      -1.900   0.003   0.001  0.00  0.00    -0.025 A 
ATOM      8  C   UNL d   1      -1.214  -1.073   0.577  0.00  0.00     0.023 A 
ATOM      9  C   UNL d   1       0.192  -1.163   0.598  0.00  0.00    -0.016 A 
ATOM     10  C   UNL d   1       0.907  -0.127  -0.054  0.00  0.00     0.079 A 
ATOM     11  C   UNL d   1       0.287   1.016  -0.603  0.00  0.00    -0.016 A 
ATOM     12  C   UNL d   1      -1.123   1.035  -0.553  0.00  0.00     0.023 A 
BRANCH   9  13
ATOM     13  C   UNL d   1       0.884  -2.327   1.355  0.00  0.00    -0.021 C 
ATOM     14  C   UNL d   1       1.792  -1.762   2.473  0.00  0.00     0.019 C 
ATOM     15  C   UNL d   1      -0.113  -3.280   2.071  0.00  0.00     0.019 C 
ATOM     16  C   UNL d   1       1.717  -3.214   0.408  0.00  0.00     0.019 C 
ENDBRANCH   9  13
BRANCH  10  17
ATOM     17  O   UNL d   1       2.258  -0.280  -0.188  0.00  0.00    -0.360 OA
ATOM     18  H   UNL d   1       2.657   0.271   0.505  0.00  0.00     0.217 HD
ENDBRANCH  10  17
BRANCH  11  19
ATOM     19  C   UNL d   1       1.023   2.195  -1.295  0.00  0.00    -0.021 C 
ATOM     20  C   UNL d   1       1.148   1.881  -2.799  0.00  0.00     0.019 C 
ATOM     21  C   UNL d   1       0.247   3.536  -1.149  0.00  0.00     0.019 C 
ATOM     22  C   UNL d   1       2.434   2.498  -0.742  0.00  0.00     0.019 C 
ENDBRANCH  11  19
ENDBRANCH   4   7
BRANCH   2  23
ATOM     23  C   UNL d   1      -6.373  -1.064   2.164  0.00  0.00    -0.021 C 
ATOM     24  C   UNL d   1      -6.524  -0.049   3.313  0.00  0.00     0.019 C 
ATOM     25  C   UNL d   1      -7.778  -1.573   1.757  0.00  0.00     0.019 C 
ATOM     26  C   UNL d   1      -5.656  -2.324   2.728  0.00  0.00     0.019 C 
ENDBRANCH   2  23
BRANCH   1  27
ATOM     27  C   UNL d   1      -6.105   1.493  -2.393  0.00  0.00    -0.021 C 
ATOM     28  C   UNL d   1      -5.078   1.975  -3.456  0.00  0.00     0.019 C 
ATOM     29  C   UNL d   1      -7.022   0.485  -3.119  0.00  0.00     0.019 C 
ATOM     30  C   UNL d   1      -6.916   2.747  -2.001  0.00  0.00     0.019 C 
ENDBRANCH   1  27
BRANCH   3  31
ATOM     31  O   UNL d   1      -7.516   0.594   0.010  0.00  0.00    -0.360 OA
ATOM     32  H   UNL d   1      -7.953  -0.112  -0.492  0.00  0.00     0.217 HD
ENDBRANCH   3  31
TORSDOF 7
