REMARK  2 active torsions:
REMARK  status: ('A' for Active; 'I' for Inactive)
REMARK    1  A    between atoms: N_2  and  C_1 
REMARK    2  A    between atoms: C_3  and  N_2 
ROOT
ATOM      1  C   UNL d   1       1.172   2.602  -0.953  0.00  0.00     0.088 C 
ATOM      2  C   UNL d   1       1.647   2.219  -2.372  0.00  0.00     0.009 C 
ATOM      3  C   UNL d   1       0.336   3.871  -1.208  0.00  0.00     0.030 C 
ATOM      4  C   UNL d   1       1.992   3.603  -2.927  0.00  0.00     0.011 C 
ATOM      5  C   UNL d   1       0.578   4.146  -2.706  0.00  0.00    -0.012 C 
ATOM      6  C   UNL d   1       0.456   1.818  -3.269  0.00  0.00     0.007 C 
ATOM      7  C   UNL d   1      -0.261   3.152  -3.522  0.00  0.00     0.005 C 
ENDROOT
BRANCH   1   8
ATOM      8  N   UNL d   1       0.451   1.549  -0.263  0.00  0.00    -0.362 N 
ATOM      9  H   UNL d   1      -0.555   1.518  -0.381  0.00  0.00     0.162 HD
BRANCH   8  10
ATOM     10  C   UNL d   1       0.936   0.502   0.463  0.00  0.00     0.167 C 
ATOM     11  S   UNL d   1      -0.176  -0.559   1.111  0.00  0.00    -0.041 SA
ATOM     12  N   UNL d   1       2.292   0.432   0.597  0.00  0.00    -0.372 N 
ATOM     13  C   UNL d   1       3.054  -0.488   1.418  0.00  0.00     0.148 C 
ATOM     14  H   UNL d   1       2.839   1.132   0.126  0.00  0.00     0.161 HD
ENDBRANCH   8  10
ENDBRANCH   1   8
TORSDOF 2
