REMARK  7 active torsions:
REMARK  status: ('A' for Active; 'I' for Inactive)
REMARK    1  A    between atoms: C_17  and  C_1 
REMARK    2  A    between atoms: C_3  and  S_11 
REMARK    3  A    between atoms: C_15  and  C_4 
REMARK    4  A    between atoms: S_11  and  C_7 
REMARK    5  A    between atoms: C_20  and  C_8 
REMARK    6  A    between atoms: O_25  and  C_17 
REMARK    7  A    between atoms: C_29  and  O_25 
ROOT
ATOM      1  C   UNL d   1      -1.608   1.384   0.066  0.00  0.00     0.072 A 
ATOM      2  C   UNL d   1      -2.264   0.160   0.031  0.00  0.00     0.134 A 
ATOM      3  N   UNL d   1      -1.548  -1.020   0.034  0.00  0.00    -0.345 N 
ATOM      4  HN  UNL d   1      -2.044  -1.910   0.071  1.00  0.00     0.166 HD
ATOM      5  C   UNL d   1      -0.188  -1.008  -0.013  0.00  0.00     0.099 A 
ATOM      6  C   UNL d   1       0.516   0.194  -0.069  0.00  0.00     0.079 A 
ATOM      7  C   UNL d   1      -0.210   1.391  -0.014  0.00  0.00     0.045 A 
ATOM      8  C   UNL d   1       1.943   0.282  -0.189  0.00  0.00     0.102 C 
ATOM      9  N   UNL d   1       3.083   0.449  -0.297  0.00  0.00    -0.191 NA
ENDROOT
BRANCH   5  10
ATOM     10  S   UNL d   1       0.621  -2.595   0.096  0.00  0.00    -0.033 SA
BRANCH  10  11
ATOM     11  C   UNL d   1      -0.508  -3.715  -0.586  0.00  0.00     0.166 A 
ATOM     12  N   UNL d   1      -1.866  -3.604  -0.523  0.00  0.00    -0.323 N 
ATOM     13  C   UNL d   1      -2.386  -4.736  -1.103  0.00  0.00     0.105 A 
ATOM     14  H   UNL d   1      -2.371  -2.822  -0.132  0.00  0.00     0.169 HD
ATOM     15  N   UNL d   1      -1.376  -5.486  -1.503  0.00  0.00    -0.286 N 
ATOM     16  N   UNL d   1      -0.199  -4.851  -1.164  0.00  0.00    -0.278 N 
ATOM     17  HN  UNL d   1      -1.453  -6.383  -1.982  1.00  0.00     0.188 HD
ATOM     18  HN  UNL d   1       0.743  -5.203  -1.333  1.00  0.00     0.189 HD
BRANCH  13  19
ATOM     19  C   UNL d   1      -3.864  -5.041  -1.218  0.00  0.00     0.009 C 
ATOM     20  C   UNL d   1      -4.582  -3.956  -2.036  0.00  0.00     0.023 C 
ATOM     21  C   UNL d   1      -4.081  -6.393  -1.927  0.00  0.00     0.023 C 
ATOM     22  C   UNL d   1      -4.500  -5.123   0.181  0.00  0.00     0.023 C 
ENDBRANCH  13  19
ENDBRANCH  10  11
ENDBRANCH   5  10
BRANCH   1  23
ATOM     23  C   UNL d   1      -2.334   2.656   0.229  0.00  0.00     0.295 C 
ATOM     24  O   UNL d   1      -3.335   2.767   0.909  0.00  0.00    -0.259 OA
BRANCH  23  25
ATOM     25  O   UNL d   1      -1.740   3.610  -0.524  0.00  0.00    -0.318 OA
BRANCH  25  26
ATOM     26  C   UNL d   1      -2.547   4.766  -0.796  0.00  0.00     0.174 C 
ATOM     27  C   UNL d   1      -3.236   4.514  -2.122  0.00  0.00     0.034 C 
ENDBRANCH  25  26
ENDBRANCH  23  25
ENDBRANCH   1  23
BRANCH   2  28
ATOM     28  C   UNL d   1      -3.768  -0.007  -0.138  0.00  0.00     0.433 C 
ATOM     29  F   UNL d   1      -4.513   1.104  -0.340  0.00  0.00    -0.165 F 
ATOM     30  F   UNL d   1      -4.023  -0.781  -1.239  0.00  0.00    -0.165 F 
ATOM     31  F   UNL d   1      -4.333  -0.685   0.902  0.00  0.00    -0.165 F 
ENDBRANCH   2  28
TORSDOF 7
