REMARK  4 active torsions:
REMARK  status: ('A' for Active; 'I' for Inactive)
REMARK    1  A    between atoms: C_5  and  C_1 
REMARK    2  A    between atoms: C_15  and  C_2 
REMARK    3  A    between atoms: C_6  and  N_19 
REMARK    4  A    between atoms: N_19  and  N_13 
ROOT
ATOM      1  C   UNL d   1      -1.333  -0.841  -0.189  0.00  0.00     0.082 A 
ATOM      2  C   UNL d   1       0.010  -1.327  -0.075  0.00  0.00     0.041 A 
ATOM      3  N   UNL d   1      -1.321   0.485  -0.410  0.00  0.00    -0.259 N 
ATOM      4  HN  UNL d   1      -2.132   1.082  -0.574  1.00  0.00     0.195 HD
ATOM      5  O   UNL d   1      -0.006   0.883  -0.374  0.00  0.00    -0.241 OA
ATOM      6  C   UNL d   1       0.791  -0.195  -0.182  0.00  0.00     0.086 A 
ATOM      7  C   UNL d   1       2.238   0.083  -0.099  0.00  0.00     0.080 C 
ENDROOT
BRANCH   2   8
ATOM      8  C   UNL d   1       0.542  -2.651   0.108  0.00  0.00     0.118 C 
ATOM      9  N   UNL d   1      -0.197  -3.589   0.602  0.00  0.00    -0.327 N 
ATOM     10  HN  UNL d   1      -1.163  -3.453   0.899  1.00  0.00     0.180 HD
BRANCH   9  11
ATOM     11  N   UNL d   1       0.460  -4.785   0.682  0.00  0.00    -0.203 NA
ATOM     12  H   UNL d   1       0.469  -5.295  -0.211  0.00  0.00     0.153 HD
BRANCH  11  13
ATOM     13  C   UNL d   1      -0.008  -5.669   1.702  0.00  0.00     0.071 A 
ATOM     14  C   UNL d   1      -0.209  -7.032   1.391  0.00  0.00     0.060 A 
ATOM     15  C   UNL d   1      -0.626  -7.952   2.355  0.00  0.00     0.049 A 
ATOM     16 CL   UNL d   1       0.046  -7.614  -0.222  0.00  0.00    -0.082 Cl
ATOM     17  C   UNL d   1      -0.835  -7.521   3.660  0.00  0.00     0.037 A 
ATOM     18  C   UNL d   1      -0.627  -6.195   4.007  0.00  0.00     0.049 A 
ATOM     19 CL   UNL d   1      -1.336  -8.650   4.858  0.00  0.00    -0.084 Cl
ATOM     20  C   UNL d   1      -0.204  -5.272   3.041  0.00  0.00     0.060 A 
ATOM     21 CL   UNL d   1       0.128  -3.666   3.610  0.00  0.00    -0.082 Cl
ENDBRANCH  11  13
ENDBRANCH   9  11
ENDBRANCH   2   8
BRANCH   1  22
ATOM     22  C   UNL d   1      -2.610  -1.563  -0.129  0.00  0.00     0.037 A 
ATOM     23  C   UNL d   1      -3.633  -1.157   0.755  0.00  0.00     0.048 A 
ATOM     24 CL   UNL d   1      -3.478   0.188   1.841  0.00  0.00    -0.083 Cl
ATOM     25  C   UNL d   1      -4.856  -1.845   0.815  0.00  0.00     0.025 A 
ATOM     26  C   UNL d   1      -5.072  -2.967   0.024  0.00  0.00     0.003 A 
ATOM     27  C   UNL d   1      -4.081  -3.379  -0.861  0.00  0.00     0.025 A 
ATOM     28  C   UNL d   1      -2.875  -2.668  -0.963  0.00  0.00     0.048 A 
ATOM     29 CL   UNL d   1      -1.800  -3.186  -2.225  0.00  0.00    -0.083 Cl
ENDBRANCH   1  22
TORSDOF 4
