REMARK  8 active torsions:
REMARK  status: ('A' for Active; 'I' for Inactive)
REMARK    1  A    between atoms: C_7  and  N_1 
REMARK    2  A    between atoms: C_3  and  C_2 
REMARK       I    between atoms: N_11  and  C_3 
REMARK    3  A    between atoms: O_22  and  C_5 
REMARK    4  A    between atoms: C_6  and  C_8 
REMARK       I    between atoms: C_8  and  N_12 
REMARK    5  A    between atoms: O_25  and  C_9 
REMARK    6  A    between atoms: O_24  and  C_10 
REMARK    7  A    between atoms: N_12  and  N_11 
REMARK    8  A    between atoms: N_23  and  C_15 
ROOT
ATOM      1  C   UNL d   1      -6.139  -2.176   1.117  0.00  0.00     0.272 C 
ATOM      2  N   UNL d   1      -5.473  -1.053   0.660  0.00  0.00    -0.263 N 
ATOM      3  O   UNL d   1      -7.315  -2.122   1.478  0.00  0.00    -0.266 OA
ATOM      4  H   UNL d   1      -4.463  -0.973   0.545  0.00  0.00     0.190 HD
ENDROOT
BRANCH   2   5
ATOM      5  N   UNL d   1      -6.190   0.143   0.621  0.00  0.00    -0.263 N 
ATOM      6  C   UNL d   1      -5.536   1.298   0.239  0.00  0.00     0.270 C 
ATOM      7  O   UNL d   1      -4.342   1.322  -0.027  0.00  0.00    -0.266 OA
ATOM      8  H   UNL d   1      -7.200   0.047   0.679  0.00  0.00     0.190 HD
BRANCH   6   9
ATOM      9  C   UNL d   1      -6.377   2.525   0.156  0.00  0.00     0.039 A 
ATOM     10  C   UNL d   1      -7.537   2.668   0.918  0.00  0.00     0.057 A 
ATOM     11  C   UNL d   1      -8.317   3.832   0.832  0.00  0.00     0.105 A 
ATOM     12  C   UNL d   1      -7.927   4.886  -0.026  0.00  0.00     0.135 A 
ATOM     13  C   UNL d   1      -6.762   4.727  -0.811  0.00  0.00     0.105 A 
ATOM     14  C   UNL d   1      -5.994   3.556  -0.699  0.00  0.00     0.057 A 
BRANCH  11  15
ATOM     15  O   UNL d   1      -9.514   3.924   1.503  0.00  0.00    -0.353 OA
ATOM     16  C   UNL d   1      -9.588   3.242   2.754  0.00  0.00     0.210 C 
ENDBRANCH  11  15
BRANCH  12  17
ATOM     17  O   UNL d   1      -8.625   6.051  -0.195  0.00  0.00    -0.351 OA
ATOM     18  C   UNL d   1      -9.456   6.549   0.844  0.00  0.00     0.210 C 
ENDBRANCH  12  17
BRANCH  13  19
ATOM     19  O   UNL d   1      -6.229   5.581  -1.745  0.00  0.00    -0.353 OA
ATOM     20  C   UNL d   1      -6.783   6.874  -1.924  0.00  0.00     0.210 C 
ENDBRANCH  13  19
ENDBRANCH   6   9
ENDBRANCH   2   5
BRANCH   1  21
ATOM     21  C   UNL d   1      -5.349  -3.445   1.199  0.00  0.00     0.062 A 
ATOM     22  C   UNL d   1      -4.236  -3.624   0.359  0.00  0.00     0.055 A 
ATOM     23  C   UNL d   1      -3.482  -4.801   0.447  0.00  0.00     0.104 A 
ATOM     24  C   UNL d   1      -3.820  -5.798   1.365  0.00  0.00     0.038 A 
ATOM     25  C   UNL d   1      -4.941  -5.626   2.181  0.00  0.00     0.032 A 
ATOM     26  C   UNL d   1      -5.715  -4.456   2.120  0.00  0.00     0.041 A 
BRANCH  23  27
ATOM     27  N   UNL d   1      -2.344  -5.002  -0.459  0.00  0.00    -0.116 N 
ATOM     28  O   UNL d   1      -2.111  -4.117  -1.293  0.00  0.00    -0.532 OA
ATOM     29  O   UNL d   1      -1.685  -6.045  -0.333  0.00  0.00    -0.532 OA
ENDBRANCH  23  27
BRANCH  26  30
ATOM     30  N   UNL d   1      -6.926  -4.444   2.822  0.00  0.00    -0.398 N 
ATOM     31  H   UNL d   1      -6.946  -4.927   3.712  0.00  0.00     0.156 HD
ATOM     32  H   UNL d   1      -7.408  -3.540   2.821  0.00  0.00     0.156 HD
ENDBRANCH  26  30
ENDBRANCH   1  21
TORSDOF 8
