REMARK  6 active torsions:
REMARK  status: ('A' for Active; 'I' for Inactive)
REMARK    1  A    between atoms: C_7  and  N_1 
REMARK    2  A    between atoms: O_9  and  C_2 
REMARK    3  A    between atoms: C_8  and  C_7 
REMARK       I    between atoms: N_10  and  C_8 
REMARK    4  A    between atoms: C_16  and  O_9 
REMARK    5  A    between atoms: C_11  and  N_10 
REMARK    6  A    between atoms: S_17  and  C_14 
ROOT
ATOM      1  N   UNL d   1      -0.259  -0.652  -0.620  0.00  0.00    -0.285 N 
ATOM      2  C   UNL d   1      -0.329   1.537  -0.620  0.00  0.00     0.123 A 
ATOM      3  N   UNL d   1       1.016  -0.288  -0.887  0.00  0.00    -0.300 N 
ATOM      4  HN  UNL d   1       1.817  -0.894  -1.068  1.00  0.00     0.187 HD
ATOM      5  C   UNL d   1      -1.105   0.417  -0.445  0.00  0.00     0.061 A 
ATOM      6  C   UNL d   1       0.985   1.059  -0.860  0.00  0.00     0.058 A 
ATOM      7  C   UNL d   1      -2.549   0.275  -0.125  0.00  0.00     0.073 C 
ATOM      8  C   UNL d   1       2.246   1.822  -1.044  0.00  0.00     0.072 C 
ENDROOT
BRANCH   1   9
ATOM      9  C   UNL d   1      -0.678  -2.042  -0.513  0.00  0.00     0.252 C 
BRANCH   9  10
ATOM     10  C   UNL d   1       0.306  -3.178  -0.614  0.00  0.00     0.241 C 
ATOM     11  N   UNL d   1       1.591  -2.919  -1.036  0.00  0.00    -0.326 N 
ATOM     12  H   UNL d   1       1.845  -1.929  -1.102  0.00  0.00     0.169 HD
ATOM     13  O   UNL d   1      -0.124  -4.299  -0.313  0.00  0.00    -0.271 OA
BRANCH  11  14
ATOM     14  C   UNL d   1       2.626  -3.875  -1.150  0.00  0.00     0.036 A 
ATOM     15  C   UNL d   1       2.387  -5.253  -1.150  0.00  0.00     0.048 A 
ATOM     16  C   UNL d   1       3.430  -6.182  -1.105  0.00  0.00     0.002 A 
ATOM     17  C   UNL d   1       4.744  -5.717  -1.163  0.00  0.00     0.018 A 
ATOM     18  C   UNL d   1       5.003  -4.347  -1.243  0.00  0.00     0.004 A 
ATOM     19  C   UNL d   1       3.947  -3.426  -1.234  0.00  0.00     0.029 A 
BRANCH  16  20
ATOM     20  S   UNL d   1       3.132  -7.940  -0.961  0.00  0.00    -0.134 SA
ATOM     21  C   UNL d   1       1.604  -7.962   0.031  0.00  0.00     0.095 C 
ENDBRANCH  16  20
ENDBRANCH  11  14
ENDBRANCH   9  10
ENDBRANCH   1   9
BRANCH   2  22
ATOM     22  O   UNL d   1      -0.852   2.771  -0.474  0.00  0.00    -0.307 OA
BRANCH  22  23
ATOM     23  C   UNL d   1      -0.285   3.889  -1.025  0.00  0.00     0.076 A 
ATOM     24  C   UNL d   1       0.088   3.960  -2.368  0.00  0.00     0.037 A 
ATOM     25  C   UNL d   1       0.642   5.139  -2.868  0.00  0.00     0.003 A 
ATOM     26  C   UNL d   1       0.787   6.251  -2.037  0.00  0.00     0.000 A 
ATOM     27  C   UNL d   1       0.367   6.192  -0.708  0.00  0.00     0.003 A 
ATOM     28  C   UNL d   1      -0.177   5.011  -0.204  0.00  0.00     0.037 A 
ENDBRANCH  22  23
ENDBRANCH   2  22
TORSDOF 6
