REMARK  3 active torsions:
REMARK  status: ('A' for Active; 'I' for Inactive)
REMARK    1  A    between atoms: C_10  and  C_4 
REMARK    2  A    between atoms: N_8  and  C_7 
REMARK    3  A    between atoms: C_11  and  N_8 
ROOT
ATOM      1  C   UNL d   1      -0.447   0.961   0.188  0.00  0.00     0.133 A 
ATOM      2  N   UNL d   1      -1.413   0.125  -0.330  0.00  0.00    -0.329 N 
ATOM      3  HN  UNL d   1      -2.402   0.317  -0.488  1.00  0.00     0.168 HD
ATOM      4  C   UNL d   1      -0.756  -0.965  -0.568  0.00  0.00     0.162 A 
ATOM      5  C   UNL d   1       0.844   0.213   0.320  0.00  0.00     0.318 A 
ATOM      6  O   UNL d   1       0.552  -0.995  -0.235  0.00  0.00    -0.255 OA
ATOM      7  C   UNL d   1      -0.632   2.261   0.509  0.00  0.00     0.039 C 
ATOM      8  O   UNL d   1       1.904   0.513   0.830  0.00  0.00    -0.257 OA
ATOM      9  C   UNL d   1      -2.033   2.839   0.512  0.00  0.00     0.071 C 
ENDROOT
BRANCH   7  10
ATOM     10  N   UNL d   1       0.349   3.165   0.907  0.00  0.00    -0.358 N 
ATOM     11  H   UNL d   1      -0.004   3.948   1.453  0.00  0.00     0.166 HD
BRANCH  10  12
ATOM     12  C   UNL d   1       1.474   3.568   0.140  0.00  0.00     0.032 A 
ATOM     13  C   UNL d   1       1.746   3.095  -1.151  0.00  0.00     0.029 A 
ATOM     14  C   UNL d   1       2.933   3.435  -1.809  0.00  0.00     0.002 A 
ATOM     15  C   UNL d   1       3.864   4.262  -1.187  0.00  0.00     0.000 A 
ATOM     16  C   UNL d   1       3.604   4.758   0.087  0.00  0.00     0.002 A 
ATOM     17  C   UNL d   1       2.421   4.409   0.745  0.00  0.00     0.029 A 
ENDBRANCH  10  12
ENDBRANCH   7  10
BRANCH   4  18
ATOM     18  C   UNL d   1      -1.266  -2.208  -1.166  0.00  0.00     0.015 A 
ATOM     19  C   UNL d   1      -2.608  -2.276  -1.560  0.00  0.00     0.016 A 
ATOM     20  C   UNL d   1      -3.111  -3.453  -2.120  0.00  0.00     0.001 A 
ATOM     21  C   UNL d   1      -2.280  -4.560  -2.289  0.00  0.00     0.000 A 
ATOM     22  C   UNL d   1      -0.941  -4.494  -1.905  0.00  0.00     0.001 A 
ATOM     23  C   UNL d   1      -0.433  -3.320  -1.346  0.00  0.00     0.016 A 
ENDBRANCH   4  18
TORSDOF 3
