REMARK  4 active torsions:
REMARK  status: ('A' for Active; 'I' for Inactive)
REMARK    1  A    between atoms: C_12  and  C_2 
REMARK    2  A    between atoms: C_14  and  C_9 
REMARK    3  A    between atoms: C_16  and  C_11 
REMARK    4  A    between atoms: N_13  and  C_15 
ROOT
ATOM      1  N   UNL d   1       0.320   0.649   0.061  0.00  0.00    -0.235 N 
ATOM      2  C   UNL d   1      -0.797   1.472   0.057  0.00  0.00     0.144 A 
ATOM      3  C   UNL d   1       0.173  -0.745   0.011  0.00  0.00     0.130 A 
ATOM      4  N   UNL d   1       1.626   0.994   0.110  0.00  0.00    -0.289 N 
ATOM      5  HN  UNL d   1       2.014   1.932   0.208  1.00  0.00     0.188 HD
ATOM      6  N   UNL d   1      -1.052  -1.353   0.026  0.00  0.00    -0.340 N 
ATOM      7  HN  UNL d   1      -1.143  -2.369   0.028  1.00  0.00     0.167 HD
ATOM      8  C   UNL d   1       1.444  -1.264  -0.067  0.00  0.00     0.084 A 
ATOM      9  C   UNL d   1       2.300  -0.153   0.004  0.00  0.00     0.086 A 
ATOM     10  C   UNL d   1      -2.027   0.920   0.038  0.00  0.00     0.067 A 
ATOM     11  C   UNL d   1      -2.096  -0.576   0.038  0.00  0.00     0.046 A 
ENDROOT
BRANCH  11  12
ATOM     12  C   UNL d   1      -3.459  -1.183   0.098  0.00  0.00    -0.007 A 
ATOM     13  C   UNL d   1      -4.566  -0.582  -0.514  0.00  0.00     0.049 A 
ATOM     14  C   UNL d   1      -5.833  -1.167  -0.376  0.00  0.00     0.103 A 
ATOM     15  C   UNL d   1      -6.002  -2.354   0.348  0.00  0.00     0.036 A 
ATOM     16  C   UNL d   1      -4.892  -2.965   0.929  0.00  0.00     0.003 A 
ATOM     17  C   UNL d   1      -3.627  -2.384   0.803  0.00  0.00     0.014 A 
BRANCH  14  18
ATOM     18  N   UNL d   1      -6.998  -0.515  -0.988  0.00  0.00    -0.116 N 
ATOM     19  O   UNL d   1      -6.810   0.556  -1.581  0.00  0.00    -0.532 OA
ATOM     20  O   UNL d   1      -8.100  -1.070  -0.868  0.00  0.00    -0.532 OA
ENDBRANCH  14  18
ENDBRANCH  11  12
BRANCH   2  21
ATOM     21  C   UNL d   1      -0.617   2.944   0.061  0.00  0.00     0.434 C 
ATOM     22  F   UNL d   1       0.653   3.408   0.053  0.00  0.00    -0.165 F 
ATOM     23  F   UNL d   1      -1.232   3.498  -1.022  0.00  0.00    -0.165 F 
ATOM     24  F   UNL d   1      -1.223   3.497   1.148  0.00  0.00    -0.165 F 
ENDBRANCH   2  21
BRANCH   9  25
ATOM     25  C   UNL d   1       3.789  -0.193  -0.036  0.00  0.00     0.103 A 
ATOM     26  O   UNL d   1       4.538  -1.320  -0.237  0.00  0.00    -0.320 OA
ATOM     27  C   UNL d   1       5.843  -0.941  -0.235  0.00  0.00     0.142 A 
ATOM     28  C   UNL d   1       5.954   0.411  -0.016  0.00  0.00     0.027 A 
ATOM     29  C   UNL d   1       4.630   0.895   0.112  0.00  0.00     0.041 A 
ENDBRANCH   9  25
TORSDOF 4
