REMARK  2 active torsions:
REMARK  status: ('A' for Active; 'I' for Inactive)
REMARK    1  A    between atoms: C_4  and  N_1 
REMARK    2  A    between atoms: C_6  and  C_3 
ROOT
ATOM      1  N   UNL d   1       1.063   0.043  -0.093  0.00  0.00    -0.365 N 
ATOM      2  HN  UNL d   1       0.600   0.924  -0.314  1.00  0.00     0.165 HD
ATOM      3  C   UNL d   1       0.365  -1.025   0.134  0.00  0.00     0.099 C 
ENDROOT
BRANCH   1   4
ATOM      4  C   UNL d   1       2.465  -0.025  -0.033  0.00  0.00     0.032 A 
ATOM      5  C   UNL d   1       3.191   0.742  -0.953  0.00  0.00     0.032 A 
ATOM      6  C   UNL d   1       4.588   0.739  -0.951  0.00  0.00     0.044 A 
ATOM      7  C   UNL d   1       5.265  -0.036  -0.019  0.00  0.00     0.116 A 
ATOM      8  C   UNL d   1       4.571  -0.793   0.916  0.00  0.00     0.044 A 
ATOM      9  F   UNL d   1       6.604  -0.048  -0.016  0.00  0.00    -0.206 F 
ATOM     10  C   UNL d   1       3.173  -0.776   0.917  0.00  0.00     0.032 A 
ENDBRANCH   1   4
BRANCH   3  11
ATOM     11  C   UNL d   1      -1.109  -1.036   0.038  0.00  0.00    -0.021 A 
ATOM     12  C   UNL d   1      -1.810   0.076  -0.436  0.00  0.00     0.013 A 
ATOM     13  C   UNL d   1      -3.199   0.018  -0.559  0.00  0.00     0.001 A 
ATOM     14  C   UNL d   1      -3.885  -1.145  -0.203  0.00  0.00     0.000 A 
ATOM     15  C   UNL d   1      -3.185  -2.251   0.281  0.00  0.00     0.001 A 
ATOM     16  C   UNL d   1      -1.795  -2.199   0.401  0.00  0.00     0.013 A 
ENDBRANCH   3  11
TORSDOF 2
