REMARK  3 active torsions:
REMARK  status: ('A' for Active; 'I' for Inactive)
REMARK    1  A    between atoms: N_10  and  C_3 
REMARK    2  A    between atoms: C_11  and  C_8 
REMARK    3  A    between atoms: O_12  and  C_9 
ROOT
ATOM      1  N   UNL d   1      -0.678   1.148   0.018  0.00  0.00    -0.176 N 
ATOM      2  HN  UNL d   1      -1.170   2.041   0.031  1.00  0.00     0.186 HD
ATOM      3  C   UNL d   1      -1.341  -0.009   0.023  0.00  0.00     0.684 A 
ATOM      4  N   UNL d   1      -0.716  -1.179   0.005  0.00  0.00    -0.155 N 
ATOM      5  HN  UNL d   1      -1.218  -2.067   0.006  1.00  0.00     0.188 HD
ATOM      6  N   UNL d   1       1.363  -0.040  -0.020  0.00  0.00    -0.307 N 
ATOM      7  HN  UNL d   1       2.382  -0.070  -0.035  1.00  0.00     0.171 HD
ATOM      8  C   UNL d   1       0.657   1.088  -0.003  0.00  0.00     0.134 A 
ATOM      9  C   UNL d   1       0.601  -1.113  -0.015  0.00  0.00     0.237 A 
ENDROOT
BRANCH   8  10
ATOM     10  C   UNL d   1       1.405   2.364  -0.020  0.00  0.00     0.009 A 
ATOM     11  C   UNL d   1       2.813   2.391  -0.090  0.00  0.00     0.015 A 
ATOM     12  C   UNL d   1       3.523   3.595  -0.120  0.00  0.00     0.001 A 
ATOM     13  C   UNL d   1       2.841   4.807  -0.077  0.00  0.00     0.000 A 
ATOM     14  C   UNL d   1       1.451   4.814  -0.001  0.00  0.00     0.001 A 
ATOM     15  C   UNL d   1       0.744   3.607   0.027  0.00  0.00     0.015 A 
ENDBRANCH   8  10
BRANCH   9  16
ATOM     16  O   UNL d   1       1.284  -2.290  -0.031  0.00  0.00    -0.332 OA
ATOM     17  H   UNL d   1       2.191  -1.948  -0.036  0.00  0.00     0.221 HD
ENDBRANCH   9  16
BRANCH   3  18
ATOM     18  N   UNL d   1      -2.716   0.010   0.067  0.00  0.00    -0.226 N 
ATOM     19  C   UNL d   1      -3.474  -1.226   0.019  0.00  0.00     0.168 C 
ATOM     20  C   UNL d   1      -3.453   1.256   0.000  0.00  0.00     0.168 C 
ENDBRANCH   3  18
TORSDOF 3
