REMARK  2 active torsions:
REMARK  status: ('A' for Active; 'I' for Inactive)
REMARK    1  A    between atoms: N_10  and  C_1 
REMARK    2  A    between atoms: C_8  and  C_6 
ROOT
ATOM      1  C   UNL d   1       1.326   1.361   0.266  0.00  0.00     0.046 C 
ATOM      2  C   UNL d   1       2.724   1.049   0.193  0.00  0.00     0.039 C 
ATOM      3  C   UNL d   1       3.055  -0.279  -0.162  0.00  0.00     0.048 C 
ATOM      4  N   UNL d   1       2.173  -1.281  -0.159  0.00  0.00    -0.351 N 
ATOM      5  HN  UNL d   1       2.469  -2.230  -0.383  1.00  0.00     0.166 HD
ATOM      6  C   UNL d   1       0.874  -1.020   0.147  0.00  0.00     0.119 C 
ATOM      7  C   UNL d   1       0.419   0.286   0.294  0.00  0.00     0.064 C 
ATOM      8  C   UNL d   1       3.831   1.898   0.470  0.00  0.00     0.050 C 
ATOM      9  C   UNL d   1       5.127   1.601   0.046  0.00  0.00     0.048 C 
ATOM     10  C   UNL d   1       4.359  -0.597  -0.523  0.00  0.00     0.054 C 
ATOM     11  C   UNL d   1       5.371   0.352  -0.491  0.00  0.00     0.037 C 
ATOM     12 CL   UNL d   1       3.736   3.179   1.644  0.00  0.00    -0.083 Cl
ATOM     13 CL   UNL d   1       6.959  -0.055  -1.012  0.00  0.00    -0.084 Cl
ENDROOT
BRANCH   1  14
ATOM     14  N   UNL d   1       0.764   2.664   0.160  0.00  0.00    -0.380 N 
ATOM     15  C   UNL d   1       1.502   3.676  -0.617  0.00  0.00     0.123 C 
ATOM     16  C   UNL d   1       0.624   4.707  -1.313  0.00  0.00     0.020 C 
ATOM     17  C   UNL d   1      -0.492   4.088  -2.139  0.00  0.00     0.002 C 
ATOM     18  C   UNL d   1      -1.867   4.186  -1.485  0.00  0.00     0.000 C 
ATOM     19  C   UNL d   1      -2.091   3.431  -0.167  0.00  0.00     0.002 C 
ATOM     20  C   UNL d   1      -1.261   3.891   1.037  0.00  0.00     0.020 C 
ATOM     21  C   UNL d   1       0.024   3.109   1.347  0.00  0.00     0.123 C 
ENDBRANCH   1  14
BRANCH   6  22
ATOM     22  C   UNL d   1      -0.090  -2.179   0.334  0.00  0.00     0.432 C 
ATOM     23  F   UNL d   1       0.474  -3.409   0.195  0.00  0.00    -0.165 F 
ATOM     24  F   UNL d   1      -0.666  -2.176   1.578  0.00  0.00    -0.165 F 
ATOM     25  F   UNL d   1      -1.135  -2.149  -0.548  0.00  0.00    -0.165 F 
ENDBRANCH   6  22
TORSDOF 2
