REMARK  4 active torsions:
REMARK  status: ('A' for Active; 'I' for Inactive)
REMARK    1  A    between atoms: S_16  and  C_3 
REMARK    2  A    between atoms: C_14  and  C_19 
REMARK       I    between atoms: N_15  and  C_14 
REMARK    3  A    between atoms: C_19  and  S_16 
REMARK    4  A    between atoms: O_26  and  C_22 
ROOT
ATOM      1  N   UNL d   1       0.994   0.544  -0.029  0.00  0.00    -0.120 N 
ATOM      2  C   UNL d   1       1.724  -0.626   0.081  0.00  0.00     0.720 A 
ATOM      3  C   UNL d   1       1.937   1.542  -0.146  0.00  0.00     0.183 A 
ATOM      4  N   UNL d   1       3.009  -0.327   0.108  0.00  0.00    -0.128 N 
ATOM      5  HN  UNL d   1       3.774  -0.993   0.218  1.00  0.00     0.205 HD
ATOM      6  N   UNL d   1       1.109  -1.836   0.145  0.00  0.00    -0.130 N 
ATOM      7  HN  UNL d   1       1.683  -2.675   0.231  1.00  0.00     0.205 HD
ATOM      8  N   UNL d   1       3.144   1.032  -0.035  0.00  0.00    -0.265 N 
ATOM      9  HN  UNL d   1       4.021   1.552  -0.052  1.00  0.00     0.189 HD
ATOM     10  N   UNL d   1      -0.142  -1.958   0.103  0.00  0.00    -0.284 N 
ATOM     11  HN  UNL d   1      -0.571  -2.883   0.113  1.00  0.00     0.187 HD
ATOM     12  C   UNL d   1      -0.413   0.498  -0.015  0.00  0.00     0.087 A 
ATOM     13  C   UNL d   1      -0.946  -0.797   0.042  0.00  0.00     0.079 A 
ATOM     14  C   UNL d   1      -2.337  -0.954   0.043  0.00  0.00     0.070 A 
ATOM     15  C   UNL d   1      -1.256   1.610  -0.034  0.00  0.00     0.036 A 
ATOM     16  C   UNL d   1      -3.192   0.151   0.010  0.00  0.00     0.070 A 
ATOM     17  C   UNL d   1      -2.644   1.432  -0.022  0.00  0.00     0.039 A 
ENDROOT
BRANCH   3  18
ATOM     18  S   UNL d   1       1.604   3.200  -0.469  0.00  0.00    -0.082 SA
BRANCH  18  19
ATOM     19  C   UNL d   1       3.255   3.954  -0.574  0.00  0.00     0.185 C 
BRANCH  19  20
ATOM     20  C   UNL d   1       3.128   5.440  -0.925  0.00  0.00     0.229 C 
ATOM     21  N   UNL d   1       4.287   6.199  -0.956  0.00  0.00    -0.347 N 
ATOM     22  C   UNL d   1       5.635   5.763  -0.581  0.00  0.00     0.152 C 
ATOM     23  C   UNL d   1       4.192   7.644  -1.193  0.00  0.00     0.152 C 
ATOM     24  C   UNL d   1       6.148   6.598   0.602  0.00  0.00     0.187 C 
ATOM     25  O   UNL d   1       6.064   8.008   0.330  0.00  0.00    -0.388 OA
ATOM     26  C   UNL d   1       4.712   8.399   0.033  0.00  0.00     0.187 C 
ATOM     27  O   UNL d   1       2.038   5.964  -1.177  0.00  0.00    -0.273 OA
ENDBRANCH  19  20
ENDBRANCH  18  19
ENDBRANCH   3  18
BRANCH  16  28
ATOM     28  O   UNL d   1      -4.525  -0.148   0.018  0.00  0.00    -0.356 OA
ATOM     29  C   UNL d   1      -5.434   0.947  -0.003  0.00  0.00     0.210 C 
ENDBRANCH  16  28
TORSDOF 4
