REMARK  5 active torsions:
REMARK  status: ('A' for Active; 'I' for Inactive)
REMARK    1  A    between atoms: C_4  and  C_1 
REMARK       I    between atoms: N_7  and  C_4 
REMARK    2  A    between atoms: C_13  and  N_7 
REMARK    3  A    between atoms: C_8  and  C_13 
REMARK    4  A    between atoms: O_16  and  C_8 
REMARK    5  A    between atoms: C_18  and  O_16 
ROOT
ATOM      1  C   UNL d   1       3.977   0.751  -0.063  0.00  0.00     0.144 A 
ATOM      2  O   UNL d   1       3.571  -0.559  -0.049  0.00  0.00    -0.304 OA
ATOM      3  C   UNL d   1       2.874   1.583  -0.026  0.00  0.00     0.057 A 
ATOM      4  C   UNL d   1       1.728   0.751  -0.002  0.00  0.00     0.002 A 
ATOM      5  C   UNL d   1       2.208  -0.554  -0.015  0.00  0.00     0.086 A 
ATOM      6  C   UNL d   1       0.339   0.964   0.024  0.00  0.00     0.033 A 
ATOM      7  C   UNL d   1       1.392  -1.684   0.003  0.00  0.00     0.039 A 
ATOM      8  C   UNL d   1      -0.503  -0.157   0.036  0.00  0.00     0.011 A 
ATOM      9  C   UNL d   1       0.010  -1.457   0.026  0.00  0.00     0.022 A 
ATOM     10 BR   UNL d   1      -2.378   0.103   0.057  0.00  0.00    -0.051 Br
ENDROOT
BRANCH   1  11
ATOM     11  C   UNL d   1       5.386   1.073  -0.115  0.00  0.00     0.275 C 
ATOM     12  N   UNL d   1       6.227  -0.011  -0.156  0.00  0.00    -0.346 N 
ATOM     13  H   UNL d   1       5.834  -0.949  -0.132  0.00  0.00     0.163 HD
ATOM     14  O   UNL d   1       5.815   2.224  -0.124  0.00  0.00    -0.265 OA
BRANCH  12  15
ATOM     15  C   UNL d   1       7.665   0.161  -0.197  0.00  0.00     0.234 C 
BRANCH  15  16
ATOM     16  C   UNL d   1       8.384  -1.165  -0.033  0.00  0.00     0.276 C 
ATOM     17  O   UNL d   1       7.827  -2.249   0.088  0.00  0.00    -0.263 OA
BRANCH  16  18
ATOM     18  O   UNL d   1       9.729  -0.950   0.019  0.00  0.00    -0.321 OA
BRANCH  18  19
ATOM     19  C   UNL d   1      10.518  -2.057   0.474  0.00  0.00     0.174 C 
ATOM     20  C   UNL d   1      10.624  -1.977   1.986  0.00  0.00     0.034 C 
ENDBRANCH  18  19
ENDBRANCH  16  18
ENDBRANCH  15  16
ENDBRANCH  12  15
ENDBRANCH   1  11
TORSDOF 5
