REMARK  2 active torsions:
REMARK  status: ('A' for Active; 'I' for Inactive)
REMARK    1  A    between atoms: S_11  and  C_5 
REMARK    2  A    between atoms: C_9  and  N_8 
ROOT
ATOM      1  C   UNL d   1       3.607  -1.538  -0.797  0.00  0.00     0.166 A 
ATOM      2  S   UNL d   1       2.162  -2.477  -0.957  0.00  0.00    -0.027 SA
ATOM      3  N   UNL d   1       4.642  -2.096  -1.394  0.00  0.00    -0.278 N 
ATOM      4  HN  UNL d   1       5.579  -1.691  -1.386  1.00  0.00     0.189 HD
ATOM      5  C   UNL d   1       3.064  -3.583  -1.896  0.00  0.00     0.127 A 
ATOM      6  N   UNL d   1       4.333  -3.281  -2.029  0.00  0.00    -0.286 N 
ATOM      7  HN  UNL d   1       5.008  -3.852  -2.538  1.00  0.00     0.188 HD
ATOM      8  N   UNL d   1       3.580  -0.378  -0.098  0.00  0.00    -0.334 N 
ATOM      9  H   UNL d   1       2.763  -0.176   0.468  0.00  0.00     0.168 HD
ENDROOT
BRANCH   8  10
ATOM     10  C   UNL d   1       4.567   0.630  -0.039  0.00  0.00     0.056 A 
ATOM     11  C   UNL d   1       4.538   1.583   1.002  0.00  0.00     0.060 A 
ATOM     12 CL   UNL d   1       3.275   1.551   2.188  0.00  0.00    -0.082 Cl
ATOM     13  C   UNL d   1       5.518   2.575   1.113  0.00  0.00     0.026 A 
ATOM     14  C   UNL d   1       6.551   2.638   0.182  0.00  0.00     0.002 A 
ATOM     15  C   UNL d   1       6.603   1.708  -0.852  0.00  0.00     0.002 A 
ATOM     16  C   UNL d   1       5.626   0.713  -0.956  0.00  0.00     0.031 A 
ENDBRANCH   8  10
BRANCH   5  17
ATOM     17  S   UNL d   1       2.375  -5.001  -2.641  0.00  0.00    -0.117 SA
ATOM     18  H   UNL d   1       1.089  -4.675  -2.464  0.00  0.00     0.109 HD
ENDBRANCH   5  17
TORSDOF 2
