REMARK  3 active torsions:
REMARK  status: ('A' for Active; 'I' for Inactive)
REMARK    1  A    between atoms: C_2  and  C_1 
REMARK       I    between atoms: N_5  and  C_2 
REMARK    2  A    between atoms: N_7  and  N_5 
REMARK    3  A    between atoms: C_9  and  N_7 
ROOT
ATOM      1  C   UNL d   1       1.928   1.044  -1.007  0.00  0.00     0.274 C 
ATOM      2  N   UNL d   1       2.181   2.406  -1.097  0.00  0.00    -0.282 N 
ATOM      3  O   UNL d   1       1.993   0.475   0.087  0.00  0.00    -0.266 OA
ATOM      4  H   UNL d   1       1.965   2.946  -1.930  0.00  0.00     0.184 HD
ENDROOT
BRANCH   2   5
ATOM      5  N   UNL d   1       2.356   3.146   0.089  0.00  0.00    -0.203 NA
ATOM      6  H   UNL d   1       2.591   2.507   0.862  0.00  0.00     0.153 HD
BRANCH   5   7
ATOM      7  C   UNL d   1       3.371   4.139  -0.006  0.00  0.00     0.033 A 
ATOM      8  C   UNL d   1       3.329   5.254   0.855  0.00  0.00    -0.039 A 
ATOM      9  C   UNL d   1       4.351   6.221   0.792  0.00  0.00     0.015 A 
ATOM     10  C   UNL d   1       2.197   5.497   1.817  0.00  0.00     0.050 C 
ATOM     11  C   UNL d   1       5.438   6.078  -0.077  0.00  0.00    -0.061 A 
ATOM     12  C   UNL d   1       5.502   4.947  -0.890  0.00  0.00     0.008 A 
ATOM     13  C   UNL d   1       6.516   7.120  -0.107  0.00  0.00     0.048 C 
ATOM     14  C   UNL d   1       4.487   3.986  -0.847  0.00  0.00     0.026 A 
ENDBRANCH   5   7
ENDBRANCH   2   5
BRANCH   1  15
ATOM     15  C   UNL d   1       1.607   0.378  -2.265  0.00  0.00     0.095 A 
ATOM     16  C   UNL d   1       1.577   0.836  -3.572  0.00  0.00     0.057 A 
ATOM     17  C   UNL d   1       1.239  -0.187  -4.510  0.00  0.00     0.032 A 
ATOM     18 CL   UNL d   1       1.910   2.425  -4.128  0.00  0.00    -0.083 Cl
ATOM     19  C   UNL d   1       1.009  -1.397  -3.900  0.00  0.00     0.052 A 
ATOM     20  S   UNL d   1       1.196  -1.298  -2.207  0.00  0.00    -0.095 SA
ENDBRANCH   1  15
TORSDOF 3
