REMARK  11 active torsions:
REMARK  status: ('A' for Active; 'I' for Inactive)
REMARK    1  A    between atoms: O_15  and  C_1 
REMARK    2  A    between atoms: O_16  and  C_2 
REMARK    3  A    between atoms: O_13  and  C_3 
REMARK    4  A    between atoms: O_14  and  C_4 
REMARK    5  A    between atoms: C_11  and  C_18 
REMARK    6  A    between atoms: C_17  and  C_12 
REMARK    7  A    between atoms: C_25  and  C_17 
REMARK    8  A    between atoms: C_18  and  C_26 
REMARK    9  A    between atoms: C_28  and  C_25 
REMARK   10  A    between atoms: C_26  and  C_27 
REMARK   11  A    between atoms: C_27  and  C_28 
ROOT
ATOM      1  C   UNL d   1       4.731   3.281  -0.230  0.00  0.00     0.000 C 
ENDROOT
BRANCH   1   2
ATOM      2  C   UNL d   1       6.201   3.557   0.026  0.00  0.00     0.005 C 
BRANCH   2   3
ATOM      3  C   UNL d   1       7.179   2.939  -0.962  0.00  0.00     0.041 C 
BRANCH   3   4
ATOM      4  C   UNL d   1       8.648   3.203  -0.730  0.00  0.00    -0.022 A 
ATOM      5  C   UNL d   1       9.242   3.765   0.405  0.00  0.00     0.075 A 
ATOM      6  C   UNL d   1      10.637   3.918   0.462  0.00  0.00     0.046 A 
ATOM      7  C   UNL d   1      11.503   3.480  -0.575  0.00  0.00    -0.026 A 
ATOM      8  C   UNL d   1      10.923   2.878  -1.697  0.00  0.00     0.074 A 
ATOM      9  C   UNL d   1      12.961   3.708  -0.295  0.00  0.00     0.051 C 
ATOM     10  C   UNL d   1       9.519   2.782  -1.761  0.00  0.00     0.047 A 
BRANCH   5  11
ATOM     11  O   UNL d   1       8.567   3.930   1.583  0.00  0.00    -0.355 OA
ATOM     12  C   UNL d   1       8.065   5.246   1.800  0.00  0.00     0.210 C 
ENDBRANCH   5  11
BRANCH   8  13
ATOM     13  O   UNL d   1      11.480   2.319  -2.812  0.00  0.00    -0.355 OA
ATOM     14  C   UNL d   1      12.868   2.098  -2.932  0.00  0.00     0.210 C 
ENDBRANCH   8  13
ENDBRANCH   3   4
ENDBRANCH   2   3
ENDBRANCH   1   2
BRANCH   1  15
ATOM     15  C   UNL d   1       4.391   1.799  -0.129  0.00  0.00     0.000 C 
BRANCH  15  16
ATOM     16  C   UNL d   1       2.885   1.625  -0.041  0.00  0.00     0.005 C 
BRANCH  16  17
ATOM     17  C   UNL d   1       2.489   0.158  -0.050  0.00  0.00     0.041 C 
BRANCH  17  18
ATOM     18  C   UNL d   1       0.990   0.030  -0.030  0.00  0.00    -0.022 A 
ATOM     19  C   UNL d   1       0.380   0.054   1.245  0.00  0.00     0.047 A 
ATOM     20  C   UNL d   1      -1.000  -0.073   1.405  0.00  0.00     0.074 A 
ATOM     21  C   UNL d   1      -1.805  -0.197   0.267  0.00  0.00    -0.026 A 
ATOM     22  C   UNL d   1      -1.204  -0.212  -1.005  0.00  0.00     0.046 A 
ATOM     23  C   UNL d   1      -3.295  -0.352   0.395  0.00  0.00     0.051 C 
ATOM     24  C   UNL d   1       0.183  -0.097  -1.165  0.00  0.00     0.075 A 
BRANCH  20  25
ATOM     25  O   UNL d   1      -1.643  -0.100   2.615  0.00  0.00    -0.355 OA
ATOM     26  C   UNL d   1      -0.832  -0.084   3.784  0.00  0.00     0.210 C 
ENDBRANCH  20  25
BRANCH  24  27
ATOM     27  O   UNL d   1       0.619  -0.281  -2.451  0.00  0.00    -0.355 OA
ATOM     28  C   UNL d   1       1.504   0.696  -2.984  0.00  0.00     0.210 C 
ENDBRANCH  24  27
ENDBRANCH  17  18
ENDBRANCH  16  17
ENDBRANCH  15  16
ENDBRANCH   1  15
TORSDOF 11
