REMARK  5 active torsions:
REMARK  status: ('A' for Active; 'I' for Inactive)
REMARK    1  A    between atoms: N_2  and  C_1 
REMARK    2  A    between atoms: C_5  and  N_14 
REMARK    3  A    between atoms: N_15  and  C_5 
REMARK    4  A    between atoms: C_12  and  C_6 
REMARK    5  A    between atoms: N_14  and  N_7 
ROOT
ATOM      1  N   UNL d   1       0.920  -3.554  -0.027  0.00  0.00    -0.308 N 
ATOM      2  HN  UNL d   1       1.890  -3.239  -0.022  1.00  0.00     0.186 HD
ATOM      3  C   UNL d   1      -0.066  -2.715  -0.023  0.00  0.00     0.126 C 
ENDROOT
BRANCH   1   4
ATOM      4  N   UNL d   1       0.599  -4.881  -0.036  0.00  0.00    -0.277 N 
ATOM      5  H   UNL d   1      -0.368  -5.193  -0.041  0.00  0.00     0.189 HD
BRANCH   4   6
ATOM      6  C   UNL d   1       1.593  -5.824  -0.042  0.00  0.00     0.184 C 
ATOM      7  S   UNL d   1       1.283  -7.451  -0.055  0.00  0.00    -0.040 SA
BRANCH   6   8
ATOM      8  N   UNL d   1       2.855  -5.329  -0.035  0.00  0.00    -0.375 N 
ATOM      9  H   UNL d   1       2.953  -4.321  -0.028  0.00  0.00     0.158 HD
ATOM     10  H   UNL d   1       3.667  -5.929  -0.038  0.00  0.00     0.158 HD
ENDBRANCH   6   8
ENDBRANCH   4   6
ENDBRANCH   1   4
BRANCH   3  11
ATOM     11  C   UNL d   1       0.241  -1.304  -0.014  0.00  0.00     0.024 A 
ATOM     12  S   UNL d   1      -1.011  -0.142  -0.012  0.00  0.00    -0.065 SA
ATOM     13  C   UNL d   1       0.107   1.142  -0.002  0.00  0.00     0.144 A 
ATOM     14  C   UNL d   1       1.416   0.712   0.000  0.00  0.00     0.045 A 
ATOM     15  C   UNL d   1       1.490  -0.710  -0.006  0.00  0.00     0.023 A 
BRANCH  13  16
ATOM     16  N   UNL d   1      -0.338   2.511   0.003  0.00  0.00    -0.108 N 
ATOM     17  O   UNL d   1       0.549   3.376   0.007  0.00  0.00    -0.531 OA
ATOM     18  O   UNL d   1      -1.556   2.732   0.002  0.00  0.00    -0.531 OA
ENDBRANCH  13  16
ENDBRANCH   3  11
TORSDOF 5
