REMARK  8 active torsions:
REMARK  status: ('A' for Active; 'I' for Inactive)
REMARK    1  A    between atoms: O_14  and  C_1 
REMARK    2  A    between atoms: C_3  and  C_2 
REMARK    3  A    between atoms: O_8  and  C_3 
REMARK    4  A    between atoms: O_15  and  C_4 
REMARK    5  A    between atoms: O_16  and  C_5 
REMARK    6  A    between atoms: C_11  and  O_8 
REMARK    7  A    between atoms: C_9  and  C_11 
REMARK    8  A    between atoms: C_13  and  C_9 
ROOT
ATOM      1  C   UNL d   1       1.378  -0.348   0.019  0.00  0.00     0.135 A 
ATOM      2  C   UNL d   1      -1.395   0.263  -0.085  0.00  0.00     0.045 A 
ATOM      3  C   UNL d   1       0.420  -1.383  -0.023  0.00  0.00     0.105 A 
ATOM      4  C   UNL d   1       0.920   0.991  -0.009  0.00  0.00     0.105 A 
ATOM      5  C   UNL d   1      -0.945  -1.063  -0.103  0.00  0.00     0.057 A 
ATOM      6  C   UNL d   1      -0.455   1.288  -0.033  0.00  0.00     0.057 A 
ENDROOT
BRANCH   2   7
ATOM      7  C   UNL d   1      -2.869   0.483  -0.156  0.00  0.00     0.293 C 
ATOM      8  O   UNL d   1      -3.664  -0.436  -0.305  0.00  0.00    -0.259 OA
BRANCH   7   9
ATOM      9  O   UNL d   1      -3.198   1.798  -0.111  0.00  0.00    -0.310 OA
BRANCH   9  10
ATOM     10  C   UNL d   1      -4.588   2.063  -0.334  0.00  0.00     0.263 C 
BRANCH  10  11
ATOM     11  C   UNL d   1      -5.499   1.948   0.895  0.00  0.00     0.183 C 
ATOM     12  O   UNL d   1      -5.059   1.675   2.014  0.00  0.00    -0.290 OA
BRANCH  11  13
ATOM     13  C   UNL d   1      -6.966   2.217   0.723  0.00  0.00     0.012 A 
ATOM     14  C   UNL d   1      -7.521   2.604  -0.505  0.00  0.00     0.015 A 
ATOM     15  C   UNL d   1      -8.889   2.866  -0.612  0.00  0.00     0.001 A 
ATOM     16  C   UNL d   1      -9.721   2.747   0.499  0.00  0.00     0.000 A 
ATOM     17  C   UNL d   1      -9.183   2.357   1.726  0.00  0.00     0.001 A 
ATOM     18  C   UNL d   1      -7.809   2.095   1.834  0.00  0.00     0.015 A 
ENDBRANCH  11  13
ENDBRANCH  10  11
ENDBRANCH   9  10
ENDBRANCH   7   9
ENDBRANCH   2   7
BRANCH   4  19
ATOM     19  O   UNL d   1       1.716   2.112   0.051  0.00  0.00    -0.353 OA
ATOM     20  C   UNL d   1       2.908   2.069  -0.731  0.00  0.00     0.210 C 
ENDBRANCH   4  19
BRANCH   3  21
ATOM     21  O   UNL d   1       0.839  -2.688   0.009  0.00  0.00    -0.353 OA
ATOM     22  C   UNL d   1      -0.068  -3.633   0.573  0.00  0.00     0.210 C 
ENDBRANCH   3  21
BRANCH   1  23
ATOM     23  O   UNL d   1       2.723  -0.510   0.232  0.00  0.00    -0.351 OA
ATOM     24  C   UNL d   1       3.391  -1.677  -0.226  0.00  0.00     0.210 C 
ENDBRANCH   1  23
TORSDOF 8
