REMARK  3 active torsions:
REMARK  status: ('A' for Active; 'I' for Inactive)
REMARK    1  A    between atoms: C_9  and  C_1 
REMARK       I    between atoms: C_5  and  N_10 
REMARK       I    between atoms: N_8  and  C_5 
REMARK    2  A    between atoms: C_13  and  N_8 
REMARK    3  A    between atoms: N_10  and  C_18 
ROOT
ATOM      1  C   UNL d   1      -3.931  -0.614   0.588  0.00  0.00    -0.002 A 
ATOM      2  C   UNL d   1      -4.779   0.332  -0.005  0.00  0.00     0.016 A 
ATOM      3  C   UNL d   1      -4.519  -1.758   1.139  0.00  0.00     0.016 A 
ATOM      4  C   UNL d   1      -6.702  -1.143   0.274  0.00  0.00     0.036 A 
ATOM      5  C   UNL d   1      -5.882  -2.017   0.984  0.00  0.00     0.030 A 
ATOM      6  C   UNL d   1      -6.153   0.069  -0.163  0.00  0.00     0.030 A 
ENDROOT
BRANCH   4   7
ATOM      7  N   UNL d   1      -8.042  -1.449  -0.078  0.00  0.00    -0.309 N 
ATOM      8  C   UNL d   1      -8.644  -2.696   0.049  0.00  0.00     0.325 C 
ATOM      9  N   UNL d   1      -9.899  -2.724  -0.538  0.00  0.00    -0.309 N 
ATOM     10  O   UNL d   1      -8.129  -3.666   0.592  0.00  0.00    -0.247 OA
ATOM     11  H   UNL d   1     -10.331  -1.836  -0.737  0.00  0.00     0.170 HD
ATOM     12  H   UNL d   1      -8.519  -0.764  -0.644  0.00  0.00     0.170 HD
BRANCH   9  13
ATOM     13  C   UNL d   1     -10.701  -3.879  -0.733  0.00  0.00     0.037 A 
ATOM     14  C   UNL d   1     -10.245  -5.188  -0.538  0.00  0.00     0.053 A 
ATOM     15  C   UNL d   1     -11.094  -6.276  -0.755  0.00  0.00     0.036 A 
ATOM     16 CL   UNL d   1     -10.513  -7.878  -0.505  0.00  0.00    -0.084 Cl
ATOM     17  C   UNL d   1     -12.403  -6.077  -1.178  0.00  0.00     0.024 A 
ATOM     18  C   UNL d   1     -12.867  -4.780  -1.389  0.00  0.00     0.004 A 
ATOM     19  C   UNL d   1     -12.019  -3.688  -1.171  0.00  0.00     0.029 A 
ENDBRANCH   9  13
ENDBRANCH   4   7
BRANCH   1  20
ATOM     20  C   UNL d   1      -2.466  -0.443   0.557  0.00  0.00     0.085 A 
ATOM     21  N   UNL d   1      -1.822   0.707   0.513  0.00  0.00    -0.349 N 
ATOM     22  C   UNL d   1      -0.453   0.485   0.396  0.00  0.00     0.050 A 
ATOM     23  HN  UNL d   1      -2.263   1.626   0.560  1.00  0.00     0.166 HD
ATOM     24  C   UNL d   1       0.554   1.469   0.326  0.00  0.00     0.031 A 
ATOM     25  C   UNL d   1      -0.069  -0.852   0.328  0.00  0.00     0.034 A 
ATOM     26  C   UNL d   1       1.897   1.088   0.180  0.00  0.00     0.009 A 
ATOM     27  C   UNL d   1       2.260  -0.259   0.104  0.00  0.00    -0.061 A 
ATOM     28  C   UNL d   1       1.271  -1.248   0.183  0.00  0.00     0.028 A 
ATOM     29  C   UNL d   1       3.699  -0.648  -0.078  0.00  0.00     0.048 C 
ATOM     30  S   UNL d   1      -1.459  -1.841   0.438  0.00  0.00    -0.070 SA
ENDBRANCH   1  20
TORSDOF 3
