REMARK  1 active torsions:
REMARK  status: ('A' for Active; 'I' for Inactive)
REMARK    1  A    between atoms: C_9  and  N_8 
ROOT
ATOM      1  C   UNL d   1       2.909   1.887   0.564  0.00  0.00     0.165 A 
ATOM      2  S   UNL d   1       1.429   2.598   1.103  0.00  0.00    -0.038 SA
ATOM      3  N   UNL d   1       3.959   2.642   0.830  0.00  0.00    -0.279 N 
ATOM      4  HN  UNL d   1       4.909   2.400   0.547  1.00  0.00     0.189 HD
ATOM      5  N   UNL d   1       3.648   3.786   1.526  0.00  0.00    -0.296 N 
ATOM      6  HN  UNL d   1       4.335   4.479   1.824  1.00  0.00     0.187 HD
ATOM      7  C   UNL d   1       2.359   3.880   1.763  0.00  0.00     0.066 A 
ATOM      8  N   UNL d   1       2.915   0.684  -0.064  0.00  0.00    -0.335 N 
ATOM      9  C   UNL d   1       1.738   4.985   2.534  0.00  0.00     0.078 C 
ATOM     10  H   UNL d   1       2.020   0.248  -0.253  0.00  0.00     0.168 HD
ENDROOT
BRANCH   8  11
ATOM     11  C   UNL d   1       3.993  -0.235  -0.051  0.00  0.00     0.041 A 
ATOM     12  C   UNL d   1       4.155  -1.176  -1.095  0.00  0.00    -0.013 A 
ATOM     13  C   UNL d   1       5.247  -2.069  -1.040  0.00  0.00     0.042 A 
ATOM     14  C   UNL d   1       3.211  -1.230  -2.270  0.00  0.00     0.052 C 
ATOM     15 CL   UNL d   1       5.510  -3.262  -2.269  0.00  0.00    -0.084 Cl
ATOM     16  C   UNL d   1       6.170  -2.027   0.008  0.00  0.00     0.024 A 
ATOM     17  C   UNL d   1       6.022  -1.092   1.021  0.00  0.00     0.004 A 
ATOM     18  C   UNL d   1       4.948  -0.206   0.986  0.00  0.00     0.030 A 
ENDBRANCH   8  11
TORSDOF 1
