REMARK  7 active torsions:
REMARK  status: ('A' for Active; 'I' for Inactive)
REMARK    1  A    between atoms: C_2  and  S_1 
REMARK    2  A    between atoms: N_8  and  S_1 
REMARK       I    between atoms: C_5  and  N_7 
REMARK    3  A    between atoms: C_14  and  C_5 
REMARK    4  A    between atoms: C_6  and  C_15 
REMARK    5  A    between atoms: O_18  and  C_6 
REMARK    6  A    between atoms: N_7  and  C_13 
REMARK    7  A    between atoms: C_15  and  C_14 
ROOT
ATOM      1  C   UNL d   1       0.376   0.534  -1.525  0.00  0.00     0.074 A 
ATOM      2  C   UNL d   1       0.347   1.831  -2.036  0.00  0.00     0.027 A 
ATOM      3  C   UNL d   1      -0.025  -0.544  -2.312  0.00  0.00     0.027 A 
ATOM      4  C   UNL d   1      -0.516   0.977  -4.147  0.00  0.00     0.034 A 
ATOM      5  C   UNL d   1      -0.469  -0.318  -3.619  0.00  0.00     0.031 A 
ATOM      6  C   UNL d   1      -0.101   2.049  -3.344  0.00  0.00     0.031 A 
ENDROOT
BRANCH   4   7
ATOM      7  N   UNL d   1      -0.974   1.280  -5.449  0.00  0.00    -0.327 N 
ATOM      8  C   UNL d   1      -1.436   0.388  -6.396  0.00  0.00     0.222 C 
ATOM      9  O   UNL d   1      -1.504  -0.833  -6.281  0.00  0.00    -0.273 OA
ATOM     10  H   UNL d   1      -1.017   2.264  -5.683  0.00  0.00     0.169 HD
BRANCH   8  11
ATOM     11  C   UNL d   1      -1.904   1.049  -7.679  0.00  0.00     0.113 C 
BRANCH  11  12
ATOM     12  C   UNL d   1      -3.355   0.666  -7.953  0.00  0.00     0.120 C 
BRANCH  12  13
ATOM     13  C   UNL d   1      -4.262   1.251  -6.899  0.00  0.00     0.258 C 
ATOM     14  O   UNL d   1      -4.025   2.276  -6.277  0.00  0.00    -0.265 OA
BRANCH  13  15
ATOM     15  O   UNL d   1      -5.382   0.490  -6.771  0.00  0.00    -0.326 OA
ATOM     16  C   UNL d   1      -6.288   0.948  -5.766  0.00  0.00     0.213 C 
ENDBRANCH  13  15
ENDBRANCH  12  13
ENDBRANCH  11  12
ENDBRANCH   8  11
ENDBRANCH   4   7
BRANCH   1  17
ATOM     17  S   UNL d   1       0.905   0.254   0.138  0.00  0.00     0.239 S 
ATOM     18  O   UNL d   1       1.131   1.525   0.788  0.00  0.00    -0.206 OA
ATOM     19  O   UNL d   1       1.883  -0.804   0.147  0.00  0.00    -0.206 OA
BRANCH  17  20
ATOM     20  N   UNL d   1      -0.482  -0.366   0.854  0.00  0.00    -0.225 NA
ATOM     21  H   UNL d   1      -0.915   0.339   1.450  0.00  0.00     0.136 HD
ATOM     22  H   UNL d   1      -0.257  -1.234   1.340  0.00  0.00     0.136 HD
ENDBRANCH  17  20
ENDBRANCH   1  17
TORSDOF 7
