REMARK  6 active torsions:
REMARK  status: ('A' for Active; 'I' for Inactive)
REMARK       I    between atoms: N_2  and  C_1 
REMARK    1  A    between atoms: C_4  and  C_1 
REMARK    2  A    between atoms: C_3  and  N_2 
REMARK    3  A    between atoms: C_13  and  C_3 
REMARK    4  A    between atoms: O_8  and  C_13 
REMARK    5  A    between atoms: C_9  and  O_8 
REMARK    6  A    between atoms: O_18  and  C_15 
ROOT
ATOM      1  C   UNL d   1       1.147   1.161  -2.148  0.00  0.00     0.102 C 
ATOM      2  N   UNL d   1       2.349   1.606  -2.014  0.00  0.00    -0.387 N 
ATOM      3  HN  UNL d   1       2.901   2.060  -2.742  1.00  0.00     0.157 HD
ATOM      4  H   UNL d   1       2.661   1.424  -1.042  0.00  0.00     0.157 HD
ENDROOT
BRANCH   1   5
ATOM      5  N   UNL d   1       0.455   0.543  -1.129  0.00  0.00    -0.311 N 
ATOM      6  C   UNL d   1       0.982   0.113   0.086  0.00  0.00     0.257 C 
ATOM      7  O   UNL d   1       2.137   0.338   0.430  0.00  0.00    -0.267 OA
ATOM      8  H   UNL d   1      -0.524   0.388  -1.310  0.00  0.00     0.170 HD
BRANCH   6   9
ATOM      9  C   UNL d   1       0.062  -0.637   0.997  0.00  0.00     0.032 A 
ATOM     10  C   UNL d   1      -1.132  -1.232   0.569  0.00  0.00     0.020 A 
ATOM     11  C   UNL d   1      -1.967  -1.893   1.483  0.00  0.00     0.038 A 
ATOM     12  C   UNL d   1      -1.611  -1.978   2.829  0.00  0.00     0.068 A 
ATOM     13  C   UNL d   1      -0.403  -1.424   3.248  0.00  0.00     0.038 A 
ATOM     14  C   UNL d   1       0.432  -0.761   2.342  0.00  0.00     0.020 A 
BRANCH  12  15
ATOM     15  O   UNL d   1      -2.343  -2.576   3.818  0.00  0.00    -0.356 OA
ATOM     16  C   UNL d   1      -3.624  -3.082   3.461  0.00  0.00     0.210 C 
ENDBRANCH  12  15
ENDBRANCH   6   9
ENDBRANCH   1   5
BRANCH   1  17
ATOM     17  C   UNL d   1       0.418   1.219  -3.485  0.00  0.00     0.251 C 
BRANCH  17  18
ATOM     18  O   UNL d   1      -0.661   2.145  -3.436  0.00  0.00    -0.342 OA
BRANCH  18  19
ATOM     19  C   UNL d   1      -1.235   2.466  -4.643  0.00  0.00     0.090 A 
ATOM     20  C   UNL d   1      -1.670   1.578  -5.643  0.00  0.00     0.067 A 
ATOM     21 CL   UNL d   1      -1.528  -0.141  -5.557  0.00  0.00    -0.081 Cl
ATOM     22  C   UNL d   1      -2.344   2.067  -6.773  0.00  0.00     0.026 A 
ATOM     23  C   UNL d   1      -2.610   3.425  -6.915  0.00  0.00     0.002 A 
ATOM     24  C   UNL d   1      -2.189   4.313  -5.928  0.00  0.00     0.003 A 
ATOM     25  C   UNL d   1      -1.507   3.831  -4.800  0.00  0.00     0.038 A 
ENDBRANCH  18  19
ENDBRANCH  17  18
ENDBRANCH   1  17
TORSDOF 6
