REMARK  2 active torsions:
REMARK  status: ('A' for Active; 'I' for Inactive)
REMARK    1  A    between atoms: O_10  and  N_5 
REMARK    2  A    between atoms: O_9  and  N_6 
ROOT
ATOM      1  C   UNL d   1       0.648   1.313   0.060  0.00  0.00     0.249 C 
ATOM      2  C   UNL d   1      -0.583  -1.314  -0.053  0.00  0.00     0.249 C 
ATOM      3  C   UNL d   1       1.484   0.035   0.305  0.00  0.00     0.117 C 
ATOM      4  C   UNL d   1      -1.408  -0.033  -0.321  0.00  0.00     0.117 C 
ATOM      5  N   UNL d   1       0.787  -1.123  -0.288  0.00  0.00    -0.112 NA
ATOM      6  N   UNL d   1      -0.720   1.114   0.302  0.00  0.00    -0.112 NA
ATOM      7  O   UNL d   1       1.156   2.432  -0.053  0.00  0.00    -0.275 OA
ATOM      8  O   UNL d   1      -1.096  -2.425   0.076  0.00  0.00    -0.275 OA
ATOM      9  C   UNL d   1       2.865   0.199  -0.349  0.00  0.00     0.044 C 
ATOM     10  C   UNL d   1       1.638  -0.116   1.830  0.00  0.00     0.044 C 
ATOM     11  C   UNL d   1      -1.510   0.131  -1.849  0.00  0.00     0.044 C 
ATOM     12  C   UNL d   1      -2.812  -0.195   0.281  0.00  0.00     0.044 C 
ENDROOT
BRANCH   5  13
ATOM     13  O   UNL d   1       1.518  -2.323  -0.042  0.00  0.00    -0.304 OA
ATOM     14  H   UNL d   1       1.530  -2.729  -0.929  0.00  0.00     0.237 HD
ENDBRANCH   5  13
BRANCH   6  15
ATOM     15  O   UNL d   1      -1.455   2.315   0.079  0.00  0.00    -0.304 OA
ATOM     16  H   UNL d   1      -1.480   2.697   0.978  0.00  0.00     0.237 HD
ENDBRANCH   6  15
TORSDOF 2
