REMARK  7 active torsions:
REMARK  status: ('A' for Active; 'I' for Inactive)
REMARK    1  A    between atoms: O_13  and  C_1 
REMARK    2  A    between atoms: C_2  and  C_9 
REMARK    3  A    between atoms: O_12  and  C_2 
REMARK    4  A    between atoms: O_5  and  C_3 
REMARK    5  A    between atoms: C_10  and  O_5 
REMARK    6  A    between atoms: C_9  and  C_6 
REMARK    7  A    between atoms: C_14  and  C_10 
ROOT
ATOM      1  C   UNL d   1       1.286  -0.265   0.121  0.00  0.00     0.102 A 
ATOM      2  C   UNL d   1       0.426  -1.357  -0.069  0.00  0.00     0.102 A 
ATOM      3  C   UNL d   1       0.740   1.033   0.206  0.00  0.00     0.047 A 
ATOM      4  C   UNL d   1      -0.637   1.271   0.110  0.00  0.00    -0.045 A 
ATOM      5  C   UNL d   1      -0.942  -1.097  -0.276  0.00  0.00     0.040 A 
ATOM      6  C   UNL d   1      -1.470   0.192  -0.180  0.00  0.00     0.010 A 
ENDROOT
BRANCH   2   7
ATOM      7  O   UNL d   1       0.921  -2.645  -0.033  0.00  0.00    -0.344 OA
BRANCH   7   8
ATOM      8  C   UNL d   1      -0.058  -3.647   0.278  0.00  0.00     0.214 C 
BRANCH   8   9
ATOM      9  C   UNL d   1       0.519  -4.962   0.749  0.00  0.00    -0.034 A 
ATOM     10  C   UNL d   1      -0.123  -5.646   1.796  0.00  0.00     0.009 A 
ATOM     11  C   UNL d   1       0.284  -6.923   2.175  0.00  0.00     0.001 A 
ATOM     12  C   UNL d   1       1.341  -7.537   1.510  0.00  0.00     0.000 A 
ATOM     13  C   UNL d   1       1.992  -6.869   0.472  0.00  0.00     0.001 A 
ATOM     14  C   UNL d   1       1.584  -5.587   0.090  0.00  0.00     0.009 A 
ENDBRANCH   8   9
ENDBRANCH   7   8
ENDBRANCH   2   7
BRANCH   1  15
ATOM     15  O   UNL d   1       2.644  -0.248   0.286  0.00  0.00    -0.353 OA
ATOM     16  C   UNL d   1       3.376  -1.450   0.130  0.00  0.00     0.210 C 
ENDBRANCH   1  15
BRANCH   4  17
ATOM     17  C   UNL d   1      -1.187   2.671   0.257  0.00  0.00     0.148 C 
BRANCH  17  18
ATOM     18  C   UNL d   1      -2.493   2.766   1.016  0.00  0.00     0.143 C 
ATOM     19  O   UNL d   1      -3.475   3.365   0.609  0.00  0.00    -0.650 OA
BRANCH  18  20
ATOM     20  O   UNL d   1      -2.477   2.158   2.230  0.00  0.00    -0.776 OA
ATOM     21  H   UNL d   1      -1.633   1.707   2.426  0.00  0.00     0.167 HD
ENDBRANCH  18  20
ENDBRANCH  17  18
ENDBRANCH   4  17
TORSDOF 7
