REMARK  4 active torsions:
REMARK  status: ('A' for Active; 'I' for Inactive)
REMARK    1  A    between atoms: C_2  and  C_1 
REMARK       I    between atoms: N_4  and  C_2 
REMARK    2  A    between atoms: C_6  and  C_17 
REMARK       I    between atoms: N_12  and  C_6 
REMARK    3  A    between atoms: C_17  and  N_9 
REMARK    4  A    between atoms: C_19  and  N_12 
ROOT
ATOM      1  N   UNL d   1      -8.842   2.303  -7.249  0.00  0.00    -0.191 NA
ATOM      2  C   UNL d   1      -8.088   1.803  -6.516  0.00  0.00     0.099 C 
ATOM      3  C   UNL d   1      -4.954   1.007  -4.635  0.00  0.00     0.036 A 
ATOM      4  C   UNL d   1      -7.186   1.186  -5.587  0.00  0.00     0.046 A 
ATOM      5  C   UNL d   1      -5.829   1.549  -5.583  0.00  0.00     0.052 A 
ATOM      6  C   UNL d   1      -6.795  -0.303  -3.726  0.00  0.00     0.004 A 
ATOM      7  C   UNL d   1      -5.450   0.084  -3.705  0.00  0.00     0.029 A 
ATOM      8  C   UNL d   1      -7.665   0.256  -4.659  0.00  0.00     0.023 A 
ENDROOT
BRANCH   3   9
ATOM      9  N   UNL d   1      -3.597   1.375  -4.534  0.00  0.00    -0.326 N 
ATOM     10  C   UNL d   1      -2.814   1.997  -5.490  0.00  0.00     0.250 C 
ATOM     11  O   UNL d   1      -3.179   2.274  -6.632  0.00  0.00    -0.271 OA
ATOM     12  H   UNL d   1      -3.099   1.119  -3.687  0.00  0.00     0.169 HD
BRANCH  10  13
ATOM     13  C   UNL d   1      -1.386   2.371  -5.023  0.00  0.00     0.375 C 
BRANCH  13  14
ATOM     14  N   UNL d   1      -1.018   1.803  -3.704  0.00  0.00     0.100 N 
ATOM     15  C   UNL d   1      -0.724   0.350  -3.733  0.00  0.00     0.293 C 
ATOM     16  C   UNL d   1       0.736  -0.085  -3.959  0.00  0.00     0.156 C 
ATOM     17  N   UNL d   1       1.673   0.665  -3.128  0.00  0.00    -0.346 N 
ATOM     18  C   UNL d   1       2.288   0.018  -2.060  0.00  0.00     0.251 C 
ATOM     19  C   UNL d   1       1.540   2.104  -3.328  0.00  0.00     0.156 C 
ATOM     20  O   UNL d   1       1.950  -1.140  -1.775  0.00  0.00    -0.270 OA
ATOM     21  C   UNL d   1       0.084   2.570  -3.060  0.00  0.00     0.293 C 
BRANCH  18  22
ATOM     22  C   UNL d   1       3.551   0.623  -1.362  0.00  0.00     0.245 C 
ATOM     23  O   UNL d   1       3.789   2.019  -1.288  0.00  0.00    -0.331 OA
ATOM     24  C   UNL d   1       3.240   2.604  -0.178  0.00  0.00     0.103 A 
ATOM     25  C   UNL d   1       3.239   3.997  -0.143  0.00  0.00     0.040 A 
ATOM     26  C   UNL d   1       2.682   1.877   0.874  0.00  0.00     0.102 A 
ATOM     27  C   UNL d   1       2.614   4.664   0.910  0.00  0.00     0.003 A 
ATOM     28  C   UNL d   1       1.992   3.935   1.925  0.00  0.00     0.003 A 
ATOM     29  C   UNL d   1       2.031   2.539   1.911  0.00  0.00     0.039 A 
ATOM     30  O   UNL d   1       2.740   0.511   0.944  0.00  0.00    -0.345 OA
ATOM     31  C   UNL d   1       3.723  -0.004   0.031  0.00  0.00     0.218 C 
ENDBRANCH  18  22
ENDBRANCH  13  14
ENDBRANCH  10  13
ENDBRANCH   3   9
TORSDOF 4
