REMARK  3 active torsions:
REMARK  status: ('A' for Active; 'I' for Inactive)
REMARK    1  A    between atoms: C_6  and  C_1 
REMARK    2  A    between atoms: C_7  and  C_6 
REMARK    3  A    between atoms: O_12  and  C_7 
ROOT
ATOM      1  C   UNL d   1       1.704  -0.991  -0.002  0.00  0.00    -0.030 A 
ATOM      2  C   UNL d   1       0.302  -0.617   0.001  0.00  0.00    -0.010 A 
ATOM      3  S   UNL d   1       1.657   1.584   0.004  0.00  0.00    -0.101 SA
ATOM      4  C   UNL d   1       2.524   0.121  -0.010  0.00  0.00     0.059 A 
ATOM      5  C   UNL d   1       0.141   0.773   0.002  0.00  0.00     0.015 A 
ATOM      6  C   UNL d   1      -0.872  -1.416   0.005  0.00  0.00     0.037 A 
ATOM      7  C   UNL d   1      -1.134   1.376   0.003  0.00  0.00     0.021 A 
ATOM      8  C   UNL d   1      -2.135  -0.817   0.003  0.00  0.00     0.035 A 
ATOM      9  C   UNL d   1      -2.268   0.562   0.001  0.00  0.00     0.025 A 
ATOM     10 CL   UNL d   1      -3.543  -1.808   0.000  0.00  0.00    -0.084 Cl
ENDROOT
BRANCH   1  11
ATOM     11  C   UNL d   1       2.222  -2.405  -0.008  0.00  0.00     0.149 C 
BRANCH  11  12
ATOM     12  C   UNL d   1       2.445  -3.035   1.353  0.00  0.00     0.143 C 
ATOM     13  O   UNL d   1       2.863  -4.180   1.473  0.00  0.00    -0.650 OA
BRANCH  12  14
ATOM     14  O   UNL d   1       2.171  -2.281   2.438  0.00  0.00    -0.776 OA
ATOM     15  H   UNL d   1       1.838  -1.381   2.259  0.00  0.00     0.167 HD
ENDBRANCH  12  14
ENDBRANCH  11  12
ENDBRANCH   1  11
TORSDOF 3
