REMARK  1 active torsions:
REMARK  status: ('A' for Active; 'I' for Inactive)
REMARK    1  A    between atoms: C_8  and  N_1 
ROOT
ATOM      1  N   UNL d   1       0.875  -0.734   0.125  0.00  0.00    -0.212 N 
ATOM      2  C   UNL d   1       0.611   0.610   0.336  0.00  0.00     0.215 A 
ATOM      3  N   UNL d   1      -0.322  -1.406   0.009  0.00  0.00    -0.219 N 
ATOM      4  HN  UNL d   1      -0.423  -2.405  -0.170  1.00  0.00     0.210 HD
ATOM      5  N   UNL d   1      -1.279  -0.585   0.161  0.00  0.00    -0.225 N 
ATOM      6  HN  UNL d   1      -2.272  -0.817   0.119  1.00  0.00     0.210 HD
ATOM      7  N   UNL d   1      -0.766   0.653   0.387  0.00  0.00    -0.259 N 
ATOM      8  S   UNL d   1       1.584   1.946   0.411  0.00  0.00    -0.037 SA
ATOM      9  H   UNL d   1      -1.355   1.469   0.471  0.00  0.00     0.191 HD
ENDROOT
BRANCH   1  10
ATOM     10  C   UNL d   1       2.077  -1.464   0.053  0.00  0.00     0.072 A 
ATOM     11  C   UNL d   1       3.020  -1.431   1.106  0.00  0.00    -0.033 A 
ATOM     12  C   UNL d   1       4.200  -2.190   1.001  0.00  0.00     0.009 A 
ATOM     13  C   UNL d   1       2.828  -0.673   2.394  0.00  0.00     0.050 C 
ATOM     14  C   UNL d   1       4.428  -3.012  -0.097  0.00  0.00     0.001 A 
ATOM     15  C   UNL d   1       3.491  -3.073  -1.119  0.00  0.00     0.009 A 
ATOM     16  C   UNL d   1       2.321  -2.294  -1.070  0.00  0.00    -0.033 A 
ATOM     17  C   UNL d   1       1.387  -2.389  -2.249  0.00  0.00     0.050 C 
ENDBRANCH   1  10
TORSDOF 1
