REMARK  2 active torsions:
REMARK  status: ('A' for Active; 'I' for Inactive)
REMARK       I    between atoms: C_2  and  N_1 
REMARK    1  A    between atoms: C_4  and  C_2 
REMARK    2  A    between atoms: S_12  and  C_3 
ROOT
ATOM      1  N   UNL d   1       0.990  -0.687  -0.266  0.00  0.00    -0.293 N 
ATOM      2  C   UNL d   1       2.244  -1.282  -0.407  0.00  0.00     0.259 C 
ATOM      3  C   UNL d   1      -0.262  -1.298  -0.337  0.00  0.00     0.144 A 
ATOM      4  N   UNL d   1      -1.300  -0.530  -0.264  0.00  0.00    -0.369 N 
ATOM      5  HN  UNL d   1      -2.279  -0.817  -0.277  1.00  0.00     0.161 HD
ATOM      6  O   UNL d   1       2.490  -2.471  -0.229  0.00  0.00    -0.267 OA
ATOM      7  C   UNL d   1       0.729   0.727  -0.188  0.00  0.00     0.154 A 
ATOM      8  C   UNL d   1      -0.783   0.841  -0.158  0.00  0.00     0.142 A 
ENDROOT
BRANCH   2   9
ATOM      9  C   UNL d   1       3.410  -0.451  -0.794  0.00  0.00     0.034 A 
ATOM     10  C   UNL d   1       3.839   0.651  -0.052  0.00  0.00     0.042 A 
ATOM     11  C   UNL d   1       4.962   1.377  -0.469  0.00  0.00     0.056 A 
ATOM     12 CL   UNL d   1       5.403   2.765   0.461  0.00  0.00    -0.083 Cl
ATOM     13  C   UNL d   1       5.683   0.974  -1.601  0.00  0.00     0.055 A 
ATOM     14  C   UNL d   1       5.281  -0.159  -2.312  0.00  0.00     0.026 A 
ATOM     15 CL   UNL d   1       7.080   1.821  -2.161  0.00  0.00    -0.083 Cl
ATOM     16  C   UNL d   1       4.149  -0.870  -1.909  0.00  0.00     0.019 A 
ENDBRANCH   2   9
BRANCH   3  17
ATOM     17  S   UNL d   1      -0.466  -2.993  -0.613  0.00  0.00    -0.098 SA
ATOM     18  C   UNL d   1       0.014  -3.641   0.999  0.00  0.00     0.099 C 
ENDBRANCH   3  17
TORSDOF 2
