REMARK  3 active torsions:
REMARK  status: ('A' for Active; 'I' for Inactive)
REMARK    1  A    between atoms: C_6  and  C_1 
REMARK    2  A    between atoms: C_3  and  N_2 
REMARK    3  A    between atoms: N_15  and  C_7 
ROOT
ATOM      1  N   UNL d   1       2.154  -3.120  -1.526  0.00  0.00    -0.366 N 
ATOM      2  C   UNL d   1       0.476  -0.761  -1.272  0.00  0.00     0.096 C 
ATOM      3  C   UNL d   1       1.093  -3.089  -0.525  0.00  0.00     0.125 C 
ATOM      4  C   UNL d   1       2.660  -1.865  -2.079  0.00  0.00     0.125 C 
ATOM      5  C   UNL d   1      -0.033  -2.171  -0.968  0.00  0.00     0.033 C 
ATOM      6  C   UNL d   1       1.538  -0.848  -2.368  0.00  0.00     0.033 C 
ENDROOT
BRANCH   1   7
ATOM      7  C   UNL d   1       2.367  -4.327  -2.192  0.00  0.00     0.124 A 
ATOM      8  N   UNL d   1       1.314  -5.172  -2.320  0.00  0.00    -0.351 N 
ATOM      9  C   UNL d   1       1.501  -6.357  -2.952  0.00  0.00     0.090 A 
ATOM     10  HN  UNL d   1       0.398  -4.921  -1.948  1.00  0.00     0.166 HD
ATOM     11  C   UNL d   1       2.706  -6.752  -3.502  0.00  0.00     0.019 A 
ATOM     12  C   UNL d   1       3.792  -5.901  -3.364  0.00  0.00     0.028 A 
ATOM     13  C   UNL d   1       3.661  -4.710  -2.642  0.00  0.00     0.050 A 
BRANCH  13  14
ATOM     14  N   UNL d   1       4.799  -3.881  -2.508  0.00  0.00    -0.300 NA
ATOM     15  H   UNL d   1       4.707  -3.323  -1.661  0.00  0.00     0.124 HD
ATOM     16  H   UNL d   1       5.672  -4.398  -2.520  0.00  0.00     0.124 HD
ENDBRANCH  13  14
ENDBRANCH   1   7
BRANCH   2  17
ATOM     17  C   UNL d   1       0.984  -0.025  -0.034  0.00  0.00     0.391 C 
ATOM     18  F   UNL d   1       0.275  -0.365   1.067  0.00  0.00    -0.171 F 
ATOM     19  F   UNL d   1       0.855   1.308  -0.197  0.00  0.00    -0.171 F 
ATOM     20  F   UNL d   1       2.283  -0.272   0.235  0.00  0.00    -0.171 F 
ENDBRANCH   2  17
TORSDOF 3
