REMARK  5 active torsions:
REMARK  status: ('A' for Active; 'I' for Inactive)
REMARK    1  A    between atoms: C_6  and  N_1 
REMARK    2  A    between atoms: C_5  and  C_2 
REMARK    3  A    between atoms: O_10  and  C_5 
REMARK    4  A    between atoms: C_8  and  C_6 
REMARK    5  A    between atoms: C_9  and  C_6 
ROOT
ATOM      1  C   UNL d   1       0.668   2.114   0.566  0.00  0.00     0.289 C 
ENDROOT
BRANCH   1   2
ATOM      2  N   UNL d   1       0.285   0.989  -0.331  0.00  0.00     0.103 N 
ATOM      3  C   UNL d   1      -1.174   0.668  -0.216  0.00  0.00     0.291 C 
ATOM      4  C   UNL d   1      -0.768  -0.823  -0.303  0.00  0.00     0.140 C 
ATOM      5  C   UNL d   1       0.551  -0.328   0.338  0.00  0.00     0.291 C 
BRANCH   4   6
ATOM      6  C   UNL d   1      -0.668  -1.461  -1.712  0.00  0.00     0.147 C 
ATOM      7  O   UNL d   1      -1.134  -2.550  -2.033  0.00  0.00    -0.650 OA
BRANCH   6   8
ATOM      8  O   UNL d   1       0.005  -0.702  -2.625  0.00  0.00    -0.776 OA
ATOM      9  H   UNL d   1       0.342   0.121  -2.202  0.00  0.00     0.167 HD
ENDBRANCH   6   8
ENDBRANCH   4   6
ENDBRANCH   1   2
BRANCH   1  10
ATOM     10  C   UNL d   1       2.183   2.332   0.548  0.00  0.00    -0.021 A 
ATOM     11  C   UNL d   1       2.866   2.624  -0.647  0.00  0.00     0.010 A 
ATOM     12  C   UNL d   1       4.237   2.884  -0.644  0.00  0.00     0.001 A 
ATOM     13  C   UNL d   1       4.952   2.847   0.551  0.00  0.00     0.000 A 
ATOM     14  C   UNL d   1       4.296   2.544   1.742  0.00  0.00     0.001 A 
ATOM     15  C   UNL d   1       2.922   2.289   1.742  0.00  0.00     0.010 A 
ENDBRANCH   1  10
BRANCH   1  16
ATOM     16  C   UNL d   1      -0.067   3.422   0.244  0.00  0.00    -0.021 A 
ATOM     17  C   UNL d   1      -0.360   4.319   1.286  0.00  0.00     0.010 A 
ATOM     18  C   UNL d   1      -1.024   5.520   1.030  0.00  0.00     0.001 A 
ATOM     19  C   UNL d   1      -1.397   5.845  -0.271  0.00  0.00     0.000 A 
ATOM     20  C   UNL d   1      -1.101   4.978  -1.318  0.00  0.00     0.001 A 
ATOM     21  C   UNL d   1      -0.433   3.779  -1.064  0.00  0.00     0.010 A 
ENDBRANCH   1  16
TORSDOF 5
