REMARK  4 active torsions:
REMARK  status: ('A' for Active; 'I' for Inactive)
REMARK    1  A    between atoms: C_3  and  C_1 
REMARK       I    between atoms: N_6  and  C_3 
REMARK    2  A    between atoms: C_15  and  N_12 
REMARK    3  A    between atoms: C_21  and  C_15 
REMARK    4  A    between atoms: C_22  and  C_15 
ROOT
ATOM      1  C   UNL d   1      -3.607  -1.375   0.021  0.00  0.00     0.254 C 
ATOM      2  N   UNL d   1      -3.654  -2.773   0.110  0.00  0.00    -0.345 N 
ATOM      3  N   UNL d   1      -3.930  -5.738   0.240  0.00  0.00     0.105 N 
ATOM      4  C   UNL d   1      -2.861  -3.588   1.036  0.00  0.00     0.156 C 
ATOM      5  C   UNL d   1      -4.796  -3.446  -0.528  0.00  0.00     0.156 C 
ATOM      6  O   UNL d   1      -4.299  -0.741  -0.772  0.00  0.00    -0.267 OA
ATOM      7  C   UNL d   1      -4.553  -4.939  -0.853  0.00  0.00     0.293 C 
ATOM      8  C   UNL d   1      -2.675  -5.041   0.585  0.00  0.00     0.293 C 
ENDROOT
BRANCH   1   9
ATOM      9  C   UNL d   1      -2.687  -0.581   0.894  0.00  0.00     0.034 A 
ATOM     10  C   UNL d   1      -2.561  -0.878   2.266  0.00  0.00     0.051 A 
ATOM     11  C   UNL d   1      -1.618  -0.102   2.958  0.00  0.00     0.086 A 
ATOM     12  N   UNL d   1      -1.218  -0.205   4.231  0.00  0.00    -0.240 N 
ATOM     13  C   UNL d   1      -0.900   0.998   2.337  0.00  0.00     0.085 A 
ATOM     14  O   UNL d   1      -0.272   0.791   4.407  0.00  0.00    -0.156 OA
ATOM     15  HN  UNL d   1      -1.542  -0.877   4.926  1.00  0.00     0.197 HD
ATOM     16  N   UNL d   1      -0.087   1.536   3.253  0.00  0.00    -0.240 N 
ATOM     17  HN  UNL d   1       0.539   2.332   3.129  1.00  0.00     0.197 HD
ATOM     18  C   UNL d   1      -1.103   1.359   0.993  0.00  0.00     0.035 A 
ATOM     19  C   UNL d   1      -2.008   0.527   0.296  0.00  0.00     0.019 A 
ENDBRANCH   1   9
BRANCH   3  20
ATOM     20  C   UNL d   1      -4.869  -5.918   1.393  0.00  0.00     0.289 C 
BRANCH  20  21
ATOM     21  C   UNL d   1      -6.113  -6.716   0.982  0.00  0.00    -0.021 A 
ATOM     22  C   UNL d   1      -5.998  -8.006   0.446  0.00  0.00     0.010 A 
ATOM     23  C   UNL d   1      -7.140  -8.732   0.084  0.00  0.00     0.001 A 
ATOM     24  C   UNL d   1      -8.401  -8.169   0.248  0.00  0.00     0.000 A 
ATOM     25  C   UNL d   1      -8.528  -6.883   0.771  0.00  0.00     0.001 A 
ATOM     26  C   UNL d   1      -7.393  -6.161   1.139  0.00  0.00     0.010 A 
ENDBRANCH  20  21
BRANCH  20  27
ATOM     27  C   UNL d   1      -4.265  -6.541   2.664  0.00  0.00    -0.021 A 
ATOM     28  C   UNL d   1      -4.754  -6.139   3.922  0.00  0.00     0.010 A 
ATOM     29  C   UNL d   1      -4.271  -6.712   5.101  0.00  0.00     0.001 A 
ATOM     30  C   UNL d   1      -3.289  -7.696   5.044  0.00  0.00     0.000 A 
ATOM     31  C   UNL d   1      -2.800  -8.117   3.809  0.00  0.00     0.001 A 
ATOM     32  C   UNL d   1      -3.294  -7.555   2.628  0.00  0.00     0.010 A 
ENDBRANCH  20  27
ENDBRANCH   3  20
TORSDOF 4
