REMARK  4 active torsions:
REMARK  status: ('A' for Active; 'I' for Inactive)
REMARK    1  A    between atoms: C_2  and  C_1 
REMARK       I    between atoms: N_4  and  C_1 
REMARK    2  A    between atoms: C_3  and  C_6 
REMARK    3  A    between atoms: C_12  and  N_4 
REMARK    4  A    between atoms: C_6  and  N_5 
ROOT
ATOM      1  N   UNL d   1      -1.943   2.555   1.170  0.00  0.00     0.092 N 
ATOM      2  C   UNL d   1      -1.052   0.856  -1.096  0.00  0.00     0.088 C 
ATOM      3  C   UNL d   1      -1.369   2.348  -1.261  0.00  0.00     0.055 C 
ATOM      4  C   UNL d   1      -1.928   0.322   0.039  0.00  0.00     0.055 C 
ATOM      5  C   UNL d   1      -1.172   3.120   0.054  0.00  0.00     0.275 C 
ATOM      6  C   UNL d   1      -1.698   1.106   1.327  0.00  0.00     0.275 C 
ENDROOT
BRANCH   2   7
ATOM      7  N   UNL d   1       0.388   0.685  -0.875  0.00  0.00    -0.352 N 
ATOM      8  C   UNL d   1       1.046  -0.518  -0.710  0.00  0.00     0.258 C 
ATOM      9  O   UNL d   1       0.469  -1.596  -0.742  0.00  0.00    -0.267 OA
ATOM     10  H   UNL d   1       0.956   1.514  -0.982  0.00  0.00     0.163 HD
BRANCH   8  11
ATOM     11  C   UNL d   1       2.521  -0.427  -0.459  0.00  0.00     0.108 A 
ATOM     12  C   UNL d   1       3.216   0.788  -0.531  0.00  0.00     0.135 A 
ATOM     13  F   UNL d   1       2.596   1.920  -0.907  0.00  0.00    -0.205 F 
ATOM     14  C   UNL d   1       4.572   0.886  -0.217  0.00  0.00     0.043 A 
ATOM     15  C   UNL d   1       5.275  -0.248   0.177  0.00  0.00     0.006 A 
ATOM     16  C   UNL d   1       4.614  -1.472   0.229  0.00  0.00     0.043 A 
ATOM     17  C   UNL d   1       3.252  -1.559  -0.090  0.00  0.00     0.135 A 
ATOM     18  F   UNL d   1       2.682  -2.769  -0.012  0.00  0.00    -0.205 F 
ENDBRANCH   8  11
ENDBRANCH   2   7
BRANCH   1  19
ATOM     19  C   UNL d   1      -1.619   3.211   2.457  0.00  0.00     0.315 C 
BRANCH  19  20
ATOM     20  C   UNL d   1      -1.855   4.700   2.545  0.00  0.00     0.030 A 
ATOM     21  C   UNL d   1      -0.759   5.542   2.787  0.00  0.00     0.126 A 
ATOM     22  F   UNL d   1       0.480   5.031   2.835  0.00  0.00    -0.205 F 
ATOM     23  C   UNL d   1      -0.909   6.910   3.006  0.00  0.00     0.043 A 
ATOM     24  C   UNL d   1      -2.178   7.476   2.977  0.00  0.00     0.005 A 
ATOM     25  C   UNL d   1      -3.283   6.668   2.709  0.00  0.00     0.024 A 
ATOM     26  C   UNL d   1      -3.125   5.291   2.496  0.00  0.00     0.045 A 
ATOM     27 CL   UNL d   1      -4.557   4.367   2.212  0.00  0.00    -0.084 Cl
ENDBRANCH  19  20
ENDBRANCH   1  19
TORSDOF 4
