REMARK  2 active torsions:
REMARK  status: ('A' for Active; 'I' for Inactive)
REMARK    1  A    between atoms: C_2  and  C_1 
REMARK    2  A    between atoms: N_4  and  C_3 
REMARK       I    between atoms: C_5  and  N_4 
ROOT
ATOM      1  C   UNL d   1       0.644  -0.662   1.215  0.00  0.00     0.074 A 
ATOM      2  C   UNL d   1       0.569  -2.050   0.996  0.00  0.00     0.049 A 
ATOM      3  C   UNL d   1       0.428  -0.162   2.517  0.00  0.00     0.018 A 
ATOM      4  C   UNL d   1       0.335  -2.900   2.087  0.00  0.00     0.030 A 
ATOM      5  C   UNL d   1       0.178  -1.019   3.587  0.00  0.00     0.001 A 
ATOM      6  C   UNL d   1       0.143  -2.390   3.372  0.00  0.00     0.002 A 
ENDROOT
BRANCH   2   7
ATOM      7  N   UNL d   1       0.761  -2.583  -0.302  0.00  0.00    -0.327 N 
ATOM      8  C   UNL d   1       0.242  -3.780  -0.761  0.00  0.00     0.218 C 
ATOM      9  O   UNL d   1      -0.544  -4.506  -0.155  0.00  0.00    -0.274 OA
ATOM     10  C   UNL d   1       0.716  -4.156  -2.139  0.00  0.00     0.117 C 
ATOM     11  H   UNL d   1       1.142  -1.961  -1.009  0.00  0.00     0.169 HD
ENDBRANCH   2   7
BRANCH   1  12
ATOM     12  C   UNL d   1       0.866   0.342   0.114  0.00  0.00     0.419 C 
ATOM     13  F   UNL d   1       1.205  -0.213  -1.088  0.00  0.00    -0.166 F 
ATOM     14  F   UNL d   1       1.869   1.221   0.403  0.00  0.00    -0.166 F 
ATOM     15  F   UNL d   1      -0.236   1.103  -0.131  0.00  0.00    -0.166 F 
ENDBRANCH   1  12
TORSDOF 2
