REMARK  6 active torsions:
REMARK  status: ('A' for Active; 'I' for Inactive)
REMARK    1  A    between atoms: C_10  and  C_1 
REMARK    2  A    between atoms: C_11  and  C_2 
REMARK    3  A    between atoms: C_8  and  C_3 
REMARK    4  A    between atoms: N_7  and  C_9 
REMARK    5  A    between atoms: O_17  and  C_10 
REMARK    6  A    between atoms: O_16  and  C_11 
ROOT
ATOM      1  C   UNL d   1      -1.296  -0.969   0.187  0.00  0.00     0.052 C 
ATOM      2  C   UNL d   1       1.269  -0.975   0.124  0.00  0.00     0.052 C 
ATOM      3  C   UNL d   1      -0.017  -1.793  -0.085  0.00  0.00     0.103 C 
ATOM      4  C   UNL d   1      -1.240   0.385   0.223  0.00  0.00     0.018 C 
ATOM      5  C   UNL d   1       1.216   0.376   0.173  0.00  0.00     0.018 C 
ATOM      6  N   UNL d   1      -0.010   1.019   0.105  0.00  0.00    -0.362 N 
ATOM      7  C   UNL d   1      -2.406   1.335   0.344  0.00  0.00     0.069 C 
ATOM      8  C   UNL d   1       2.428   1.272   0.267  0.00  0.00     0.069 C 
ATOM      9  H   UNL d   1      -0.002   2.028   0.252  0.00  0.00     0.165 HD
ENDROOT
BRANCH   3  10
ATOM     10  C   UNL d   1      -0.063  -2.381  -1.513  0.00  0.00    -0.012 A 
ATOM     11  C   UNL d   1      -0.146  -3.752  -1.861  0.00  0.00     0.110 A 
ATOM     12  C   UNL d   1      -0.223  -4.133  -3.221  0.00  0.00     0.037 A 
ATOM     13  C   UNL d   1      -0.222  -3.182  -4.241  0.00  0.00     0.002 A 
ATOM     14  C   UNL d   1      -0.139  -1.837  -3.922  0.00  0.00     0.001 A 
ATOM     15  C   UNL d   1      -0.061  -1.446  -2.586  0.00  0.00     0.011 A 
BRANCH  11  16
ATOM     16  N   UNL d   1      -0.152  -4.862  -0.880  0.00  0.00    -0.115 N 
ATOM     17  O   UNL d   1       0.161  -4.641   0.294  0.00  0.00    -0.532 OA
ATOM     18  O   UNL d   1      -0.424  -5.998  -1.305  0.00  0.00    -0.532 OA
ENDBRANCH  11  16
ENDBRANCH   3  10
BRANCH   2  19
ATOM     19  C   UNL d   1       2.556  -1.689   0.348  0.00  0.00     0.291 C 
ATOM     20  O   UNL d   1       3.516  -1.216   0.940  0.00  0.00    -0.260 OA
BRANCH  19  21
ATOM     21  O   UNL d   1       2.519  -2.937  -0.177  0.00  0.00    -0.323 OA
ATOM     22  C   UNL d   1       3.701  -3.704   0.064  0.00  0.00     0.213 C 
ENDBRANCH  19  21
ENDBRANCH   2  19
BRANCH   1  23
ATOM     23  C   UNL d   1      -2.520  -1.800   0.368  0.00  0.00     0.291 C 
ATOM     24  O   UNL d   1      -2.654  -2.908  -0.132  0.00  0.00    -0.260 OA
BRANCH  23  25
ATOM     25  O   UNL d   1      -3.409  -1.216   1.207  0.00  0.00    -0.323 OA
ATOM     26  C   UNL d   1      -4.621  -1.950   1.399  0.00  0.00     0.213 C 
ENDBRANCH  23  25
ENDBRANCH   1  23
TORSDOF 6
