REMARK  4 active torsions:
REMARK  status: ('A' for Active; 'I' for Inactive)
REMARK    1  A    between atoms: C_6  and  C_1 
REMARK    2  A    between atoms: O_5  and  C_2 
REMARK    3  A    between atoms: C_3  and  O_5 
REMARK    4  A    between atoms: O_17  and  C_6 
ROOT
ATOM      1  C   UNL d   1       3.680   1.143  -0.621  0.00  0.00     0.186 A 
ATOM      2  C   UNL d   1       4.881   1.469  -0.003  0.00  0.00     0.165 A 
ATOM      3  C   UNL d   1       4.941   2.331   1.140  0.00  0.00     0.122 C 
ATOM      4  N   UNL d   1       4.989   3.024   2.068  0.00  0.00    -0.190 NA
ATOM      5  N   UNL d   1       6.076   0.954  -0.421  0.00  0.00    -0.353 N 
ATOM      6  HN  UNL d   1       6.957   1.186   0.038  1.00  0.00     0.166 HD
ATOM      7  N   UNL d   1       3.639   0.318  -1.706  0.00  0.00    -0.343 N 
ATOM      8  HN  UNL d   1       2.765   0.099  -2.184  1.00  0.00     0.167 HD
ATOM      9  C   UNL d   1       6.017   0.115  -1.481  0.00  0.00     0.106 A 
ATOM     10  C   UNL d   1       4.824  -0.193  -2.111  0.00  0.00     0.107 A 
ENDROOT
BRANCH   1  11
ATOM     11  O   UNL d   1       2.478   1.649  -0.143  0.00  0.00    -0.289 OA
BRANCH  11  12
ATOM     12  C   UNL d   1       1.382   0.839  -0.078  0.00  0.00     0.101 A 
ATOM     13  C   UNL d   1       0.083   1.326  -0.058  0.00  0.00     0.114 A 
ATOM     14  S   UNL d   1      -1.054   0.019  -0.019  0.00  0.00    -0.093 SA
ATOM     15  C   UNL d   1       0.168  -1.159   0.018  0.00  0.00     0.053 A 
ATOM     16  C   UNL d   1       1.419  -0.594   0.020  0.00  0.00     0.046 A 
BRANCH  13  17
ATOM     17  C   UNL d   1      -0.493   2.662  -0.088  0.00  0.00     0.302 C 
ATOM     18  O   UNL d   1      -1.692   2.914  -0.161  0.00  0.00    -0.259 OA
BRANCH  17  19
ATOM     19  O   UNL d   1       0.464   3.634  -0.013  0.00  0.00    -0.322 OA
ATOM     20  C   UNL d   1      -0.086   4.957  -0.029  0.00  0.00     0.213 C 
ENDBRANCH  17  19
ENDBRANCH  13  17
ENDBRANCH  11  12
ENDBRANCH   1  11
TORSDOF 4
