REMARK  2 active torsions:
REMARK  status: ('A' for Active; 'I' for Inactive)
REMARK    1  A    between atoms: S_5  and  C_1 
REMARK    2  A    between atoms: C_9  and  S_5 
ROOT
ATOM      1  C   UNL d   1      -0.025   1.444  -0.101  0.00  0.00     0.097 A 
ATOM      2  C   UNL d   1       0.829   0.336  -0.084  0.00  0.00     0.084 A 
ATOM      3  N   UNL d   1      -1.381   1.327  -0.053  0.00  0.00    -0.353 N 
ATOM      4  HN  UNL d   1      -1.976   2.155  -0.043  1.00  0.00     0.166 HD
ATOM      5  C   UNL d   1       0.258  -0.951  -0.039  0.00  0.00    -0.037 A 
ATOM      6  C   UNL d   1       2.250   0.511  -0.078  0.00  0.00     0.103 C 
ATOM      7  N   UNL d   1       3.407   0.612  -0.043  0.00  0.00    -0.191 NA
ATOM      8  C   UNL d   1      -1.917   0.088  -0.019  0.00  0.00     0.006 A 
ATOM      9  C   UNL d   1      -1.138  -1.062  -0.013  0.00  0.00     0.033 A 
ATOM     10  C   UNL d   1       1.066  -2.221  -0.020  0.00  0.00     0.050 C 
ATOM     11  C   UNL d   1      -3.413  -0.016   0.010  0.00  0.00     0.068 C 
ENDROOT
BRANCH   1  12
ATOM     12  S   UNL d   1       0.562   3.131  -0.078  0.00  0.00    -0.053 SA
BRANCH  12  13
ATOM     13  C   UNL d   1       0.830   3.453  -1.812  0.00  0.00     0.075 A 
ATOM     14  N   UNL d   1       1.020   2.410  -2.653  0.00  0.00    -0.360 N 
ATOM     15  C   UNL d   1       1.237   2.700  -3.957  0.00  0.00     0.089 A 
ATOM     16  HN  UNL d   1       1.001   1.446  -2.318  1.00  0.00     0.166 HD
ATOM     17  C   UNL d   1       1.280   3.986  -4.468  0.00  0.00     0.017 A 
ATOM     18  C   UNL d   1       1.096   5.045  -3.589  0.00  0.00     0.004 A 
ATOM     19  C   UNL d   1       0.872   4.778  -2.241  0.00  0.00     0.037 A 
ENDBRANCH  12  13
ENDBRANCH   1  12
TORSDOF 2
