REMARK  4 active torsions:
REMARK  status: ('A' for Active; 'I' for Inactive)
REMARK    1  A    between atoms: N_5  and  S_1 
REMARK    2  A    between atoms: C_2  and  N_6 
REMARK    3  A    between atoms: N_6  and  N_5 
REMARK    4  A    between atoms: C_12  and  C_7 
ROOT
ATOM      1  C   UNL d   1       0.495   2.849  -2.857  0.00  0.00     0.697 A 
ATOM      2  N   UNL d   1       1.344   3.723  -3.418  0.00  0.00    -0.190 N 
ATOM      3  HN  UNL d   1       2.298   3.826  -3.071  1.00  0.00     0.184 HD
ATOM      4  C   UNL d   1       0.897   4.463  -4.459  0.00  0.00     0.062 A 
ATOM      5  N   UNL d   1      -0.774   2.672  -3.260  0.00  0.00    -0.200 N 
ATOM      6  HN  UNL d   1      -1.384   1.983  -2.818  1.00  0.00     0.183 HD
ATOM      7  C   UNL d   1      -0.405   4.362  -4.910  0.00  0.00     0.048 A 
ATOM      8  C   UNL d   1      -1.201   3.445  -4.270  0.00  0.00     0.108 A 
ENDROOT
BRANCH   1   9
ATOM      9  N   UNL d   1       0.981   2.074  -1.810  0.00  0.00    -0.122 N 
ATOM     10  H   UNL d   1       1.902   2.341  -1.477  0.00  0.00     0.206 HD
BRANCH   9  11
ATOM     11  N   UNL d   1       0.211   1.071  -1.095  0.00  0.00    -0.213 N 
ATOM     12  H   UNL d   1      -0.758   0.880  -1.371  0.00  0.00     0.200 HD
BRANCH  11  13
ATOM     13  S   UNL d   1       0.834   0.240   0.219  0.00  0.00     0.240 S 
ATOM     14  O   UNL d   1      -0.216  -0.617   0.719  0.00  0.00    -0.205 OA
ATOM     15  O   UNL d   1       1.516   1.195   1.068  0.00  0.00    -0.205 OA
ATOM     16  C   UNL d   1       2.066  -0.778  -0.561  0.00  0.00     0.187 C 
ENDBRANCH  11  13
ENDBRANCH   9  11
ENDBRANCH   1   9
BRANCH   4  17
ATOM     17  C   UNL d   1       1.893   5.348  -5.088  0.00  0.00     0.007 A 
ATOM     18  C   UNL d   1       2.944   5.904  -4.356  0.00  0.00     0.101 A 
ATOM     19  N   UNL d   1       3.910   6.712  -4.866  0.00  0.00    -0.374 N 
ATOM     20  C   UNL d   1       3.843   6.979  -6.185  0.00  0.00     0.087 A 
ATOM     21  HN  UNL d   1       4.651   7.096  -4.280  1.00  0.00     0.164 HD
ATOM     22  C   UNL d   1       2.852   6.484  -7.013  0.00  0.00     0.018 A 
ATOM     23  C   UNL d   1       1.872   5.664  -6.455  0.00  0.00     0.016 A 
ENDBRANCH   4  17
TORSDOF 4
