REMARK  3 active torsions:
REMARK  status: ('A' for Active; 'I' for Inactive)
REMARK    1  A    between atoms: C_4  and  C_7 
REMARK    2  A    between atoms: C_7  and  O_12 
REMARK    3  A    between atoms: O_12  and  N_9 
ROOT
ATOM      1  C   UNL d   1      -0.690  -0.540   0.003  0.00  0.00     0.023 A 
ATOM      2  C   UNL d   1      -1.121   0.773   0.060  0.00  0.00     0.022 A 
ATOM      3  N   UNL d   1      -0.030   1.593   0.075  0.00  0.00    -0.358 N 
ATOM      4  C   UNL d   1       0.737  -0.507  -0.041  0.00  0.00     0.005 A 
ATOM      5  C   UNL d   1       1.121   0.839   0.013  0.00  0.00     0.043 A 
ATOM      6  N   UNL d   1      -1.216  -2.852  -0.056  0.00  0.00    -0.261 N 
ATOM      7  HN  UNL d   1      -0.229  -3.092  -0.149  1.00  0.00     0.194 HD
ATOM      8  C   UNL d   1      -1.660  -1.633  -0.001  0.00  0.00     0.045 C 
ATOM      9  C   UNL d   1      -2.532   1.240   0.102  0.00  0.00     0.058 C 
ATOM     10  C   UNL d   1       1.750  -1.484  -0.117  0.00  0.00     0.014 A 
ATOM     11  C   UNL d   1       2.460   1.248   0.001  0.00  0.00     0.030 A 
ATOM     12  C   UNL d   1      -3.135  -1.241   0.134  0.00  0.00     0.060 C 
ATOM     13  C   UNL d   1      -3.429   0.138  -0.481  0.00  0.00     0.012 C 
ATOM     14  C   UNL d   1       3.094  -1.090  -0.134  0.00  0.00     0.001 A 
ATOM     15  C   UNL d   1       3.442   0.258  -0.073  0.00  0.00     0.002 A 
ATOM     16  H   UNL d   1      -0.049   2.603   0.119  0.00  0.00     0.166 HD
ENDROOT
BRANCH   6  17
ATOM     17  O   UNL d   1      -2.252  -3.806   0.026  0.00  0.00    -0.195 OA
BRANCH  17  18
ATOM     18  C   UNL d   1      -1.727  -5.066   0.058  0.00  0.00     0.316 C 
ATOM     19  O   UNL d   1      -0.551  -5.386  -0.079  0.00  0.00    -0.257 OA
BRANCH  18  20
ATOM     20  C   UNL d   1      -2.790  -6.101   0.187  0.00  0.00     0.063 A 
ATOM     21  C   UNL d   1      -3.973  -5.961   0.926  0.00  0.00     0.052 A 
ATOM     22  C   UNL d   1      -4.891  -7.021   0.995  0.00  0.00     0.048 A 
ATOM     23 CL   UNL d   1      -4.370  -4.552   1.846  0.00  0.00    -0.083 Cl
ATOM     24  C   UNL d   1      -4.629  -8.224   0.342  0.00  0.00     0.035 A 
ATOM     25  C   UNL d   1      -3.450  -8.388  -0.376  0.00  0.00     0.025 A 
ATOM     26 CL   UNL d   1      -5.760  -9.515   0.438  0.00  0.00    -0.084 Cl
ATOM     27  C   UNL d   1      -2.535  -7.333  -0.452  0.00  0.00     0.021 A 
ENDBRANCH  18  20
ENDBRANCH  17  18
ENDBRANCH   6  17
TORSDOF 3
