REMARK  4 active torsions:
REMARK  status: ('A' for Active; 'I' for Inactive)
REMARK    1  A    between atoms: N_2  and  S_1 
REMARK    2  A    between atoms: C_4  and  S_1 
REMARK    3  A    between atoms: C_3  and  N_2 
REMARK    4  A    between atoms: C_20  and  C_18 
ROOT
ATOM      1  C   UNL d   1       2.003   1.344   0.445  0.00  0.00     0.074 A 
ATOM      2  N   UNL d   1       5.344   5.401   1.677  0.00  0.00    -0.191 NA
ATOM      3  C   UNL d   1       4.627   4.530   1.404  0.00  0.00     0.099 C 
ATOM      4  C   UNL d   1       3.193   1.086   1.134  0.00  0.00     0.026 A 
ATOM      5  C   UNL d   1       1.686   2.647   0.047  0.00  0.00     0.026 A 
ATOM      6  C   UNL d   1       3.740   3.450   1.073  0.00  0.00     0.044 A 
ATOM      7  C   UNL d   1       2.555   3.698   0.365  0.00  0.00     0.024 A 
ATOM      8  C   UNL d   1       4.054   2.140   1.455  0.00  0.00     0.024 A 
ENDROOT
BRANCH   1   9
ATOM      9  S   UNL d   1       0.909  -0.017   0.058  0.00  0.00     0.247 S 
ATOM     10  O   UNL d   1      -0.272   0.558  -0.545  0.00  0.00    -0.205 OA
ATOM     11  O   UNL d   1       1.718  -1.010  -0.614  0.00  0.00    -0.205 OA
BRANCH   9  12
ATOM     12  N   UNL d   1       0.448  -0.520   1.608  0.00  0.00    -0.166 NA
ATOM     13  H   UNL d   1      -0.560  -0.365   1.672  0.00  0.00     0.147 HD
BRANCH  12  14
ATOM     14  C   UNL d   1       0.707  -1.878   1.905  0.00  0.00     0.094 A 
ATOM     15  N   UNL d   1      -0.271  -2.716   1.529  0.00  0.00    -0.356 N 
ATOM     16  C   UNL d   1      -0.085  -4.019   1.842  0.00  0.00     0.090 A 
ATOM     17  HN  UNL d   1      -1.103  -2.390   1.038  1.00  0.00     0.166 HD
ATOM     18  C   UNL d   1       1.015  -4.505   2.536  0.00  0.00     0.024 A 
ATOM     19  C   UNL d   1       2.014  -3.608   2.925  0.00  0.00    -0.054 A 
ATOM     20  C   UNL d   1       1.852  -2.260   2.590  0.00  0.00     0.050 A 
BRANCH  19  21
ATOM     21  C   UNL d   1       3.221  -4.083   3.694  0.00  0.00     0.034 C 
ATOM     22  C   UNL d   1       3.020  -4.065   5.204  0.00  0.00     0.010 C 
ENDBRANCH  19  21
ENDBRANCH  12  14
ENDBRANCH   9  12
ENDBRANCH   1   9
TORSDOF 4
