REMARK  4 active torsions:
REMARK  status: ('A' for Active; 'I' for Inactive)
REMARK    1  A    between atoms: S_8  and  C_1 
REMARK       I    between atoms: N_3  and  C_7 
REMARK    2  A    between atoms: N_6  and  C_10 
REMARK    3  A    between atoms: C_7  and  C_18 
REMARK    4  A    between atoms: C_18  and  S_8 
ROOT
ATOM      1  N   UNL d   1       1.888   5.393   0.305  0.00  0.00    -0.351 N 
ATOM      2  C   UNL d   1       2.710   4.340  -0.132  0.00  0.00     0.229 C 
ATOM      3  C   UNL d   1       0.222   7.690   1.064  0.00  0.00     0.091 C 
ATOM      4  C   UNL d   1       1.434   7.834   0.134  0.00  0.00     0.045 C 
ATOM      5  C   UNL d   1       0.434   6.478   1.989  0.00  0.00     0.045 C 
ATOM      6  C   UNL d   1       1.782   6.539  -0.595  0.00  0.00     0.128 C 
ATOM      7  C   UNL d   1       0.763   5.201   1.218  0.00  0.00     0.128 C 
ATOM      8  O   UNL d   1       3.358   4.451  -1.177  0.00  0.00    -0.273 OA
ENDROOT
BRANCH   2   9
ATOM      9  C   UNL d   1       2.790   3.089   0.750  0.00  0.00     0.185 C 
BRANCH   9  10
ATOM     10  S   UNL d   1       4.020   1.911   0.091  0.00  0.00    -0.084 SA
BRANCH  10  11
ATOM     11  C   UNL d   1       3.818   0.557   1.144  0.00  0.00     0.146 A 
ATOM     12  N   UNL d   1       4.579  -0.580   1.058  0.00  0.00    -0.341 N 
ATOM     13  C   UNL d   1       4.109  -1.454   2.006  0.00  0.00     0.109 A 
ATOM     14  C   UNL d   1       5.677  -0.874   0.169  0.00  0.00     0.158 C 
ATOM     15  C   UNL d   1       3.092  -0.781   2.640  0.00  0.00     0.107 A 
ATOM     16  N   UNL d   1       2.919   0.468   2.102  0.00  0.00    -0.345 N 
ATOM     17  HN  UNL d   1       2.240   1.176   2.382  1.00  0.00     0.167 HD
ENDBRANCH  10  11
ENDBRANCH   9  10
ENDBRANCH   2   9
BRANCH   3  18
ATOM     18  N   UNL d   1      -1.091   7.686   0.412  0.00  0.00    -0.362 N 
ATOM     19  C   UNL d   1      -1.371   7.714  -0.929  0.00  0.00     0.091 A 
ATOM     20  C   UNL d   1      -2.739   7.722  -1.091  0.00  0.00     0.019 A 
ATOM     21  C   UNL d   1      -3.316   7.750   0.196  0.00  0.00     0.019 A 
ATOM     22  C   UNL d   1      -2.281   7.756   1.104  0.00  0.00     0.091 A 
ENDBRANCH   3  18
TORSDOF 4
