REMARK  1 active torsions:
REMARK  status: ('A' for Active; 'I' for Inactive)
REMARK    1  A    between atoms: C_6  and  N_1 
ROOT
ATOM      1  N   UNL d   1      -1.691   0.001   0.892  0.00  0.00    -0.236 N 
ATOM      2  C   UNL d   1      -0.985  -1.090   0.429  0.00  0.00     0.311 A 
ATOM      3  N   UNL d   1      -0.030  -0.667  -0.497  0.00  0.00    -0.211 NA
ATOM      4  C   UNL d   1      -1.237   1.145   0.262  0.00  0.00     0.260 A 
ATOM      5  C   UNL d   1      -0.066   0.761  -0.630  0.00  0.00     0.222 A 
ATOM      6  S   UNL d   1       1.519   1.365   0.026  0.00  0.00    -0.138 SA
ATOM      7  O   UNL d   1      -1.076  -2.260   0.774  0.00  0.00    -0.253 OA
ATOM      8  O   UNL d   1      -1.624   2.298   0.403  0.00  0.00    -0.270 OA
ATOM      9  C   UNL d   1       1.310  -1.216  -0.380  0.00  0.00     0.112 C 
ATOM     10  C   UNL d   1       2.063  -0.285   0.563  0.00  0.00     0.091 C 
ENDROOT
BRANCH   1  11
ATOM     11  C   UNL d   1      -2.581  -0.013   2.010  0.00  0.00     0.050 A 
ATOM     12  C   UNL d   1      -2.589  -1.089   2.915  0.00  0.00     0.054 A 
ATOM     13  C   UNL d   1      -3.370  -1.059   4.073  0.00  0.00     0.037 A 
ATOM     14 CL   UNL d   1      -3.290  -2.368   5.186  0.00  0.00    -0.084 Cl
ATOM     15  C   UNL d   1      -4.183   0.030   4.350  0.00  0.00     0.048 A 
ATOM     16  C   UNL d   1      -4.210   1.089   3.453  0.00  0.00     0.037 A 
ATOM     17  C   UNL d   1      -3.422   1.073   2.297  0.00  0.00     0.054 A 
ATOM     18 CL   UNL d   1      -5.218   2.446   3.780  0.00  0.00    -0.084 Cl
ENDBRANCH   1  11
TORSDOF 1
