REMARK  4 active torsions:
REMARK  status: ('A' for Active; 'I' for Inactive)
REMARK    1  A    between atoms: C_9  and  C_2 
REMARK    2  A    between atoms: S_10  and  C_5 
REMARK    3  A    between atoms: C_8  and  C_11 
REMARK    4  A    between atoms: C_11  and  S_10 
ROOT
ATOM      1  N   UNL d   1       0.814   0.030  -0.047  0.00  0.00    -0.315 N 
ATOM      2  C   UNL d   1      -0.009   1.141  -0.099  0.00  0.00     0.134 A 
ATOM      3  N   UNL d   1      -1.262   0.710  -0.111  0.00  0.00    -0.283 N 
ATOM      4  HN  UNL d   1      -2.092   1.301  -0.083  1.00  0.00     0.188 HD
ATOM      5  C   UNL d   1      -0.012  -1.059  -0.150  0.00  0.00     0.162 A 
ATOM      6  N   UNL d   1      -1.261  -0.665  -0.166  0.00  0.00    -0.278 N 
ATOM      7  HN  UNL d   1      -2.083  -1.267  -0.211  1.00  0.00     0.189 HD
ATOM      8  C   UNL d   1       2.243  -0.014   0.133  0.00  0.00     0.160 C 
ENDROOT
BRANCH   2   9
ATOM      9  C   UNL d   1       0.388   2.556  -0.116  0.00  0.00     0.010 A 
ATOM     10  C   UNL d   1      -0.392   3.514   0.546  0.00  0.00     0.029 A 
ATOM     11  C   UNL d   1      -0.030   4.882   0.554  0.00  0.00    -0.009 A 
ATOM     12  C   UNL d   1      -0.795   5.862   1.205  0.00  0.00     0.015 A 
ATOM     13  C   UNL d   1       1.138   5.306  -0.110  0.00  0.00     0.042 A 
ATOM     14  C   UNL d   1      -0.381   7.190   1.194  0.00  0.00     0.018 A 
ATOM     15  C   UNL d   1       0.790   7.498   0.530  0.00  0.00     0.088 A 
ATOM     16  N   UNL d   1       1.549   6.586  -0.117  0.00  0.00    -0.365 N 
ATOM     17  HN  UNL d   1       2.407   6.860  -0.596  1.00  0.00     0.165 HD
ATOM     18  C   UNL d   1       1.881   4.357  -0.793  0.00  0.00     0.031 A 
ATOM     19  C   UNL d   1       1.509   3.006  -0.821  0.00  0.00     0.017 A 
ENDBRANCH   2   9
BRANCH   5  20
ATOM     20  S   UNL d   1       0.558  -2.693  -0.248  0.00  0.00    -0.088 SA
BRANCH  20  21
ATOM     21  C   UNL d   1      -0.890  -3.514  -0.986  0.00  0.00     0.124 C 
BRANCH  21  22
ATOM     22  C   UNL d   1      -0.621  -4.968  -1.325  0.00  0.00    -0.005 A 
ATOM     23  C   UNL d   1      -0.965  -6.009  -0.441  0.00  0.00     0.042 A 
ATOM     24 CL   UNL d   1      -1.672  -5.707   1.110  0.00  0.00    -0.084 Cl
ATOM     25  C   UNL d   1      -0.748  -7.354  -0.776  0.00  0.00     0.024 A 
ATOM     26  C   UNL d   1      -0.172  -7.691  -1.995  0.00  0.00     0.003 A 
ATOM     27  C   UNL d   1       0.199  -6.682  -2.877  0.00  0.00     0.024 A 
ATOM     28  C   UNL d   1      -0.019  -5.336  -2.546  0.00  0.00     0.042 A 
ATOM     29 CL   UNL d   1       0.486  -4.161  -3.714  0.00  0.00    -0.084 Cl
ENDBRANCH  21  22
ENDBRANCH  20  21
ENDBRANCH   5  20
TORSDOF 4
