REMARK  7 active torsions:
REMARK  status: ('A' for Active; 'I' for Inactive)
REMARK    1  A    between atoms: C_11  and  C_2 
REMARK    2  A    between atoms: N_16  and  C_6 
REMARK    3  A    between atoms: O_22  and  C_13 
REMARK    4  A    between atoms: O_26  and  C_14 
REMARK    5  A    between atoms: C_27  and  N_16 
REMARK    6  A    between atoms: C_20  and  C_28 
REMARK    7  A    between atoms: C_28  and  C_27 
ROOT
ATOM      1  C   UNL d   1       0.423   0.876  -0.684  0.00  0.00     0.053 A 
ATOM      2  C   UNL d   1      -0.569   1.520  -1.556  0.00  0.00    -0.003 A 
ATOM      3  C   UNL d   1      -1.469   0.583  -2.054  0.00  0.00     0.065 A 
ATOM      4  C   UNL d   1       0.197  -0.493  -0.636  0.00  0.00     0.089 A 
ATOM      5  S   UNL d   1      -1.173  -0.995  -1.502  0.00  0.00    -0.082 SA
ATOM      6  C   UNL d   1       1.539   1.315   0.086  0.00  0.00     0.116 A 
ATOM      7  N   UNL d   1       0.923  -1.423   0.007  0.00  0.00    -0.346 N 
ATOM      8  HN  UNL d   1       0.690  -2.416   0.018  1.00  0.00     0.167 HD
ATOM      9  N   UNL d   1       2.324   0.386   0.684  0.00  0.00    -0.338 N 
ATOM     10  HN  UNL d   1       3.172   0.669   1.174  1.00  0.00     0.168 HD
ATOM     11  C   UNL d   1       1.978  -0.905   0.627  0.00  0.00     0.182 A 
ENDROOT
BRANCH   6  12
ATOM     12  N   UNL d   1       1.851   2.647   0.354  0.00  0.00    -0.375 N 
ATOM     13  H   UNL d   1       1.172   3.310   0.010  0.00  0.00     0.161 HD
BRANCH  12  14
ATOM     14  C   UNL d   1       3.257   3.018   0.180  0.00  0.00     0.126 C 
BRANCH  14  15
ATOM     15  C   UNL d   1       3.455   4.457   0.670  0.00  0.00     0.058 C 
BRANCH  15  16
ATOM     16  C   UNL d   1       4.903   4.874   0.711  0.00  0.00    -0.054 A 
ATOM     17  C   UNL d   1       5.492   5.544  -0.371  0.00  0.00     0.046 A 
ATOM     18  C   UNL d   1       6.839   5.947  -0.339  0.00  0.00     0.102 A 
ATOM     19  C   UNL d   1       7.606   5.668   0.806  0.00  0.00     0.101 A 
ATOM     20  C   UNL d   1       7.014   4.987   1.881  0.00  0.00     0.040 A 
ATOM     21  C   UNL d   1       5.678   4.589   1.836  0.00  0.00     0.010 A 
BRANCH  18  22
ATOM     22  O   UNL d   1       7.442   6.602  -1.381  0.00  0.00    -0.353 OA
ATOM     23  C   UNL d   1       6.675   6.886  -2.542  0.00  0.00     0.210 C 
ENDBRANCH  18  22
BRANCH  19  24
ATOM     24  O   UNL d   1       8.920   5.970   1.060  0.00  0.00    -0.353 OA
ATOM     25  C   UNL d   1       9.666   6.676   0.082  0.00  0.00     0.210 C 
ENDBRANCH  19  24
ENDBRANCH  15  16
ENDBRANCH  14  15
ENDBRANCH  12  14
ENDBRANCH   6  12
BRANCH   2  26
ATOM     26  C   UNL d   1      -0.679   2.916  -2.008  0.00  0.00    -0.024 A 
ATOM     27  C   UNL d   1       0.464   3.689  -2.240  0.00  0.00     0.013 A 
ATOM     28  C   UNL d   1       0.369   5.029  -2.625  0.00  0.00     0.007 A 
ATOM     29  C   UNL d   1      -0.875   5.599  -2.900  0.00  0.00    -0.062 A 
ATOM     30  C   UNL d   1      -2.023   4.822  -2.737  0.00  0.00     0.007 A 
ATOM     31  C   UNL d   1      -0.953   7.019  -3.376  0.00  0.00     0.048 C 
ATOM     32  C   UNL d   1      -1.928   3.504  -2.276  0.00  0.00     0.013 A 
ENDBRANCH   2  26
TORSDOF 7
