REMARK  4 active torsions:
REMARK  status: ('A' for Active; 'I' for Inactive)
REMARK    1  A    between atoms: C_13  and  C_6 
REMARK    2  A    between atoms: N_7  and  C_9 
REMARK    3  A    between atoms: N_8  and  C_14 
REMARK       I    between atoms: N_24  and  C_13 
REMARK    4  A    between atoms: O_25  and  N_16 
ROOT
ATOM      1  C   UNL d   1       0.661  -0.540  -0.008  0.00  0.00     0.004 A 
ATOM      2  C   UNL d   1       1.121   0.796  -0.010  0.00  0.00     0.008 A 
ATOM      3  C   UNL d   1      -1.247   0.846  -0.001  0.00  0.00     0.007 A 
ATOM      4  C   UNL d   1      -0.804  -0.499  -0.020  0.00  0.00    -0.011 A 
ATOM      5  C   UNL d   1      -0.042   1.704  -0.002  0.00  0.00     0.076 A 
ATOM      6  C   UNL d   1       1.624  -1.556   0.000  0.00  0.00     0.046 A 
ATOM      7  C   UNL d   1       3.397   0.153  -0.009  0.00  0.00     0.104 A 
ATOM      8  C   UNL d   1       2.455   1.176  -0.013  0.00  0.00     0.050 A 
ATOM      9  C   UNL d   1       2.993  -1.198   0.005  0.00  0.00     0.054 A 
ATOM     10  C   UNL d   1      -2.589   1.202   0.006  0.00  0.00     0.050 A 
ATOM     11  C   UNL d   1      -3.531   0.170  -0.008  0.00  0.00     0.103 A 
ATOM     12  C   UNL d   1      -1.759  -1.507  -0.058  0.00  0.00     0.016 A 
ATOM     13  N   UNL d   1       0.112   2.990  -0.001  0.00  0.00    -0.268 N 
ATOM     14  HN  UNL d   1       1.024   3.447  -0.002  1.00  0.00     0.194 HD
ATOM     15  C   UNL d   1      -3.124  -1.176  -0.040  0.00  0.00     0.037 A 
ENDROOT
BRANCH   6  16
ATOM     16  C   UNL d   1       1.301  -3.004   0.091  0.00  0.00     0.250 C 
ATOM     17  O   UNL d   1       0.374  -3.426   0.764  0.00  0.00    -0.268 OA
ATOM     18  N   UNL d   1       2.118  -3.874  -0.581  0.00  0.00    -0.366 N 
ATOM     19  H   UNL d   1       2.912  -3.615  -1.148  0.00  0.00     0.159 HD
ATOM     20  H   UNL d   1       1.909  -4.862  -0.492  0.00  0.00     0.159 HD
ENDBRANCH   6  16
BRANCH   7  21
ATOM     21  N   UNL d   1       4.829   0.480  -0.007  0.00  0.00    -0.116 N 
ATOM     22  O   UNL d   1       5.147   1.676   0.012  0.00  0.00    -0.532 OA
ATOM     23  O   UNL d   1       5.629  -0.465  -0.035  0.00  0.00    -0.532 OA
ENDBRANCH   7  21
BRANCH  13  24
ATOM     24  O   UNL d   1      -1.094   3.684   0.001  0.00  0.00    -0.289 OA
ATOM     25  H   UNL d   1      -0.804   4.616   0.007  0.00  0.00     0.244 HD
ENDBRANCH  13  24
BRANCH  11  26
ATOM     26  N   UNL d   1      -4.965   0.495   0.004  0.00  0.00    -0.116 N 
ATOM     27  O   UNL d   1      -5.287   1.689   0.012  0.00  0.00    -0.532 OA
ATOM     28  O   UNL d   1      -5.767  -0.452  -0.001  0.00  0.00    -0.532 OA
ENDBRANCH  11  26
TORSDOF 4
