REMARK  1 active torsions:
REMARK  status: ('A' for Active; 'I' for Inactive)
REMARK    1  A    between atoms: C_10  and  C_7 
ROOT
ATOM      1  C   UNL d   1      -0.667  -1.054   0.024  0.00  0.00     0.069 C 
ATOM      2  C   UNL d   1       1.663  -0.040  -0.147  0.00  0.00    -0.011 C 
ATOM      3  C   UNL d   1       0.882  -1.290   0.181  0.00  0.00     0.160 C 
ATOM      4  C   UNL d   1      -1.260   0.008   1.041  0.00  0.00    -0.033 C 
ATOM      5  C   UNL d   1      -0.609   1.045   0.026  0.00  0.00    -0.001 C 
ATOM      6  C   UNL d   1      -0.975   0.014  -1.092  0.00  0.00     0.019 C 
ATOM      7  C   UNL d   1       2.839  -0.067  -0.799  0.00  0.00     0.022 C 
ATOM      8  C   UNL d   1       0.921   1.255   0.140  0.00  0.00     0.047 C 
ATOM      9  O   UNL d   1       1.418  -2.315   0.591  0.00  0.00    -0.292 OA
ATOM     10  C   UNL d   1      -2.796   0.041   1.133  0.00  0.00     0.016 C 
ATOM     11  C   UNL d   1      -0.698  -0.009   2.465  0.00  0.00     0.016 C 
ENDROOT
BRANCH   7  12
ATOM     12  C   UNL d   1       3.504  -1.272  -1.296  0.00  0.00    -0.036 A 
ATOM     13  C   UNL d   1       3.196  -1.770  -2.567  0.00  0.00     0.011 A 
ATOM     14  C   UNL d   1       3.812  -2.931  -3.038  0.00  0.00     0.001 A 
ATOM     15  C   UNL d   1       4.739  -3.598  -2.239  0.00  0.00     0.000 A 
ATOM     16  C   UNL d   1       5.053  -3.104  -0.973  0.00  0.00     0.001 A 
ATOM     17  C   UNL d   1       4.438  -1.944  -0.502  0.00  0.00     0.011 A 
ENDBRANCH   7  12
TORSDOF 1
