REMARK  1 active torsions:
REMARK  status: ('A' for Active; 'I' for Inactive)
REMARK    1  A    between atoms: C_2  and  N_1 
ROOT
ATOM      1  C   UNL d   1       0.211   0.720  -1.040  0.00  0.00     0.105 A 
ATOM      2  C   UNL d   1      -1.387   2.376  -1.680  0.00  0.00     0.069 A 
ATOM      3  C   UNL d   1      -0.799   1.621  -0.639  0.00  0.00     0.068 A 
ATOM      4  S   UNL d   1      -2.676   3.891  -3.048  0.00  0.00     0.068 SA
ATOM      5  C   UNL d   1      -0.953   2.204  -3.114  0.00  0.00     0.067 A 
ATOM      6  N   UNL d   1      -2.352   3.295  -1.531  0.00  0.00    -0.310 N 
ATOM      7  HN  UNL d   1      -2.800   3.574  -0.657  1.00  0.00     0.176 HD
ATOM      8  N   UNL d   1      -1.612   3.002  -3.965  0.00  0.00    -0.310 N 
ATOM      9  HN  UNL d   1      -1.486   3.054  -4.976  1.00  0.00     0.176 HD
ATOM     10  C   UNL d   1       0.622   0.549  -2.395  0.00  0.00     0.038 A 
ATOM     11  C   UNL d   1       0.057   1.275  -3.461  0.00  0.00     0.035 A 
ENDROOT
BRANCH   1  12
ATOM     12  N   UNL d   1       0.882  -0.080   0.002  0.00  0.00    -0.116 N 
ATOM     13  O   UNL d   1       0.520   0.085   1.175  0.00  0.00    -0.532 OA
ATOM     14  O   UNL d   1       1.769  -0.865  -0.357  0.00  0.00    -0.532 OA
ENDBRANCH   1  12
TORSDOF 1
