REMARK  6 active torsions:
REMARK  status: ('A' for Active; 'I' for Inactive)
REMARK    1  A    between atoms: C_7  and  S_1 
REMARK    2  A    between atoms: N_12  and  S_1 
REMARK    3  A    between atoms: C_2  and  C_13 
REMARK    4  A    between atoms: C_5  and  C_9 
REMARK    5  A    between atoms: C_6  and  C_10 
REMARK    6  A    between atoms: C_13  and  N_12 
ROOT
ATOM      1  S   UNL d   1       0.947   0.171  -0.002  0.00  0.00     0.259 S 
ATOM      2  O   UNL d   1       0.648   1.285  -0.874  0.00  0.00    -0.201 OA
ATOM      3  O   UNL d   1       2.280  -0.369   0.120  0.00  0.00    -0.201 OA
ENDROOT
BRANCH   1   4
ATOM      4  C   UNL d   1      -0.138  -1.159  -0.489  0.00  0.00     0.081 A 
ATOM      5  C   UNL d   1      -1.317  -0.869  -1.190  0.00  0.00     0.041 A 
ATOM      6  C   UNL d   1      -2.111  -1.910  -1.699  0.00  0.00     0.050 A 
ATOM      7  C   UNL d   1      -1.697  -3.240  -1.503  0.00  0.00     0.032 A 
ATOM      8  C   UNL d   1      -0.497  -3.537  -0.827  0.00  0.00     0.050 A 
ATOM      9  C   UNL d   1       0.271  -2.482  -0.308  0.00  0.00     0.041 A 
BRANCH   6  10
ATOM     10  C   UNL d   1      -3.367  -1.617  -2.494  0.00  0.00     0.417 C 
ATOM     11  F   UNL d   1      -3.611  -0.287  -2.651  0.00  0.00    -0.166 F 
ATOM     12  F   UNL d   1      -3.317  -2.142  -3.748  0.00  0.00    -0.166 F 
ATOM     13  F   UNL d   1      -4.481  -2.136  -1.911  0.00  0.00    -0.166 F 
ENDBRANCH   6  10
BRANCH   8  14
ATOM     14  C   UNL d   1      -0.005  -4.964  -0.717  0.00  0.00     0.417 C 
ATOM     15  F   UNL d   1       1.203  -5.070  -0.097  0.00  0.00    -0.166 F 
ATOM     16  F   UNL d   1      -0.857  -5.759  -0.015  0.00  0.00    -0.166 F 
ATOM     17  F   UNL d   1       0.147  -5.551  -1.934  0.00  0.00    -0.166 F 
ENDBRANCH   8  14
ENDBRANCH   1   4
BRANCH   1  18
ATOM     18  N   UNL d   1       0.385   0.576   1.525  0.00  0.00    -0.311 N 
ATOM     19  H   UNL d   1      -0.613   0.780   1.558  0.00  0.00     0.172 HD
BRANCH  18  20
ATOM     20  C   UNL d   1       0.905  -0.197   2.654  0.00  0.00     0.178 C 
BRANCH  20  21
ATOM     21  C   UNL d   1       0.245   0.292   3.914  0.00  0.00     0.008 A 
ATOM     22  S   UNL d   1      -0.629  -0.822   4.872  0.00  0.00    -0.092 SA
ATOM     23  C   UNL d   1      -0.972   0.343   6.083  0.00  0.00     0.016 A 
ATOM     24  C   UNL d   1      -1.668   0.132   7.290  0.00  0.00     0.019 A 
ATOM     25  C   UNL d   1      -0.465   1.596   5.738  0.00  0.00    -0.012 A 
ATOM     26  C   UNL d   1      -1.860   1.206   8.161  0.00  0.00     0.001 A 
ATOM     27  C   UNL d   1      -1.385   2.467   7.835  0.00  0.00     0.001 A 
ATOM     28  C   UNL d   1      -0.695   2.671   6.637  0.00  0.00     0.013 A 
ATOM     29  C   UNL d   1       0.256   1.561   4.479  0.00  0.00    -0.036 A 
ATOM     30  C   UNL d   1       0.941   2.765   3.909  0.00  0.00     0.050 C 
ENDBRANCH  20  21
ENDBRANCH  18  20
ENDBRANCH   1  18
TORSDOF 6
