REMARK  9 active torsions:
REMARK  status: ('A' for Active; 'I' for Inactive)
REMARK       I    between atoms: N_2  and  C_1 
REMARK       I    between atoms: N_3  and  C_1 
REMARK    1  A    between atoms: C_7  and  N_2 
REMARK    2  A    between atoms: C_9  and  N_3 
REMARK    3  A    between atoms: C_8  and  C_9 
REMARK    4  A    between atoms: C_16  and  C_10 
REMARK    5  A    between atoms: C_18  and  C_16 
REMARK    6  A    between atoms: C_22  and  C_18 
REMARK    7  A    between atoms: C_19  and  C_20 
REMARK    8  A    between atoms: C_20  and  C_21 
REMARK    9  A    between atoms: C_21  and  C_22 
ROOT
ATOM      1  C   UNL d   1       1.048   0.016  -0.228  0.00  0.00     0.321 C 
ATOM      2  N   UNL d   1       0.513   0.853   0.726  0.00  0.00    -0.309 N 
ATOM      3  N   UNL d   1       0.221  -1.037  -0.500  0.00  0.00    -0.337 N 
ATOM      4  O   UNL d   1       2.129   0.135  -0.790  0.00  0.00    -0.247 OA
ATOM      5  H   UNL d   1      -0.306   0.510   1.204  0.00  0.00     0.170 HD
ATOM      6  H   UNL d   1      -0.685  -1.150  -0.067  0.00  0.00     0.164 HD
ENDROOT
BRANCH   2   7
ATOM      7  C   UNL d   1       1.098   2.034   1.224  0.00  0.00     0.036 A 
ATOM      8  C   UNL d   1       2.188   2.657   0.618  0.00  0.00     0.030 A 
ATOM      9  C   UNL d   1       2.772   3.788   1.189  0.00  0.00     0.009 A 
ATOM     10  C   UNL d   1       2.272   4.322   2.381  0.00  0.00    -0.058 A 
ATOM     11  C   UNL d   1       1.142   3.731   2.960  0.00  0.00     0.009 A 
ATOM     12  C   UNL d   1       0.557   2.598   2.384  0.00  0.00     0.030 A 
BRANCH  10  13
ATOM     13  C   UNL d   1       2.963   5.500   3.021  0.00  0.00     0.038 C 
BRANCH  13  14
ATOM     14  C   UNL d   1       3.498   5.219   4.430  0.00  0.00     0.005 C 
BRANCH  14  15
ATOM     15  C   UNL d   1       4.546   4.100   4.476  0.00  0.00     0.000 C 
BRANCH  15  16
ATOM     16  C   UNL d   1       5.035   3.878   5.908  0.00  0.00     0.000 C 
BRANCH  16  17
ATOM     17  C   UNL d   1       6.063   2.749   5.986  0.00  0.00    -0.000 C 
BRANCH  17  18
ATOM     18  C   UNL d   1       6.533   2.536   7.425  0.00  0.00    -0.005 C 
ATOM     19  C   UNL d   1       7.557   1.417   7.518  0.00  0.00     0.005 C 
ENDBRANCH  17  18
ENDBRANCH  16  17
ENDBRANCH  15  16
ENDBRANCH  14  15
ENDBRANCH  13  14
ENDBRANCH  10  13
ENDBRANCH   2   7
BRANCH   3  20
ATOM     20  C   UNL d   1       0.580  -2.038  -1.479  0.00  0.00     0.181 C 
BRANCH  20  21
ATOM     21  C   UNL d   1      -0.556  -3.009  -1.708  0.00  0.00     0.026 A 
ATOM     22  N   UNL d   1      -1.704  -2.818  -0.998  0.00  0.00    -0.368 N 
ATOM     23  C   UNL d   1      -2.719  -3.675  -1.220  0.00  0.00     0.088 A 
ATOM     24  HN  UNL d   1      -1.791  -2.056  -0.325  1.00  0.00     0.165 HD
ATOM     25  C   UNL d   1      -2.654  -4.728  -2.115  0.00  0.00     0.017 A 
ATOM     26  C   UNL d   1      -1.474  -4.915  -2.827  0.00  0.00     0.003 A 
ATOM     27  C   UNL d   1      -0.406  -4.047  -2.624  0.00  0.00     0.027 A 
ENDBRANCH  20  21
ENDBRANCH   3  20
TORSDOF 9
