REMARK  5 active torsions:
REMARK  status: ('A' for Active; 'I' for Inactive)
REMARK    1  A    between atoms: C_2  and  C_7 
REMARK    2  A    between atoms: O_15  and  C_3 
REMARK    3  A    between atoms: C_12  and  C_23 
REMARK       I    between atoms: N_14  and  C_12 
REMARK    4  A    between atoms: C_17  and  N_14 
REMARK    5  A    between atoms: C_23  and  O_15 
ROOT
ATOM      1  C   UNL d   1       2.490   3.315  -0.188  0.00  0.00     0.280 C 
ENDROOT
BRANCH   1   2
ATOM      2  C   UNL d   1       2.131   4.786   0.017  0.00  0.00     0.246 C 
ATOM      3  N   UNL d   1       2.481   5.596  -1.054  0.00  0.00    -0.325 N 
ATOM      4  H   UNL d   1       2.831   5.126  -1.881  0.00  0.00     0.169 HD
ATOM      5  O   UNL d   1       1.594   5.158   1.057  0.00  0.00    -0.271 OA
BRANCH   3   6
ATOM      6  C   UNL d   1       2.376   7.003  -1.135  0.00  0.00     0.035 A 
ATOM      7  C   UNL d   1       1.919   7.812  -0.090  0.00  0.00     0.045 A 
ATOM      8  C   UNL d   1       1.832   9.210  -0.235  0.00  0.00     0.050 A 
ATOM      9  C   UNL d   1       2.229   9.795  -1.445  0.00  0.00     0.016 A 
ATOM     10  C   UNL d   1       2.697   8.999  -2.489  0.00  0.00     0.003 A 
ATOM     11  C   UNL d   1       2.768   7.612  -2.333  0.00  0.00     0.029 A 
BRANCH   8  12
ATOM     12  C   UNL d   1       1.317  10.076   0.887  0.00  0.00     0.417 C 
ATOM     13  F   UNL d   1       0.930   9.383   1.993  0.00  0.00    -0.166 F 
ATOM     14  F   UNL d   1       2.246  10.975   1.317  0.00  0.00    -0.166 F 
ATOM     15  F   UNL d   1       0.233  10.815   0.514  0.00  0.00    -0.166 F 
ENDBRANCH   8  12
ENDBRANCH   3   6
ENDBRANCH   1   2
BRANCH   1  16
ATOM     16  O   UNL d   1       1.423   2.644  -0.853  0.00  0.00    -0.326 OA
BRANCH  16  17
ATOM     17  C   UNL d   1       1.570   1.264  -0.840  0.00  0.00     0.156 A 
ATOM     18  C   UNL d   1       0.492   0.491  -1.286  0.00  0.00     0.042 A 
ATOM     19  C   UNL d   1       0.705  -0.895  -1.236  0.00  0.00     0.049 A 
ATOM     20  C   UNL d   1      -0.742   1.000  -1.755  0.00  0.00     0.020 A 
ATOM     21  N   UNL d   1       1.854  -1.429  -0.810  0.00  0.00    -0.351 N 
ATOM     22  C   UNL d   1      -0.315  -1.741  -1.646  0.00  0.00     0.054 A 
ATOM     23  C   UNL d   1       2.817  -0.583  -0.423  0.00  0.00     0.182 A 
ATOM     24  HN  UNL d   1       1.992  -2.440  -0.780  1.00  0.00     0.166 HD
ATOM     25  N   UNL d   1       2.742   0.752  -0.423  0.00  0.00    -0.332 N 
ATOM     26  HN  UNL d   1       3.519   1.341  -0.127  1.00  0.00     0.168 HD
ATOM     27  C   UNL d   1      -1.532  -1.240  -2.106  0.00  0.00     0.036 A 
ATOM     28  C   UNL d   1      -1.750   0.132  -2.168  0.00  0.00     0.025 A 
ATOM     29 CL   UNL d   1      -2.772  -2.325  -2.600  0.00  0.00    -0.084 Cl
ENDBRANCH  16  17
ENDBRANCH   1  16
TORSDOF 5
