REMARK  7 active torsions:
REMARK  status: ('A' for Active; 'I' for Inactive)
REMARK    1  A    between atoms: C_2  and  C_1 
REMARK    2  A    between atoms: C_5  and  N_10 
REMARK    3  A    between atoms: N_16  and  C_5 
REMARK    4  A    between atoms: C_12  and  C_6 
REMARK    5  A    between atoms: N_10  and  C_18 
REMARK    6  A    between atoms: O_17  and  C_12 
REMARK    7  A    between atoms: C_20  and  O_17 
ROOT
ATOM      1  O   UNL d   1      -1.066  -5.110  -3.494  0.00  0.00    -0.345 OA
ENDROOT
BRANCH   1   2
ATOM      2  C   UNL d   1      -1.099  -4.702  -2.124  0.00  0.00     0.234 C 
BRANCH   2   3
ATOM      3  C   UNL d   1      -0.721  -3.243  -2.015  0.00  0.00     0.055 A 
ATOM      4  N   UNL d   1       0.387  -2.961  -1.269  0.00  0.00    -0.365 N 
ATOM      5  C   UNL d   1       0.751  -1.664  -1.139  0.00  0.00     0.104 A 
ATOM      6  HN  UNL d   1       0.924  -3.704  -0.823  1.00  0.00     0.165 HD
ATOM      7  C   UNL d   1       0.064  -0.609  -1.717  0.00  0.00     0.064 A 
ATOM      8  C   UNL d   1      -1.077  -0.911  -2.465  0.00  0.00     0.043 A 
ATOM      9  C   UNL d   1      -1.483  -2.238  -2.614  0.00  0.00     0.059 A 
ATOM     10 CL   UNL d   1      -2.923  -2.549  -3.509  0.00  0.00    -0.082 Cl
BRANCH   7  11
ATOM     11  C   UNL d   1       0.552   0.791  -1.520  0.00  0.00     0.418 C 
ATOM     12  F   UNL d   1      -0.200   1.723  -2.169  0.00  0.00    -0.166 F 
ATOM     13  F   UNL d   1       1.827   0.966  -1.964  0.00  0.00    -0.166 F 
ATOM     14  F   UNL d   1       0.557   1.161  -0.209  0.00  0.00    -0.166 F 
ENDBRANCH   7  11
ENDBRANCH   2   3
ENDBRANCH   1   2
BRANCH   1  15
ATOM     15  C   UNL d   1      -1.756  -6.248  -3.799  0.00  0.00     0.069 A 
ATOM     16  C   UNL d   1      -2.056  -6.421  -5.149  0.00  0.00     0.039 A 
ATOM     17  C   UNL d   1      -2.772  -7.543  -5.579  0.00  0.00     0.032 A 
ATOM     18  C   UNL d   1      -3.194  -8.520  -4.665  0.00  0.00     0.034 A 
ATOM     19  C   UNL d   1      -2.893  -8.335  -3.317  0.00  0.00     0.032 A 
ATOM     20  C   UNL d   1      -2.164  -7.217  -2.887  0.00  0.00     0.039 A 
BRANCH  18  21
ATOM     21  N   UNL d   1      -3.948  -9.592  -5.192  0.00  0.00    -0.333 N 
ATOM     22  H   UNL d   1      -4.100  -9.525  -6.186  0.00  0.00     0.168 HD
BRANCH  21  23
ATOM     23  C   UNL d   1      -4.393 -10.769  -4.651  0.00  0.00     0.171 C 
ATOM     24  S   UNL d   1      -3.909 -11.545  -3.254  0.00  0.00    -0.041 SA
BRANCH  23  25
ATOM     25  N   UNL d   1      -5.365 -11.414  -5.372  0.00  0.00    -0.371 N 
ATOM     26  C   UNL d   1      -6.170 -10.942  -6.481  0.00  0.00     0.148 C 
ATOM     27  H   UNL d   1      -5.704 -12.246  -4.900  0.00  0.00     0.161 HD
ENDBRANCH  23  25
ENDBRANCH  21  23
ENDBRANCH  18  21
ENDBRANCH   1  15
TORSDOF 7
