REMARK  2 active torsions:
REMARK  status: ('A' for Active; 'I' for Inactive)
REMARK    1  A    between atoms: C_7  and  C_4 
REMARK    2  A    between atoms: C_8  and  C_5 
ROOT
ATOM      1  C   UNL d   1      -1.278  -0.035   0.143  0.00  0.00    -0.007 C 
ATOM      2  C   UNL d   1       1.280   0.052   0.185  0.00  0.00    -0.007 C 
ATOM      3  C   UNL d   1       0.029  -0.761   0.011  0.00  0.00     0.184 C 
ATOM      4  C   UNL d   1      -2.366  -0.808   0.333  0.00  0.00     0.022 C 
ATOM      5  C   UNL d   1       2.433  -0.638   0.276  0.00  0.00     0.022 C 
ATOM      6  O   UNL d   1       0.072  -1.966  -0.216  0.00  0.00    -0.287 OA
ATOM      7  C   UNL d   1       1.173   1.548   0.243  0.00  0.00     0.043 C 
ATOM      8  C   UNL d   1      -1.310   1.464   0.064  0.00  0.00     0.043 C 
ATOM      9  C   UNL d   1      -0.037   2.052  -0.528  0.00  0.00     0.009 C 
ENDROOT
BRANCH   4  10
ATOM     10  C   UNL d   1      -3.723  -0.299   0.537  0.00  0.00    -0.035 A 
ATOM     11  C   UNL d   1      -4.571  -0.089  -0.555  0.00  0.00     0.013 A 
ATOM     12  C   UNL d   1      -5.876   0.368  -0.352  0.00  0.00     0.024 A 
ATOM     13  C   UNL d   1      -6.330   0.615   0.943  0.00  0.00     0.034 A 
ATOM     14  C   UNL d   1      -5.488   0.420   2.036  0.00  0.00     0.024 A 
ATOM     15 CL   UNL d   1      -7.944   1.155   1.194  0.00  0.00    -0.084 Cl
ATOM     16  C   UNL d   1      -4.183  -0.036   1.833  0.00  0.00     0.013 A 
ENDBRANCH   4  10
BRANCH   5  17
ATOM     17  C   UNL d   1       3.744  -0.031   0.516  0.00  0.00    -0.035 A 
ATOM     18  C   UNL d   1       4.191   0.157   1.830  0.00  0.00     0.013 A 
ATOM     19  C   UNL d   1       5.445   0.723   2.071  0.00  0.00     0.024 A 
ATOM     20  C   UNL d   1       6.249   1.104   0.998  0.00  0.00     0.034 A 
ATOM     21  C   UNL d   1       5.807   0.930  -0.313  0.00  0.00     0.024 A 
ATOM     22 CL   UNL d   1       7.800   1.788   1.294  0.00  0.00    -0.084 Cl
ATOM     23  C   UNL d   1       4.554   0.362  -0.554  0.00  0.00     0.013 A 
ENDBRANCH   5  17
TORSDOF 2
