REMARK  3 active torsions:
REMARK  status: ('A' for Active; 'I' for Inactive)
REMARK    1  A    between atoms: C_9  and  N_3 
REMARK    2  A    between atoms: C_7  and  C_4 
REMARK    3  A    between atoms: C_11  and  C_5 
ROOT
ATOM      1  N   UNL d   1       1.160  -0.171   0.106  0.00  0.00    -0.301 N 
ATOM      2  HN  UNL d   1       2.159  -0.364   0.174  1.00  0.00     0.187 HD
ATOM      3  N   UNL d   1       0.152  -1.095   0.097  0.00  0.00    -0.283 N 
ATOM      4  C   UNL d   1       0.604   0.999   0.011  0.00  0.00     0.038 A 
ATOM      5  C   UNL d   1      -1.183  -0.505  -0.007  0.00  0.00     0.147 A 
ATOM      6  C   UNL d   1      -0.899   0.994  -0.048  0.00  0.00     0.091 A 
ENDROOT
BRANCH   4   7
ATOM      7  C   UNL d   1       1.365   2.271  -0.045  0.00  0.00    -0.011 A 
ATOM      8  C   UNL d   1       2.765   2.238  -0.042  0.00  0.00     0.025 A 
ATOM      9  C   UNL d   1       3.514   3.428  -0.091  0.00  0.00    -0.025 A 
ATOM     10  C   UNL d   1       4.918   3.414  -0.086  0.00  0.00     0.012 A 
ATOM     11  C   UNL d   1       2.839   4.670  -0.143  0.00  0.00    -0.026 A 
ATOM     12  C   UNL d   1       5.645   4.606  -0.121  0.00  0.00     0.001 A 
ATOM     13  C   UNL d   1       4.978   5.827  -0.165  0.00  0.00     0.001 A 
ATOM     14  C   UNL d   1       3.585   5.860  -0.177  0.00  0.00     0.012 A 
ATOM     15  C   UNL d   1       1.439   4.691  -0.153  0.00  0.00     0.013 A 
ATOM     16  C   UNL d   1       0.706   3.502  -0.106  0.00  0.00     0.014 A 
ENDBRANCH   4   7
BRANCH   3  17
ATOM     17  C   UNL d   1       0.425  -2.461   0.044  0.00  0.00     0.051 A 
ATOM     18  C   UNL d   1       1.636  -2.969   0.542  0.00  0.00     0.031 A 
ATOM     19  C   UNL d   1       1.909  -4.341   0.550  0.00  0.00     0.002 A 
ATOM     20  C   UNL d   1       0.982  -5.238   0.029  0.00  0.00     0.000 A 
ATOM     21  C   UNL d   1      -0.216  -4.762  -0.493  0.00  0.00     0.002 A 
ATOM     22  C   UNL d   1      -0.491  -3.390  -0.475  0.00  0.00     0.031 A 
ENDBRANCH   3  17
BRANCH   5  23
ATOM     23  C   UNL d   1      -2.088  -0.853   1.164  0.00  0.00    -0.033 A 
ATOM     24  C   UNL d   1      -1.580  -1.055   2.460  0.00  0.00     0.009 A 
ATOM     25  C   UNL d   1      -2.430  -1.360   3.523  0.00  0.00     0.001 A 
ATOM     26  C   UNL d   1      -3.803  -1.455   3.310  0.00  0.00     0.000 A 
ATOM     27  C   UNL d   1      -4.327  -1.243   2.035  0.00  0.00     0.001 A 
ATOM     28  C   UNL d   1      -3.475  -0.942   0.970  0.00  0.00     0.009 A 
ENDBRANCH   5  23
TORSDOF 3
