REMARK  3 active torsions:
REMARK  status: ('A' for Active; 'I' for Inactive)
REMARK    1  A    between atoms: N_5  and  C_1 
REMARK       I    between atoms: C_2  and  N_5 
REMARK       I    between atoms: N_7  and  C_2 
REMARK    2  A    between atoms: C_9  and  N_7 
REMARK    3  A    between atoms: N_8  and  C_10 
ROOT
ATOM      1  C   UNL d   1      -1.738  -4.560   0.142  0.00  0.00     0.303 C 
ATOM      2  N   UNL d   1      -1.462  -5.835   0.514  0.00  0.00    -0.312 N 
ATOM      3  N   UNL d   1      -0.899  -3.575   0.548  0.00  0.00    -0.208 NA
ATOM      4  O   UNL d   1      -2.736  -4.390  -0.569  0.00  0.00    -0.253 OA
ATOM      5  H   UNL d   1      -2.149  -6.438   0.074  0.00  0.00     0.170 HD
ATOM      6  H   UNL d   1      -0.876  -3.631   1.561  0.00  0.00     0.138 HD
ENDROOT
BRANCH   3   7
ATOM      7  C   UNL d   1      -1.077  -2.239   0.083  0.00  0.00     0.043 A 
ATOM      8  C   UNL d   1      -0.560  -1.739  -1.146  0.00  0.00     0.052 A 
ATOM      9  C   UNL d   1      -0.743  -0.348  -1.357  0.00  0.00     0.031 A 
ATOM     10  C   UNL d   1      -1.337   0.507  -0.423  0.00  0.00     0.002 A 
ATOM     11  C   UNL d   1      -1.818  -0.007   0.766  0.00  0.00     0.002 A 
ATOM     12  C   UNL d   1      -1.691  -1.370   1.015  0.00  0.00     0.026 A 
BRANCH   8  13
ATOM     13  N   UNL d   1       0.120  -2.445  -2.129  0.00  0.00    -0.375 N 
ATOM     14  C   UNL d   1       1.301  -1.865  -2.807  0.00  0.00     0.149 C 
ATOM     15  C   UNL d   1       2.565  -2.662  -2.432  0.00  0.00     0.187 C 
ATOM     16  O   UNL d   1       2.425  -4.072  -2.680  0.00  0.00    -0.388 OA
ATOM     17  C   UNL d   1       1.285  -4.596  -1.970  0.00  0.00     0.187 C 
ATOM     18  C   UNL d   1       0.006  -3.878  -2.413  0.00  0.00     0.149 C 
ENDBRANCH   8  13
ENDBRANCH   3   7
BRANCH   2  19
ATOM     19  C   UNL d   1      -0.559  -6.507   1.344  0.00  0.00     0.054 C 
ATOM     20  C   UNL d   1       0.528  -6.108   2.239  0.00  0.00     0.008 A 
ATOM     21  C   UNL d   1       0.947  -7.204   3.020  0.00  0.00     0.017 A 
ATOM     22  C   UNL d   1       1.217  -4.889   2.501  0.00  0.00     0.015 A 
ATOM     23  C   UNL d   1       1.882  -7.093   4.071  0.00  0.00     0.020 A 
ATOM     24  S   UNL d   1       0.212  -8.674   2.531  0.00  0.00    -0.099 SA
ATOM     25  C   UNL d   1       2.477  -5.865   4.329  0.00  0.00     0.001 A 
ATOM     26  C   UNL d   1       2.167  -4.777   3.530  0.00  0.00     0.001 A 
ATOM     27  C   UNL d   1      -0.717  -7.883   1.365  0.00  0.00     0.081 C 
ENDBRANCH   2  19
TORSDOF 3
