REMARK  2 active torsions:
REMARK  status: ('A' for Active; 'I' for Inactive)
REMARK    1  A    between atoms: N_5  and  C_1 
REMARK    2  A    between atoms: N_8  and  C_2 
ROOT
ATOM      1  C   UNL d   1      -2.053  -2.038   0.902  0.00  0.00     0.116 A 
ATOM      2  C   UNL d   1      -1.484  -2.211   2.143  0.00  0.00     0.112 A 
ATOM      3  C   UNL d   1      -0.710  -1.951   0.255  0.00  0.00     0.252 A 
ATOM      4  C   UNL d   1      -0.108  -2.146   1.593  0.00  0.00     0.252 A 
ATOM      5  O   UNL d   1      -0.233  -1.823  -0.847  0.00  0.00    -0.281 OA
ATOM      6  O   UNL d   1       1.030  -2.194   1.989  0.00  0.00    -0.281 OA
ENDROOT
BRANCH   1   7
ATOM      7  N   UNL d   1      -3.261  -1.946   0.362  0.00  0.00    -0.372 N 
ATOM      8  C   UNL d   1      -4.423  -2.635   0.968  0.00  0.00     0.149 C 
ATOM      9  C   UNL d   1      -5.741  -1.951   0.573  0.00  0.00     0.187 C 
ATOM     10  O   UNL d   1      -5.871  -1.810  -0.849  0.00  0.00    -0.388 OA
ATOM     11  C   UNL d   1      -4.779  -1.034  -1.365  0.00  0.00     0.187 C 
ATOM     12  C   UNL d   1      -3.434  -1.724  -1.095  0.00  0.00     0.149 C 
ENDBRANCH   1   7
BRANCH   2  13
ATOM     13  N   UNL d   1      -1.861  -2.357   3.391  0.00  0.00    -0.394 N 
ATOM     14  H   UNL d   1      -2.824  -2.251   3.698  0.00  0.00     0.156 HD
ATOM     15  H   UNL d   1      -1.196  -2.370   4.165  0.00  0.00     0.156 HD
ENDBRANCH   2  13
TORSDOF 2
