REMARK  8 active torsions:
REMARK  status: ('A' for Active; 'I' for Inactive)
REMARK       I    between atoms: N_2  and  C_1 
REMARK    1  A    between atoms: C_4  and  C_1 
REMARK    2  A    between atoms: C_6  and  N_2 
REMARK    3  A    between atoms: O_5  and  C_9 
REMARK    4  A    between atoms: C_8  and  O_5 
REMARK    5  A    between atoms: C_7  and  C_6 
REMARK    6  A    between atoms: C_9  and  C_7 
REMARK    7  A    between atoms: O_15  and  C_7 
REMARK    8  A    between atoms: O_16  and  C_10 
ROOT
ATOM      1  C   UNL d   1      -0.095   2.795   2.384  0.00  0.00     0.160 C 
ENDROOT
BRANCH   1   2
ATOM      2  C   UNL d   1       0.898   1.930   1.590  0.00  0.00     0.156 C 
BRANCH   2   3
ATOM      3  N   UNL d   1       1.745   2.716   0.706  0.00  0.00    -0.358 N 
ATOM      4  C   UNL d   1       1.440   2.880  -0.628  0.00  0.00     0.221 C 
ATOM      5  O   UNL d   1       0.429   2.362  -1.113  0.00  0.00    -0.273 OA
ATOM      6  H   UNL d   1       2.457   3.299   1.128  0.00  0.00     0.162 HD
BRANCH   4   7
ATOM      7  C   UNL d   1       2.442   3.711  -1.471  0.00  0.00     0.078 C 
ATOM      8  C   UNL d   1       3.039   2.956  -2.694  0.00  0.00     0.014 C 
ATOM      9  C   UNL d   1       4.350   3.722  -2.475  0.00  0.00     0.002 C 
ATOM     10  C   UNL d   1       3.908   3.949  -1.017  0.00  0.00     0.014 C 
ENDBRANCH   4   7
ENDBRANCH   2   3
ENDBRANCH   1   2
BRANCH   1  11
ATOM     11  C   UNL d   1      -0.976   1.895   3.273  0.00  0.00     0.209 C 
BRANCH  11  12
ATOM     12  O   UNL d   1      -1.932   2.686   3.988  0.00  0.00    -0.349 OA
BRANCH  12  13
ATOM     13  C   UNL d   1      -2.730   2.022   4.883  0.00  0.00     0.069 A 
ATOM     14  C   UNL d   1      -2.755   0.644   5.096  0.00  0.00     0.039 A 
ATOM     15  C   UNL d   1      -3.612   0.081   6.050  0.00  0.00     0.039 A 
ATOM     16  C   UNL d   1      -4.460   0.894   6.805  0.00  0.00     0.068 A 
ATOM     17  C   UNL d   1      -4.442   2.272   6.588  0.00  0.00     0.039 A 
ATOM     18  C   UNL d   1      -3.585   2.833   5.635  0.00  0.00     0.039 A 
BRANCH  16  19
ATOM     19  O   UNL d   1      -5.338   0.467   7.762  0.00  0.00    -0.356 OA
ATOM     20  C   UNL d   1      -5.362  -0.929   8.033  0.00  0.00     0.210 C 
ENDBRANCH  16  19
ENDBRANCH  12  13
ENDBRANCH  11  12
ENDBRANCH   1  11
BRANCH   1  21
ATOM     21  O   UNL d   1       0.660   3.729   3.178  0.00  0.00    -0.392 OA
ATOM     22  H   UNL d   1       1.011   3.255   3.951  0.00  0.00     0.210 HD
ENDBRANCH   1  21
TORSDOF 8
