REMARK  2 active torsions:
REMARK  status: ('A' for Active; 'I' for Inactive)
REMARK    1  A    between atoms: C_6  and  C_1 
REMARK    2  A    between atoms: O_13  and  C_6 
ROOT
ATOM      1  C   UNL d   1       3.395   1.415  -0.001  0.00  0.00     0.114 A 
ATOM      2  C   UNL d   1       3.839   0.010   0.008  0.00  0.00     0.305 A 
ATOM      3  C   UNL d   1       2.086   1.718  -0.019  0.00  0.00     0.039 A 
ATOM      4  O   UNL d   1       2.871  -0.983  -0.015  0.00  0.00    -0.274 OA
ATOM      5  C   UNL d   1       1.083   0.666  -0.026  0.00  0.00     0.000 A 
ATOM      6  C   UNL d   1       1.503  -0.661  -0.026  0.00  0.00     0.089 A 
ATOM      7  O   UNL d   1       5.038  -0.261   0.034  0.00  0.00    -0.259 OA
ATOM      8  C   UNL d   1      -0.286   0.942  -0.029  0.00  0.00     0.033 A 
ATOM      9  C   UNL d   1       0.597  -1.719  -0.033  0.00  0.00     0.039 A 
ATOM     10  C   UNL d   1      -1.204  -0.113  -0.031  0.00  0.00     0.011 A 
ATOM     11  C   UNL d   1      -0.769  -1.440  -0.034  0.00  0.00     0.022 A 
ATOM     12 BR   UNL d   1      -3.058   0.260  -0.026  0.00  0.00    -0.051 Br
ENDROOT
BRANCH   1  13
ATOM     13  C   UNL d   1       4.357   2.542   0.011  0.00  0.00     0.182 C 
ATOM     14  O   UNL d   1       4.009   3.715  -0.006  0.00  0.00    -0.646 OA
BRANCH  13  15
ATOM     15  O   UNL d   1       5.661   2.195   0.045  0.00  0.00    -0.772 OA
ATOM     16  H   UNL d   1       5.844   1.224   0.055  0.00  0.00     0.167 HD
ENDBRANCH  13  15
ENDBRANCH   1  13
TORSDOF 2
