REMARK  5 active torsions:
REMARK  status: ('A' for Active; 'I' for Inactive)
REMARK    1  A    between atoms: C_5  and  C_1 
REMARK    2  A    between atoms: C_2  and  N_6 
REMARK    3  A    between atoms: N_3  and  C_2 
REMARK    4  A    between atoms: C_4  and  N_3 
REMARK    5  A    between atoms: N_6  and  C_10 
ROOT
ATOM      1  C   UNL d   1       0.280  -4.085   2.711  0.00  0.00     0.176 C 
ATOM      2  S   UNL d   1      -0.030  -5.517   3.511  0.00  0.00    -0.041 SA
ENDROOT
BRANCH   1   3
ATOM      3  N   UNL d   1       0.117  -2.788   3.149  0.00  0.00    -0.333 N 
ATOM      4  H   UNL d   1       0.061  -2.138   2.374  0.00  0.00     0.168 HD
BRANCH   3   5
ATOM      5  C   UNL d   1      -0.272  -2.247   4.398  0.00  0.00     0.035 A 
ATOM      6  C   UNL d   1      -0.170  -2.899   5.628  0.00  0.00     0.045 A 
ATOM      7  C   UNL d   1      -0.644  -2.296   6.813  0.00  0.00     0.050 A 
ATOM      8  C   UNL d   1      -1.170  -0.999   6.755  0.00  0.00     0.016 A 
ATOM      9  C   UNL d   1      -1.242  -0.325   5.542  0.00  0.00     0.003 A 
ATOM     10  C   UNL d   1      -0.796  -0.948   4.372  0.00  0.00     0.029 A 
BRANCH   7  11
ATOM     11  C   UNL d   1      -0.613  -3.023   8.135  0.00  0.00     0.417 C 
ATOM     12  F   UNL d   1      -0.242  -4.329   8.041  0.00  0.00    -0.166 F 
ATOM     13  F   UNL d   1      -1.830  -3.026   8.749  0.00  0.00    -0.166 F 
ATOM     14  F   UNL d   1       0.247  -2.452   9.024  0.00  0.00    -0.166 F 
ENDBRANCH   7  11
ENDBRANCH   3   5
ENDBRANCH   1   3
BRANCH   1  15
ATOM     15  N   UNL d   1       0.588  -4.188   1.369  0.00  0.00    -0.333 N 
ATOM     16  H   UNL d   1       0.340  -5.088   0.971  0.00  0.00     0.168 HD
BRANCH  15  17
ATOM     17  C   UNL d   1       1.500  -3.432   0.598  0.00  0.00     0.040 A 
ATOM     18  C   UNL d   1       1.483  -3.553  -0.807  0.00  0.00    -0.034 A 
ATOM     19  C   UNL d   1       2.517  -2.966  -1.560  0.00  0.00     0.028 A 
ATOM     20  C   UNL d   1       0.416  -4.301  -1.562  0.00  0.00     0.050 C 
ATOM     21  C   UNL d   1       3.539  -2.262  -0.928  0.00  0.00     0.011 A 
ATOM     22  C   UNL d   1       3.531  -2.102   0.453  0.00  0.00     0.021 A 
ATOM     23 BR   UNL d   1       4.962  -1.553  -1.950  0.00  0.00    -0.051 Br
ATOM     24  C   UNL d   1       2.510  -2.678   1.213  0.00  0.00     0.031 A 
ENDBRANCH  15  17
ENDBRANCH   1  15
TORSDOF 5
