REMARK  5 active torsions:
REMARK  status: ('A' for Active; 'I' for Inactive)
REMARK    1  A    between atoms: C_4  and  S_1 
REMARK    2  A    between atoms: N_11  and  S_1 
REMARK    3  A    between atoms: C_2  and  C_5 
REMARK       I    between atoms: C_3  and  N_6 
REMARK       I    between atoms: N_7  and  C_3 
REMARK    4  A    between atoms: N_6  and  C_12 
REMARK    5  A    between atoms: C_15  and  N_7 
ROOT
ATOM      1  C   UNL d   1       1.970  -5.193  -0.451  0.00  0.00     0.325 C 
ATOM      2  N   UNL d   1       0.991  -5.052  -1.434  0.00  0.00    -0.309 N 
ATOM      3  N   UNL d   1       1.797  -4.334   0.611  0.00  0.00    -0.309 N 
ATOM      4  O   UNL d   1       2.865  -6.038  -0.505  0.00  0.00    -0.247 OA
ATOM      5  H   UNL d   1       0.682  -4.112  -1.638  0.00  0.00     0.170 HD
ATOM      6  H   UNL d   1       1.308  -3.469   0.440  0.00  0.00     0.170 HD
ENDROOT
BRANCH   2   7
ATOM      7  C   UNL d   1       0.906  -6.009  -2.473  0.00  0.00     0.037 C 
ATOM      8  C   UNL d   1       1.262  -7.328  -2.207  0.00  0.00     0.054 C 
ATOM      9  C   UNL d   1       1.663  -8.152  -3.247  0.00  0.00     0.076 C 
ATOM     10  C   UNL d   1       1.455  -7.764  -4.566  0.00  0.00     0.025 C 
ATOM     11  C   UNL d   1       0.865  -6.524  -4.829  0.00  0.00     0.004 C 
ATOM     12  C   UNL d   1       0.612  -5.627  -3.781  0.00  0.00     0.029 C 
BRANCH   9  13
ATOM     13  S   UNL d   1       2.666  -9.560  -2.862  0.00  0.00     0.239 S 
ATOM     14  O   UNL d   1       3.719  -9.627  -3.853  0.00  0.00    -0.206 OA
ATOM     15  O   UNL d   1       1.781 -10.662  -2.584  0.00  0.00    -0.206 OA
BRANCH  13  16
ATOM     16  N   UNL d   1       3.410  -9.162  -1.400  0.00  0.00    -0.225 NA
ATOM     17  H   UNL d   1       3.457  -8.159  -1.189  0.00  0.00     0.136 HD
ATOM     18  H   UNL d   1       3.010  -9.711  -0.638  0.00  0.00     0.136 HD
ENDBRANCH  13  16
ENDBRANCH   9  13
ENDBRANCH   2   7
BRANCH   3  19
ATOM     19  C   UNL d   1       2.397  -4.511   1.879  0.00  0.00     0.037 A 
ATOM     20  C   UNL d   1       2.941  -5.736   2.293  0.00  0.00     0.045 A 
ATOM     21  C   UNL d   1       3.482  -5.905   3.576  0.00  0.00     0.050 A 
ATOM     22  C   UNL d   1       3.475  -4.816   4.455  0.00  0.00     0.016 A 
ATOM     23  C   UNL d   1       2.933  -3.592   4.055  0.00  0.00     0.003 A 
ATOM     24  C   UNL d   1       2.389  -3.442   2.776  0.00  0.00     0.029 A 
BRANCH  21  25
ATOM     25  C   UNL d   1       4.035  -7.241   4.006  0.00  0.00     0.417 C 
ATOM     26  F   UNL d   1       3.966  -8.202   3.040  0.00  0.00    -0.166 F 
ATOM     27  F   UNL d   1       5.344  -7.174   4.373  0.00  0.00    -0.166 F 
ATOM     28  F   UNL d   1       3.370  -7.753   5.080  0.00  0.00    -0.166 F 
ENDBRANCH  21  25
ENDBRANCH   3  19
TORSDOF 5
