REMARK  4 active torsions:
REMARK  status: ('A' for Active; 'I' for Inactive)
REMARK       I    between atoms: N_2  and  C_1 
REMARK       I    between atoms: N_7  and  C_1 
REMARK    1  A    between atoms: C_6  and  N_2 
REMARK    2  A    between atoms: C_5  and  O_9 
REMARK    3  A    between atoms: C_16  and  N_7 
REMARK    4  A    between atoms: O_9  and  C_18 
ROOT
ATOM      1  C   UNL d   1       0.949   0.075  -0.032  0.00  0.00     0.326 C 
ATOM      2  N   UNL d   1       0.249  -0.915  -0.677  0.00  0.00    -0.294 N 
ATOM      3  N   UNL d   1       0.198   1.091   0.485  0.00  0.00    -0.309 N 
ATOM      4  O   UNL d   1       2.167  -0.046   0.060  0.00  0.00    -0.247 OA
ATOM      5  H   UNL d   1       0.840  -1.674  -0.983  0.00  0.00     0.172 HD
ATOM      6  H   UNL d   1      -0.796   0.994   0.290  0.00  0.00     0.170 HD
ENDROOT
BRANCH   2   7
ATOM      7  C   UNL d   1      -1.130  -1.013  -0.899  0.00  0.00     0.109 A 
ATOM      8  N   UNL d   1      -1.927   0.023  -0.553  0.00  0.00    -0.342 N 
ATOM      9  C   UNL d   1      -3.254  -0.083  -0.744  0.00  0.00     0.043 A 
ATOM     10  HN  UNL d   1      -1.528   0.871  -0.152  1.00  0.00     0.167 HD
ATOM     11  C   UNL d   1      -4.074   0.986  -0.408  0.00  0.00     0.030 A 
ATOM     12  C   UNL d   1      -3.844  -1.243  -1.272  0.00  0.00    -0.009 A 
ATOM     13  C   UNL d   1      -5.460   0.924  -0.560  0.00  0.00     0.002 A 
ATOM     14  C   UNL d   1      -6.047  -0.235  -1.058  0.00  0.00     0.001 A 
ATOM     15  C   UNL d   1      -5.244  -1.315  -1.418  0.00  0.00     0.013 A 
ATOM     16  C   UNL d   1      -3.002  -2.301  -1.634  0.00  0.00     0.017 A 
ATOM     17  C   UNL d   1      -1.625  -2.181  -1.455  0.00  0.00     0.049 A 
ENDBRANCH   2   7
BRANCH   3  18
ATOM     18  C   UNL d   1       0.582   2.187   1.270  0.00  0.00     0.036 A 
ATOM     19  C   UNL d   1       1.899   2.493   1.607  0.00  0.00     0.032 A 
ATOM     20  C   UNL d   1       2.185   3.595   2.430  0.00  0.00     0.039 A 
ATOM     21  C   UNL d   1       1.149   4.373   2.945  0.00  0.00     0.078 A 
ATOM     22  C   UNL d   1      -0.164   4.094   2.569  0.00  0.00     0.039 A 
ATOM     23  C   UNL d   1      -0.447   3.007   1.741  0.00  0.00     0.032 A 
BRANCH  21  24
ATOM     24  O   UNL d   1       1.280   5.439   3.781  0.00  0.00    -0.255 OA
BRANCH  24  25
ATOM     25  C   UNL d   1       2.365   5.457   4.696  0.00  0.00     0.530 C 
ATOM     26  F   UNL d   1       2.912   4.244   4.920  0.00  0.00    -0.144 F 
ATOM     27  F   UNL d   1       3.321   6.299   4.250  0.00  0.00    -0.144 F 
ATOM     28  F   UNL d   1       1.911   5.926   5.881  0.00  0.00    -0.144 F 
ENDBRANCH  24  25
ENDBRANCH  21  24
ENDBRANCH   3  18
TORSDOF 4
