REMARK  6 active torsions:
REMARK  status: ('A' for Active; 'I' for Inactive)
REMARK    1  A    between atoms: C_9  and  C_1 
REMARK    2  A    between atoms: C_7  and  C_2 
REMARK    3  A    between atoms: O_12  and  C_5 
REMARK    4  A    between atoms: O_18  and  C_9 
REMARK    5  A    between atoms: C_17  and  O_12 
REMARK    6  A    between atoms: C_25  and  O_18 
ROOT
ATOM      1  C   UNL d   1      -1.611   1.357   0.034  0.00  0.00     0.072 A 
ATOM      2  C   UNL d   1      -2.285   0.143  -0.066  0.00  0.00     0.135 A 
ATOM      3  N   UNL d   1      -1.586  -1.036  -0.091  0.00  0.00    -0.331 N 
ATOM      4  HN  UNL d   1      -2.082  -1.926  -0.139  1.00  0.00     0.168 HD
ATOM      5  C   UNL d   1      -0.230  -1.012  -0.051  0.00  0.00     0.169 A 
ATOM      6  C   UNL d   1       0.503   0.163  -0.082  0.00  0.00     0.097 A 
ATOM      7  C   UNL d   1      -0.205   1.365  -0.011  0.00  0.00     0.047 A 
ATOM      8  C   UNL d   1       1.931   0.163  -0.166  0.00  0.00     0.104 C 
ATOM      9  N   UNL d   1       3.084   0.202  -0.263  0.00  0.00    -0.191 NA
ENDROOT
BRANCH   5  10
ATOM     10  O   UNL d   1       0.438  -2.223   0.012  0.00  0.00    -0.292 OA
BRANCH  10  11
ATOM     11  C   UNL d   1      -0.143  -3.235   0.749  0.00  0.00     0.078 A 
ATOM     12  C   UNL d   1       0.053  -4.535   0.278  0.00  0.00     0.039 A 
ATOM     13  C   UNL d   1      -0.470  -5.622   0.983  0.00  0.00     0.026 A 
ATOM     14  C   UNL d   1      -1.182  -5.407   2.162  0.00  0.00     0.034 A 
ATOM     15  C   UNL d   1      -1.369  -4.115   2.648  0.00  0.00     0.026 A 
ATOM     16 CL   UNL d   1      -1.821  -6.746   3.033  0.00  0.00    -0.084 Cl
ATOM     17  C   UNL d   1      -0.835  -3.029   1.949  0.00  0.00     0.039 A 
ENDBRANCH  10  11
ENDBRANCH   5  10
BRANCH   1  18
ATOM     18  C   UNL d   1      -2.336   2.628   0.222  0.00  0.00     0.295 C 
ATOM     19  O   UNL d   1      -3.289   2.764   0.964  0.00  0.00    -0.259 OA
BRANCH  18  20
ATOM     20  O   UNL d   1      -1.780   3.539  -0.605  0.00  0.00    -0.318 OA
BRANCH  20  21
ATOM     21  C   UNL d   1      -2.542   4.733  -0.834  0.00  0.00     0.174 C 
ATOM     22  C   UNL d   1      -3.234   4.567  -2.174  0.00  0.00     0.034 C 
ENDBRANCH  20  21
ENDBRANCH  18  20
ENDBRANCH   1  18
BRANCH   2  23
ATOM     23  C   UNL d   1      -3.797   0.022  -0.190  0.00  0.00     0.433 C 
ATOM     24  F   UNL d   1      -4.448   1.158  -0.556  0.00  0.00    -0.165 F 
ATOM     25  F   UNL d   1      -4.147  -0.886  -1.152  0.00  0.00    -0.165 F 
ATOM     26  F   UNL d   1      -4.386  -0.416   0.958  0.00  0.00    -0.165 F 
ENDBRANCH   2  23
TORSDOF 6
