REMARK  3 active torsions:
REMARK  status: ('A' for Active; 'I' for Inactive)
REMARK       I    between atoms: N_2  and  C_1 
REMARK    1  A    between atoms: C_6  and  C_1 
REMARK    2  A    between atoms: N_3  and  N_2 
REMARK    3  A    between atoms: C_7  and  N_3 
ROOT
ATOM      1  C   UNL d   1       0.902  -0.209  -0.243  0.00  0.00     0.236 C 
ATOM      2  N   UNL d   1       0.218   0.783   0.451  0.00  0.00    -0.287 N 
ATOM      3  O   UNL d   1       0.316  -1.108  -0.842  0.00  0.00    -0.272 OA
ATOM      4  H   UNL d   1       0.672   1.206   1.255  0.00  0.00     0.184 HD
ENDROOT
BRANCH   2   5
ATOM      5  N   UNL d   1      -1.168   0.570   0.590  0.00  0.00    -0.203 NA
ATOM      6  H   UNL d   1      -1.485  -0.129  -0.097  0.00  0.00     0.153 HD
BRANCH   5   7
ATOM      7  C   UNL d   1      -1.959   1.745   0.543  0.00  0.00     0.029 A 
ATOM      8  C   UNL d   1      -1.536   2.968   1.081  0.00  0.00     0.048 A 
ATOM      9  C   UNL d   1      -2.409   4.058   1.142  0.00  0.00     0.035 A 
ATOM     10 CL   UNL d   1      -1.866   5.545   1.819  0.00  0.00    -0.084 Cl
ATOM     11  C   UNL d   1      -3.720   3.948   0.686  0.00  0.00     0.024 A 
ATOM     12  C   UNL d   1      -4.163   2.735   0.168  0.00  0.00     0.003 A 
ATOM     13  C   UNL d   1      -3.292   1.641   0.111  0.00  0.00     0.025 A 
ENDBRANCH   5   7
ENDBRANCH   2   5
BRANCH   1  14
ATOM     14  C   UNL d   1       2.426  -0.058  -0.194  0.00  0.00     0.079 C 
ATOM     15  C   UNL d   1       2.879   1.231  -0.889  0.00  0.00     0.014 C 
ATOM     16  C   UNL d   1       2.708   1.155  -2.405  0.00  0.00     0.001 C 
ATOM     17  C   UNL d   1       3.433  -0.050  -2.998  0.00  0.00     0.000 C 
ATOM     18  C   UNL d   1       3.047  -1.356  -2.312  0.00  0.00     0.001 C 
ATOM     19  C   UNL d   1       3.156  -1.271  -0.790  0.00  0.00     0.014 C 
ENDBRANCH   1  14
TORSDOF 3
