REMARK  3 active torsions:
REMARK  status: ('A' for Active; 'I' for Inactive)
REMARK    1  A    between atoms: C_5  and  C_13 
REMARK    2  A    between atoms: C_19  and  N_10 
REMARK    3  A    between atoms: C_17  and  C_12 
ROOT
ATOM      1  N   UNL d   1      -6.896   0.679   0.648  0.00  0.00    -0.293 N 
ATOM      2  HN  UNL d   1      -7.719   0.891   1.213  1.00  0.00     0.187 HD
ATOM      3  C   UNL d   1      -4.931  -0.177  -0.081  0.00  0.00     0.012 A 
ATOM      4  N   UNL d   1      -6.551   1.245  -0.538  0.00  0.00    -0.266 N 
ATOM      5  C   UNL d   1      -5.935  -0.216   0.924  0.00  0.00     0.070 A 
ATOM      6  C   UNL d   1      -5.370   0.724  -1.018  0.00  0.00     0.130 A 
ENDROOT
BRANCH   3   7
ATOM      7  C   UNL d   1      -3.688  -0.865  -0.146  0.00  0.00     0.040 C 
ATOM      8  C   UNL d   1      -2.528  -0.406   0.343  0.00  0.00     0.077 A 
ATOM      9  C   UNL d   1      -1.302  -1.246   0.302  0.00  0.00     0.271 A 
ATOM     10  S   UNL d   1      -2.251   1.150   1.090  0.00  0.00    -0.048 SA
ATOM     11  N   UNL d   1      -0.290  -0.504   0.868  0.00  0.00    -0.255 N 
ATOM     12  O   UNL d   1      -1.145  -2.376  -0.124  0.00  0.00    -0.266 OA
ATOM     13  C   UNL d   1      -0.595   0.741   1.308  0.00  0.00     0.160 A 
ATOM     14  C   UNL d   1       1.042  -0.717   1.114  0.00  0.00     0.071 A 
ATOM     15  N   UNL d   1       0.419   1.392   1.802  0.00  0.00    -0.334 N 
ATOM     16  C   UNL d   1       1.460   0.490   1.689  0.00  0.00     0.061 A 
ATOM     17  HN  UNL d   1       0.441   2.339   2.180  1.00  0.00     0.168 HD
ATOM     18  C   UNL d   1       2.803   0.637   2.063  0.00  0.00     0.032 A 
ATOM     19  C   UNL d   1       3.680  -0.435   1.854  0.00  0.00     0.002 A 
ATOM     20  C   UNL d   1       3.233  -1.631   1.287  0.00  0.00     0.002 A 
ATOM     21  C   UNL d   1       1.899  -1.800   0.901  0.00  0.00     0.032 A 
ENDBRANCH   3   7
BRANCH   5  22
ATOM     22  C   UNL d   1      -6.002  -1.054   2.128  0.00  0.00    -0.007 A 
ATOM     23  C   UNL d   1      -5.488  -2.362   2.129  0.00  0.00     0.017 A 
ATOM     24  C   UNL d   1      -5.563  -3.160   3.273  0.00  0.00     0.043 A 
ATOM     25  C   UNL d   1      -6.166  -2.658   4.418  0.00  0.00     0.116 A 
ATOM     26  C   UNL d   1      -6.691  -1.372   4.442  0.00  0.00     0.043 A 
ATOM     27  F   UNL d   1      -6.251  -3.430   5.509  0.00  0.00    -0.206 F 
ATOM     28  C   UNL d   1      -6.609  -0.570   3.299  0.00  0.00     0.017 A 
ENDBRANCH   5  22
BRANCH   4  29
ATOM     29  C   UNL d   1      -7.361   2.251  -1.139  0.00  0.00     0.056 A 
ATOM     30  C   UNL d   1      -7.045   2.779  -2.400  0.00  0.00     0.031 A 
ATOM     31  C   UNL d   1      -7.855   3.764  -2.970  0.00  0.00     0.002 A 
ATOM     32  C   UNL d   1      -8.977   4.232  -2.288  0.00  0.00     0.000 A 
ATOM     33  C   UNL d   1      -9.294   3.715  -1.033  0.00  0.00     0.002 A 
ATOM     34  C   UNL d   1      -8.492   2.726  -0.459  0.00  0.00     0.031 A 
ENDBRANCH   4  29
TORSDOF 3
