REMARK  8 active torsions:
REMARK  status: ('A' for Active; 'I' for Inactive)
REMARK    1  A    between atoms: C_10  and  N_1 
REMARK    2  A    between atoms: S_12  and  C_5 
REMARK    3  A    between atoms: N_8  and  C_11 
REMARK    4  A    between atoms: C_23  and  S_12 
REMARK    5  A    between atoms: O_22  and  C_24 
REMARK    6  A    between atoms: C_26  and  O_22 
REMARK    7  A    between atoms: C_25  and  C_23 
REMARK    8  A    between atoms: C_29  and  C_26 
ROOT
ATOM      1  N   UNL d   1      -0.288  -1.267  -0.041  0.00  0.00    -0.273 N 
ATOM      2  C   UNL d   1       0.957  -0.646   0.052  0.00  0.00     0.163 A 
ATOM      3  N   UNL d   1       0.803   0.661   0.115  0.00  0.00    -0.281 N 
ATOM      4  HN  UNL d   1       1.550   1.346   0.232  1.00  0.00     0.188 HD
ATOM      5  C   UNL d   1      -1.180  -0.198  -0.104  0.00  0.00     0.168 A 
ATOM      6  N   UNL d   1      -0.532   0.942  -0.002  0.00  0.00    -0.278 N 
ATOM      7  HN  UNL d   1      -0.950   1.872  -0.010  1.00  0.00     0.189 HD
ATOM      8  C   UNL d   1       2.241  -1.282  -0.008  0.00  0.00     0.120 A 
ATOM      9  O   UNL d   1       2.487  -2.413  -0.748  0.00  0.00    -0.319 OA
ATOM     10  C   UNL d   1       3.417  -0.918   0.629  0.00  0.00     0.043 A 
ATOM     11  C   UNL d   1       3.775  -2.780  -0.541  0.00  0.00     0.142 A 
ATOM     12  C   UNL d   1       4.392  -1.895   0.307  0.00  0.00     0.027 A 
ENDROOT
BRANCH   1  13
ATOM     13  C   UNL d   1      -0.555  -2.670  -0.028  0.00  0.00     0.043 A 
ATOM     14  C   UNL d   1       0.218  -3.534   0.764  0.00  0.00     0.033 A 
ATOM     15  C   UNL d   1      -0.036  -4.910   0.771  0.00  0.00     0.039 A 
ATOM     16  C   UNL d   1      -1.083  -5.432   0.018  0.00  0.00     0.069 A 
ATOM     17  C   UNL d   1      -1.827  -4.582  -0.801  0.00  0.00     0.039 A 
ATOM     18  C   UNL d   1      -1.571  -3.208  -0.821  0.00  0.00     0.033 A 
BRANCH  16  19
ATOM     19  O   UNL d   1      -1.302  -6.778   0.154  0.00  0.00    -0.347 OA
BRANCH  19  20
ATOM     20  C   UNL d   1      -2.649  -7.180  -0.111  0.00  0.00     0.214 C 
BRANCH  20  21
ATOM     21  C   UNL d   1      -2.975  -8.507   0.534  0.00  0.00    -0.034 A 
ATOM     22  C   UNL d   1      -4.259  -8.713   1.057  0.00  0.00     0.009 A 
ATOM     23  C   UNL d   1      -4.616  -9.945   1.606  0.00  0.00     0.001 A 
ATOM     24  C   UNL d   1      -3.693 -10.987   1.627  0.00  0.00     0.000 A 
ATOM     25  C   UNL d   1      -2.415 -10.797   1.103  0.00  0.00     0.001 A 
ATOM     26  C   UNL d   1      -2.056  -9.564   0.553  0.00  0.00     0.009 A 
ENDBRANCH  20  21
ENDBRANCH  19  20
ENDBRANCH  16  19
ENDBRANCH   1  13
BRANCH   5  27
ATOM     27  S   UNL d   1      -2.921  -0.313  -0.106  0.00  0.00    -0.087 SA
BRANCH  27  28
ATOM     28  C   UNL d   1      -3.404   1.435  -0.249  0.00  0.00     0.121 C 
BRANCH  28  29
ATOM     29  C   UNL d   1      -4.906   1.606  -0.385  0.00  0.00    -0.046 A 
ATOM     30  C   UNL d   1      -5.720   1.765   0.749  0.00  0.00     0.043 A 
ATOM     31  C   UNL d   1      -7.106   1.946   0.600  0.00  0.00     0.103 A 
ATOM     32  C   UNL d   1      -7.695   1.965  -0.670  0.00  0.00     0.036 A 
ATOM     33  C   UNL d   1      -6.890   1.795  -1.795  0.00  0.00     0.003 A 
ATOM     34  C   UNL d   1      -5.510   1.614  -1.654  0.00  0.00     0.008 A 
BRANCH  31  35
ATOM     35  N   UNL d   1      -7.952   2.127   1.790  0.00  0.00    -0.116 N 
ATOM     36  O   UNL d   1      -7.396   2.125   2.896  0.00  0.00    -0.532 OA
ATOM     37  O   UNL d   1      -9.170   2.270   1.615  0.00  0.00    -0.532 OA
ENDBRANCH  31  35
ENDBRANCH  28  29
ENDBRANCH  27  28
ENDBRANCH   5  27
TORSDOF 8
