REMARK  3 active torsions:
REMARK  status: ('A' for Active; 'I' for Inactive)
REMARK    1  A    between atoms: C_5  and  C_1 
REMARK    2  A    between atoms: C_9  and  C_2 
REMARK    3  A    between atoms: N_4  and  C_6 
ROOT
ATOM      1  C   UNL d   1      -1.474  -1.244  -0.202  0.00  0.00     0.006 A 
ATOM      2  C   UNL d   1      -2.377  -0.191  -0.117  0.00  0.00     0.054 A 
ATOM      3  N   UNL d   1      -1.607   0.954  -0.052  0.00  0.00    -0.354 N 
ATOM      4  C   UNL d   1      -0.146  -0.715  -0.210  0.00  0.00     0.003 A 
ATOM      5  C   UNL d   1      -0.265   0.668  -0.097  0.00  0.00     0.043 A 
ATOM      6  C   UNL d   1       1.149  -1.270  -0.285  0.00  0.00     0.014 A 
ATOM      7  C   UNL d   1       0.839   1.527  -0.041  0.00  0.00     0.030 A 
ATOM      8  C   UNL d   1       2.265  -0.425  -0.235  0.00  0.00     0.001 A 
ATOM      9  C   UNL d   1       2.110   0.953  -0.110  0.00  0.00     0.002 A 
ATOM     10  H   UNL d   1      -1.978   1.887   0.043  0.00  0.00     0.166 HD
ENDROOT
BRANCH   2  11
ATOM     11  C   UNL d   1      -3.849  -0.123  -0.081  0.00  0.00    -0.008 A 
ATOM     12  C   UNL d   1      -4.525   0.966  -0.655  0.00  0.00     0.026 A 
ATOM     13  C   UNL d   1      -5.926   1.080  -0.600  0.00  0.00    -0.025 A 
ATOM     14  C   UNL d   1      -6.594   2.192  -1.141  0.00  0.00     0.012 A 
ATOM     15  C   UNL d   1      -6.678   0.058   0.015  0.00  0.00    -0.026 A 
ATOM     16  C   UNL d   1      -7.984   2.294  -1.068  0.00  0.00     0.001 A 
ATOM     17  C   UNL d   1      -8.725   1.281  -0.467  0.00  0.00     0.001 A 
ATOM     18  C   UNL d   1      -8.077   0.168   0.069  0.00  0.00     0.012 A 
ATOM     19  C   UNL d   1      -6.009  -1.042   0.567  0.00  0.00     0.013 A 
ATOM     20  C   UNL d   1      -4.613  -1.122   0.531  0.00  0.00     0.014 A 
ENDBRANCH   2  11
BRANCH   1  21
ATOM     21  C   UNL d   1      -1.828  -2.624  -0.208  0.00  0.00     0.046 C 
ATOM     22  C   UNL d   1      -2.034  -3.451  -1.245  0.00  0.00     0.077 C 
ATOM     23  C   UNL d   1      -2.448  -4.878  -1.165  0.00  0.00     0.075 C 
BRANCH  22  24
ATOM     24  N   UNL d   1      -1.876  -2.962  -2.597  0.00  0.00    -0.120 N 
ATOM     25  O   UNL d   1      -2.574  -2.008  -2.962  0.00  0.00    -0.532 OA
ATOM     26  O   UNL d   1      -1.099  -3.603  -3.321  0.00  0.00    -0.532 OA
ENDBRANCH  22  24
ENDBRANCH   1  21
TORSDOF 3
