REMARK  5 active torsions:
REMARK  status: ('A' for Active; 'I' for Inactive)
REMARK    1  A    between atoms: S_2  and  C_1 
REMARK    2  A    between atoms: C_8  and  S_2 
REMARK    3  A    between atoms: C_7  and  C_4 
REMARK       I    between atoms: N_9  and  C_7 
REMARK    4  A    between atoms: N_12  and  N_9 
REMARK    5  A    between atoms: C_17  and  N_12 
ROOT
ATOM      1  C   UNL d   1       0.653   1.235   0.048  0.00  0.00     0.078 A 
ATOM      2  C   UNL d   1       1.241  -0.091  -0.010  0.00  0.00    -0.017 A 
ATOM      3  C   UNL d   1       0.251  -1.081  -0.011  0.00  0.00     0.081 A 
ATOM      4  S   UNL d   1      -1.324  -0.404   0.058  0.00  0.00    -0.094 SA
ATOM      5  C   UNL d   1      -0.726   1.185   0.081  0.00  0.00     0.075 A 
ATOM      6  C   UNL d   1       2.705  -0.419  -0.048  0.00  0.00     0.051 C 
ENDROOT
BRANCH   3   7
ATOM      7  C   UNL d   1       0.433  -2.538  -0.070  0.00  0.00     0.273 C 
ATOM      8  N   UNL d   1      -0.720  -3.312   0.047  0.00  0.00    -0.282 N 
ATOM      9  H   UNL d   1      -1.546  -2.892   0.462  0.00  0.00     0.184 HD
ATOM     10  O   UNL d   1       1.533  -3.082  -0.198  0.00  0.00    -0.266 OA
BRANCH   8  11
ATOM     11  N   UNL d   1      -0.544  -4.686   0.301  0.00  0.00    -0.203 NA
ATOM     12  H   UNL d   1       0.436  -4.972   0.171  0.00  0.00     0.153 HD
BRANCH  11  13
ATOM     13  C   UNL d   1      -1.432  -5.563  -0.371  0.00  0.00     0.029 A 
ATOM     14  C   UNL d   1      -2.613  -5.148  -0.998  0.00  0.00     0.048 A 
ATOM     15  C   UNL d   1      -3.497  -6.085  -1.542  0.00  0.00     0.035 A 
ATOM     16 CL   UNL d   1      -4.935  -5.547  -2.322  0.00  0.00    -0.084 Cl
ATOM     17  C   UNL d   1      -3.235  -7.450  -1.450  0.00  0.00     0.024 A 
ATOM     18  C   UNL d   1      -2.077  -7.882  -0.811  0.00  0.00     0.003 A 
ATOM     19  C   UNL d   1      -1.188  -6.945  -0.274  0.00  0.00     0.025 A 
ENDBRANCH  11  13
ENDBRANCH   8  11
ENDBRANCH   3   7
BRANCH   1  20
ATOM     20  S   UNL d   1       1.486   2.772   0.072  0.00  0.00     0.207 S 
ATOM     21  O   UNL d   1       0.516   3.706   0.616  0.00  0.00    -0.217 OA
ATOM     22  O   UNL d   1       2.754   2.538   0.726  0.00  0.00    -0.217 OA
BRANCH  20  23
ATOM     23  C   UNL d   1       1.768   3.195  -1.629  0.00  0.00     0.064 A 
ATOM     24  C   UNL d   1       0.856   4.023  -2.294  0.00  0.00     0.025 A 
ATOM     25  C   UNL d   1       1.097   4.397  -3.619  0.00  0.00     0.025 A 
ATOM     26  C   UNL d   1       2.249   3.952  -4.267  0.00  0.00     0.034 A 
ATOM     27  C   UNL d   1       3.170   3.145  -3.598  0.00  0.00     0.025 A 
ATOM     28 CL   UNL d   1       2.543   4.413  -5.898  0.00  0.00    -0.084 Cl
ATOM     29  C   UNL d   1       2.936   2.771  -2.271  0.00  0.00     0.025 A 
ENDBRANCH  20  23
ENDBRANCH   1  20
TORSDOF 5
