REMARK  4 active torsions:
REMARK  status: ('A' for Active; 'I' for Inactive)
REMARK    1  A    between atoms: N_5  and  C_1 
REMARK       I    between atoms: C_4  and  N_5 
REMARK    2  A    between atoms: C_10  and  C_4 
REMARK    3  A    between atoms: S_8  and  C_10 
REMARK    4  A    between atoms: C_11  and  S_8 
ROOT
ATOM      1  C   UNL d   1       4.754   1.093  -0.101  0.00  0.00     0.227 C 
ATOM      2  N   UNL d   1       3.859   0.110   0.259  0.00  0.00    -0.355 N 
ATOM      3  O   UNL d   1       4.440   2.046  -0.813  0.00  0.00    -0.273 OA
ATOM      4  H   UNL d   1       4.232  -0.697   0.750  0.00  0.00     0.162 HD
ENDROOT
BRANCH   1   5
ATOM      5  C   UNL d   1       6.154   0.978   0.495  0.00  0.00     0.182 C 
BRANCH   5   6
ATOM      6  S   UNL d   1       6.644  -0.763   0.769  0.00  0.00    -0.121 SA
BRANCH   6   7
ATOM      7  C   UNL d   1       8.216  -0.604   1.605  0.00  0.00     0.001 A 
ATOM      8  C   UNL d   1       8.560  -1.610   2.519  0.00  0.00     0.021 A 
ATOM      9  C   UNL d   1       9.793  -1.585   3.175  0.00  0.00     0.043 A 
ATOM     10  C   UNL d   1      10.684  -0.554   2.918  0.00  0.00     0.116 A 
ATOM     11  C   UNL d   1      10.367   0.449   2.012  0.00  0.00     0.043 A 
ATOM     12  F   UNL d   1      11.870  -0.533   3.541  0.00  0.00    -0.206 F 
ATOM     13  C   UNL d   1       9.134   0.424   1.351  0.00  0.00     0.021 A 
ENDBRANCH   6   7
ENDBRANCH   5   6
ENDBRANCH   1   5
BRANCH   2  14
ATOM     14  C   UNL d   1       2.501   0.065  -0.259  0.00  0.00     0.092 C 
ATOM     15  C   UNL d   1       1.681  -1.112   0.319  0.00  0.00     0.064 C 
ATOM     16  C   UNL d   1       0.671  -1.335  -0.763  0.00  0.00    -0.050 A 
ATOM     17  C   UNL d   1      -0.517  -2.042  -0.692  0.00  0.00     0.007 A 
ATOM     18  C   UNL d   1       1.091  -0.749  -1.963  0.00  0.00    -0.050 A 
ATOM     19  C   UNL d   1      -1.300  -2.139  -1.846  0.00  0.00     0.001 A 
ATOM     20  C   UNL d   1      -0.880  -1.547  -3.047  0.00  0.00     0.001 A 
ATOM     21  C   UNL d   1       0.329  -0.852  -3.114  0.00  0.00     0.007 A 
ATOM     22  C   UNL d   1       2.421  -0.082  -1.797  0.00  0.00     0.064 C 
ENDBRANCH   2  14
TORSDOF 4
