REMARK  3 active torsions:
REMARK  status: ('A' for Active; 'I' for Inactive)
REMARK    1  A    between atoms: C_6  and  C_2 
REMARK    2  A    between atoms: C_5  and  C_15 
REMARK       I    between atoms: N_14  and  C_6 
REMARK    3  A    between atoms: C_16  and  N_14 
ROOT
ATOM      1  C   UNL d   1      -3.477  -1.307   0.090  0.00  0.00     0.256 C 
ATOM      2  N   UNL d   1      -3.544  -2.682  -0.065  0.00  0.00    -0.323 N 
ATOM      3  O   UNL d   1      -2.476  -0.678   0.422  0.00  0.00    -0.267 OA
ATOM      4  H   UNL d   1      -4.405  -3.092  -0.395  0.00  0.00     0.169 HD
ENDROOT
BRANCH   1   5
ATOM      5  C   UNL d   1      -4.707  -0.503  -0.219  0.00  0.00     0.034 A 
ATOM      6  C   UNL d   1      -5.982  -1.092  -0.343  0.00  0.00     0.051 A 
ATOM      7  C   UNL d   1      -7.017  -0.184  -0.649  0.00  0.00     0.086 A 
ATOM      8  C   UNL d   1      -6.798   1.245  -0.814  0.00  0.00     0.085 A 
ATOM      9  N   UNL d   1      -8.320  -0.431  -0.839  0.00  0.00    -0.240 N 
ATOM     10  N   UNL d   1      -7.970   1.823  -1.099  0.00  0.00    -0.240 N 
ATOM     11  C   UNL d   1      -5.530   1.831  -0.676  0.00  0.00     0.035 A 
ATOM     12  O   UNL d   1      -8.900   0.797  -1.115  0.00  0.00    -0.156 OA
ATOM     13  HN  UNL d   1      -8.143   2.813  -1.269  1.00  0.00     0.197 HD
ATOM     14  C   UNL d   1      -4.507   0.910  -0.378  0.00  0.00     0.019 A 
ATOM     15  HN  UNL d   1      -8.788  -1.336  -0.790  1.00  0.00     0.197 HD
ENDBRANCH   1   5
BRANCH   2  16
ATOM     16  C   UNL d   1      -2.451  -3.581   0.020  0.00  0.00     0.035 A 
ATOM     17  C   UNL d   1      -1.168  -3.207   0.431  0.00  0.00     0.045 A 
ATOM     18  C   UNL d   1      -0.091  -4.108   0.380  0.00  0.00     0.050 A 
ATOM     19  C   UNL d   1      -0.323  -5.417  -0.061  0.00  0.00     0.016 A 
ATOM     20  C   UNL d   1      -1.607  -5.817  -0.426  0.00  0.00     0.003 A 
ATOM     21  C   UNL d   1      -2.666  -4.905  -0.381  0.00  0.00     0.029 A 
BRANCH  18  22
ATOM     22  C   UNL d   1       1.302  -3.662   0.752  0.00  0.00     0.417 C 
ATOM     23  F   UNL d   1       1.365  -2.398   1.256  0.00  0.00    -0.166 F 
ATOM     24  F   UNL d   1       1.872  -4.465   1.694  0.00  0.00    -0.166 F 
ATOM     25  F   UNL d   1       2.150  -3.680  -0.314  0.00  0.00    -0.166 F 
ENDBRANCH  18  22
ENDBRANCH   2  16
TORSDOF 3
