REMARK  5 active torsions:
REMARK  status: ('A' for Active; 'I' for Inactive)
REMARK       I    between atoms: C_3  and  N_10 
REMARK    1  A    between atoms: C_14  and  C_3 
REMARK    2  A    between atoms: S_15  and  C_5 
REMARK    3  A    between atoms: N_10  and  N_16 
REMARK    4  A    between atoms: C_11  and  C_20 
REMARK       I    between atoms: N_16  and  C_11 
REMARK    5  A    between atoms: C_20  and  S_15 
ROOT
ATOM      1  S   UNL d   1       1.903  -3.007  -0.029  0.00  0.00    -0.102 SA
ENDROOT
BRANCH   1   2
ATOM      2  C   UNL d   1       1.278  -1.338   0.038  0.00  0.00     0.090 A 
ATOM      3  C   UNL d   1       2.122  -0.221   0.023  0.00  0.00     0.065 A 
ATOM      4  S   UNL d   1       3.835  -0.093  -0.068  0.00  0.00    -0.096 SA
ATOM      5  C   UNL d   1       1.541   1.047   0.088  0.00  0.00     0.059 A 
ATOM      6  C   UNL d   1       3.792   1.611  -0.008  0.00  0.00     0.059 A 
ATOM      7  C   UNL d   1       2.507   2.111   0.080  0.00  0.00    -0.027 A 
ATOM      8  C   UNL d   1       2.179   3.566   0.160  0.00  0.00     0.051 C 
ATOM      9  N   UNL d   1       0.199   1.232   0.157  0.00  0.00    -0.351 N 
ATOM     10  C   UNL d   1      -0.517   0.109   0.158  0.00  0.00     0.181 A 
ATOM     11  HN  UNL d   1      -0.227   2.157   0.203  1.00  0.00     0.166 HD
ATOM     12  N   UNL d   1      -0.057  -1.147   0.110  0.00  0.00    -0.346 N 
ATOM     13  HN  UNL d   1      -0.699  -1.940   0.127  1.00  0.00     0.167 HD
ENDBRANCH   1   2
BRANCH   1  14
ATOM     14  C   UNL d   1       0.332  -3.924   0.022  0.00  0.00     0.185 C 
BRANCH  14  15
ATOM     15  C   UNL d   1       0.491  -5.426  -0.113  0.00  0.00     0.245 C 
ATOM     16  N   UNL d   1       1.541  -6.011   0.562  0.00  0.00    -0.267 N 
ATOM     17  H   UNL d   1       2.326  -5.482   0.944  0.00  0.00     0.190 HD
ATOM     18  O   UNL d   1      -0.349  -6.114  -0.700  0.00  0.00    -0.271 OA
BRANCH  16  19
ATOM     19  N   UNL d   1       1.642  -7.408   0.530  0.00  0.00    -0.265 N 
ATOM     20  C   UNL d   1       2.793  -8.024   0.984  0.00  0.00     0.269 C 
ATOM     21  O   UNL d   1       3.726  -7.372   1.465  0.00  0.00    -0.269 OA
ATOM     22  H   UNL d   1       0.903  -7.910   0.032  0.00  0.00     0.190 HD
BRANCH  20  23
ATOM     23  C   UNL d   1       2.808  -9.549   0.932  0.00  0.00     0.271 C 
ATOM     24 CL   UNL d   1       1.986 -10.178   2.375  0.00  0.00    -0.098 Cl
ATOM     25 CL   UNL d   1       2.021 -10.153  -0.544  0.00  0.00    -0.098 Cl
ENDBRANCH  20  23
ENDBRANCH  16  19
ENDBRANCH  14  15
ENDBRANCH   1  14
TORSDOF 5
