REMARK  4 active torsions:
REMARK  status: ('A' for Active; 'I' for Inactive)
REMARK    1  A    between atoms: N_3  and  S_1 
REMARK    2  A    between atoms: C_8  and  S_1 
REMARK    3  A    between atoms: N_4  and  C_2 
REMARK    4  A    between atoms: C_5  and  C_2 
REMARK       I    between atoms: N_16  and  C_5 
ROOT
ATOM      1  C   UNL d   1       0.949   3.904  -2.103  0.00  0.00     0.241 C 
ATOM      2  N   UNL d   1       0.651   1.276  -0.761  0.00  0.00    -0.206 NA
ATOM      3  C   UNL d   1       0.500   3.731  -0.622  0.00  0.00     0.067 C 
ATOM      4  C   UNL d   1       0.649   2.585  -2.862  0.00  0.00     0.067 C 
ATOM      5  C   UNL d   1       1.062   2.467   0.032  0.00  0.00     0.110 C 
ATOM      6  C   UNL d   1       1.200   1.354  -2.148  0.00  0.00     0.110 C 
ENDROOT
BRANCH   1   7
ATOM      7  N   UNL d   1       0.299   5.139  -2.728  0.00  0.00     0.107 N 
ATOM      8  C   UNL d   1       0.758   5.367  -4.120  0.00  0.00     0.274 C 
ATOM      9  C   UNL d   1       0.131   6.606  -4.765  0.00  0.00     0.030 C 
ATOM     10  C   UNL d   1      -1.386   6.514  -4.751  0.00  0.00     0.003 C 
ATOM     11  C   UNL d   1      -1.856   6.320  -3.321  0.00  0.00     0.030 C 
ATOM     12  C   UNL d   1      -1.179   5.110  -2.670  0.00  0.00     0.274 C 
ENDBRANCH   1   7
BRANCH   1  13
ATOM     13  C   UNL d   1       2.503   4.143  -2.122  0.00  0.00     0.254 C 
ATOM     14  O   UNL d   1       3.305   3.460  -2.750  0.00  0.00    -0.271 OA
ATOM     15  N   UNL d   1       2.956   5.217  -1.404  0.00  0.00    -0.368 N 
ATOM     16  H   UNL d   1       2.318   5.998  -1.294  0.00  0.00     0.159 HD
ATOM     17  H   UNL d   1       3.934   5.437  -1.546  0.00  0.00     0.159 HD
ENDBRANCH   1  13
BRANCH   2  18
ATOM     18  S   UNL d   1       1.044  -0.234  -0.029  0.00  0.00     0.243 S 
ATOM     19  O   UNL d   1       2.417  -0.151   0.415  0.00  0.00    -0.206 OA
ATOM     20  O   UNL d   1       0.614  -1.289  -0.927  0.00  0.00    -0.206 OA
BRANCH  18  21
ATOM     21  C   UNL d   1      -0.005  -0.331   1.401  0.00  0.00     0.074 A 
ATOM     22  C   UNL d   1      -1.385  -0.476   1.234  0.00  0.00     0.025 A 
ATOM     23  C   UNL d   1      -2.192  -0.721   2.350  0.00  0.00     0.008 A 
ATOM     24  C   UNL d   1      -1.624  -0.834   3.628  0.00  0.00    -0.062 A 
ATOM     25  C   UNL d   1      -0.241  -0.668   3.780  0.00  0.00     0.008 A 
ATOM     26  C   UNL d   1      -2.485  -1.185   4.807  0.00  0.00     0.048 C 
ATOM     27  C   UNL d   1       0.569  -0.419   2.671  0.00  0.00     0.025 A 
ENDBRANCH  18  21
ENDBRANCH   2  18
TORSDOF 4
