REMARK  5 active torsions:
REMARK  status: ('A' for Active; 'I' for Inactive)
REMARK       I    between atoms: N_4  and  C_1 
REMARK       I    between atoms: N_6  and  C_1 
REMARK    1  A    between atoms: O_7  and  C_2 
REMARK    2  A    between atoms: C_3  and  N_4 
REMARK    3  A    between atoms: C_8  and  N_6 
REMARK    4  A    between atoms: C_20  and  O_7 
REMARK    5  A    between atoms: O_21  and  C_9 
ROOT
ATOM      1  C   UNL d   1      -3.245   0.826   0.093  0.00  0.00     0.104 A 
ATOM      2  C   UNL d   1      -1.845   0.805   0.001  0.00  0.00     0.069 A 
ATOM      3  C   UNL d   1      -1.182   0.394  -1.159  0.00  0.00     0.039 A 
ATOM      4  C   UNL d   1      -3.998   0.488  -1.041  0.00  0.00     0.101 A 
ATOM      5  C   UNL d   1      -3.337   0.072  -2.205  0.00  0.00     0.042 A 
ATOM      6  C   UNL d   1      -1.942   0.012  -2.263  0.00  0.00     0.032 A 
ENDROOT
BRANCH   3   7
ATOM      7  N   UNL d   1       0.227   0.326  -1.265  0.00  0.00    -0.309 N 
ATOM      8  C   UNL d   1       1.143   0.886  -0.383  0.00  0.00     0.325 C 
ATOM      9  N   UNL d   1       2.449   0.636  -0.780  0.00  0.00    -0.309 N 
ATOM     10  O   UNL d   1       0.844   1.546   0.603  0.00  0.00    -0.247 OA
ATOM     11  H   UNL d   1       2.575   0.178  -1.670  0.00  0.00     0.170 HD
ATOM     12  H   UNL d   1       0.588  -0.090  -2.109  0.00  0.00     0.170 HD
BRANCH   9  13
ATOM     13  C   UNL d   1       3.618   1.102  -0.135  0.00  0.00     0.042 A 
ATOM     14  C   UNL d   1       3.631   1.679   1.138  0.00  0.00     0.072 A 
ATOM     15  C   UNL d   1       4.826   2.145   1.683  0.00  0.00     0.121 A 
ATOM     16  F   UNL d   1       4.816   2.699   2.905  0.00  0.00    -0.206 F 
ATOM     17  C   UNL d   1       6.017   2.051   0.993  0.00  0.00     0.084 A 
ATOM     18  C   UNL d   1       6.006   1.464  -0.263  0.00  0.00     0.121 A 
ATOM     19  C   UNL d   1       4.823   0.981  -0.830  0.00  0.00     0.072 A 
ATOM     20  F   UNL d   1       7.149   1.365  -0.955  0.00  0.00    -0.206 F 
ENDBRANCH   9  13
ENDBRANCH   3   7
BRANCH   1  21
ATOM     21  O   UNL d   1      -3.889   1.167   1.256  0.00  0.00    -0.343 OA
BRANCH  21  22
ATOM     22  C   UNL d   1      -3.223   0.901   2.497  0.00  0.00     0.129 C 
ATOM     23  C   UNL d   1      -3.057  -0.595   2.767  0.00  0.00     0.032 C 
ATOM     24  C   UNL d   1      -3.165  -0.777   4.275  0.00  0.00     0.002 C 
ATOM     25  C   UNL d   1      -3.688   0.536   4.842  0.00  0.00     0.002 C 
ATOM     26  C   UNL d   1      -4.109   1.375   3.647  0.00  0.00     0.032 C 
ENDBRANCH  21  22
ENDBRANCH   1  21
BRANCH   4  27
ATOM     27  O   UNL d   1      -5.363   0.439  -1.157  0.00  0.00    -0.353 OA
ATOM     28  C   UNL d   1      -6.111   1.345  -0.358  0.00  0.00     0.210 C 
ENDBRANCH   4  27
TORSDOF 5
