REMARK  7 active torsions:
REMARK  status: ('A' for Active; 'I' for Inactive)
REMARK    1  A    between atoms: C_5  and  C_1 
REMARK    2  A    between atoms: O_13  and  C_1 
REMARK    3  A    between atoms: N_2  and  N_9 
REMARK    4  A    between atoms: C_4  and  C_8 
REMARK    5  A    between atoms: O_16  and  C_7 
REMARK    6  A    between atoms: N_9  and  C_12 
REMARK    7  A    between atoms: C_19  and  O_13 
ROOT
ATOM      1  N   UNL d   1      -2.314   3.522   3.005  0.00  0.00    -0.301 N 
ATOM      2  H   UNL d   1      -3.086   3.032   3.457  0.00  0.00     0.187 HD
ENDROOT
BRANCH   1   3
ATOM      3  N   UNL d   1      -1.741   4.563   3.665  0.00  0.00    -0.311 N 
ATOM      4  C   UNL d   1      -2.557   5.297   4.356  0.00  0.00     0.121 C 
ATOM      5  HN  UNL d   1      -0.740   4.753   3.619  1.00  0.00     0.186 HD
BRANCH   4   6
ATOM      6  C   UNL d   1      -2.053   6.435   5.156  0.00  0.00     0.014 A 
ATOM      7  C   UNL d   1      -0.685   6.719   5.256  0.00  0.00     0.077 A 
ATOM      8  C   UNL d   1      -0.243   7.798   6.017  0.00  0.00     0.037 A 
ATOM      9  C   UNL d   1      -1.168   8.600   6.687  0.00  0.00     0.003 A 
ATOM     10  C   UNL d   1      -2.531   8.319   6.599  0.00  0.00     0.001 A 
ATOM     11  C   UNL d   1      -2.979   7.238   5.834  0.00  0.00     0.015 A 
BRANCH   7  12
ATOM     12  O   UNL d   1       0.281   5.972   4.638  0.00  0.00    -0.360 OA
ATOM     13  H   UNL d   1      -0.173   5.253   4.144  0.00  0.00     0.217 HD
ENDBRANCH   7  12
ENDBRANCH   4   6
ENDBRANCH   1   3
BRANCH   1  14
ATOM     14  C   UNL d   1      -1.444   2.660   2.297  0.00  0.00     0.048 A 
ATOM     15  C   UNL d   1      -1.796   1.317   2.100  0.00  0.00     0.032 A 
ATOM     16  C   UNL d   1      -0.968   0.452   1.371  0.00  0.00     0.020 A 
ATOM     17  C   UNL d   1       0.220   0.925   0.799  0.00  0.00     0.039 A 
ATOM     18  C   UNL d   1       0.568   2.269   0.973  0.00  0.00     0.020 A 
ATOM     19  C   UNL d   1      -0.257   3.124   1.714  0.00  0.00     0.032 A 
BRANCH  17  20
ATOM     20  C   UNL d   1       1.117   0.062  -0.020  0.00  0.00     0.293 C 
ATOM     21  O   UNL d   1       2.084   0.486  -0.634  0.00  0.00    -0.259 OA
BRANCH  20  22
ATOM     22  O   UNL d   1       0.705  -1.230   0.018  0.00  0.00    -0.318 OA
BRANCH  22  23
ATOM     23  C   UNL d   1       1.456  -2.151  -0.791  0.00  0.00     0.174 C 
ATOM     24  C   UNL d   1       2.690  -2.636  -0.054  0.00  0.00     0.034 C 
ENDBRANCH  22  23
ENDBRANCH  20  22
ENDBRANCH  17  20
ENDBRANCH   1  14
TORSDOF 7
