REMARK  6 active torsions:
REMARK  status: ('A' for Active; 'I' for Inactive)
REMARK    1  A    between atoms: C_3  and  C_1 
REMARK       I    between atoms: N_6  and  C_1 
REMARK    2  A    between atoms: C_2  and  O_7 
REMARK    3  A    between atoms: C_10  and  N_6 
REMARK    4  A    between atoms: O_7  and  C_14 
REMARK    5  A    between atoms: O_9  and  C_15 
REMARK    6  A    between atoms: C_16  and  O_9 
ROOT
ATOM      1  C   UNL d   1      -1.093   1.256  -0.534  0.00  0.00     0.034 C 
ATOM      2  C   UNL d   1      -3.884   1.449  -0.387  0.00  0.00     0.076 C 
ATOM      3  C   UNL d   1      -1.760   1.002   0.667  0.00  0.00     0.032 C 
ATOM      4  C   UNL d   1      -1.822   1.726  -1.628  0.00  0.00     0.032 C 
ATOM      5  C   UNL d   1      -3.221   1.805  -1.559  0.00  0.00     0.039 C 
ATOM      6  C   UNL d   1      -3.145   1.131   0.753  0.00  0.00     0.039 C 
ENDROOT
BRANCH   2   7
ATOM      7  O   UNL d   1      -5.260   1.459  -0.411  0.00  0.00    -0.311 OA
BRANCH   7   8
ATOM      8  C   UNL d   1      -5.948   0.465   0.256  0.00  0.00     0.076 A 
ATOM      9  C   UNL d   1      -7.233   0.793   0.685  0.00  0.00     0.040 A 
ATOM     10  C   UNL d   1      -8.003  -0.149   1.374  0.00  0.00     0.040 A 
ATOM     11  C   UNL d   1      -7.504  -1.430   1.635  0.00  0.00     0.078 A 
ATOM     12  C   UNL d   1      -6.213  -1.749   1.225  0.00  0.00     0.040 A 
ATOM     13  C   UNL d   1      -5.459  -0.824   0.494  0.00  0.00     0.040 A 
BRANCH  11  14
ATOM     14  O   UNL d   1      -8.346  -2.243   2.327  0.00  0.00    -0.255 OA
BRANCH  14  15
ATOM     15  C   UNL d   1      -8.279  -3.651   2.136  0.00  0.00     0.530 C 
ATOM     16  F   UNL d   1      -7.467  -4.043   1.133  0.00  0.00    -0.144 F 
ATOM     17  F   UNL d   1      -7.871  -4.238   3.282  0.00  0.00    -0.144 F 
ATOM     18  F   UNL d   1      -9.523  -4.101   1.854  0.00  0.00    -0.144 F 
ENDBRANCH  14  15
ENDBRANCH  11  14
ENDBRANCH   7   8
ENDBRANCH   2   7
BRANCH   1  19
ATOM     19  N   UNL d   1       0.298   1.063  -0.682  0.00  0.00    -0.327 N 
ATOM     20  C   UNL d   1       1.085   0.289   0.151  0.00  0.00     0.226 C 
ATOM     21  O   UNL d   1       0.699  -0.397   1.088  0.00  0.00    -0.273 OA
ATOM     22  H   UNL d   1       0.724   1.423  -1.526  0.00  0.00     0.169 HD
BRANCH  20  23
ATOM     23  C   UNL d   1       2.542   0.325  -0.171  0.00  0.00     0.078 A 
ATOM     24  C   UNL d   1       3.460  -0.776   0.317  0.00  0.00     0.015 A 
ATOM     25  C   UNL d   1       3.517   0.580   0.960  0.00  0.00     0.015 A 
ENDBRANCH  20  23
ENDBRANCH   1  19
TORSDOF 6
