REMARK  6 active torsions:
REMARK  status: ('A' for Active; 'I' for Inactive)
REMARK    1  A    between atoms: C_6  and  C_1 
REMARK    2  A    between atoms: C_9  and  C_2 
REMARK    3  A    between atoms: N_5  and  C_7 
REMARK       I    between atoms: N_14  and  C_9 
REMARK       I    between atoms: C_11  and  N_15 
REMARK    4  A    between atoms: S_13  and  C_11 
REMARK    5  A    between atoms: C_12  and  S_13 
REMARK    6  A    between atoms: N_15  and  N_14 
ROOT
ATOM      1  C   UNL d   1       0.182  -2.506  -0.431  0.00  0.00     0.275 C 
ATOM      2  N   UNL d   1      -0.795  -3.327  -0.966  0.00  0.00    -0.262 N 
ATOM      3  O   UNL d   1       1.327  -2.911  -0.241  0.00  0.00    -0.266 OA
ATOM      4  H   UNL d   1      -1.691  -2.991  -1.300  0.00  0.00     0.190 HD
ENDROOT
BRANCH   1   5
ATOM      5  C   UNL d   1      -0.226  -1.151  -0.103  0.00  0.00     0.094 A 
ATOM      6  C   UNL d   1      -1.478  -0.594   0.342  0.00  0.00     0.086 A 
ATOM      7  N   UNL d   1      -1.335   0.716   0.598  0.00  0.00    -0.259 N 
ATOM      8  O   UNL d   1      -0.038   1.042   0.298  0.00  0.00    -0.241 OA
ATOM      9  HN  UNL d   1      -2.054   1.349   0.949  1.00  0.00     0.195 HD
ATOM     10  C   UNL d   1       0.630  -0.064  -0.100  0.00  0.00     0.090 A 
ATOM     11  C   UNL d   1       2.053   0.153  -0.434  0.00  0.00     0.080 C 
BRANCH   6  12
ATOM     12  C   UNL d   1      -2.784  -1.230   0.575  0.00  0.00     0.037 A 
ATOM     13  C   UNL d   1      -2.912  -2.384   1.375  0.00  0.00     0.048 A 
ATOM     14 CL   UNL d   1      -1.600  -3.055   2.286  0.00  0.00    -0.083 Cl
ATOM     15  C   UNL d   1      -4.147  -3.033   1.514  0.00  0.00     0.025 A 
ATOM     16  C   UNL d   1      -5.292  -2.506   0.928  0.00  0.00     0.003 A 
ATOM     17  C   UNL d   1      -5.206  -1.323   0.205  0.00  0.00     0.025 A 
ATOM     18  C   UNL d   1      -3.967  -0.695   0.014  0.00  0.00     0.048 A 
ATOM     19 CL   UNL d   1      -3.999   0.734  -0.968  0.00  0.00    -0.083 Cl
ENDBRANCH   6  12
ENDBRANCH   1   5
BRANCH   2  20
ATOM     20  N   UNL d   1      -0.506  -4.690  -1.162  0.00  0.00    -0.258 N 
ATOM     21  C   UNL d   1      -1.148  -5.381  -2.153  0.00  0.00     0.303 C 
ATOM     22  O   UNL d   1      -1.915  -4.889  -2.973  0.00  0.00    -0.258 OA
ATOM     23  H   UNL d   1       0.164  -5.143  -0.539  0.00  0.00     0.191 HD
BRANCH  21  24
ATOM     24  S   UNL d   1      -0.838  -7.099  -2.060  0.00  0.00    -0.025 SA
BRANCH  24  25
ATOM     25  C   UNL d   1       0.361  -7.315  -3.372  0.00  0.00     0.043 A 
ATOM     26  C   UNL d   1       1.745  -7.535  -3.210  0.00  0.00     0.120 A 
ATOM     27  C   UNL d   1       2.555  -7.839  -4.324  0.00  0.00     0.037 A 
ATOM     28  C   UNL d   1       2.000  -7.914  -5.601  0.00  0.00     0.003 A 
ATOM     29  C   UNL d   1       0.645  -7.676  -5.777  0.00  0.00     0.002 A 
ATOM     30  C   UNL d   1      -0.168  -7.386  -4.677  0.00  0.00     0.021 A 
BRANCH  26  31
ATOM     31  N   UNL d   1       2.417  -7.462  -1.901  0.00  0.00    -0.114 N 
ATOM     32  O   UNL d   1       1.854  -6.860  -0.974  0.00  0.00    -0.532 OA
ATOM     33  O   UNL d   1       3.538  -7.981  -1.807  0.00  0.00    -0.532 OA
ENDBRANCH  26  31
ENDBRANCH  24  25
ENDBRANCH  21  24
ENDBRANCH   2  20
TORSDOF 6
