REMARK  3 active torsions:
REMARK  status: ('A' for Active; 'I' for Inactive)
REMARK    1  A    between atoms: N_2  and  C_8 
REMARK    2  A    between atoms: C_10  and  C_6 
REMARK    3  A    between atoms: C_13  and  C_10 
ROOT
ATOM      1  C   UNL d   1      -2.227   0.738  -0.338  0.00  0.00     0.085 C 
ATOM      2  N   UNL d   1      -1.058   1.507  -0.339  0.00  0.00    -0.253 NA
ATOM      3  C   UNL d   1      -2.195  -0.552   0.446  0.00  0.00     0.267 C 
ATOM      4  N   UNL d   1      -0.986  -1.203   0.403  0.00  0.00    -0.320 N 
ATOM      5  C   UNL d   1      -3.270   1.026  -1.132  0.00  0.00     0.080 C 
ATOM      6  C   UNL d   1       0.181   0.852  -0.129  0.00  0.00     0.042 A 
ATOM      7  C   UNL d   1       2.597   0.855  -0.126  0.00  0.00     0.104 A 
ATOM      8  C   UNL d   1       0.212  -0.540   0.103  0.00  0.00     0.056 A 
ATOM      9  C   UNL d   1       1.383   1.554  -0.229  0.00  0.00     0.062 A 
ATOM     10  O   UNL d   1      -3.128  -0.948   1.134  0.00  0.00    -0.266 OA
ATOM     11  C   UNL d   1       1.417  -1.239   0.155  0.00  0.00     0.034 A 
ATOM     12  C   UNL d   1       2.618  -0.540   0.030  0.00  0.00     0.038 A 
ATOM     13  H   UNL d   1      -1.144   2.344   0.234  0.00  0.00     0.134 HD
ATOM     14  H   UNL d   1      -0.970  -2.126   0.824  0.00  0.00     0.169 HD
ENDROOT
BRANCH   5  15
ATOM     15  C   UNL d   1      -4.411   0.108  -1.453  0.00  0.00     0.158 C 
ATOM     16  O   UNL d   1      -4.285  -1.109  -1.313  0.00  0.00    -0.292 OA
BRANCH  15  17
ATOM     17  C   UNL d   1      -5.650   0.681  -2.174  0.00  0.00     0.013 C 
ATOM     18  C   UNL d   1      -5.392   0.553  -3.684  0.00  0.00     0.023 C 
ATOM     19  C   UNL d   1      -6.880  -0.164  -1.796  0.00  0.00     0.023 C 
ATOM     20  C   UNL d   1      -5.949   2.143  -1.813  0.00  0.00     0.023 C 
ENDBRANCH  15  17
ENDBRANCH   5  15
BRANCH   7  21
ATOM     21  N   UNL d   1       3.864   1.595  -0.159  0.00  0.00    -0.116 N 
ATOM     22  O   UNL d   1       3.806   2.833  -0.169  0.00  0.00    -0.532 OA
ATOM     23  O   UNL d   1       4.915   0.940  -0.154  0.00  0.00    -0.532 OA
ENDBRANCH   7  21
TORSDOF 3
