REMARK  4 active torsions:
REMARK  status: ('A' for Active; 'I' for Inactive)
REMARK    1  A    between atoms: C_3  and  C_1 
REMARK    2  A    between atoms: C_8  and  C_2 
REMARK    3  A    between atoms: C_16  and  C_9 
REMARK    4  A    between atoms: C_12  and  C_15 
ROOT
ATOM      1  C   UNL d   1       0.248  -2.724   0.014  0.00  0.00     0.054 A 
ATOM      2  N   UNL d   1       0.998  -3.254   1.048  0.00  0.00    -0.349 N 
ATOM      3  HN  UNL d   1       1.304  -2.737   1.872  1.00  0.00     0.166 HD
ATOM      4  C   UNL d   1       1.260  -4.529   0.813  0.00  0.00     0.084 A 
ATOM      5  S   UNL d   1       0.528  -5.165  -0.616  0.00  0.00    -0.081 SA
ATOM      6  C   UNL d   1      -0.110  -3.622  -0.972  0.00  0.00     0.082 A 
ENDROOT
BRANCH   1   7
ATOM      7  C   UNL d   1      -0.042  -1.294  -0.024  0.00  0.00     0.052 A 
ATOM      8  C   UNL d   1       0.788  -0.208   0.410  0.00  0.00     0.083 A 
ATOM      9  N   UNL d   1       0.196   0.959   0.094  0.00  0.00    -0.259 N 
ATOM     10  O   UNL d   1      -1.018   0.655  -0.473  0.00  0.00    -0.241 OA
ATOM     11  HN  UNL d   1       0.576   1.893   0.247  1.00  0.00     0.195 HD
ATOM     12  C   UNL d   1      -1.161  -0.689  -0.556  0.00  0.00     0.087 A 
ATOM     13  C   UNL d   1      -2.407  -1.170  -1.178  0.00  0.00     0.080 C 
BRANCH   8  14
ATOM     14  C   UNL d   1       2.108  -0.195   1.061  0.00  0.00     0.037 A 
ATOM     15  C   UNL d   1       3.203  -0.920   0.548  0.00  0.00     0.048 A 
ATOM     16 CL   UNL d   1       3.176  -1.747  -0.977  0.00  0.00    -0.083 Cl
ATOM     17  C   UNL d   1       4.440  -0.933   1.213  0.00  0.00     0.025 A 
ATOM     18  C   UNL d   1       4.643  -0.155   2.348  0.00  0.00     0.003 A 
ATOM     19  C   UNL d   1       3.601   0.627   2.829  0.00  0.00     0.025 A 
ATOM     20  C   UNL d   1       2.340   0.594   2.212  0.00  0.00     0.048 A 
ATOM     21 CL   UNL d   1       1.121   1.570   2.971  0.00  0.00    -0.083 Cl
ENDBRANCH   8  14
ENDBRANCH   1   7
BRANCH   4  22
ATOM     22  C   UNL d   1       2.064  -5.398   1.687  0.00  0.00    -0.002 A 
ATOM     23  C   UNL d   1       2.118  -5.131   3.062  0.00  0.00     0.015 A 
ATOM     24  C   UNL d   1       2.826  -5.966   3.932  0.00  0.00     0.017 A 
ATOM     25  C   UNL d   1       3.511  -7.088   3.446  0.00  0.00     0.048 A 
ATOM     26  C   UNL d   1       3.499  -7.335   2.067  0.00  0.00     0.017 A 
ATOM     27  C   UNL d   1       2.789  -6.499   1.199  0.00  0.00     0.015 A 
BRANCH  25  28
ATOM     28  C   UNL d   1       4.239  -8.030   4.372  0.00  0.00     0.417 C 
ATOM     29  F   UNL d   1       4.152  -7.682   5.686  0.00  0.00    -0.166 F 
ATOM     30  F   UNL d   1       3.763  -9.304   4.292  0.00  0.00    -0.166 F 
ATOM     31  F   UNL d   1       5.570  -8.111   4.094  0.00  0.00    -0.166 F 
ENDBRANCH  25  28
ENDBRANCH   4  22
TORSDOF 4
