REMARK  8 active torsions:
REMARK  status: ('A' for Active; 'I' for Inactive)
REMARK    1  A    between atoms: N_2  and  C_1 
REMARK    2  A    between atoms: C_7  and  C_1 
REMARK    3  A    between atoms: C_8  and  C_1 
REMARK    4  A    between atoms: C_9  and  C_1 
REMARK    5  A    between atoms: C_6  and  N_2 
REMARK    6  A    between atoms: C_3  and  C_6 
REMARK    7  A    between atoms: C_10  and  C_3 
REMARK    8  A    between atoms: O_11  and  N_4 
ROOT
ATOM      1  C   UNL d   1       0.999   0.052  -0.034  0.00  0.00     0.239 C 
ENDROOT
BRANCH   1   2
ATOM      2  N   UNL d   1       0.544  -0.677  -1.261  0.00  0.00     0.112 N 
ATOM      3  H   UNL d   1       0.995  -1.592  -1.287  0.00  0.00     0.318 HD
BRANCH   2   4
ATOM      4  C   UNL d   1      -0.891  -0.953  -1.354  0.00  0.00     0.331 C 
BRANCH   4   5
ATOM      5  C   UNL d   1      -1.298  -1.590  -2.697  0.00  0.00     0.070 C 
ATOM      6  N   UNL d   1      -0.620  -2.470  -3.385  0.00  0.00    -0.271 N 
ATOM      7  HN  UNL d   1      -0.937  -2.841  -4.281  1.00  0.00     0.194 HD
BRANCH   6   8
ATOM      8  O   UNL d   1       0.578  -2.857  -2.782  0.00  0.00    -0.290 OA
ATOM      9  H   UNL d   1       0.963  -3.447  -3.456  0.00  0.00     0.244 HD
ENDBRANCH   6   8
BRANCH   5  10
ATOM     10  C   UNL d   1      -2.667  -1.231  -3.201  0.00  0.00    -0.010 A 
ATOM     11  C   UNL d   1      -2.963  -1.326  -4.568  0.00  0.00     0.013 A 
ATOM     12  C   UNL d   1      -4.245  -1.016  -5.033  0.00  0.00     0.001 A 
ATOM     13  C   UNL d   1      -5.239  -0.615  -4.138  0.00  0.00     0.000 A 
ATOM     14  C   UNL d   1      -4.958  -0.537  -2.780  0.00  0.00     0.001 A 
ATOM     15  C   UNL d   1      -3.684  -0.851  -2.309  0.00  0.00     0.013 A 
ENDBRANCH   5  10
ENDBRANCH   4   5
ENDBRANCH   2   4
ENDBRANCH   1   2
BRANCH   1  16
ATOM     16  C   UNL d   1       0.522  -0.757   1.234  0.00  0.00    -0.011 C 
ATOM     17  C   UNL d   1       1.320  -1.769   1.802  0.00  0.00     0.010 C 
ATOM     18  C   UNL d   1       0.962  -2.387   3.004  0.00  0.00     0.001 C 
ATOM     19  C   UNL d   1      -0.221  -2.037   3.647  0.00  0.00     0.000 C 
ATOM     20  C   UNL d   1      -1.077  -1.113   3.059  0.00  0.00     0.001 C 
ATOM     21  C   UNL d   1      -0.723  -0.505   1.853  0.00  0.00     0.010 C 
ENDBRANCH   1  16
BRANCH   1  22
ATOM     22  C   UNL d   1       0.468   1.538  -0.059  0.00  0.00    -0.011 A 
ATOM     23  C   UNL d   1       0.253   2.277   1.125  0.00  0.00     0.010 A 
ATOM     24  C   UNL d   1      -0.298   3.561   1.106  0.00  0.00     0.001 A 
ATOM     25  C   UNL d   1      -0.606   4.160  -0.108  0.00  0.00     0.000 A 
ATOM     26  C   UNL d   1      -0.336   3.492  -1.296  0.00  0.00     0.001 A 
ATOM     27  C   UNL d   1       0.210   2.202  -1.276  0.00  0.00     0.010 A 
ENDBRANCH   1  22
BRANCH   1  28
ATOM     28  C   UNL d   1       2.579   0.132  -0.038  0.00  0.00    -0.011 A 
ATOM     29  C   UNL d   1       3.377  -0.492  -1.020  0.00  0.00     0.010 A 
ATOM     30  C   UNL d   1       4.774  -0.512  -0.919  0.00  0.00     0.001 A 
ATOM     31  C   UNL d   1       5.411   0.112   0.148  0.00  0.00     0.000 A 
ATOM     32  C   UNL d   1       4.654   0.764   1.115  0.00  0.00     0.001 A 
ATOM     33  C   UNL d   1       3.260   0.771   1.024  0.00  0.00     0.010 A 
ENDBRANCH   1  28
TORSDOF 8
