REMARK  9 active torsions:
REMARK  status: ('A' for Active; 'I' for Inactive)
REMARK    1  A    between atoms: N_3  and  C_1 
REMARK    2  A    between atoms: C_4  and  C_1 
REMARK    3  A    between atoms: N_7  and  C_1 
REMARK    4  A    between atoms: C_9  and  C_1 
REMARK    5  A    between atoms: C_2  and  N_3 
REMARK       I    between atoms: C_10  and  N_7 
REMARK    6  A    between atoms: O_19  and  C_9 
REMARK    7  A    between atoms: C_18  and  C_10 
REMARK    8  A    between atoms: C_20  and  C_18 
REMARK    9  A    between atoms: C_23  and  O_19 
ROOT
ATOM      1  C   UNL d   1       1.048  -0.151   0.045  0.00  0.00     0.298 C 
ENDROOT
BRANCH   1   2
ATOM      2  N   UNL d   1       0.644   0.376   1.374  0.00  0.00    -0.328 N 
ATOM      3  H   UNL d   1       1.346   0.826   1.954  0.00  0.00     0.165 HD
BRANCH   2   4
ATOM      4  C   UNL d   1      -0.663   0.449   1.769  0.00  0.00     0.148 A 
ATOM      5  N   UNL d   1      -1.588  -0.200   1.115  0.00  0.00    -0.336 N 
ATOM      6  C   UNL d   1      -2.809   0.025   1.735  0.00  0.00     0.051 A 
ATOM      7  HN  UNL d   1      -1.438  -0.777   0.288  1.00  0.00     0.168 HD
ATOM      8  C   UNL d   1      -4.039  -0.567   1.383  0.00  0.00     0.031 A 
ATOM      9  C   UNL d   1      -2.783   0.941   2.793  0.00  0.00     0.035 A 
ATOM     10  C   UNL d   1      -5.204  -0.202   2.066  0.00  0.00     0.002 A 
ATOM     11  C   UNL d   1      -5.161   0.751   3.079  0.00  0.00     0.002 A 
ATOM     12  C   UNL d   1      -3.952   1.337   3.462  0.00  0.00     0.021 A 
ATOM     13  S   UNL d   1      -1.151   1.411   3.080  0.00  0.00    -0.052 SA
ENDBRANCH   2   4
ENDBRANCH   1   2
BRANCH   1  14
ATOM     14  C   UNL d   1       0.623   0.840  -1.096  0.00  0.00     0.442 C 
ATOM     15  F   UNL d   1       0.005   1.943  -0.601  0.00  0.00    -0.166 F 
ATOM     16  F   UNL d   1       1.645   1.279  -1.863  0.00  0.00    -0.166 F 
ATOM     17  F   UNL d   1      -0.266   0.246  -1.938  0.00  0.00    -0.166 F 
ENDBRANCH   1  14
BRANCH   1  18
ATOM     18  N   UNL d   1       0.579  -1.525  -0.191  0.00  0.00    -0.319 N 
ATOM     19  C   UNL d   1       0.923  -2.536   0.671  0.00  0.00     0.224 C 
ATOM     20  O   UNL d   1       1.699  -2.348   1.604  0.00  0.00    -0.273 OA
ATOM     21  H   UNL d   1      -0.293  -1.614  -0.701  0.00  0.00     0.165 HD
BRANCH  19  22
ATOM     22  C   UNL d   1       0.343  -3.892   0.312  0.00  0.00     0.141 C 
BRANCH  22  23
ATOM     23  C   UNL d   1      -0.528  -4.495   1.381  0.00  0.00    -0.050 A 
ATOM     24  C   UNL d   1      -1.914  -4.281   1.381  0.00  0.00     0.007 A 
ATOM     25  C   UNL d   1      -2.725  -4.903   2.332  0.00  0.00     0.001 A 
ATOM     26  C   UNL d   1      -2.160  -5.735   3.297  0.00  0.00     0.000 A 
ATOM     27  C   UNL d   1      -0.781  -5.933   3.321  0.00  0.00     0.001 A 
ATOM     28  C   UNL d   1       0.032  -5.311   2.373  0.00  0.00     0.007 A 
ENDBRANCH  22  23
ENDBRANCH  19  22
ENDBRANCH   1  18
BRANCH   1  29
ATOM     29  C   UNL d   1       2.584  -0.052   0.014  0.00  0.00     0.318 C 
ATOM     30  O   UNL d   1       3.204   0.817   0.628  0.00  0.00    -0.260 OA
BRANCH  29  31
ATOM     31  O   UNL d   1       3.146  -0.983  -0.810  0.00  0.00    -0.318 OA
BRANCH  31  32
ATOM     32  C   UNL d   1       4.580  -1.007  -0.869  0.00  0.00     0.174 C 
ATOM     33  C   UNL d   1       5.140  -1.767   0.319  0.00  0.00     0.034 C 
ENDBRANCH  31  32
ENDBRANCH  29  31
ENDBRANCH   1  29
TORSDOF 9
