REMARK  11 active torsions:
REMARK  status: ('A' for Active; 'I' for Inactive)
REMARK    1  A    between atoms: C_1  and  O_8 
REMARK    2  A    between atoms: C_2  and  O_9 
REMARK    3  A    between atoms: C_3  and  N_7 
REMARK    4  A    between atoms: C_4  and  O_10 
REMARK    5  A    between atoms: C_6  and  C_15 
REMARK    6  A    between atoms: C_21  and  N_7 
REMARK    7  A    between atoms: C_11  and  O_8 
REMARK    8  A    between atoms: C_12  and  O_9 
REMARK    9  A    between atoms: C_13  and  O_10 
REMARK   10  A    between atoms: C_14  and  O_16 
REMARK   11  A    between atoms: O_16  and  C_15 
ROOT
ATOM      1  C   UNL d   1       0.884  -1.281  -0.130  0.00  0.00     0.212 C 
ATOM      2  C   UNL d   1       1.642   0.058   0.064  0.00  0.00     0.198 C 
ATOM      3  C   UNL d   1      -0.593  -1.178   0.362  0.00  0.00     0.254 C 
ATOM      4  C   UNL d   1       0.824   1.301  -0.331  0.00  0.00     0.195 C 
ATOM      5  O   UNL d   1      -1.200  -0.017  -0.211  0.00  0.00    -0.354 OA
ATOM      6  C   UNL d   1      -0.586   1.194   0.254  0.00  0.00     0.180 C 
ENDROOT
BRANCH   3   7
ATOM      7  N   UNL d   1      -1.402  -2.309  -0.090  0.00  0.00    -0.361 N 
ATOM      8  H   UNL d   1      -1.428  -2.380  -1.102  0.00  0.00     0.162 HD
BRANCH   7   9
ATOM      9  C   UNL d   1      -1.404  -3.527   0.582  0.00  0.00     0.029 A 
ATOM     10  C   UNL d   1      -1.285  -3.629   1.972  0.00  0.00     0.029 A 
ATOM     11  C   UNL d   1      -1.255  -4.871   2.616  0.00  0.00     0.009 A 
ATOM     12  C   UNL d   1      -1.385  -6.052   1.885  0.00  0.00    -0.062 A 
ATOM     13  C   UNL d   1      -1.587  -5.965   0.505  0.00  0.00     0.009 A 
ATOM     14  C   UNL d   1      -1.263  -7.375   2.579  0.00  0.00     0.048 C 
ATOM     15  C   UNL d   1      -1.611  -4.715  -0.131  0.00  0.00     0.029 A 
ENDBRANCH   7   9
ENDBRANCH   3   7
BRANCH   1  16
ATOM     16  O   UNL d   1       1.632  -2.394   0.440  0.00  0.00    -0.309 OA
BRANCH  16  17
ATOM     17  C   UNL d   1       1.793  -2.440   1.787  0.00  0.00     0.255 C 
ATOM     18  O   UNL d   1       1.371  -1.608   2.575  0.00  0.00    -0.266 OA
ATOM     19  C   UNL d   1       2.535  -3.677   2.191  0.00  0.00     0.126 C 
ENDBRANCH  16  17
ENDBRANCH   1  16
BRANCH   2  20
ATOM     20  O   UNL d   1       2.960   0.069  -0.561  0.00  0.00    -0.311 OA
BRANCH  20  21
ATOM     21  C   UNL d   1       3.049  -0.018  -1.915  0.00  0.00     0.255 C 
ATOM     22  O   UNL d   1       2.111  -0.208  -2.673  0.00  0.00    -0.266 OA
ATOM     23  C   UNL d   1       4.463   0.205  -2.355  0.00  0.00     0.126 C 
ENDBRANCH  20  21
ENDBRANCH   2  20
BRANCH   6  24
ATOM     24  C   UNL d   1      -1.450   2.384  -0.192  0.00  0.00     0.213 C 
BRANCH  24  25
ATOM     25  O   UNL d   1      -2.768   2.317   0.385  0.00  0.00    -0.319 OA
BRANCH  25  26
ATOM     26  C   UNL d   1      -2.860   2.685   1.689  0.00  0.00     0.254 C 
ATOM     27  O   UNL d   1      -1.930   3.089   2.374  0.00  0.00    -0.266 OA
ATOM     28  C   UNL d   1      -4.267   2.543   2.182  0.00  0.00     0.126 C 
ENDBRANCH  25  26
ENDBRANCH  24  25
ENDBRANCH   6  24
BRANCH   4  29
ATOM     29  O   UNL d   1       1.481   2.469   0.221  0.00  0.00    -0.311 OA
BRANCH  29  30
ATOM     30  C   UNL d   1       2.090   3.311  -0.654  0.00  0.00     0.255 C 
ATOM     31  O   UNL d   1       2.082   3.194  -1.870  0.00  0.00    -0.266 OA
ATOM     32  C   UNL d   1       2.772   4.436   0.065  0.00  0.00     0.126 C 
ENDBRANCH  29  30
ENDBRANCH   4  29
TORSDOF 11
