REMARK  4 active torsions:
REMARK  status: ('A' for Active; 'I' for Inactive)
REMARK    1  A    between atoms: C_2  and  S_1 
REMARK    2  A    between atoms: N_3  and  S_1 
REMARK    3  A    between atoms: C_13  and  N_3 
REMARK    4  A    between atoms: N_4  and  C_9 
ROOT
ATOM      1  N   UNL d   1       0.518  -0.549  -1.317  0.00  0.00    -0.281 N 
ATOM      2  H   UNL d   1      -0.066   0.107  -0.804  0.00  0.00     0.179 HD
ENDROOT
BRANCH   1   3
ATOM      3  S   UNL d   1       0.543  -2.114  -0.712  0.00  0.00     0.263 S 
ATOM      4  O   UNL d   1       0.148  -2.018   0.679  0.00  0.00    -0.200 OA
ATOM      5  O   UNL d   1      -0.137  -3.007  -1.621  0.00  0.00    -0.200 OA
BRANCH   3   6
ATOM      6  C   UNL d   1       2.277  -2.493  -0.744  0.00  0.00     0.083 A 
ATOM      7  C   UNL d   1       3.086  -2.136   0.338  0.00  0.00     0.049 A 
ATOM      8  C   UNL d   1       4.452  -2.397   0.272  0.00  0.00     0.037 A 
ATOM      9 CL   UNL d   1       5.470  -1.935   1.580  0.00  0.00    -0.084 Cl
ATOM     10  C   UNL d   1       5.008  -3.011  -0.850  0.00  0.00     0.047 A 
ATOM     11  C   UNL d   1       4.183  -3.379  -1.911  0.00  0.00     0.037 A 
ATOM     12  C   UNL d   1       2.814  -3.135  -1.864  0.00  0.00     0.049 A 
ATOM     13 CL   UNL d   1       4.867  -4.120  -3.305  0.00  0.00    -0.084 Cl
ENDBRANCH   3   6
ENDBRANCH   1   3
BRANCH   1  14
ATOM     14  C   UNL d   1       0.809  -0.313  -2.681  0.00  0.00     0.042 A 
ATOM     15  C   UNL d   1      -0.167  -0.441  -3.658  0.00  0.00     0.032 A 
ATOM     16  C   UNL d   1       0.164  -0.211  -5.001  0.00  0.00     0.031 A 
ATOM     17  C   UNL d   1       1.463   0.145  -5.399  0.00  0.00     0.030 A 
ATOM     18  C   UNL d   1       2.418   0.280  -4.380  0.00  0.00     0.031 A 
ATOM     19  C   UNL d   1       2.099   0.061  -3.036  0.00  0.00     0.032 A 
BRANCH  17  20
ATOM     20  N   UNL d   1       1.812   0.309  -6.726  0.00  0.00    -0.381 N 
ATOM     21  C   UNL d   1       1.099  -0.376  -7.804  0.00  0.00     0.123 C 
ATOM     22  C   UNL d   1       2.126  -1.006  -8.746  0.00  0.00     0.020 C 
ATOM     23  C   UNL d   1       3.140   0.020  -9.248  0.00  0.00     0.003 C 
ATOM     24  C   UNL d   1       3.777   0.791  -8.091  0.00  0.00     0.020 C 
ATOM     25  C   UNL d   1       2.718   1.377  -7.157  0.00  0.00     0.123 C 
ENDBRANCH  17  20
ENDBRANCH   1  14
TORSDOF 4
