REMARK  2 active torsions:
REMARK  status: ('A' for Active; 'I' for Inactive)
REMARK    1  A    between atoms: N_2  and  C_1 
REMARK    2  A    between atoms: C_3  and  N_2 
ROOT
ATOM      1  C   UNL d   1       1.082   2.225   1.243  0.00  0.00     0.040 A 
ATOM      2  C   UNL d   1       2.053   2.909   0.486  0.00  0.00    -0.035 A 
ATOM      3  C   UNL d   1       0.713   2.733   2.497  0.00  0.00     0.030 A 
ATOM      4  C   UNL d   1       2.539   2.458  -0.866  0.00  0.00     0.050 C 
ATOM      5  C   UNL d   1       2.695   4.026   1.055  0.00  0.00     0.009 A 
ATOM      6  C   UNL d   1       1.339   3.858   3.035  0.00  0.00     0.002 A 
ATOM      7  C   UNL d   1       2.345   4.495   2.320  0.00  0.00     0.001 A 
ENDROOT
BRANCH   1   8
ATOM      8  N   UNL d   1       0.450   1.076   0.715  0.00  0.00    -0.333 N 
ATOM      9  H   UNL d   1       0.415   0.996  -0.293  0.00  0.00     0.168 HD
BRANCH   8  10
ATOM     10  C   UNL d   1      -0.172   0.052   1.350  0.00  0.00     0.170 C 
ATOM     11  S   UNL d   1      -1.154  -1.001   0.520  0.00  0.00    -0.041 SA
ATOM     12  N   UNL d   1       0.077  -0.146   2.664  0.00  0.00    -0.376 N 
ATOM     13  H   UNL d   1       0.953   0.193   3.038  0.00  0.00     0.158 HD
ATOM     14  H   UNL d   1      -0.278  -1.001   3.073  0.00  0.00     0.158 HD
ENDBRANCH   8  10
ENDBRANCH   1   8
TORSDOF 2
