REMARK  8 active torsions:
REMARK  status: ('A' for Active; 'I' for Inactive)
REMARK    1  A    between atoms: N_3  and  C_1 
REMARK    2  A    between atoms: N_5  and  C_1 
REMARK    3  A    between atoms: C_2  and  O_7 
REMARK    4  A    between atoms: C_4  and  N_3 
REMARK    5  A    between atoms: C_16  and  N_5 
REMARK    6  A    between atoms: O_7  and  C_18 
REMARK    7  A    between atoms: O_8  and  C_19 
REMARK    8  A    between atoms: C_20  and  O_8 
ROOT
ATOM      1  C   UNL d   1      -1.111  -1.137  -0.631  0.00  0.00     0.034 A 
ATOM      2  C   UNL d   1      -3.905  -1.138  -0.773  0.00  0.00     0.076 A 
ATOM      3  C   UNL d   1      -1.789  -0.045  -1.181  0.00  0.00     0.032 A 
ATOM      4  C   UNL d   1      -1.827  -2.271  -0.251  0.00  0.00     0.032 A 
ATOM      5  C   UNL d   1      -3.224  -2.267  -0.302  0.00  0.00     0.039 A 
ATOM      6  C   UNL d   1      -3.182  -0.059  -1.277  0.00  0.00     0.039 A 
ENDROOT
BRANCH   1   7
ATOM      7  N   UNL d   1       0.294  -1.145  -0.514  0.00  0.00    -0.333 N 
ATOM      8  H   UNL d   1       0.722  -2.050  -0.365  0.00  0.00     0.168 HD
BRANCH   7   9
ATOM      9  C   UNL d   1       1.104  -0.092  -0.077  0.00  0.00     0.176 C 
ATOM     10  S   UNL d   1       0.586   1.230   0.820  0.00  0.00    -0.041 SA
BRANCH   9  11
ATOM     11  N   UNL d   1       2.409  -0.322  -0.512  0.00  0.00    -0.333 N 
ATOM     12  H   UNL d   1       2.446  -0.671  -1.462  0.00  0.00     0.168 HD
BRANCH  11  13
ATOM     13  C   UNL d   1       3.602   0.253  -0.024  0.00  0.00     0.035 A 
ATOM     14  C   UNL d   1       3.819   0.464   1.341  0.00  0.00     0.036 A 
ATOM     15  C   UNL d   1       5.029   0.999   1.798  0.00  0.00    -0.059 A 
ATOM     16  C   UNL d   1       5.262   1.226   3.262  0.00  0.00     0.048 C 
ATOM     17  C   UNL d   1       6.021   1.336   0.868  0.00  0.00     0.013 A 
ATOM     18  C   UNL d   1       5.824   1.115  -0.501  0.00  0.00    -0.059 A 
ATOM     19  C   UNL d   1       4.619   0.546  -0.936  0.00  0.00     0.036 A 
ATOM     20  C   UNL d   1       6.891   1.509  -1.479  0.00  0.00     0.048 C 
ENDBRANCH  11  13
ENDBRANCH   9  11
ENDBRANCH   7   9
ENDBRANCH   1   7
BRANCH   2  21
ATOM     21  O   UNL d   1      -5.278  -1.201  -0.766  0.00  0.00    -0.311 OA
BRANCH  21  22
ATOM     22  C   UNL d   1      -6.004  -0.065  -0.482  0.00  0.00     0.076 A 
ATOM     23  C   UNL d   1      -7.264   0.007  -1.069  0.00  0.00     0.040 A 
ATOM     24  C   UNL d   1      -8.089   1.107  -0.823  0.00  0.00     0.040 A 
ATOM     25  C   UNL d   1      -7.671   2.140   0.021  0.00  0.00     0.078 A 
ATOM     26  C   UNL d   1      -6.402   2.078   0.592  0.00  0.00     0.040 A 
ATOM     27  C   UNL d   1      -5.587   0.959   0.374  0.00  0.00     0.040 A 
BRANCH  25  28
ATOM     28  O   UNL d   1      -8.587   3.134   0.182  0.00  0.00    -0.255 OA
BRANCH  28  29
ATOM     29  C   UNL d   1      -8.518   3.970   1.327  0.00  0.00     0.530 C 
ATOM     30  F   UNL d   1      -7.874   3.409   2.371  0.00  0.00    -0.144 F 
ATOM     31  F   UNL d   1      -7.919   5.136   1.008  0.00  0.00    -0.144 F 
ATOM     32  F   UNL d   1      -9.782   4.241   1.727  0.00  0.00    -0.144 F 
ENDBRANCH  28  29
ENDBRANCH  25  28
ENDBRANCH  21  22
ENDBRANCH   2  21
TORSDOF 8
