REMARK  5 active torsions:
REMARK  status: ('A' for Active; 'I' for Inactive)
REMARK    1  A    between atoms: C_7  and  C_1 
REMARK    2  A    between atoms: C_11  and  N_2 
REMARK       I    between atoms: N_12  and  C_7 
REMARK    3  A    between atoms: C_8  and  C_14 
REMARK    4  A    between atoms: C_14  and  N_12 
REMARK    5  A    between atoms: O_23  and  C_20 
ROOT
ATOM      1  C   UNL d   1      -0.009   1.133   0.001  0.00  0.00     0.073 C 
ATOM      2  N   UNL d   1       0.862  -0.934  -0.048  0.00  0.00    -0.260 N 
ATOM      3  C   UNL d   1       1.201   0.425  -0.080  0.00  0.00     0.048 C 
ATOM      4  N   UNL d   1      -0.422  -1.120   0.315  0.00  0.00    -0.304 N 
ATOM      5  HN  UNL d   1      -0.878  -1.989   0.594  1.00  0.00     0.186 HD
ATOM      6  C   UNL d   1      -0.959   0.094   0.226  0.00  0.00     0.126 C 
ATOM      7  C   UNL d   1       2.637   0.834  -0.099  0.00  0.00     0.071 C 
ENDROOT
BRANCH   1   8
ATOM      8  C   UNL d   1      -0.467   2.533  -0.056  0.00  0.00     0.255 C 
ATOM      9  N   UNL d   1       0.337   3.637   0.076  0.00  0.00    -0.352 N 
ATOM     10  H   UNL d   1      -0.174   4.503  -0.043  0.00  0.00     0.163 HD
ATOM     11  O   UNL d   1      -1.669   2.773  -0.200  0.00  0.00    -0.268 OA
BRANCH   9  12
ATOM     12  C   UNL d   1       1.755   3.713   0.194  0.00  0.00     0.169 C 
BRANCH  12  13
ATOM     13  C   UNL d   1       2.241   4.994   0.785  0.00  0.00     0.006 A 
ATOM     14  C   UNL d   1       2.190   5.398   2.113  0.00  0.00    -0.047 A 
ATOM     15  C   UNL d   1       3.021   6.546   2.327  0.00  0.00     0.015 A 
ATOM     16  C   UNL d   1       1.459   4.698   3.214  0.00  0.00     0.049 C 
ATOM     17  C   UNL d   1       3.626   6.990   1.174  0.00  0.00     0.051 A 
ATOM     18  S   UNL d   1       3.169   6.063  -0.181  0.00  0.00    -0.104 SA
ENDBRANCH  12  13
ENDBRANCH   9  12
ENDBRANCH   1   8
BRANCH   2  19
ATOM     19  C   UNL d   1       1.692  -2.070  -0.273  0.00  0.00     0.056 A 
ATOM     20  C   UNL d   1       1.509  -3.220   0.503  0.00  0.00     0.034 A 
ATOM     21  C   UNL d   1       2.402  -4.293   0.387  0.00  0.00     0.039 A 
ATOM     22  C   UNL d   1       3.457  -4.235  -0.526  0.00  0.00     0.068 A 
ATOM     23  C   UNL d   1       3.578  -3.125  -1.363  0.00  0.00     0.039 A 
ATOM     24  C   UNL d   1       2.697  -2.049  -1.247  0.00  0.00     0.034 A 
BRANCH  22  25
ATOM     25  O   UNL d   1       4.413  -5.195  -0.711  0.00  0.00    -0.356 OA
ATOM     26  C   UNL d   1       4.527  -6.179   0.310  0.00  0.00     0.210 C 
ENDBRANCH  22  25
ENDBRANCH   2  19
TORSDOF 5
