REMARK  4 active torsions:
REMARK  status: ('A' for Active; 'I' for Inactive)
REMARK    1  A    between atoms: N_2  and  C_1 
REMARK    2  A    between atoms: N_3  and  C_1 
REMARK    3  A    between atoms: C_5  and  N_3 
REMARK    4  A    between atoms: O_12  and  C_11 
ROOT
ATOM      1  C   UNL d   1       1.002  -0.187   0.341  0.00  0.00     0.174 C 
ATOM      2  S   UNL d   1       0.415  -1.579  -0.406  0.00  0.00    -0.041 SA
ENDROOT
BRANCH   1   3
ATOM      3  N   UNL d   1       0.404   0.441   1.423  0.00  0.00    -0.353 N 
ATOM      4  C   UNL d   1       0.558   1.873   1.762  0.00  0.00     0.157 C 
ATOM      5  C   UNL d   1       0.690   2.028   3.287  0.00  0.00     0.136 C 
ATOM      6  C   UNL d   1       0.889   3.478   3.693  0.00  0.00     0.041 C 
ATOM      7  O   UNL d   1      -0.506   1.540   3.924  0.00  0.00    -0.378 OA
ATOM      8  C   UNL d   1      -0.708   0.144   3.636  0.00  0.00     0.136 C 
ATOM      9  C   UNL d   1      -0.773  -0.123   2.119  0.00  0.00     0.157 C 
ATOM     10  C   UNL d   1      -2.005  -0.280   4.311  0.00  0.00     0.041 C 
ENDBRANCH   1   3
BRANCH   1  11
ATOM     11  N   UNL d   1       2.090   0.355  -0.262  0.00  0.00    -0.331 N 
ATOM     12  H   UNL d   1       2.251   0.001  -1.201  0.00  0.00     0.168 HD
BRANCH  11  13
ATOM     13  C   UNL d   1       3.165   1.112   0.239  0.00  0.00     0.068 A 
ATOM     14  C   UNL d   1       3.861   1.985  -0.615  0.00  0.00     0.095 A 
ATOM     15  C   UNL d   1       4.946   2.715  -0.119  0.00  0.00     0.039 A 
ATOM     16  C   UNL d   1       5.337   2.591   1.215  0.00  0.00     0.003 A 
ATOM     17  C   UNL d   1       4.664   1.706   2.055  0.00  0.00     0.002 A 
ATOM     18  C   UNL d   1       3.587   0.963   1.566  0.00  0.00     0.032 A 
BRANCH  14  19
ATOM     19  O   UNL d   1       3.589   2.192  -1.944  0.00  0.00    -0.354 OA
ATOM     20  C   UNL d   1       2.217   2.400  -2.277  0.00  0.00     0.210 C 
ENDBRANCH  14  19
ENDBRANCH  11  13
ENDBRANCH   1  11
TORSDOF 4
