REMARK  3 active torsions:
REMARK  status: ('A' for Active; 'I' for Inactive)
REMARK    1  A    between atoms: C_16  and  N_13 
REMARK    2  A    between atoms: C_18  and  C_16 
REMARK    3  A    between atoms: O_17  and  C_18 
ROOT
ATOM      1  C   UNL d   1      -0.989   0.676  -0.002  0.00  0.00     0.160 A 
ATOM      2  C   UNL d   1      -0.950  -0.683   0.004  0.00  0.00     0.162 A 
ATOM      3  N   UNL d   1       0.164   1.422  -0.001  0.00  0.00    -0.287 N 
ATOM      4  N   UNL d   1       1.396  -0.635   0.023  0.00  0.00    -0.269 N 
ATOM      5  C   UNL d   1       1.410   0.779   0.021  0.00  0.00     0.332 A 
ATOM      6  C   UNL d   1       0.250  -1.438   0.012  0.00  0.00     0.282 A 
ATOM      7  N   UNL d   1      -2.262   1.144  -0.013  0.00  0.00    -0.174 N 
ATOM      8  HN  UNL d   1      -2.565   2.118  -0.033  1.00  0.00     0.186 HD
ATOM      9  C   UNL d   1      -3.021   0.069   0.009  0.00  0.00     0.680 A 
ATOM     10  N   UNL d   1      -2.258  -1.074   0.014  0.00  0.00    -0.182 N 
ATOM     11  O   UNL d   1       2.461   1.417   0.025  0.00  0.00    -0.246 OA
ATOM     12  O   UNL d   1       0.259  -2.664   0.011  0.00  0.00    -0.265 OA
ATOM     13  N   UNL d   1      -4.363   0.015   0.057  0.00  0.00    -0.224 N 
ATOM     14  C   UNL d   1       0.137   2.872   0.005  0.00  0.00     0.163 C 
ATOM     15  C   UNL d   1       2.671  -1.329   0.059  0.00  0.00     0.164 C 
ATOM     16  H   UNL d   1      -2.599  -2.025   0.004  0.00  0.00     0.184 HD
ATOM     17  H   UNL d   1      -4.865  -0.862   0.168  0.00  0.00     0.177 HD
ENDROOT
BRANCH  13  18
ATOM     18  C   UNL d   1      -5.153   1.104  -0.532  0.00  0.00     0.169 C 
BRANCH  18  19
ATOM     19  C   UNL d   1      -5.510   2.193   0.503  0.00  0.00     0.132 C 
ATOM     20  C   UNL d   1      -6.369   3.280  -0.132  0.00  0.00     0.041 C 
BRANCH  19  21
ATOM     21  O   UNL d   1      -4.351   2.831   1.038  0.00  0.00    -0.394 OA
ATOM     22  H   UNL d   1      -3.662   2.136   1.109  0.00  0.00     0.210 HD
ENDBRANCH  19  21
ENDBRANCH  18  19
ENDBRANCH  13  18
TORSDOF 3
