REMARK  4 active torsions:
REMARK  status: ('A' for Active; 'I' for Inactive)
REMARK    1  A    between atoms: C_3  and  C_1 
REMARK    2  A    between atoms: C_10  and  N_2 
REMARK    3  A    between atoms: C_6  and  C_7 
REMARK    4  A    between atoms: C_7  and  C_10 
ROOT
ATOM      1  C   UNL d   1       0.939   0.436  -0.642  0.00  0.00     0.063 A 
ATOM      2  N   UNL d   1      -1.276  -0.286  -0.114  0.00  0.00    -0.317 N 
ATOM      3  C   UNL d   1      -0.389   0.496  -0.840  0.00  0.00     0.110 A 
ATOM      4  C   UNL d   1      -0.850  -1.164   0.880  0.00  0.00     0.247 A 
ATOM      5  C   UNL d   1       1.453  -0.506   0.338  0.00  0.00     0.023 A 
ATOM      6  C   UNL d   1       0.624  -1.268   1.064  0.00  0.00     0.075 A 
ATOM      7  O   UNL d   1      -1.593  -1.855   1.571  0.00  0.00    -0.268 OA
ENDROOT
BRANCH   2   8
ATOM      8  C   UNL d   1      -2.711  -0.163  -0.374  0.00  0.00     0.215 C 
BRANCH   8   9
ATOM      9  C   UNL d   1      -3.305   1.171   0.076  0.00  0.00     0.179 C 
ATOM     10  O   UNL d   1      -2.662   2.132   0.486  0.00  0.00    -0.290 OA
BRANCH   9  11
ATOM     11  C   UNL d   1      -4.771   1.303  -0.062  0.00  0.00     0.033 A 
ATOM     12  C   UNL d   1      -5.337   2.184  -0.991  0.00  0.00     0.049 A 
ATOM     13  C   UNL d   1      -6.728   2.282  -1.096  0.00  0.00     0.048 A 
ATOM     14 CL   UNL d   1      -4.379   3.126  -2.075  0.00  0.00    -0.083 Cl
ATOM     15  C   UNL d   1      -7.540   1.498  -0.277  0.00  0.00     0.035 A 
ATOM     16  C   UNL d   1      -6.978   0.618   0.646  0.00  0.00     0.025 A 
ATOM     17 CL   UNL d   1      -9.251   1.610  -0.414  0.00  0.00    -0.084 Cl
ATOM     18  C   UNL d   1      -5.590   0.520   0.760  0.00  0.00     0.018 A 
ENDBRANCH   9  11
ENDBRANCH   8   9
ENDBRANCH   2   8
BRANCH   1  19
ATOM     19  C   UNL d   1       1.917   1.286  -1.402  0.00  0.00     0.418 C 
ATOM     20  F   UNL d   1       2.973   0.561  -1.855  0.00  0.00    -0.166 F 
ATOM     21  F   UNL d   1       1.359   1.877  -2.490  0.00  0.00    -0.166 F 
ATOM     22  F   UNL d   1       2.426   2.279  -0.630  0.00  0.00    -0.166 F 
ENDBRANCH   1  19
TORSDOF 4
