REMARK  5 active torsions:
REMARK  status: ('A' for Active; 'I' for Inactive)
REMARK    1  A    between atoms: C_4  and  C_1 
REMARK       I    between atoms: N_6  and  C_4 
REMARK    2  A    between atoms: C_11  and  N_6 
REMARK    3  A    between atoms: C_15  and  N_6 
REMARK    4  A    between atoms: C_14  and  C_11 
REMARK    5  A    between atoms: C_13  and  C_15 
ROOT
ATOM      1  N   UNL d   1      -4.557   3.902  -0.825  0.00  0.00    -0.197 NA
ATOM      2  C   UNL d   1      -4.342   2.775  -0.989  0.00  0.00     0.060 C 
ATOM      3  C   UNL d   1      -4.073   1.349  -1.219  0.00  0.00     0.143 C 
ENDROOT
BRANCH   3   4
ATOM      4  C   UNL d   1      -4.107   0.563   0.096  0.00  0.00     0.140 C 
BRANCH   4   5
ATOM      5  N   UNL d   1      -3.792  -0.870  -0.082  0.00  0.00    -0.342 N 
ATOM      6  C   UNL d   1      -2.533  -1.367  -0.472  0.00  0.00     0.272 C 
ATOM      7  O   UNL d   1      -2.397  -2.517  -0.890  0.00  0.00    -0.266 OA
BRANCH   6   8
ATOM      8  C   UNL d   1      -1.374  -0.464  -0.458  0.00  0.00     0.125 A 
ATOM      9  N   UNL d   1      -1.163   0.451   0.502  0.00  0.00    -0.256 N 
ATOM     10  O   UNL d   1      -0.021   1.135   0.143  0.00  0.00    -0.242 OA
ATOM     11  HN  UNL d   1      -1.735   0.610   1.332  1.00  0.00     0.195 HD
ATOM     12  C   UNL d   1       0.470   0.622  -1.014  0.00  0.00     0.075 A 
ATOM     13  C   UNL d   1      -0.324  -0.423  -1.415  0.00  0.00     0.071 A 
ATOM     14  C   UNL d   1       1.667   1.283  -1.561  0.00  0.00     0.079 C 
ENDBRANCH   6   8
BRANCH   5  15
ATOM     15  C   UNL d   1      -4.922  -1.806  -0.067  0.00  0.00     0.164 C 
BRANCH  15  16
ATOM     16  C   UNL d   1      -5.522  -2.045   1.304  0.00  0.00    -0.040 A 
ATOM     17  C   UNL d   1      -6.897  -2.312   1.417  0.00  0.00     0.009 A 
ATOM     18  C   UNL d   1      -7.475  -2.585   2.659  0.00  0.00     0.001 A 
ATOM     19  C   UNL d   1      -6.686  -2.606   3.806  0.00  0.00     0.000 A 
ATOM     20  C   UNL d   1      -5.317  -2.368   3.708  0.00  0.00     0.001 A 
ATOM     21  C   UNL d   1      -4.736  -2.098   2.465  0.00  0.00     0.009 A 
ENDBRANCH  15  16
ENDBRANCH   5  15
ENDBRANCH   4   5
ENDBRANCH   3   4
TORSDOF 5
