REMARK  2 active torsions:
REMARK  status: ('A' for Active; 'I' for Inactive)
REMARK    1  A    between atoms: C_7  and  C_1 
REMARK       I    between atoms: N_12  and  C_7 
REMARK    2  A    between atoms: N_14  and  N_12 
ROOT
ATOM      1  C   UNL d   1       1.468  -1.219   0.021  0.00  0.00     0.132 A 
ATOM      2  C   UNL d   1      -0.029   0.409  -0.041  0.00  0.00     0.155 A 
ATOM      3  N   UNL d   1       0.116  -0.943  -0.007  0.00  0.00    -0.295 N 
ATOM      4  N   UNL d   1       1.095   1.060  -0.046  0.00  0.00    -0.338 N 
ATOM      5  HN  UNL d   1       1.239   2.069  -0.075  1.00  0.00     0.168 HD
ATOM      6  C   UNL d   1       2.052   0.058  -0.002  0.00  0.00     0.040 A 
ATOM      7  S   UNL d   1      -1.702   0.874  -0.065  0.00  0.00    -0.064 SA
ATOM      8  C   UNL d   1      -1.069  -1.652  -0.006  0.00  0.00     0.107 A 
ATOM      9  C   UNL d   1      -2.140  -0.839  -0.033  0.00  0.00     0.071 A 
ATOM     10  C   UNL d   1       3.476   0.473   0.034  0.00  0.00     0.071 C 
ENDROOT
BRANCH   1  11
ATOM     11  C   UNL d   1       2.000  -2.560   0.090  0.00  0.00     0.284 C 
ATOM     12  O   UNL d   1       1.289  -3.556   0.238  0.00  0.00    -0.265 OA
ATOM     13  N   UNL d   1       3.380  -2.696  -0.022  0.00  0.00    -0.288 N 
ATOM     14  H   UNL d   1       3.958  -1.919  -0.319  0.00  0.00     0.183 HD
BRANCH  13  15
ATOM     15  N   UNL d   1       3.964  -3.987  -0.023  0.00  0.00    -0.247 NA
ATOM     16  H   UNL d   1       3.193  -4.663  -0.134  0.00  0.00     0.143 HD
ATOM     17  H   UNL d   1       4.317  -4.173   0.920  0.00  0.00     0.143 HD
ENDBRANCH  13  15
ENDBRANCH   1  11
TORSDOF 2
