REMARK  5 active torsions:
REMARK  status: ('A' for Active; 'I' for Inactive)
REMARK    1  A    between atoms: N_3  and  C_1 
REMARK    2  A    between atoms: C_8  and  N_3 
REMARK    3  A    between atoms: C_9  and  N_4 
REMARK    4  A    between atoms: C_7  and  C_8 
REMARK    5  A    between atoms: C_10  and  C_9 
ROOT
ATOM      1  C   UNL d   1       0.976  -0.007   0.117  0.00  0.00     0.168 C 
ATOM      2  S   UNL d   1       0.195   1.221   0.932  0.00  0.00    -0.041 SA
ATOM      3  N   UNL d   1       2.311  -0.116   0.236  0.00  0.00    -0.363 N 
ATOM      4  H   UNL d   1       2.724   0.619   0.801  0.00  0.00     0.162 HD
ENDROOT
BRANCH   1   5
ATOM      5  N   UNL d   1       0.247  -0.852  -0.633  0.00  0.00    -0.362 N 
ATOM      6  H   UNL d   1      -0.748  -0.660  -0.588  0.00  0.00     0.162 HD
BRANCH   5   7
ATOM      7  C   UNL d   1       0.638  -1.601  -1.823  0.00  0.00     0.179 C 
BRANCH   7   8
ATOM      8  C   UNL d   1       0.152  -0.961  -3.104  0.00  0.00     0.026 A 
ATOM      9  N   UNL d   1      -0.587  -1.733  -3.940  0.00  0.00    -0.368 N 
ATOM     10  C   UNL d   1      -0.974  -1.185  -5.112  0.00  0.00     0.088 A 
ATOM     11  HN  UNL d   1      -0.841  -2.690  -3.693  1.00  0.00     0.165 HD
ATOM     12  C   UNL d   1      -0.661   0.107  -5.499  0.00  0.00     0.017 A 
ATOM     13  C   UNL d   1       0.092   0.888  -4.633  0.00  0.00     0.003 A 
ATOM     14  C   UNL d   1       0.509   0.350  -3.421  0.00  0.00     0.027 A 
ENDBRANCH   7   8
ENDBRANCH   5   7
ENDBRANCH   1   5
BRANCH   3  15
ATOM     15  C   UNL d   1       3.133  -1.304   0.090  0.00  0.00     0.160 C 
BRANCH  15  16
ATOM     16  C   UNL d   1       4.056  -1.510   1.263  0.00  0.00    -0.041 A 
ATOM     17  C   UNL d   1       3.549  -1.546   2.572  0.00  0.00     0.009 A 
ATOM     18  C   UNL d   1       4.390  -1.816   3.650  0.00  0.00     0.001 A 
ATOM     19  C   UNL d   1       5.744  -2.061   3.434  0.00  0.00     0.000 A 
ATOM     20  C   UNL d   1       6.260  -2.031   2.140  0.00  0.00     0.001 A 
ATOM     21  C   UNL d   1       5.421  -1.758   1.058  0.00  0.00     0.009 A 
ENDBRANCH  15  16
ENDBRANCH   3  15
TORSDOF 5
