REMARK  6 active torsions:
REMARK  status: ('A' for Active; 'I' for Inactive)
REMARK    1  A    between atoms: C_4  and  C_1 
REMARK    2  A    between atoms: O_13  and  C_1 
REMARK    3  A    between atoms: C_2  and  C_3 
REMARK    4  A    between atoms: O_12  and  C_2 
REMARK    5  A    between atoms: S_5  and  C_8 
REMARK    6  A    between atoms: C_9  and  S_5 
ROOT
ATOM      1  S   UNL d   1       0.272   4.978  -1.680  0.00  0.00    -0.091 SA
ENDROOT
BRANCH   1   2
ATOM      2  C   UNL d   1      -0.050   3.570  -0.637  0.00  0.00     0.006 A 
ATOM      3  C   UNL d   1      -0.978   2.595  -1.028  0.00  0.00     0.037 A 
ATOM      4  C   UNL d   1      -1.312   1.552  -0.150  0.00  0.00     0.039 A 
ATOM      5  C   UNL d   1      -0.713   1.492   1.115  0.00  0.00     0.018 A 
ATOM      6  C   UNL d   1       0.208   2.464   1.505  0.00  0.00     0.002 A 
ATOM      7  C   UNL d   1       0.527   3.505   0.634  0.00  0.00     0.019 A 
BRANCH   4   8
ATOM      8  C   UNL d   1      -2.357   0.545  -0.463  0.00  0.00     0.176 C 
ATOM      9  O   UNL d   1      -3.031   0.005   0.396  0.00  0.00    -0.646 OA
BRANCH   8  10
ATOM     10  O   UNL d   1      -2.483   0.260  -1.779  0.00  0.00    -0.773 OA
ATOM     11  H   UNL d   1      -1.778   0.608  -2.351  0.00  0.00     0.167 HD
ENDBRANCH   8  10
ENDBRANCH   4   8
ENDBRANCH   1   2
BRANCH   1  12
ATOM     12  C   UNL d   1       1.703   4.483  -2.623  0.00  0.00     0.006 A 
ATOM     13  C   UNL d   1       2.924   4.152  -2.019  0.00  0.00     0.037 A 
ATOM     14  C   UNL d   1       4.051   3.888  -2.812  0.00  0.00     0.039 A 
ATOM     15  C   UNL d   1       3.944   3.915  -4.208  0.00  0.00     0.018 A 
ATOM     16  C   UNL d   1       2.729   4.234  -4.811  0.00  0.00     0.002 A 
ATOM     17  C   UNL d   1       1.618   4.529  -4.021  0.00  0.00     0.019 A 
BRANCH  14  18
ATOM     18  C   UNL d   1       5.377   3.547  -2.235  0.00  0.00     0.176 C 
ATOM     19  O   UNL d   1       6.176   2.827  -2.809  0.00  0.00    -0.646 OA
BRANCH  18  20
ATOM     20  O   UNL d   1       5.638   4.136  -1.050  0.00  0.00    -0.773 OA
ATOM     21  H   UNL d   1       5.020   4.838  -0.781  0.00  0.00     0.167 HD
ENDBRANCH  18  20
ENDBRANCH  14  18
ENDBRANCH   1  12
TORSDOF 6
