REMARK  2 active torsions:
REMARK  status: ('A' for Active; 'I' for Inactive)
REMARK       I    between atoms: N_2  and  C_1 
REMARK    1  A    between atoms: C_7  and  C_1 
REMARK    2  A    between atoms: C_3  and  N_4 
ROOT
ATOM      1  C   UNL d   1       0.864   0.138  -0.166  0.00  0.00     0.253 C 
ATOM      2  N   UNL d   1       0.375   0.611   1.053  0.00  0.00    -0.345 N 
ATOM      3  N   UNL d   1      -0.342   1.578   3.655  0.00  0.00    -0.375 N 
ATOM      4  C   UNL d   1       0.833   1.934   1.519  0.00  0.00     0.146 C 
ATOM      5  C   UNL d   1      -0.785   0.060   1.772  0.00  0.00     0.146 C 
ATOM      6  C   UNL d   1       0.932   2.027   3.057  0.00  0.00     0.143 C 
ATOM      7  C   UNL d   1      -0.689   0.198   3.300  0.00  0.00     0.143 C 
ATOM      8  O   UNL d   1       1.797   0.666  -0.764  0.00  0.00    -0.267 OA
ENDROOT
BRANCH   1   9
ATOM      9  C   UNL d   1       0.281  -1.088  -0.765  0.00  0.00     0.032 A 
ATOM     10  C   UNL d   1      -1.091  -1.205  -1.023  0.00  0.00     0.018 A 
ATOM     11  C   UNL d   1      -1.602  -2.399  -1.539  0.00  0.00     0.025 A 
ATOM     12  C   UNL d   1      -0.737  -3.451  -1.839  0.00  0.00     0.034 A 
ATOM     13  C   UNL d   1       0.637  -3.316  -1.644  0.00  0.00     0.025 A 
ATOM     14 CL   UNL d   1      -1.372  -4.925  -2.459  0.00  0.00    -0.084 Cl
ATOM     15  C   UNL d   1       1.148  -2.131  -1.108  0.00  0.00     0.018 A 
ENDBRANCH   1   9
BRANCH   3  16
ATOM     16  C   UNL d   1      -0.882   2.214   4.772  0.00  0.00     0.077 A 
ATOM     17  C   UNL d   1      -1.178   1.561   5.993  0.00  0.00     0.077 A 
ATOM     18 CL   UNL d   1      -0.714  -0.067   6.364  0.00  0.00    -0.080 Cl
ATOM     19  C   UNL d   1      -1.833   2.252   7.015  0.00  0.00     0.113 A 
ATOM     20  N   UNL d   1      -2.193   3.550   6.954  0.00  0.00    -0.372 N 
ATOM     21  C   UNL d   1      -1.881   4.186   5.806  0.00  0.00     0.113 A 
ATOM     22  HN  UNL d   1      -2.669   4.020   7.724  1.00  0.00     0.164 HD
ATOM     23  C   UNL d   1      -1.252   3.583   4.717  0.00  0.00     0.077 A 
ATOM     24 CL   UNL d   1      -1.068   4.564   3.299  0.00  0.00    -0.080 Cl
ENDBRANCH   3  16
TORSDOF 2
