REMARK  7 active torsions:
REMARK  status: ('A' for Active; 'I' for Inactive)
REMARK    1  A    between atoms: C_2  and  S_1 
REMARK    2  A    between atoms: C_12  and  S_1 
REMARK    3  A    between atoms: N_15  and  C_3 
REMARK    4  A    between atoms: C_19  and  C_9 
REMARK    5  A    between atoms: C_13  and  C_14 
REMARK    6  A    between atoms: O_18  and  C_19 
REMARK    7  A    between atoms: C_20  and  O_18 
ROOT
ATOM      1  C   UNL d   1       0.520  -0.821  -1.533  0.00  0.00     0.117 A 
ATOM      2  C   UNL d   1       1.319  -1.054  -2.627  0.00  0.00     0.102 A 
ATOM      3  N   UNL d   1       0.852  -1.679  -3.720  0.00  0.00    -0.334 N 
ATOM      4  HN  UNL d   1       1.448  -1.828  -4.534  1.00  0.00     0.168 HD
ATOM      5  C   UNL d   1      -0.766  -1.302  -1.590  0.00  0.00     0.116 A 
ATOM      6  N   UNL d   1      -1.269  -1.941  -2.665  0.00  0.00    -0.352 N 
ATOM      7  HN  UNL d   1      -2.230  -2.283  -2.688  1.00  0.00     0.166 HD
ATOM      8  C   UNL d   1      -0.430  -2.104  -3.708  0.00  0.00     0.107 A 
ENDROOT
BRANCH   8   9
ATOM      9  C   UNL d   1      -0.943  -2.814  -4.942  0.00  0.00     0.252 C 
BRANCH   9  10
ATOM     10  O   UNL d   1      -1.540  -1.859  -5.825  0.00  0.00    -0.344 OA
BRANCH  10  11
ATOM     11  C   UNL d   1      -2.092  -2.370  -6.966  0.00  0.00     0.069 A 
ATOM     12  C   UNL d   1      -3.128  -1.618  -7.515  0.00  0.00     0.037 A 
ATOM     13  C   UNL d   1      -3.762  -2.033  -8.691  0.00  0.00     0.011 A 
ATOM     14  C   UNL d   1      -3.365  -3.202  -9.365  0.00  0.00    -0.050 A 
ATOM     15  C   UNL d   1      -2.305  -3.934  -8.804  0.00  0.00     0.011 A 
ATOM     16  C   UNL d   1      -1.675  -3.524  -7.621  0.00  0.00     0.037 A 
BRANCH  14  17
ATOM     17  C   UNL d   1      -4.081  -3.637 -10.655  0.00  0.00    -0.024 C 
ATOM     18  C   UNL d   1      -3.485  -4.912 -11.293  0.00  0.00     0.019 C 
ATOM     19  C   UNL d   1      -5.566  -3.926 -10.348  0.00  0.00     0.019 C 
ATOM     20  C   UNL d   1      -3.994  -2.518 -11.716  0.00  0.00     0.019 C 
ENDBRANCH  14  17
ENDBRANCH  10  11
ENDBRANCH   9  10
ENDBRANCH   8   9
BRANCH   2  21
ATOM     21  N   UNL d   1       2.636  -0.620  -2.733  0.00  0.00    -0.287 NA
ATOM     22  H   UNL d   1       3.199  -0.894  -1.926  0.00  0.00     0.125 HD
ATOM     23  H   UNL d   1       3.018  -0.983  -3.604  0.00  0.00     0.125 HD
ENDBRANCH   2  21
BRANCH   1  24
ATOM     24  S   UNL d   1       1.114  -0.089  -0.068  0.00  0.00     0.211 S 
ATOM     25  O   UNL d   1       2.510  -0.472   0.083  0.00  0.00    -0.217 OA
ATOM     26  O   UNL d   1       0.175  -0.429   0.989  0.00  0.00    -0.217 OA
BRANCH  24  27
ATOM     27  C   UNL d   1       1.050   1.679  -0.255  0.00  0.00     0.064 A 
ATOM     28  C   UNL d   1      -0.096   2.370   0.152  0.00  0.00     0.024 A 
ATOM     29  C   UNL d   1      -0.116   3.764   0.096  0.00  0.00     0.002 A 
ATOM     30  C   UNL d   1       1.005   4.461  -0.356  0.00  0.00     0.000 A 
ATOM     31  C   UNL d   1       2.148   3.768  -0.757  0.00  0.00     0.002 A 
ATOM     32  C   UNL d   1       2.177   2.374  -0.704  0.00  0.00     0.024 A 
ENDBRANCH  24  27
ENDBRANCH   1  24
TORSDOF 7
