REMARK  3 active torsions:
REMARK  status: ('A' for Active; 'I' for Inactive)
REMARK    1  A    between atoms: N_2  and  S_1 
REMARK    2  A    between atoms: C_3  and  S_1 
REMARK    3  A    between atoms: C_6  and  N_5 
ROOT
ATOM      1  N   UNL d   1       0.400   0.438  -1.179  0.00  0.00    -0.203 NA
ATOM      2  N   UNL d   1      -1.706   2.373  -0.851  0.00  0.00    -0.378 N 
ATOM      3  C   UNL d   1       0.664   1.909  -1.316  0.00  0.00     0.127 C 
ATOM      4  C   UNL d   1      -1.030   0.113  -1.490  0.00  0.00     0.127 C 
ATOM      5  C   UNL d   1      -2.002   0.943  -0.630  0.00  0.00     0.138 C 
ATOM      6  C   UNL d   1      -0.327   2.741  -0.458  0.00  0.00     0.138 C 
ENDROOT
BRANCH   2   7
ATOM      7  C   UNL d   1      -2.716   3.328  -0.904  0.00  0.00     0.044 A 
ATOM      8  C   UNL d   1      -2.589   4.531  -1.669  0.00  0.00     0.017 A 
ATOM      9  C   UNL d   1      -3.669   5.447  -1.659  0.00  0.00     0.046 A 
ATOM     10  C   UNL d   1      -1.469   4.855  -2.477  0.00  0.00     0.018 A 
ATOM     11  C   UNL d   1      -3.562   6.641  -2.358  0.00  0.00     0.054 A 
ATOM     12  N   UNL d   1      -4.820   5.214  -1.014  0.00  0.00    -0.365 N 
ATOM     13  C   UNL d   1      -2.413   6.966  -3.074  0.00  0.00     0.036 A 
ATOM     14  C   UNL d   1      -1.361   6.072  -3.143  0.00  0.00     0.025 A 
ATOM     15 CL   UNL d   1      -2.304   8.469  -3.901  0.00  0.00    -0.084 Cl
ATOM     16  C   UNL d   1      -4.936   4.059  -0.335  0.00  0.00     0.090 A 
ATOM     17  HN  UNL d   1      -5.583   5.890  -1.037  1.00  0.00     0.165 HD
ATOM     18  C   UNL d   1      -3.931   3.115  -0.243  0.00  0.00     0.047 A 
ENDBRANCH   2   7
BRANCH   1  19
ATOM     19  S   UNL d   1       1.042  -0.293   0.220  0.00  0.00     0.250 S 
ATOM     20  O   UNL d   1       0.322  -1.514   0.483  0.00  0.00    -0.205 OA
ATOM     21  O   UNL d   1       1.208   0.723   1.240  0.00  0.00    -0.205 OA
BRANCH  19  22
ATOM     22  C   UNL d   1       2.698  -0.790  -0.179  0.00  0.00     0.115 A 
ATOM     23  S   UNL d   1       2.858  -1.944  -1.434  0.00  0.00    -0.089 SA
ATOM     24  C   UNL d   1       4.559  -1.992  -1.256  0.00  0.00     0.051 A 
ATOM     25  C   UNL d   1       5.003  -1.123  -0.284  0.00  0.00     0.009 A 
ATOM     26  C   UNL d   1       3.927  -0.423   0.334  0.00  0.00     0.033 A 
ENDBRANCH  19  22
ENDBRANCH   1  19
TORSDOF 3
