REMARK  8 active torsions:
REMARK  status: ('A' for Active; 'I' for Inactive)
REMARK    1  A    between atoms: C_7  and  C_1 
REMARK    2  A    between atoms: N_19  and  C_3 
REMARK    3  A    between atoms: C_18  and  C_6 
REMARK       I    between atoms: N_14  and  C_7 
REMARK    4  A    between atoms: C_21  and  C_12 
REMARK    5  A    between atoms: C_13  and  N_15 
REMARK    6  A    between atoms: N_16  and  C_13 
REMARK    7  A    between atoms: N_15  and  N_14 
REMARK    8  A    between atoms: C_22  and  N_16 
ROOT
ATOM      1  C   UNL d   1      -2.499  -0.614  -0.167  0.00  0.00     0.103 A 
ATOM      2  C   UNL d   1      -0.148  -0.959  -0.044  0.00  0.00     0.040 A 
ATOM      3  C   UNL d   1      -1.474  -1.547  -0.150  0.00  0.00     0.062 A 
ATOM      4  C   UNL d   1      -0.293   0.423   0.008  0.00  0.00     0.103 A 
ATOM      5  S   UNL d   1      -1.903   0.969  -0.008  0.00  0.00    -0.062 SA
ATOM      6  C   UNL d   1       1.201  -1.447   0.018  0.00  0.00     0.018 A 
ATOM      7  N   UNL d   1       1.940   0.872   0.117  0.00  0.00    -0.298 N 
ATOM      8  HN  UNL d   1       2.709   1.541   0.158  1.00  0.00     0.187 HD
ATOM      9  N   UNL d   1       0.706   1.317   0.079  0.00  0.00    -0.292 N 
ATOM     10  HN  UNL d   1       0.511   2.318   0.103  1.00  0.00     0.187 HD
ATOM     11  C   UNL d   1       2.219  -0.458   0.104  0.00  0.00     0.070 A 
ENDROOT
BRANCH   1  12
ATOM     12  C   UNL d   1      -3.933  -0.838  -0.339  0.00  0.00     0.279 C 
ATOM     13  N   UNL d   1      -4.223  -1.981  -1.055  0.00  0.00    -0.263 N 
ATOM     14  H   UNL d   1      -3.462  -2.602  -1.330  0.00  0.00     0.190 HD
ATOM     15  O   UNL d   1      -4.824  -0.110   0.107  0.00  0.00    -0.265 OA
BRANCH  13  16
ATOM     16  N   UNL d   1      -5.514  -2.528  -1.045  0.00  0.00    -0.273 N 
ATOM     17  H   UNL d   1      -6.229  -1.912  -0.658  0.00  0.00     0.189 HD
BRANCH  16  18
ATOM     18  C   UNL d   1      -5.899  -3.376  -2.044  0.00  0.00     0.191 C 
ATOM     19  S   UNL d   1      -5.086  -3.563  -3.501  0.00  0.00    -0.039 SA
BRANCH  18  20
ATOM     20  N   UNL d   1      -6.978  -4.188  -1.833  0.00  0.00    -0.332 N 
ATOM     21  H   UNL d   1      -7.183  -4.736  -2.664  0.00  0.00     0.168 HD
BRANCH  20  22
ATOM     22  C   UNL d   1      -7.618  -4.625  -0.657  0.00  0.00     0.034 A 
ATOM     23  C   UNL d   1      -7.421  -4.100   0.622  0.00  0.00     0.031 A 
ATOM     24  C   UNL d   1      -8.038  -4.680   1.738  0.00  0.00     0.026 A 
ATOM     25  C   UNL d   1      -8.852  -5.798   1.584  0.00  0.00     0.034 A 
ATOM     26  C   UNL d   1      -9.078  -6.325   0.319  0.00  0.00     0.026 A 
ATOM     27 CL   UNL d   1      -9.563  -6.538   2.963  0.00  0.00    -0.084 Cl
ATOM     28  C   UNL d   1      -8.472  -5.737  -0.797  0.00  0.00     0.031 A 
ENDBRANCH  20  22
ENDBRANCH  18  20
ENDBRANCH  16  18
ENDBRANCH  13  16
ENDBRANCH   1  12
BRANCH   3  29
ATOM     29  N   UNL d   1      -1.756  -2.878  -0.240  0.00  0.00    -0.397 N 
ATOM     30  H   UNL d   1      -1.007  -3.551  -0.386  0.00  0.00     0.156 HD
ATOM     31  H   UNL d   1      -2.423  -3.266   0.433  0.00  0.00     0.156 HD
ENDBRANCH   3  29
BRANCH   6  32
ATOM     32  C   UNL d   1       1.473  -2.900  -0.037  0.00  0.00    -0.023 A 
ATOM     33  C   UNL d   1       2.360  -3.446  -0.985  0.00  0.00     0.012 A 
ATOM     34  C   UNL d   1       2.640  -4.814  -1.015  0.00  0.00     0.001 A 
ATOM     35  C   UNL d   1       1.979  -5.680  -0.151  0.00  0.00     0.000 A 
ATOM     36  C   UNL d   1       1.092  -5.170   0.791  0.00  0.00     0.001 A 
ATOM     37  C   UNL d   1       0.890  -3.790   0.884  0.00  0.00     0.012 A 
ENDBRANCH   6  32
BRANCH  11  38
ATOM     38  C   UNL d   1       3.683  -0.733   0.159  0.00  0.00    -0.007 A 
ATOM     39  C   UNL d   1       4.585   0.052  -0.590  0.00  0.00     0.014 A 
ATOM     40  C   UNL d   1       5.955  -0.236  -0.623  0.00  0.00     0.001 A 
ATOM     41  C   UNL d   1       6.455  -1.323   0.086  0.00  0.00     0.000 A 
ATOM     42  C   UNL d   1       5.596  -2.089   0.865  0.00  0.00     0.001 A 
ATOM     43  C   UNL d   1       4.234  -1.775   0.926  0.00  0.00     0.014 A 
ENDBRANCH  11  38
TORSDOF 8
