REMARK  3 active torsions:
REMARK  status: ('A' for Active; 'I' for Inactive)
REMARK    1  A    between atoms: N_5  and  S_1 
REMARK    2  A    between atoms: C_8  and  S_1 
REMARK    3  A    between atoms: N_2  and  C_6 
ROOT
ATOM      1  C   UNL d   1      -0.410   1.775   4.073  0.00  0.00     0.067 A 
ATOM      2  C   UNL d   1       0.236   0.750   1.529  0.00  0.00     0.081 A 
ATOM      3  C   UNL d   1       0.214   2.591   3.109  0.00  0.00     0.062 A 
ATOM      4  C   UNL d   1       0.547   2.076   1.847  0.00  0.00     0.051 A 
ATOM      5  C   UNL d   1      -0.750   0.459   3.708  0.00  0.00     0.033 A 
ATOM      6  C   UNL d   1      -0.424  -0.056   2.453  0.00  0.00     0.027 A 
ATOM      7 CL   UNL d   1       0.469   4.287   3.348  0.00  0.00    -0.082 Cl
ENDROOT
BRANCH   2   8
ATOM      8  S   UNL d   1       0.855   0.020   0.024  0.00  0.00     0.261 S 
ATOM      9  O   UNL d   1       2.045   0.757  -0.343  0.00  0.00    -0.200 OA
ATOM     10  O   UNL d   1       0.900  -1.414   0.239  0.00  0.00    -0.200 OA
BRANCH   8  11
ATOM     11  N   UNL d   1      -0.340   0.345  -1.105  0.00  0.00    -0.302 N 
ATOM     12  C   UNL d   1      -1.531  -0.527  -1.145  0.00  0.00     0.174 C 
ATOM     13  C   UNL d   1      -2.552  -0.129  -2.191  0.00  0.00    -0.033 A 
ATOM     14  C   UNL d   1      -3.347  -1.076  -2.845  0.00  0.00     0.009 A 
ATOM     15  C   UNL d   1      -2.737   1.236  -2.468  0.00  0.00    -0.049 A 
ATOM     16  C   UNL d   1      -4.297  -0.665  -3.784  0.00  0.00     0.001 A 
ATOM     17  C   UNL d   1      -4.466   0.691  -4.063  0.00  0.00     0.001 A 
ATOM     18  C   UNL d   1      -3.694   1.644  -3.401  0.00  0.00     0.008 A 
ATOM     19  C   UNL d   1      -1.879   2.218  -1.724  0.00  0.00     0.060 C 
ATOM     20  C   UNL d   1      -0.441   1.704  -1.680  0.00  0.00     0.140 C 
ENDBRANCH   8  11
ENDBRANCH   2   8
BRANCH   1  21
ATOM     21  N   UNL d   1      -0.686   2.198   5.404  0.00  0.00    -0.250 N 
ATOM     22  C   UNL d   1       0.248   2.782   6.229  0.00  0.00     0.232 C 
ATOM     23  C   UNL d   1      -0.361   2.993   7.589  0.00  0.00     0.123 C 
ATOM     24  O   UNL d   1       1.422   3.026   5.989  0.00  0.00    -0.273 OA
ATOM     25  C   UNL d   1      -1.678   2.224   7.536  0.00  0.00     0.050 C 
ATOM     26  C   UNL d   1      -1.813   1.819   6.088  0.00  0.00     0.240 C 
ATOM     27  C   UNL d   1      -2.888   3.028   8.005  0.00  0.00     0.020 C 
ATOM     28  C   UNL d   1      -1.708   0.990   8.446  0.00  0.00     0.020 C 
ATOM     29  O   UNL d   1      -2.793   1.234   5.641  0.00  0.00    -0.272 OA
ATOM     30  C   UNL d   1      -2.960   2.803   9.509  0.00  0.00     0.001 C 
ATOM     31  C   UNL d   1      -2.230   1.493   9.788  0.00  0.00     0.001 C 
ENDBRANCH   1  21
TORSDOF 3
