REMARK  4 active torsions:
REMARK  status: ('A' for Active; 'I' for Inactive)
REMARK    1  A    between atoms: C_6  and  C_2 
REMARK    2  A    between atoms: C_7  and  C_3 
REMARK    3  A    between atoms: O_12  and  C_6 
REMARK    4  A    between atoms: C_16  and  O_12 
ROOT
ATOM      1  S   UNL d   1      -0.991   0.012   0.056  0.00  0.00    -0.084 SA
ATOM      2  C   UNL d   1       0.173   1.263   0.012  0.00  0.00     0.081 A 
ATOM      3  C   UNL d   1       0.201  -1.226   0.035  0.00  0.00     0.016 A 
ATOM      4  C   UNL d   1       1.455   0.750   0.070  0.00  0.00     0.026 A 
ATOM      5  C   UNL d   1       1.469  -0.673   0.073  0.00  0.00     0.021 A 
ENDROOT
BRANCH   3   6
ATOM      6  C   UNL d   1      -0.177  -2.651  -0.007  0.00  0.00    -0.019 A 
ATOM      7  C   UNL d   1      -1.345  -3.096  -0.650  0.00  0.00     0.014 A 
ATOM      8  C   UNL d   1      -1.662  -4.457  -0.708  0.00  0.00     0.024 A 
ATOM      9  C   UNL d   1      -0.810  -5.392  -0.128  0.00  0.00     0.034 A 
ATOM     10  C   UNL d   1       0.353  -4.978   0.512  0.00  0.00     0.024 A 
ATOM     11 CL   UNL d   1      -1.192  -7.067  -0.210  0.00  0.00    -0.084 Cl
ATOM     12  C   UNL d   1       0.665  -3.616   0.573  0.00  0.00     0.014 A 
ENDBRANCH   3   6
BRANCH   2  13
ATOM     13  C   UNL d   1      -0.255   2.642  -0.120  0.00  0.00     0.300 C 
ATOM     14  O   UNL d   1      -1.409   3.040  -0.235  0.00  0.00    -0.259 OA
BRANCH  13  15
ATOM     15  O   UNL d   1       0.846   3.445  -0.191  0.00  0.00    -0.317 OA
BRANCH  15  16
ATOM     16  C   UNL d   1       0.625   4.772  -0.683  0.00  0.00     0.174 C 
ATOM     17  C   UNL d   1       0.762   4.750  -2.195  0.00  0.00     0.034 C 
ENDBRANCH  15  16
ENDBRANCH  13  15
ENDBRANCH   2  13
TORSDOF 4
