REMARK  3 active torsions:
REMARK  status: ('A' for Active; 'I' for Inactive)
REMARK    1  A    between atoms: C_10  and  C_7 
REMARK    2  A    between atoms: O_13  and  C_10 
REMARK    3  A    between atoms: C_16  and  O_13 
ROOT
ATOM      1  N   UNL d   1       0.030   1.596   0.048  0.00  0.00    -0.354 N 
ATOM      2  C   UNL d   1      -0.672  -0.517   0.069  0.00  0.00     0.007 A 
ATOM      3  C   UNL d   1      -1.096   0.810   0.069  0.00  0.00     0.059 A 
ATOM      4  C   UNL d   1       0.758  -0.509   0.048  0.00  0.00     0.003 A 
ATOM      5  C   UNL d   1       1.167   0.824   0.035  0.00  0.00     0.043 A 
ATOM      6  C   UNL d   1      -1.645  -1.529   0.073  0.00  0.00     0.050 A 
ATOM      7  C   UNL d   1      -2.973  -1.116   0.067  0.00  0.00     0.109 A 
ATOM      8  N   UNL d   1      -3.370   0.187   0.077  0.00  0.00    -0.359 N 
ATOM      9  HN  UNL d   1      -4.362   0.423   0.082  1.00  0.00     0.165 HD
ATOM     10  C   UNL d   1      -2.438   1.161   0.082  0.00  0.00     0.119 A 
ATOM     11  C   UNL d   1       1.744  -1.517   0.032  0.00  0.00     0.014 A 
ATOM     12  C   UNL d   1       2.514   1.204   0.011  0.00  0.00     0.030 A 
ATOM     13  C   UNL d   1       3.096  -1.155   0.009  0.00  0.00     0.001 A 
ATOM     14  C   UNL d   1       3.472   0.186  -0.001  0.00  0.00     0.002 A 
ATOM     15  H   UNL d   1       0.028   2.606   0.035  0.00  0.00     0.166 HD
ENDROOT
BRANCH   7  16
ATOM     16  C   UNL d   1      -4.034  -2.162  -0.048  0.00  0.00     0.310 C 
ATOM     17  O   UNL d   1      -3.803  -3.360  -0.140  0.00  0.00    -0.258 OA
BRANCH  16  18
ATOM     18  O   UNL d   1      -5.256  -1.577  -0.123  0.00  0.00    -0.317 OA
BRANCH  18  19
ATOM     19  C   UNL d   1      -6.325  -2.409  -0.584  0.00  0.00     0.175 C 
ATOM     20  C   UNL d   1      -6.373  -2.336  -2.099  0.00  0.00     0.034 C 
ENDBRANCH  18  19
ENDBRANCH  16  18
ENDBRANCH   7  16
TORSDOF 3
