REMARK  3 active torsions:
REMARK  status: ('A' for Active; 'I' for Inactive)
REMARK       I    between atoms: N_2  and  C_1 
REMARK       I    between atoms: N_3  and  C_1 
REMARK    1  A    between atoms: C_4  and  N_2 
REMARK    2  A    between atoms: C_5  and  N_3 
REMARK    3  A    between atoms: C_17  and  C_12 
ROOT
ATOM      1  C   UNL d   1       1.097   0.239  -0.108  0.00  0.00     0.326 C 
ATOM      2  N   UNL d   1       0.430  -0.590  -0.988  0.00  0.00    -0.294 N 
ATOM      3  N   UNL d   1       0.282   1.000   0.693  0.00  0.00    -0.308 N 
ATOM      4  O   UNL d   1       2.322   0.194  -0.051  0.00  0.00    -0.247 OA
ATOM      5  H   UNL d   1       1.034  -1.240  -1.471  0.00  0.00     0.172 HD
ATOM      6  H   UNL d   1      -0.668   0.643   0.723  0.00  0.00     0.170 HD
ENDROOT
BRANCH   2   7
ATOM      7  C   UNL d   1      -0.940  -0.586  -1.286  0.00  0.00     0.109 A 
ATOM      8  N   UNL d   1      -1.711   0.391  -0.760  0.00  0.00    -0.352 N 
ATOM      9  C   UNL d   1      -3.014   0.431  -1.089  0.00  0.00     0.090 A 
ATOM     10  HN  UNL d   1      -1.312   1.083  -0.126  1.00  0.00     0.166 HD
ATOM     11  C   UNL d   1      -3.621  -0.516  -1.882  0.00  0.00     0.024 A 
ATOM     12  C   UNL d   1      -2.843  -1.567  -2.375  0.00  0.00    -0.054 A 
ATOM     13  C   UNL d   1      -1.468  -1.581  -2.096  0.00  0.00     0.055 A 
BRANCH  12  14
ATOM     14  C   UNL d   1      -3.493  -2.654  -3.191  0.00  0.00     0.034 C 
ATOM     15  C   UNL d   1      -3.531  -2.318  -4.672  0.00  0.00     0.010 C 
ENDBRANCH  12  14
ENDBRANCH   2   7
BRANCH   3  16
ATOM     16  C   UNL d   1       0.685   1.798   1.767  0.00  0.00     0.042 A 
ATOM     17  C   UNL d   1       1.558   2.885   1.630  0.00  0.00    -0.035 A 
ATOM     18  C   UNL d   1       2.092   3.350   0.304  0.00  0.00     0.050 C 
ATOM     19  C   UNL d   1       1.873   3.635   2.776  0.00  0.00     0.009 A 
ATOM     20  C   UNL d   1       1.298   3.336   4.014  0.00  0.00     0.001 A 
ATOM     21  C   UNL d   1       0.388   2.292   4.124  0.00  0.00     0.002 A 
ATOM     22  C   UNL d   1       0.070   1.536   2.999  0.00  0.00     0.030 A 
ENDBRANCH   3  16
TORSDOF 3
