REMARK  4 active torsions:
REMARK  status: ('A' for Active; 'I' for Inactive)
REMARK       I    between atoms: C_2  and  N_1 
REMARK    1  A    between atoms: C_8  and  C_2 
REMARK    2  A    between atoms: C_5  and  C_3 
REMARK    3  A    between atoms: C_6  and  C_5 
REMARK       I    between atoms: N_9  and  C_6 
REMARK    4  A    between atoms: C_16  and  N_9 
ROOT
ATOM      1  N   UNL d   1      -1.466  -1.147   0.293  0.00  0.00    -0.333 N 
ATOM      2  C   UNL d   1      -2.294  -2.065   0.947  0.00  0.00     0.254 C 
ATOM      3  C   UNL d   1       0.024  -1.188   0.421  0.00  0.00     0.188 C 
ATOM      4  C   UNL d   1       0.532   0.036   1.236  0.00  0.00     0.241 C 
ATOM      5  N   UNL d   1      -0.108   1.236   1.024  0.00  0.00    -0.358 N 
ATOM      6  O   UNL d   1      -1.868  -2.981   1.646  0.00  0.00    -0.267 OA
ATOM      7  O   UNL d   1       1.566   0.042   1.905  0.00  0.00    -0.271 OA
ATOM      8  C   UNL d   1      -1.935   0.142  -0.251  0.00  0.00     0.147 C 
ATOM      9  C   UNL d   1      -1.497   1.305   0.640  0.00  0.00     0.142 C 
ATOM     10  H   UNL d   1       0.280   1.995   1.571  0.00  0.00     0.162 HD
ENDROOT
BRANCH   3  11
ATOM     11  C   UNL d   1       0.736  -2.452   0.916  0.00  0.00     0.138 C 
BRANCH  11  12
ATOM     12  C   UNL d   1       0.753  -3.580  -0.094  0.00  0.00     0.224 C 
ATOM     13  N   UNL d   1      -0.220  -4.535   0.123  0.00  0.00    -0.327 N 
ATOM     14  H   UNL d   1      -0.981  -4.262   0.748  0.00  0.00     0.169 HD
ATOM     15  O   UNL d   1       1.583  -3.594  -0.998  0.00  0.00    -0.273 OA
BRANCH  13  16
ATOM     16  C   UNL d   1      -0.261  -5.840  -0.407  0.00  0.00     0.034 A 
ATOM     17  C   UNL d   1       0.846  -6.456  -1.003  0.00  0.00     0.032 A 
ATOM     18  C   UNL d   1       0.784  -7.797  -1.399  0.00  0.00     0.044 A 
ATOM     19  C   UNL d   1      -0.392  -8.512  -1.222  0.00  0.00     0.116 A 
ATOM     20  C   UNL d   1      -1.511  -7.909  -0.661  0.00  0.00     0.044 A 
ATOM     21  F   UNL d   1      -0.446  -9.799  -1.585  0.00  0.00    -0.206 F 
ATOM     22  C   UNL d   1      -1.443  -6.575  -0.246  0.00  0.00     0.032 A 
ENDBRANCH  13  16
ENDBRANCH  11  12
ENDBRANCH   3  11
BRANCH   2  23
ATOM     23  C   UNL d   1      -3.775  -2.028   0.778  0.00  0.00     0.032 A 
ATOM     24  C   UNL d   1      -4.376  -1.751  -0.452  0.00  0.00     0.018 A 
ATOM     25  C   UNL d   1      -5.767  -1.693  -0.559  0.00  0.00     0.025 A 
ATOM     26  C   UNL d   1      -6.561  -2.008   0.541  0.00  0.00     0.034 A 
ATOM     27  C   UNL d   1      -5.976  -2.382   1.749  0.00  0.00     0.025 A 
ATOM     28 CL   UNL d   1      -8.274  -1.954   0.396  0.00  0.00    -0.084 Cl
ATOM     29  C   UNL d   1      -4.583  -2.385   1.872  0.00  0.00     0.018 A 
ENDBRANCH   2  23
TORSDOF 4
