REMARK  3 active torsions:
REMARK  status: ('A' for Active; 'I' for Inactive)
REMARK    1  A    between atoms: C_2  and  C_1 
REMARK    2  A    between atoms: N_9  and  C_2 
REMARK    3  A    between atoms: O_11  and  C_6 
ROOT
ATOM      1  C   UNL d   1       0.707   1.268   0.012  0.00  0.00     0.017 A 
ATOM      2  N   UNL d   1      -1.357  -0.018   0.039  0.00  0.00    -0.346 N 
ATOM      3  HN  UNL d   1      -2.376  -0.048   0.058  1.00  0.00     0.167 HD
ATOM      4  C   UNL d   1      -0.681   1.158   0.028  0.00  0.00     0.104 A 
ATOM      5  C   UNL d   1      -0.617  -1.144   0.025  0.00  0.00     0.141 A 
ATOM      6  C   UNL d   1       1.442   0.077  -0.000  0.00  0.00     0.020 A 
ATOM      7  C   UNL d   1       0.770  -1.148   0.007  0.00  0.00     0.057 A 
ENDROOT
BRANCH   1   8
ATOM      8  C   UNL d   1       1.377   2.595  -0.002  0.00  0.00     0.105 C 
ATOM      9  S   UNL d   1       0.752   3.990  -0.679  0.00  0.00    -0.060 SA
BRANCH   8  10
ATOM     10  N   UNL d   1       2.607   2.678   0.600  0.00  0.00    -0.389 N 
ATOM     11  H   UNL d   1       3.028   1.929   1.135  0.00  0.00     0.157 HD
ATOM     12  H   UNL d   1       3.058   3.585   0.642  0.00  0.00     0.157 HD
ENDBRANCH   8  10
ENDBRANCH   1   8
BRANCH   5  13
ATOM     13  O   UNL d   1      -1.238  -2.375   0.021  0.00  0.00    -0.341 OA
ATOM     14  C   UNL d   1      -2.660  -2.273   0.022  0.00  0.00     0.211 C 
ENDBRANCH   5  13
TORSDOF 3
