REMARK  4 active torsions:
REMARK  status: ('A' for Active; 'I' for Inactive)
REMARK    1  A    between atoms: C_2  and  C_1 
REMARK       I    between atoms: N_3  and  C_1 
REMARK    2  A    between atoms: C_8  and  N_3 
REMARK    3  A    between atoms: C_9  and  N_3 
REMARK    4  A    between atoms: C_13  and  C_8 
ROOT
ATOM      1  C   UNL d   1       0.709  -0.031  -0.407  0.00  0.00     0.257 C 
ATOM      2  N   UNL d   1       0.177   1.047   0.316  0.00  0.00    -0.340 N 
ATOM      3  O   UNL d   1       1.829  -0.004  -0.920  0.00  0.00    -0.267 OA
ENDROOT
BRANCH   2   4
ATOM      4  C   UNL d   1       1.076   2.194   0.530  0.00  0.00     0.165 C 
BRANCH   4   5
ATOM      5  C   UNL d   1       1.933   2.088   1.777  0.00  0.00    -0.040 A 
ATOM      6  C   UNL d   1       2.970   1.147   1.862  0.00  0.00     0.009 A 
ATOM      7  C   UNL d   1       3.798   1.086   2.985  0.00  0.00     0.001 A 
ATOM      8  C   UNL d   1       3.607   1.975   4.039  0.00  0.00     0.000 A 
ATOM      9  C   UNL d   1       2.586   2.921   3.970  0.00  0.00     0.001 A 
ATOM     10  C   UNL d   1       1.755   2.977   2.847  0.00  0.00     0.009 A 
ENDBRANCH   4   5
ENDBRANCH   2   4
BRANCH   2  11
ATOM     11  C   UNL d   1      -1.277   1.261   0.516  0.00  0.00     0.079 C 
ATOM     12  C   UNL d   1      -1.621   1.787   1.909  0.00  0.00     0.032 C 
ATOM     13  C   UNL d   1      -1.869   2.148  -0.584  0.00  0.00     0.032 C 
ENDBRANCH   2  11
BRANCH   1  14
ATOM     14  C   UNL d   1      -0.065  -1.274  -0.635  0.00  0.00     0.070 A 
ATOM     15  C   UNL d   1      -0.799  -1.914   0.364  0.00  0.00     0.135 A 
ATOM     16  C   UNL d   1      -1.526  -3.070   0.090  0.00  0.00     0.085 A 
ATOM     17  F   UNL d   1      -0.836  -1.430   1.615  0.00  0.00    -0.205 F 
ATOM     18  C   UNL d   1      -1.461  -3.623  -1.182  0.00  0.00     0.119 A 
ATOM     19  C   UNL d   1      -0.675  -3.050  -2.175  0.00  0.00     0.043 A 
ATOM     20  F   UNL d   1      -2.159  -4.733  -1.454  0.00  0.00    -0.206 F 
ATOM     21  C   UNL d   1       0.025  -1.874  -1.904  0.00  0.00     0.023 A 
ENDBRANCH   1  14
TORSDOF 4
