REMARK  4 active torsions:
REMARK  status: ('A' for Active; 'I' for Inactive)
REMARK    1  A    between atoms: C_2  and  C_1 
REMARK       I    between atoms: N_3  and  C_2 
REMARK    2  A    between atoms: N_4  and  N_3 
REMARK    3  A    between atoms: C_5  and  N_4 
REMARK    4  A    between atoms: N_9  and  C_6 
ROOT
ATOM      1  C   UNL d   1       0.900   2.529  -0.469  0.00  0.00     0.268 C 
ATOM      2  N   UNL d   1       0.094   3.594  -0.096  0.00  0.00    -0.283 N 
ATOM      3  O   UNL d   1       2.077   2.700  -0.789  0.00  0.00    -0.266 OA
ATOM      4  H   UNL d   1      -0.825   3.493   0.320  0.00  0.00     0.184 HD
ENDROOT
BRANCH   1   5
ATOM      5  C   UNL d   1       0.280   1.153  -0.438  0.00  0.00     0.054 A 
ATOM      6  C   UNL d   1       1.012   0.041  -0.918  0.00  0.00     0.021 A 
ATOM      7  C   UNL d   1       0.426  -1.236  -0.860  0.00  0.00     0.024 A 
ATOM      8  C   UNL d   1      -0.829  -1.433  -0.287  0.00  0.00     0.002 A 
ATOM      9  C   UNL d   1      -1.539  -0.345   0.204  0.00  0.00     0.001 A 
ATOM     10  C   UNL d   1      -0.992   0.937   0.128  0.00  0.00     0.019 A 
BRANCH   6  11
ATOM     11  N   UNL d   1       2.205   0.173  -1.657  0.00  0.00    -0.302 NA
ATOM     12  H   UNL d   1       2.669   1.070  -1.470  0.00  0.00     0.124 HD
ATOM     13  H   UNL d   1       2.839  -0.613  -1.573  0.00  0.00     0.124 HD
ENDBRANCH   6  11
ENDBRANCH   1   5
BRANCH   2  14
ATOM     14  N   UNL d   1       0.712   4.835   0.141  0.00  0.00    -0.201 NA
ATOM     15  H   UNL d   1       1.636   4.843  -0.308  0.00  0.00     0.153 HD
BRANCH  14  16
ATOM     16  C   UNL d   1      -0.081   5.954  -0.243  0.00  0.00     0.049 A 
ATOM     17  C   UNL d   1      -1.468   6.088  -0.008  0.00  0.00     0.056 A 
ATOM     18 CL   UNL d   1      -2.417   4.878   0.799  0.00  0.00    -0.082 Cl
ATOM     19  C   UNL d   1      -2.155   7.250  -0.388  0.00  0.00     0.026 A 
ATOM     20  C   UNL d   1      -1.469   8.316  -0.964  0.00  0.00     0.002 A 
ATOM     21  C   UNL d   1      -0.093   8.232  -1.142  0.00  0.00     0.002 A 
ATOM     22  C   UNL d   1       0.593   7.070  -0.775  0.00  0.00     0.027 A 
ENDBRANCH  14  16
ENDBRANCH   2  14
TORSDOF 4
