REMARK  1 active torsions:
REMARK  status: ('A' for Active; 'I' for Inactive)
REMARK    1  A    between atoms: C_11  and  C_4 
ROOT
ATOM      1  N   UNL d   1       2.361  -3.284  -2.559  0.00  0.00    -0.197 NA
ATOM      2  C   UNL d   1       2.244  -2.927  -1.461  0.00  0.00     0.063 C 
ATOM      3  C   UNL d   1       2.108  -2.488  -0.063  0.00  0.00     0.163 C 
ENDROOT
BRANCH   3   4
ATOM      4  C   UNL d   1       1.641  -1.059  -0.004  0.00  0.00    -0.027 A 
ATOM      5  C   UNL d   1       2.499   0.025   0.028  0.00  0.00     0.059 A 
ATOM      6  S   UNL d   1       1.683   1.517   0.048  0.00  0.00    -0.101 SA
ATOM      7  C   UNL d   1       0.140   0.759   0.027  0.00  0.00     0.015 A 
ATOM      8  C   UNL d   1       0.253  -0.636   0.015  0.00  0.00    -0.010 A 
ATOM      9  C   UNL d   1      -1.113   1.405   0.018  0.00  0.00     0.021 A 
ATOM     10  C   UNL d   1      -0.948  -1.393   0.006  0.00  0.00     0.037 A 
ATOM     11  C   UNL d   1      -2.190  -0.751   0.005  0.00  0.00     0.035 A 
ATOM     12  C   UNL d   1      -2.275   0.632   0.007  0.00  0.00     0.025 A 
ATOM     13 CL   UNL d   1      -3.631  -1.693  -0.004  0.00  0.00    -0.084 Cl
ENDBRANCH   3   4
TORSDOF 1
