REMARK  6 active torsions:
REMARK  status: ('A' for Active; 'I' for Inactive)
REMARK    1  A    between atoms: N_3  and  C_1 
REMARK    2  A    between atoms: C_2  and  S_6 
REMARK    3  A    between atoms: S_6  and  C_5 
REMARK    4  A    between atoms: S_18  and  C_7 
REMARK    5  A    between atoms: C_17  and  C_23 
REMARK    6  A    between atoms: C_23  and  S_18 
ROOT
ATOM      1  C   UNL d   1       5.445   1.653   0.159  0.00  0.00     0.135 A 
ATOM      2  S   UNL d   1       5.387   2.728   1.494  0.00  0.00    -0.037 SA
ATOM      3  C   UNL d   1       6.067   3.913   0.461  0.00  0.00     0.129 A 
ATOM      4  N   UNL d   1       5.983   2.161  -0.929  0.00  0.00    -0.286 N 
ATOM      5  HN  UNL d   1       6.117   1.643  -1.797  1.00  0.00     0.188 HD
ATOM      6  N   UNL d   1       6.345   3.484  -0.752  0.00  0.00    -0.287 N 
ATOM      7  HN  UNL d   1       6.777   4.059  -1.475  1.00  0.00     0.188 HD
ENDROOT
BRANCH   1   8
ATOM      8  S   UNL d   1       4.867   0.004   0.205  0.00  0.00    -0.043 SA
BRANCH   8   9
ATOM      9  C   UNL d   1       3.221   0.323  -0.404  0.00  0.00     0.110 A 
ATOM     10  C   UNL d   1       2.666  -0.265  -1.534  0.00  0.00     0.138 A 
ATOM     11  C   UNL d   1       1.366   0.064  -1.948  0.00  0.00     0.059 A 
ATOM     12  C   UNL d   1       0.643   0.972  -1.191  0.00  0.00     0.028 A 
ATOM     13  C   UNL d   1       1.237   1.507  -0.061  0.00  0.00     0.108 A 
ATOM     14 BR   UNL d   1      -1.113   1.449  -1.677  0.00  0.00    -0.050 Br
ATOM     15  N   UNL d   1       2.498   1.205   0.342  0.00  0.00    -0.357 N 
ATOM     16  HN  UNL d   1       2.893   1.628   1.182  1.00  0.00     0.166 HD
BRANCH  10  17
ATOM     17  N   UNL d   1       3.387  -1.240  -2.303  0.00  0.00    -0.113 N 
ATOM     18  O   UNL d   1       3.682  -2.301  -1.739  0.00  0.00    -0.532 OA
ATOM     19  O   UNL d   1       3.594  -0.973  -3.493  0.00  0.00    -0.532 OA
ENDBRANCH  10  17
ENDBRANCH   8   9
ENDBRANCH   1   8
BRANCH   3  20
ATOM     20  S   UNL d   1       6.373   5.558   0.969  0.00  0.00    -0.103 SA
BRANCH  20  21
ATOM     21  C   UNL d   1       6.205   6.411  -0.623  0.00  0.00     0.086 C 
BRANCH  21  22
ATOM     22  C   UNL d   1       6.433   7.879  -0.426  0.00  0.00    -0.005 A 
ATOM     23  C   UNL d   1       5.432   8.757   0.286  0.00  0.00     0.006 A 
ATOM     24  C   UNL d   1       5.605   8.877  -1.201  0.00  0.00     0.006 A 
ENDBRANCH  21  22
ENDBRANCH  20  21
ENDBRANCH   3  20
TORSDOF 6
