REMARK  4 active torsions:
REMARK  status: ('A' for Active; 'I' for Inactive)
REMARK       I    between atoms: N_6  and  C_1 
REMARK       I    between atoms: N_7  and  C_1 
REMARK    1  A    between atoms: N_2  and  N_7 
REMARK    2  A    between atoms: N_4  and  N_6 
REMARK    3  A    between atoms: C_16  and  C_9 
REMARK    4  A    between atoms: C_15  and  C_10 
ROOT
ATOM      1  C   UNL d   1       0.976  -0.029   0.124  0.00  0.00     0.353 C 
ATOM      2  N   UNL d   1       0.331  -0.103  -1.116  0.00  0.00    -0.251 N 
ATOM      3  N   UNL d   1       0.056  -0.084   1.170  0.00  0.00    -0.251 N 
ATOM      4  O   UNL d   1       2.192   0.050   0.286  0.00  0.00    -0.244 OA
ATOM      5  H   UNL d   1      -0.609   0.270  -1.146  0.00  0.00     0.191 HD
ATOM      6  H   UNL d   1      -0.928  -0.214   0.980  0.00  0.00     0.191 HD
ENDROOT
BRANCH   2   7
ATOM      7  N   UNL d   1       0.970  -0.031  -2.334  0.00  0.00    -0.306 N 
ATOM      8  C   UNL d   1       2.128  -0.615  -2.434  0.00  0.00     0.136 C 
ATOM      9  HN  UNL d   1       0.553   0.459  -3.125  1.00  0.00     0.186 HD
BRANCH   8  10
ATOM     10  C   UNL d   1       2.934  -0.573  -3.671  0.00  0.00     0.049 A 
ATOM     11  N   UNL d   1       4.109  -1.248  -3.606  0.00  0.00    -0.365 N 
ATOM     12  C   UNL d   1       4.867  -1.247  -4.721  0.00  0.00     0.088 A 
ATOM     13  HN  UNL d   1       4.403  -1.731  -2.757  1.00  0.00     0.165 HD
ATOM     14  C   UNL d   1       4.502  -0.617  -5.901  0.00  0.00     0.017 A 
ATOM     15  C   UNL d   1       3.289   0.066  -5.939  0.00  0.00     0.004 A 
ATOM     16  C   UNL d   1       2.486   0.096  -4.802  0.00  0.00     0.031 A 
ENDBRANCH   8  10
ENDBRANCH   2   7
BRANCH   3  17
ATOM     17  N   UNL d   1       0.509  -0.158   2.453  0.00  0.00    -0.306 N 
ATOM     18  C   UNL d   1      -0.396  -0.256   3.373  0.00  0.00     0.136 C 
ATOM     19  HN  UNL d   1       1.504  -0.137   2.675  1.00  0.00     0.186 HD
BRANCH  18  20
ATOM     20  C   UNL d   1      -0.040  -0.383   4.800  0.00  0.00     0.049 A 
ATOM     21  N   UNL d   1      -1.100  -0.448   5.644  0.00  0.00    -0.365 N 
ATOM     22  C   UNL d   1      -0.807  -0.579   6.956  0.00  0.00     0.088 A 
ATOM     23  HN  UNL d   1      -2.062  -0.400   5.308  1.00  0.00     0.165 HD
ATOM     24  C   UNL d   1       0.484  -0.654   7.458  0.00  0.00     0.017 A 
ATOM     25  C   UNL d   1       1.549  -0.587   6.564  0.00  0.00     0.004 A 
ATOM     26  C   UNL d   1       1.286  -0.446   5.205  0.00  0.00     0.031 A 
ENDBRANCH  18  20
ENDBRANCH   3  17
TORSDOF 4
