REMARK  2 active torsions:
REMARK  status: ('A' for Active; 'I' for Inactive)
REMARK    1  A    between atoms: C_13  and  N_7 
REMARK    2  A    between atoms: C_14  and  C_10 
ROOT
ATOM      1  C   UNL d   1       3.079   0.538   1.012  0.00  0.00     0.151 A 
ATOM      2  S   UNL d   1       2.668  -1.113   0.689  0.00  0.00    -0.034 SA
ATOM      3  N   UNL d   1       3.081   0.863   2.288  0.00  0.00    -0.334 N 
ATOM      4  HN  UNL d   1       3.310   1.788   2.651  1.00  0.00     0.168 HD
ATOM      5  C   UNL d   1       2.459  -1.383   2.357  0.00  0.00     0.104 A 
ATOM      6  C   UNL d   1       2.731  -0.218   3.062  0.00  0.00     0.068 A 
ATOM      7  N   UNL d   1       3.393   1.359  -0.021  0.00  0.00    -0.337 N 
ATOM      8  N   UNL d   1       2.089  -2.575   2.870  0.00  0.00    -0.358 N 
ATOM      9  HN  UNL d   1       1.900  -3.399   2.299  1.00  0.00     0.166 HD
ATOM     10  C   UNL d   1       2.623  -0.267   4.462  0.00  0.00     0.034 A 
ATOM     11  C   UNL d   1       1.994  -2.565   4.220  0.00  0.00     0.089 A 
ATOM     12  C   UNL d   1       2.244  -1.474   5.043  0.00  0.00     0.019 A 
ATOM     13  H   UNL d   1       3.474   0.950  -0.943  0.00  0.00     0.168 HD
ENDROOT
BRANCH   7  14
ATOM     14  C   UNL d   1       3.581   2.753   0.025  0.00  0.00     0.034 A 
ATOM     15  C   UNL d   1       4.342   3.371  -0.976  0.00  0.00     0.030 A 
ATOM     16  C   UNL d   1       4.616   4.744  -0.938  0.00  0.00     0.010 A 
ATOM     17  C   UNL d   1       4.134   5.542   0.109  0.00  0.00    -0.055 A 
ATOM     18  C   UNL d   1       3.378   4.930   1.112  0.00  0.00     0.010 A 
ATOM     19  C   UNL d   1       3.114   3.557   1.070  0.00  0.00     0.030 A 
BRANCH  17  20
ATOM     20  C   UNL d   1       4.402   7.033   0.179  0.00  0.00     0.010 C 
ATOM     21  C   UNL d   1       5.897   7.337   0.294  0.00  0.00     0.015 C 
ATOM     22  C   UNL d   1       3.779   7.764  -1.011  0.00  0.00     0.015 C 
ENDBRANCH  17  20
ENDBRANCH   7  14
TORSDOF 2
