REMARK  4 active torsions:
REMARK  status: ('A' for Active; 'I' for Inactive)
REMARK    1  A    between atoms: N_3  and  C_1 
REMARK    2  A    between atoms: N_4  and  C_1 
REMARK    3  A    between atoms: C_2  and  C_6 
REMARK    4  A    between atoms: C_5  and  N_3 
ROOT
ATOM      1  C   UNL d   1       1.141  -2.380   0.683  0.00  0.00     0.057 A 
ATOM      2  C   UNL d   1       3.033  -3.615   1.618  0.00  0.00     0.050 A 
ATOM      3  C   UNL d   1       2.454  -2.417   1.174  0.00  0.00     0.047 A 
ATOM      4  C   UNL d   1       0.382  -3.559   0.698  0.00  0.00     0.060 A 
ATOM      5  C   UNL d   1       2.265  -4.790   1.593  0.00  0.00     0.018 A 
ATOM      6  C   UNL d   1       0.943  -4.759   1.142  0.00  0.00     0.027 A 
ATOM      7 CL   UNL d   1      -1.258  -3.572   0.150  0.00  0.00    -0.082 Cl
ENDROOT
BRANCH   1   8
ATOM      8  N   UNL d   1       0.555  -1.162   0.252  0.00  0.00    -0.332 N 
ATOM      9  H   UNL d   1      -0.440  -1.212   0.050  0.00  0.00     0.168 HD
BRANCH   8  10
ATOM     10  C   UNL d   1       1.197  -0.062  -0.293  0.00  0.00     0.174 C 
ATOM     11  S   UNL d   1       2.498  -0.220  -1.355  0.00  0.00    -0.041 SA
BRANCH  10  12
ATOM     12  N   UNL d   1       0.625   1.162   0.073  0.00  0.00    -0.354 N 
ATOM     13  C   UNL d   1       1.143   2.470  -0.384  0.00  0.00     0.151 C 
ATOM     14  C   UNL d   1       1.379   3.404   0.806  0.00  0.00     0.187 C 
ATOM     15  O   UNL d   1       0.171   3.580   1.561  0.00  0.00    -0.388 OA
ATOM     16  C   UNL d   1      -0.279   2.322   2.082  0.00  0.00     0.187 C 
ATOM     17  C   UNL d   1      -0.545   1.307   0.962  0.00  0.00     0.151 C 
ENDBRANCH  10  12
ENDBRANCH   8  10
ENDBRANCH   1   8
BRANCH   2  18
ATOM     18  C   UNL d   1       4.455  -3.643   2.126  0.00  0.00     0.417 C 
ATOM     19  F   UNL d   1       5.090  -2.441   2.046  0.00  0.00    -0.166 F 
ATOM     20  F   UNL d   1       4.527  -4.014   3.435  0.00  0.00    -0.166 F 
ATOM     21  F   UNL d   1       5.235  -4.526   1.444  0.00  0.00    -0.166 F 
ENDBRANCH   2  18
TORSDOF 4
