REMARK  1 active torsions:
REMARK  status: ('A' for Active; 'I' for Inactive)
REMARK    1  A    between atoms: C_11  and  N_2 
ROOT
ATOM      1  C   UNL d   1       1.204   1.446   0.090  0.00  0.00     0.266 A 
ATOM      2  N   UNL d   1       2.384   0.703  -0.025  0.00  0.00    -0.266 N 
ATOM      3  C   UNL d   1       2.347  -0.682  -0.074  0.00  0.00     0.087 A 
ATOM      4  C   UNL d   1      -0.057   0.687   0.051  0.00  0.00     0.059 A 
ATOM      5  N   UNL d   1       1.247  -1.370  -0.060  0.00  0.00    -0.345 N 
ATOM      6  HN  UNL d   1       1.276  -2.390  -0.086  1.00  0.00     0.167 HD
ATOM      7  C   UNL d   1       0.023  -0.700  -0.009  0.00  0.00     0.051 A 
ATOM      8  C   UNL d   1      -1.296   1.342   0.049  0.00  0.00     0.021 A 
ATOM      9  C   UNL d   1      -1.157  -1.445  -0.030  0.00  0.00     0.054 A 
ATOM     10  O   UNL d   1       1.133   2.668   0.187  0.00  0.00    -0.267 OA
ATOM     11  C   UNL d   1      -2.395  -0.800  -0.025  0.00  0.00     0.036 A 
ATOM     12  C   UNL d   1      -2.470   0.591   0.004  0.00  0.00     0.025 A 
ATOM     13  C   UNL d   1       3.626  -1.498  -0.089  0.00  0.00     0.089 C 
ATOM     14 CL   UNL d   1      -3.842  -1.729  -0.066  0.00  0.00    -0.084 Cl
ENDROOT
BRANCH   2  15
ATOM     15  C   UNL d   1       3.600   1.441  -0.123  0.00  0.00     0.059 A 
ATOM     16  C   UNL d   1       4.456   1.306  -1.214  0.00  0.00     0.117 A 
ATOM     17  N   UNL d   1       5.609   2.000  -1.371  0.00  0.00    -0.373 N 
ATOM     18  C   UNL d   1       5.919   2.887  -0.400  0.00  0.00     0.088 A 
ATOM     19  HN  UNL d   1       6.213   1.859  -2.180  1.00  0.00     0.164 HD
ATOM     20  C   UNL d   1       5.134   3.106   0.720  0.00  0.00     0.019 A 
ATOM     21  C   UNL d   1       3.955   2.377   0.854  0.00  0.00     0.033 A 
ENDBRANCH   2  15
TORSDOF 1
