REMARK  6 active torsions:
REMARK  status: ('A' for Active; 'I' for Inactive)
REMARK    1  A    between atoms: C_11  and  C_3 
REMARK    2  A    between atoms: N_14  and  C_4 
REMARK    3  A    between atoms: C_12  and  C_6 
REMARK    4  A    between atoms: O_18  and  C_11 
REMARK    5  A    between atoms: C_25  and  O_18 
REMARK    6  A    between atoms: O_23  and  C_19 
ROOT
ATOM      1  C   UNL d   1       0.882  -0.986  -0.212  0.00  0.00     0.066 A 
ATOM      2  C   UNL d   1       0.485   0.284  -0.048  0.00  0.00     0.103 A 
ATOM      3  C   UNL d   1       3.249  -0.135   0.026  0.00  0.00     0.075 A 
ATOM      4  C   UNL d   1       2.733   1.098   0.210  0.00  0.00     0.134 A 
ATOM      5  C   UNL d   1      -0.129  -2.055  -0.397  0.00  0.00     0.298 C 
ATOM      6  C   UNL d   1       2.361  -1.341  -0.254  0.00  0.00     0.103 A 
ATOM      7  O   UNL d   1       1.367   1.330   0.115  0.00  0.00    -0.297 OA
ATOM      8  C   UNL d   1      -0.928   0.645  -0.037  0.00  0.00     0.033 A 
ATOM      9  O   UNL d   1      -1.457  -1.720  -0.161  0.00  0.00    -0.274 OA
ATOM     10  C   UNL d   1      -1.865  -0.381  -0.060  0.00  0.00     0.092 A 
ATOM     11  O   UNL d   1       0.169  -3.191  -0.745  0.00  0.00    -0.259 OA
ATOM     12  C   UNL d   1      -1.393   1.965   0.001  0.00  0.00     0.017 A 
ATOM     13  C   UNL d   1      -3.236  -0.133  -0.023  0.00  0.00     0.038 A 
ATOM     14  C   UNL d   1      -2.766   2.232   0.024  0.00  0.00     0.001 A 
ATOM     15  C   UNL d   1      -3.686   1.184   0.018  0.00  0.00     0.003 A 
ENDROOT
BRANCH   6  16
ATOM     16  C   UNL d   1       2.682  -2.528   0.652  0.00  0.00    -0.044 A 
ATOM     17  C   UNL d   1       2.595  -2.446   2.049  0.00  0.00     0.011 A 
ATOM     18  C   UNL d   1       2.785  -3.587   2.837  0.00  0.00     0.037 A 
ATOM     19  C   UNL d   1       3.063  -4.818   2.241  0.00  0.00     0.068 A 
ATOM     20  C   UNL d   1       3.166  -4.903   0.855  0.00  0.00     0.037 A 
ATOM     21  C   UNL d   1       2.995  -3.767   0.067  0.00  0.00     0.011 A 
BRANCH  19  22
ATOM     22  O   UNL d   1       3.193  -6.010   2.898  0.00  0.00    -0.356 OA
ATOM     23  C   UNL d   1       3.641  -5.926   4.243  0.00  0.00     0.210 C 
ENDBRANCH  19  22
ENDBRANCH   6  16
BRANCH   3  24
ATOM     24  C   UNL d   1       4.732  -0.296   0.026  0.00  0.00     0.294 C 
ATOM     25  O   UNL d   1       5.512   0.504   0.515  0.00  0.00    -0.259 OA
BRANCH  24  26
ATOM     26  O   UNL d   1       5.089  -1.381  -0.712  0.00  0.00    -0.318 OA
BRANCH  26  27
ATOM     27  C   UNL d   1       6.480  -1.497  -1.050  0.00  0.00     0.174 C 
ATOM     28  C   UNL d   1       7.150  -2.604  -0.259  0.00  0.00     0.034 C 
ENDBRANCH  26  27
ENDBRANCH  24  26
ENDBRANCH   3  24
BRANCH   4  29
ATOM     29  N   UNL d   1       3.426   2.252   0.473  0.00  0.00    -0.282 NA
ATOM     30  H   UNL d   1       4.440   2.176   0.363  0.00  0.00     0.126 HD
ATOM     31  H   UNL d   1       3.015   3.077   0.051  0.00  0.00     0.126 HD
ENDBRANCH   4  29
TORSDOF 6
