REMARK  4 active torsions:
REMARK  status: ('A' for Active; 'I' for Inactive)
REMARK    1  A    between atoms: C_2  and  S_1 
REMARK    2  A    between atoms: C_5  and  S_1 
REMARK    3  A    between atoms: S_9  and  C_3 
REMARK    4  A    between atoms: S_10  and  C_3 
ROOT
ATOM      1  C   UNL d   1       0.491   1.768  -0.257  0.00  0.00     0.167 C 
ATOM      2  C   UNL d   1      -0.001   2.500   0.769  0.00  0.00     0.068 C 
ATOM      3  C   UNL d   1       0.695   2.340  -1.543  0.00  0.00     0.114 C 
ATOM      4  N   UNL d   1       0.917   2.823  -2.575  0.00  0.00    -0.191 NA
ENDROOT
BRANCH   1   5
ATOM      5  S   UNL d   1       1.188   0.182  -0.049  0.00  0.00     0.218 S 
ATOM      6  O   UNL d   1       0.553  -0.535   1.044  0.00  0.00    -0.216 OA
ATOM      7  O   UNL d   1       2.638   0.300  -0.070  0.00  0.00    -0.216 OA
BRANCH   5   8
ATOM      8  C   UNL d   1       0.749  -0.761  -1.514  0.00  0.00     0.065 A 
ATOM      9  C   UNL d   1       1.364  -0.490  -2.739  0.00  0.00     0.024 A 
ATOM     10  C   UNL d   1       1.024  -1.245  -3.866  0.00  0.00     0.008 A 
ATOM     11  C   UNL d   1       0.129  -2.321  -3.770  0.00  0.00    -0.062 A 
ATOM     12  C   UNL d   1      -0.445  -2.615  -2.523  0.00  0.00     0.008 A 
ATOM     13  C   UNL d   1      -0.237  -3.108  -4.988  0.00  0.00     0.048 C 
ATOM     14  C   UNL d   1      -0.137  -1.843  -1.398  0.00  0.00     0.024 A 
ENDBRANCH   5   8
ENDBRANCH   1   5
BRANCH   2  15
ATOM     15  S   UNL d   1      -0.727   4.088   0.430  0.00  0.00    -0.125 SA
ATOM     16  C   UNL d   1      -2.051   4.229   1.657  0.00  0.00     0.096 C 
ENDBRANCH   2  15
BRANCH   2  17
ATOM     17  S   UNL d   1       0.142   2.077   2.463  0.00  0.00    -0.125 SA
ATOM     18  C   UNL d   1       1.918   2.351   2.702  0.00  0.00     0.096 C 
ENDBRANCH   2  17
TORSDOF 4
