REMARK  7 active torsions:
REMARK  status: ('A' for Active; 'I' for Inactive)
REMARK    1  A    between atoms: N_5  and  C_1 
REMARK    2  A    between atoms: O_11  and  C_2 
REMARK    3  A    between atoms: C_12  and  N_5 
REMARK    4  A    between atoms: C_6  and  C_9 
REMARK    5  A    between atoms: O_15  and  C_6 
REMARK    6  A    between atoms: C_18  and  O_11 
REMARK    7  A    between atoms: C_19  and  O_15 
ROOT
ATOM      1  C   UNL d   1       5.844  -1.733   0.003  0.00  0.00     0.039 A 
ATOM      2  C   UNL d   1       3.035  -2.098  -0.076  0.00  0.00     0.032 A 
ATOM      3  C   UNL d   1       5.035  -1.199   1.011  0.00  0.00     0.020 A 
ATOM      4  C   UNL d   1       5.245  -2.454  -1.036  0.00  0.00     0.020 A 
ATOM      5  C   UNL d   1       3.860  -2.646  -1.064  0.00  0.00     0.030 A 
ATOM      6  C   UNL d   1       3.643  -1.381   0.968  0.00  0.00     0.030 A 
ENDROOT
BRANCH   2   7
ATOM      7  N   UNL d   1       1.646  -2.360  -0.017  0.00  0.00    -0.351 N 
ATOM      8  H   UNL d   1       1.133  -1.580   0.394  0.00  0.00     0.166 HD
BRANCH   7   9
ATOM      9  C   UNL d   1       1.009  -3.366  -0.581  0.00  0.00     0.125 A 
ATOM     10  C   UNL d   1       0.516  -4.599  -0.217  0.00  0.00     0.154 A 
ATOM     11  C   UNL d   1       0.083  -4.893  -1.603  0.00  0.00     0.259 A 
ATOM     12  C   UNL d   1       0.569  -3.546  -1.985  0.00  0.00     0.254 A 
ATOM     13  O   UNL d   1      -0.457  -5.770  -2.225  0.00  0.00    -0.281 OA
ATOM     14  O   UNL d   1       0.565  -2.939  -3.026  0.00  0.00    -0.281 OA
BRANCH  10  15
ATOM     15  O   UNL d   1       0.465  -5.313   0.851  0.00  0.00    -0.345 OA
BRANCH  15  16
ATOM     16  C   UNL d   1       0.455  -4.581   2.071  0.00  0.00     0.171 C 
ATOM     17  C   UNL d   1       0.402  -5.582   3.212  0.00  0.00     0.034 C 
ENDBRANCH  15  16
ENDBRANCH  10  15
ENDBRANCH   7   9
ENDBRANCH   2   7
BRANCH   1  18
ATOM     18  C   UNL d   1       7.308  -1.456   0.016  0.00  0.00     0.293 C 
ATOM     19  O   UNL d   1       7.864  -0.757   0.847  0.00  0.00    -0.259 OA
BRANCH  18  20
ATOM     20  O   UNL d   1       7.874  -1.992  -1.094  0.00  0.00    -0.318 OA
BRANCH  20  21
ATOM     21  C   UNL d   1       9.098  -1.388  -1.533  0.00  0.00     0.174 C 
ATOM     22  C   UNL d   1       8.738  -0.211  -2.423  0.00  0.00     0.034 C 
ENDBRANCH  20  21
ENDBRANCH  18  20
ENDBRANCH   1  18
TORSDOF 7
