REMARK  7 active torsions:
REMARK  status: ('A' for Active; 'I' for Inactive)
REMARK    1  A    between atoms: C_14  and  C_1 
REMARK    2  A    between atoms: C_4  and  C_2 
REMARK    3  A    between atoms: C_15  and  C_9 
REMARK    4  A    between atoms: C_10  and  C_12 
REMARK    5  A    between atoms: C_11  and  C_13 
REMARK    6  A    between atoms: O_29  and  C_14 
REMARK    7  A    between atoms: C_31  and  O_29 
ROOT
ATOM      1  C   UNL d   1       0.158   3.013   1.026  0.00  0.00     0.081 A 
ATOM      2  O   UNL d   1       0.170   4.322   0.630  0.00  0.00    -0.312 OA
ATOM      3  C   UNL d   1       0.150   5.087   1.760  0.00  0.00     0.086 A 
ATOM      4  C   UNL d   1       0.109   2.939   2.404  0.00  0.00     0.038 A 
ATOM      5  C   UNL d   1       0.094   4.273   2.871  0.00  0.00     0.040 A 
ENDROOT
BRANCH   1   6
ATOM      6  C   UNL d   1       0.247   1.975  -0.051  0.00  0.00     0.185 C 
ATOM      7  C   UNL d   1       1.462   1.081   0.001  0.00  0.00     0.068 C 
ATOM      8  C   UNL d   1       1.358  -0.265  -0.048  0.00  0.00     0.024 C 
ATOM      9  N   UNL d   1       0.099  -0.818  -0.123  0.00  0.00    -0.312 N 
ATOM     10  C   UNL d   1       2.472  -1.276  -0.047  0.00  0.00     0.069 C 
ATOM     11  C   UNL d   1      -1.075  -0.134  -0.085  0.00  0.00     0.321 C 
ATOM     12  H   UNL d   1      -0.007  -1.825  -0.169  0.00  0.00     0.170 HD
ATOM     13  O   UNL d   1      -2.159  -0.704  -0.127  0.00  0.00    -0.247 OA
ATOM     14  N   UNL d   1      -0.985   1.211   0.028  0.00  0.00    -0.328 N 
ATOM     15  H   UNL d   1      -1.867   1.702   0.025  0.00  0.00     0.165 HD
BRANCH   7  16
ATOM     16  C   UNL d   1       2.778   1.756   0.140  0.00  0.00     0.293 C 
ATOM     17  O   UNL d   1       3.745   1.271   0.706  0.00  0.00    -0.259 OA
BRANCH  16  18
ATOM     18  O   UNL d   1       2.742   2.990  -0.423  0.00  0.00    -0.318 OA
BRANCH  18  19
ATOM     19  C   UNL d   1       3.942   3.772  -0.297  0.00  0.00     0.174 C 
ATOM     20  C   UNL d   1       4.135   4.293   1.119  0.00  0.00     0.034 C 
ENDBRANCH  18  19
ENDBRANCH  16  18
ENDBRANCH   7  16
ENDBRANCH   1   6
BRANCH   3  21
ATOM     21  C   UNL d   1       0.247   6.533   1.584  0.00  0.00    -0.001 A 
ATOM     22  C   UNL d   1      -0.220   7.391   2.589  0.00  0.00     0.030 A 
ATOM     23  C   UNL d   1      -0.017   8.780   2.520  0.00  0.00     0.049 A 
ATOM     24  C   UNL d   1       0.649   9.312   1.407  0.00  0.00     0.032 A 
ATOM     25  C   UNL d   1       1.112   8.477   0.377  0.00  0.00     0.049 A 
ATOM     26  C   UNL d   1       0.890   7.091   0.471  0.00  0.00     0.030 A 
BRANCH  23  27
ATOM     27  C   UNL d   1      -0.482   9.657   3.658  0.00  0.00     0.417 C 
ATOM     28  F   UNL d   1      -0.094  10.955   3.537  0.00  0.00    -0.166 F 
ATOM     29  F   UNL d   1      -1.837   9.677   3.780  0.00  0.00    -0.166 F 
ATOM     30  F   UNL d   1      -0.003   9.234   4.861  0.00  0.00    -0.166 F 
ENDBRANCH  23  27
BRANCH  25  31
ATOM     31  C   UNL d   1       1.887   9.036  -0.794  0.00  0.00     0.417 C 
ATOM     32  F   UNL d   1       2.084  10.382  -0.720  0.00  0.00    -0.166 F 
ATOM     33  F   UNL d   1       3.127   8.484  -0.900  0.00  0.00    -0.166 F 
ATOM     34  F   UNL d   1       1.271   8.812  -1.986  0.00  0.00    -0.166 F 
ENDBRANCH  25  31
ENDBRANCH   3  21
TORSDOF 7
