REMARK  1 active torsions:
REMARK  status: ('A' for Active; 'I' for Inactive)
REMARK    1  A    between atoms: C_11  and  C_6 
ROOT
ATOM      1  C   UNL d   1      -0.032  -0.734  -0.024  0.00  0.00     0.092 A 
ATOM      2  C   UNL d   1      -0.049   0.609   0.003  0.00  0.00     0.055 A 
ATOM      3  C   UNL d   1       1.280  -1.427  -0.002  0.00  0.00     0.260 A 
ATOM      4  C   UNL d   1       1.192   1.364   0.008  0.00  0.00     0.044 A 
ATOM      5  N   UNL d   1       2.401  -0.628   0.007  0.00  0.00    -0.326 N 
ATOM      6  C   UNL d   1       2.391   0.755   0.003  0.00  0.00     0.021 A 
ATOM      7  C   UNL d   1      -1.338  -1.444  -0.068  0.00  0.00     0.130 C 
ATOM      8  C   UNL d   1      -1.348   1.349   0.040  0.00  0.00     0.271 C 
ATOM      9  N   UNL d   1      -2.508  -0.742  -0.222  0.00  0.00    -0.282 N 
ATOM     10  N   UNL d   1      -2.497   0.603   0.141  0.00  0.00    -0.264 N 
ATOM     11  O   UNL d   1       1.366  -2.651   0.014  0.00  0.00    -0.267 OA
ATOM     12  N   UNL d   1      -1.452  -2.735   0.029  0.00  0.00    -0.384 N 
ATOM     13  HN  UNL d   1      -2.335  -3.246   0.023  1.00  0.00     0.157 HD
ATOM     14  O   UNL d   1      -1.394   2.576   0.021  0.00  0.00    -0.266 OA
ATOM     15  H   UNL d   1       3.281  -1.131   0.014  0.00  0.00     0.169 HD
ATOM     16  H   UNL d   1      -3.323  -1.286   0.060  0.00  0.00     0.188 HD
ATOM     17  H   UNL d   1      -3.367   1.114   0.024  0.00  0.00     0.190 HD
ATOM     18  H   UNL d   1      -0.514  -3.168   0.114  0.00  0.00     0.157 HD
ENDROOT
BRANCH   6  19
ATOM     19  C   UNL d   1       3.749   1.481  -0.020  0.00  0.00    -0.009 C 
ATOM     20  C   UNL d   1       4.533   1.083  -1.288  0.00  0.00     0.021 C 
ATOM     21  C   UNL d   1       3.605   3.021  -0.031  0.00  0.00     0.021 C 
ATOM     22  C   UNL d   1       4.582   1.108   1.224  0.00  0.00     0.021 C 
ENDBRANCH   6  19
TORSDOF 1
