REMARK  6 active torsions:
REMARK  status: ('A' for Active; 'I' for Inactive)
REMARK    1  A    between atoms: C_11  and  C_1 
REMARK    2  A    between atoms: N_2  and  N_8 
REMARK    3  A    between atoms: S_4  and  N_2 
REMARK       I    between atoms: C_7  and  N_2 
REMARK    4  A    between atoms: C_6  and  S_4 
REMARK    5  A    between atoms: O_17  and  C_7 
REMARK    6  A    between atoms: C_21  and  O_17 
ROOT
ATOM      1  N   UNL d   1       4.204   1.507  -0.157  0.00  0.00    -0.293 N 
ATOM      2  HN  UNL d   1       3.769   2.422  -0.278  1.00  0.00     0.187 HD
ATOM      3  C   UNL d   1       3.507   0.427   0.024  0.00  0.00     0.127 C 
ENDROOT
BRANCH   1   4
ATOM      4  N   UNL d   1       5.577   1.334  -0.174  0.00  0.00    -0.167 N 
ATOM      5  C   UNL d   1       6.171   0.211  -0.786  0.00  0.00     0.392 C 
ATOM      6  O   UNL d   1       5.572  -0.548  -1.546  0.00  0.00    -0.235 OA
BRANCH   4   7
ATOM      7  S   UNL d   1       6.425   2.470   0.768  0.00  0.00     0.035 SA
BRANCH   7   8
ATOM      8  C   UNL d   1       7.149   3.587  -0.474  0.00  0.00     0.258 C 
ATOM      9 CL   UNL d   1       6.300   3.621  -2.042  0.00  0.00    -0.070 Cl
ATOM     10 CL   UNL d   1       7.120   5.260   0.197  0.00  0.00    -0.070 Cl
ATOM     11 CL   UNL d   1       8.865   3.151  -0.755  0.00  0.00    -0.070 Cl
ENDBRANCH   7   8
ENDBRANCH   4   7
BRANCH   5  12
ATOM     12  O   UNL d   1       7.444  -0.033  -0.352  0.00  0.00    -0.302 OA
BRANCH  12  13
ATOM     13  C   UNL d   1       7.860  -1.402  -0.501  0.00  0.00     0.176 C 
ATOM     14  C   UNL d   1       7.375  -2.192   0.706  0.00  0.00     0.034 C 
ENDBRANCH  12  13
ENDBRANCH   5  12
ENDBRANCH   1   4
BRANCH   3  15
ATOM     15  C   UNL d   1       2.061   0.406   0.025  0.00  0.00     0.029 A 
ATOM     16  S   UNL d   1       1.335  -0.943   0.778  0.00  0.00    -0.088 SA
ATOM     17  C   UNL d   1      -0.250  -0.389   0.453  0.00  0.00     0.016 A 
ATOM     18  C   UNL d   1      -1.453  -1.025   0.811  0.00  0.00     0.019 A 
ATOM     19  C   UNL d   1      -0.230   0.820  -0.246  0.00  0.00    -0.012 A 
ATOM     20  C   UNL d   1      -2.663  -0.438   0.445  0.00  0.00     0.001 A 
ATOM     21  C   UNL d   1      -2.682   0.757  -0.258  0.00  0.00     0.001 A 
ATOM     22  C   UNL d   1      -1.481   1.386  -0.604  0.00  0.00     0.013 A 
ATOM     23  C   UNL d   1       1.126   1.289  -0.493  0.00  0.00    -0.032 A 
ATOM     24  C   UNL d   1       1.415   2.551  -1.241  0.00  0.00     0.050 C 
ENDBRANCH   3  15
TORSDOF 6
