REMARK  4 active torsions:
REMARK  status: ('A' for Active; 'I' for Inactive)
REMARK    1  A    between atoms: C_7  and  C_1 
REMARK    2  A    between atoms: C_5  and  C_8 
REMARK    3  A    between atoms: C_8  and  O_11 
REMARK    4  A    between atoms: O_11  and  N_9 
ROOT
ATOM      1  C   UNL d   1       3.591   0.080  -0.067  0.00  0.00     0.046 C 
ATOM      2  N   UNL d   1       4.467  -0.873  -0.224  0.00  0.00    -0.261 N 
ATOM      3  HN  UNL d   1       5.461  -0.716  -0.393  1.00  0.00     0.194 HD
ATOM      4  C   UNL d   1       2.119  -0.226   0.166  0.00  0.00     0.071 C 
ENDROOT
BRANCH   1   5
ATOM      5  C   UNL d   1       4.023   1.481  -0.144  0.00  0.00     0.036 A 
ATOM      6  S   UNL d   1       2.918   2.650  -0.742  0.00  0.00    -0.087 SA
ATOM      7  C   UNL d   1       3.993   3.957  -0.500  0.00  0.00     0.016 A 
ATOM      8  C   UNL d   1       3.729   5.322  -0.735  0.00  0.00     0.019 A 
ATOM      9  C   UNL d   1       5.227   3.514  -0.029  0.00  0.00    -0.012 A 
ATOM     10  C   UNL d   1       4.735   6.261  -0.498  0.00  0.00     0.001 A 
ATOM     11  C   UNL d   1       5.979   5.851  -0.045  0.00  0.00     0.001 A 
ATOM     12  C   UNL d   1       6.233   4.494   0.188  0.00  0.00     0.013 A 
ATOM     13  C   UNL d   1       5.245   2.070   0.175  0.00  0.00    -0.031 A 
ATOM     14  C   UNL d   1       6.458   1.367   0.706  0.00  0.00     0.050 C 
ENDBRANCH   1   5
BRANCH   2  15
ATOM     15  O   UNL d   1       3.869  -2.153  -0.131  0.00  0.00    -0.195 OA
BRANCH  15  16
ATOM     16  C   UNL d   1       4.747  -3.130  -0.500  0.00  0.00     0.316 C 
ATOM     17  O   UNL d   1       5.910  -2.990  -0.856  0.00  0.00    -0.257 OA
BRANCH  16  18
ATOM     18  C   UNL d   1       4.150  -4.479  -0.301  0.00  0.00     0.063 A 
ATOM     19  C   UNL d   1       2.817  -4.821  -0.574  0.00  0.00     0.050 A 
ATOM     20 CL   UNL d   1       1.663  -3.724  -1.241  0.00  0.00    -0.083 Cl
ATOM     21  C   UNL d   1       2.377  -6.136  -0.358  0.00  0.00     0.025 A 
ATOM     22  C   UNL d   1       3.253  -7.114   0.112  0.00  0.00     0.002 A 
ATOM     23  C   UNL d   1       4.580  -6.788   0.366  0.00  0.00     0.001 A 
ATOM     24  C   UNL d   1       5.026  -5.480   0.160  0.00  0.00     0.019 A 
ENDBRANCH  16  18
ENDBRANCH  15  16
ENDBRANCH   2  15
TORSDOF 4
