REMARK  0 active torsions:
REMARK  status: ('A' for Active; 'I' for Inactive)
ROOT
ATOM      1  N   UNL d   1      -0.007  -1.632   0.001  0.00  0.00    -0.354 N 
ATOM      2  C   UNL d   1       1.132  -0.859  -0.000  0.00  0.00     0.061 A 
ATOM      3  C   UNL d   1       0.719   0.474  -0.000  0.00  0.00     0.006 A 
ATOM      4  C   UNL d   1      -0.714   0.480   0.000  0.00  0.00     0.004 A 
ATOM      5  C   UNL d   1      -1.136  -0.850   0.000  0.00  0.00     0.043 A 
ATOM      6  C   UNL d   1       2.483  -1.225  -0.000  0.00  0.00     0.039 A 
ATOM      7  C   UNL d   1       3.446  -0.215  -0.001  0.00  0.00     0.040 A 
ATOM      8  C   UNL d   1       1.703   1.485  -0.001  0.00  0.00     0.033 A 
ATOM      9  C   UNL d   1      -1.690   1.498   0.000  0.00  0.00     0.033 A 
ATOM     10  C   UNL d   1       3.054   1.121  -0.001  0.00  0.00     0.013 A 
ATOM     11  C   UNL d   1      -2.486  -1.219   0.000  0.00  0.00     0.031 A 
ATOM     12 BR   UNL d   1       3.006  -3.040   0.000  0.00  0.00    -0.049 Br
ATOM     13  C   UNL d   1      -3.042   1.141   0.000  0.00  0.00     0.011 A 
ATOM     14 BR   UNL d   1       4.376   2.476  -0.002  0.00  0.00    -0.051 Br
ATOM     15  C   UNL d   1      -3.437  -0.195   0.000  0.00  0.00     0.021 A 
ATOM     16 BR   UNL d   1      -4.360   2.500   0.000  0.00  0.00    -0.051 Br
ATOM     17  H   UNL d   1      -0.005  -2.642   0.001  0.00  0.00     0.166 HD
ENDROOT
TORSDOF 0
