REMARK  4 active torsions:
REMARK  status: ('A' for Active; 'I' for Inactive)
REMARK    1  A    between atoms: C_4  and  C_1 
REMARK    2  A    between atoms: C_11  and  C_10 
REMARK    3  A    between atoms: O_20  and  C_11 
REMARK    4  A    between atoms: O_22  and  C_18 
ROOT
ATOM      1  C   UNL d   1       0.043  -1.684   0.121  0.00  0.00     0.001 A 
ATOM      2  C   UNL d   1       1.165   0.505   0.130  0.00  0.00     0.091 A 
ATOM      3  C   UNL d   1       1.199  -0.967   0.094  0.00  0.00     0.010 A 
ATOM      4  O   UNL d   1      -0.045   1.183   0.138  0.00  0.00    -0.309 OA
ATOM      5  C   UNL d   1      -1.213   0.468   0.145  0.00  0.00     0.089 A 
ATOM      6  C   UNL d   1      -1.235  -0.926   0.180  0.00  0.00     0.010 A 
ATOM      7  C   UNL d   1       2.295   1.228   0.116  0.00  0.00     0.092 A 
ATOM      8  C   UNL d   1       2.516  -1.612  -0.005  0.00  0.00     0.019 A 
ATOM      9  C   UNL d   1      -2.395   1.211   0.107  0.00  0.00     0.074 A 
ATOM     10  C   UNL d   1       3.650  -0.900  -0.022  0.00  0.00     0.056 A 
ATOM     11  C   UNL d   1       3.616   0.576   0.053  0.00  0.00     0.174 A 
ATOM     12  C   UNL d   1      -2.485  -1.568   0.231  0.00  0.00     0.018 A 
ATOM     13  O   UNL d   1       4.649   1.234   0.048  0.00  0.00    -0.288 OA
ATOM     14  C   UNL d   1      -3.617   0.553   0.117  0.00  0.00     0.068 A 
ATOM     15  C   UNL d   1      -3.675  -0.832   0.196  0.00  0.00     0.037 A 
ENDROOT
BRANCH   1  16
ATOM     16  C   UNL d   1       0.071  -3.166  -0.033  0.00  0.00    -0.008 A 
ATOM     17  C   UNL d   1       0.250  -4.097   1.011  0.00  0.00     0.050 A 
ATOM     18  C   UNL d   1       0.279  -5.471   0.702  0.00  0.00     0.018 A 
ATOM     19  C   UNL d   1       0.130  -5.921  -0.610  0.00  0.00     0.001 A 
ATOM     20  C   UNL d   1      -0.047  -5.004  -1.639  0.00  0.00     0.001 A 
ATOM     21  C   UNL d   1      -0.078  -3.640  -1.353  0.00  0.00     0.013 A 
BRANCH  17  22
ATOM     22  C   UNL d   1       0.472  -3.754   2.443  0.00  0.00     0.293 C 
ATOM     23  O   UNL d   1       1.047  -4.509   3.215  0.00  0.00    -0.259 OA
BRANCH  22  24
ATOM     24  O   UNL d   1      -0.079  -2.565   2.773  0.00  0.00    -0.322 OA
ATOM     25  C   UNL d   1       0.125  -2.164   4.130  0.00  0.00     0.213 C 
ENDBRANCH  22  24
ENDBRANCH  17  22
ENDBRANCH   1  16
BRANCH  14  26
ATOM     26  O   UNL d   1      -4.749   1.308   0.043  0.00  0.00    -0.361 OA
ATOM     27  H   UNL d   1      -5.519   0.718   0.006  0.00  0.00     0.217 HD
ENDBRANCH  14  26
TORSDOF 4
