REMARK  3 active torsions:
REMARK  status: ('A' for Active; 'I' for Inactive)
REMARK    1  A    between atoms: C_4  and  N_1 
REMARK    2  A    between atoms: N_2  and  C_5 
REMARK    3  A    between atoms: N_3  and  C_7 
ROOT
ATOM      1  N   UNL d   1      -2.136  -0.941  -4.631  0.00  0.00    -0.381 N 
ATOM      2  C   UNL d   1      -4.221  -1.113  -6.591  0.00  0.00     0.091 C 
ATOM      3  C   UNL d   1      -3.566   0.220  -6.208  0.00  0.00     0.045 C 
ATOM      4  C   UNL d   1      -4.020  -2.200  -5.524  0.00  0.00     0.045 C 
ATOM      5  C   UNL d   1      -2.138   0.058  -5.701  0.00  0.00     0.125 C 
ATOM      6  C   UNL d   1      -2.587  -2.284  -5.012  0.00  0.00     0.125 C 
ENDROOT
BRANCH   1   7
ATOM      7  C   UNL d   1      -1.311  -0.796  -3.526  0.00  0.00     0.030 A 
ATOM      8  C   UNL d   1      -1.651  -1.419  -2.310  0.00  0.00     0.032 A 
ATOM      9  C   UNL d   1      -0.900  -1.238  -1.146  0.00  0.00     0.038 A 
ATOM     10  C   UNL d   1       0.225  -0.414  -1.180  0.00  0.00     0.103 A 
ATOM     11  C   UNL d   1       0.603   0.211  -2.370  0.00  0.00     0.038 A 
ATOM     12  C   UNL d   1      -0.164   0.013  -3.527  0.00  0.00     0.032 A 
BRANCH  10  13
ATOM     13  N   UNL d   1       1.001  -0.194   0.042  0.00  0.00    -0.116 N 
ATOM     14  O   UNL d   1       1.986   0.555  -0.024  0.00  0.00    -0.532 OA
ATOM     15  O   UNL d   1       0.624  -0.766   1.077  0.00  0.00    -0.532 OA
ENDBRANCH  10  13
ENDBRANCH   1   7
BRANCH   2  16
ATOM     16  N   UNL d   1      -3.883  -1.539  -7.950  0.00  0.00    -0.362 N 
ATOM     17  C   UNL d   1      -2.668  -1.964  -8.414  0.00  0.00     0.091 A 
ATOM     18  C   UNL d   1      -2.789  -2.234  -9.762  0.00  0.00     0.019 A 
ATOM     19  C   UNL d   1      -4.123  -1.958 -10.127  0.00  0.00     0.019 A 
ATOM     20  C   UNL d   1      -4.778  -1.533  -8.994  0.00  0.00     0.091 A 
ENDBRANCH   2  16
TORSDOF 3
