REMARK  4 active torsions:
REMARK  status: ('A' for Active; 'I' for Inactive)
REMARK    1  A    between atoms: C_13  and  C_5 
REMARK    2  A    between atoms: O_12  and  N_7 
REMARK    3  A    between atoms: C_9  and  O_12 
REMARK       I    between atoms: N_11  and  C_9 
REMARK    4  A    between atoms: C_15  and  N_11 
ROOT
ATOM      1  S   UNL d   1       0.756  -1.515   0.126  0.00  0.00    -0.042 SA
ATOM      2  C   UNL d   1       1.459   0.070   0.461  0.00  0.00     0.099 C 
ATOM      3  C   UNL d   1       0.279  -1.331  -1.556  0.00  0.00     0.156 C 
ATOM      4  N   UNL d   1       0.550   1.044  -1.620  0.00  0.00    -0.222 NA
ATOM      5  C   UNL d   1       0.747   1.292  -0.173  0.00  0.00     0.168 C 
ATOM      6  N   UNL d   1      -0.280  -0.086  -1.869  0.00  0.00    -0.300 N 
ATOM      7  N   UNL d   1       2.436   0.006   1.327  0.00  0.00    -0.251 N 
ATOM      8  HN  UNL d   1       2.782  -0.863   1.734  1.00  0.00     0.195 HD
ATOM      9  S   UNL d   1       0.353  -2.658  -2.585  0.00  0.00    -0.051 SA
ATOM     10  C   UNL d   1      -1.235   0.060  -2.975  0.00  0.00     0.173 C 
ATOM     11  H   UNL d   1       0.113   1.882  -2.016  0.00  0.00     0.148 HD
ENDROOT
BRANCH   5  12
ATOM     12  C   UNL d   1       1.408   2.654   0.013  0.00  0.00    -0.033 A 
ATOM     13  C   UNL d   1       2.463   3.086  -0.814  0.00  0.00     0.009 A 
ATOM     14  C   UNL d   1       3.110   4.299  -0.572  0.00  0.00     0.001 A 
ATOM     15  C   UNL d   1       2.721   5.095   0.502  0.00  0.00     0.000 A 
ATOM     16  C   UNL d   1       1.672   4.690   1.324  0.00  0.00     0.001 A 
ATOM     17  C   UNL d   1       1.012   3.484   1.078  0.00  0.00     0.009 A 
ENDBRANCH   5  12
BRANCH   7  18
ATOM     18  O   UNL d   1       2.949   1.270   1.628  0.00  0.00    -0.180 OA
BRANCH  18  19
ATOM     19  C   UNL d   1       3.947   1.280   2.580  0.00  0.00     0.387 C 
ATOM     20  N   UNL d   1       4.178   0.069   3.189  0.00  0.00    -0.301 N 
ATOM     21  H   UNL d   1       3.575  -0.668   2.847  0.00  0.00     0.171 HD
ATOM     22  O   UNL d   1       4.521   2.341   2.825  0.00  0.00    -0.236 OA
BRANCH  20  23
ATOM     23  C   UNL d   1       5.146  -0.218   4.174  0.00  0.00     0.036 A 
ATOM     24  C   UNL d   1       6.055   0.728   4.660  0.00  0.00     0.029 A 
ATOM     25  C   UNL d   1       7.021   0.380   5.610  0.00  0.00     0.002 A 
ATOM     26  C   UNL d   1       7.085  -0.921   6.093  0.00  0.00     0.000 A 
ATOM     27  C   UNL d   1       6.175  -1.872   5.633  0.00  0.00     0.002 A 
ATOM     28  C   UNL d   1       5.210  -1.522   4.680  0.00  0.00     0.029 A 
ENDBRANCH  20  23
ENDBRANCH  18  19
ENDBRANCH   7  18
TORSDOF 4
