REMARK  3 active torsions:
REMARK  status: ('A' for Active; 'I' for Inactive)
REMARK    1  A    between atoms: C_11  and  C_1 
REMARK    2  A    between atoms: C_5  and  C_8 
REMARK    3  A    between atoms: C_13  and  C_7 
ROOT
ATOM      1  C   UNL d   1       1.030   0.589   0.089  0.00  0.00     0.140 C 
ATOM      2  N   UNL d   1      -0.265   1.156  -0.074  0.00  0.00    -0.351 N 
ATOM      3  N   UNL d   1       1.007  -0.701   0.238  0.00  0.00    -0.303 N 
ATOM      4  HN  UNL d   1       1.806  -1.328   0.326  1.00  0.00     0.182 HD
ATOM      5  N   UNL d   1      -0.329  -1.043   0.254  0.00  0.00    -0.211 NA
ATOM      6  C   UNL d   1      -1.203   0.057  -0.160  0.00  0.00     0.209 C 
ATOM      7  H   UNL d   1      -0.400   2.144  -0.224  0.00  0.00     0.163 HD
ATOM      8  H   UNL d   1      -0.533  -1.913  -0.239  0.00  0.00     0.149 HD
ENDROOT
BRANCH   1   9
ATOM      9  C   UNL d   1       2.209   1.464  -0.029  0.00  0.00     0.077 A 
ATOM     10  N   UNL d   1       1.938   2.781  -0.252  0.00  0.00    -0.362 N 
ATOM     11  C   UNL d   1       3.009   3.595  -0.422  0.00  0.00     0.104 A 
ATOM     12  HN  UNL d   1       0.982   3.134  -0.289  1.00  0.00     0.165 HD
ATOM     13  C   UNL d   1       4.329   3.161  -0.388  0.00  0.00     0.063 A 
ATOM     14  C   UNL d   1       4.562   1.797  -0.165  0.00  0.00     0.020 A 
ATOM     15  C   UNL d   1       3.488   0.930   0.017  0.00  0.00     0.034 A 
BRANCH  13  16
ATOM     16  C   UNL d   1       5.463   4.125  -0.580  0.00  0.00     0.418 C 
ATOM     17  F   UNL d   1       5.054   5.404  -0.798  0.00  0.00    -0.166 F 
ATOM     18  F   UNL d   1       6.287   4.171   0.502  0.00  0.00    -0.166 F 
ATOM     19  F   UNL d   1       6.248   3.794  -1.640  0.00  0.00    -0.166 F 
ENDBRANCH  13  16
ENDBRANCH   1   9
BRANCH   6  20
ATOM     20  C   UNL d   1      -1.688  -0.047  -1.592  0.00  0.00    -0.020 A 
ATOM     21  C   UNL d   1      -0.792  -0.215  -2.665  0.00  0.00     0.012 A 
ATOM     22  C   UNL d   1      -1.249  -0.293  -3.983  0.00  0.00     0.024 A 
ATOM     23  C   UNL d   1      -2.612  -0.206  -4.245  0.00  0.00     0.034 A 
ATOM     24  C   UNL d   1      -3.518  -0.040  -3.200  0.00  0.00     0.024 A 
ATOM     25 CL   UNL d   1      -3.176  -0.305  -5.865  0.00  0.00    -0.084 Cl
ATOM     26  C   UNL d   1      -3.061   0.041  -1.879  0.00  0.00     0.012 A 
ENDBRANCH   6  20
TORSDOF 3
