REMARK  9 active torsions:
REMARK  status: ('A' for Active; 'I' for Inactive)
REMARK    1  A    between atoms: N_6  and  C_1 
REMARK    2  A    between atoms: N_7  and  C_1 
REMARK    3  A    between atoms: C_2  and  C_5 
REMARK    4  A    between atoms: C_3  and  C_4 
REMARK    5  A    between atoms: C_8  and  N_6 
REMARK    6  A    between atoms: C_15  and  N_7 
REMARK    7  A    between atoms: C_25  and  N_7 
REMARK    8  A    between atoms: C_24  and  C_15 
REMARK    9  A    between atoms: C_23  and  C_25 
ROOT
ATOM      1  N   UNL d   1      -4.387  -0.492  -1.710  0.00  0.00    -0.197 NA
ATOM      2  C   UNL d   1      -3.230  -0.385  -1.641  0.00  0.00     0.060 C 
ATOM      3  C   UNL d   1      -1.772  -0.262  -1.550  0.00  0.00     0.143 C 
ENDROOT
BRANCH   3   4
ATOM      4  C   UNL d   1      -1.223  -1.234  -0.498  0.00  0.00     0.139 C 
BRANCH   4   5
ATOM      5  N   UNL d   1       0.246  -1.182  -0.416  0.00  0.00    -0.355 N 
BRANCH   5   6
ATOM      6  C   UNL d   1       0.885  -0.251   0.400  0.00  0.00     0.174 C 
ATOM      7  S   UNL d   1       2.156   0.698  -0.155  0.00  0.00    -0.041 SA
BRANCH   6   8
ATOM      8  N   UNL d   1       0.414  -0.290   1.709  0.00  0.00    -0.333 N 
ATOM      9  H   UNL d   1       0.375  -1.240   2.068  0.00  0.00     0.168 HD
BRANCH   8  10
ATOM     10  C   UNL d   1       0.543   0.753   2.644  0.00  0.00     0.035 A 
ATOM     11  C   UNL d   1       0.228   2.057   2.260  0.00  0.00     0.045 A 
ATOM     12  C   UNL d   1       0.389   3.128   3.142  0.00  0.00     0.050 A 
ATOM     13  C   UNL d   1       0.847   2.869   4.442  0.00  0.00     0.032 A 
ATOM     14  C   UNL d   1       1.139   1.557   4.857  0.00  0.00     0.050 A 
ATOM     15  C   UNL d   1       0.950   0.493   3.953  0.00  0.00     0.045 A 
BRANCH  12  16
ATOM     16  C   UNL d   1       0.080   4.520   2.656  0.00  0.00     0.417 C 
ATOM     17  F   UNL d   1       0.338   5.487   3.576  0.00  0.00    -0.166 F 
ATOM     18  F   UNL d   1       0.799   4.851   1.549  0.00  0.00    -0.166 F 
ATOM     19  F   UNL d   1      -1.229   4.668   2.309  0.00  0.00    -0.166 F 
ENDBRANCH  12  16
BRANCH  14  20
ATOM     20  C   UNL d   1       1.692   1.296   6.241  0.00  0.00     0.417 C 
ATOM     21  F   UNL d   1       1.928   2.434   6.953  0.00  0.00    -0.166 F 
ATOM     22  F   UNL d   1       0.854   0.545   7.006  0.00  0.00    -0.166 F 
ATOM     23  F   UNL d   1       2.877   0.626   6.211  0.00  0.00    -0.166 F 
ENDBRANCH  14  20
ENDBRANCH   8  10
ENDBRANCH   6   8
ENDBRANCH   5   6
BRANCH   5  24
ATOM     24  C   UNL d   1       1.020  -2.190  -1.165  0.00  0.00     0.157 C 
BRANCH  24  25
ATOM     25  C   UNL d   1       1.649  -3.225  -0.217  0.00  0.00     0.139 C 
ATOM     26  O   UNL d   1       0.645  -3.896   0.573  0.00  0.00    -0.384 OA
ATOM     27  C   UNL d   1       1.103  -5.234   0.833  0.00  0.00     0.168 C 
ATOM     28  C   UNL d   1       2.431  -5.407   0.121  0.00  0.00     0.029 C 
ATOM     29  C   UNL d   1       2.385  -4.337  -0.941  0.00  0.00     0.035 C 
ENDBRANCH  24  25
ENDBRANCH   5  24
ENDBRANCH   4   5
ENDBRANCH   3   4
TORSDOF 9
