REMARK  4 active torsions:
REMARK  status: ('A' for Active; 'I' for Inactive)
REMARK    1  A    between atoms: C_7  and  C_1 
REMARK       I    between atoms: C_6  and  N_11 
REMARK       I    between atoms: N_10  and  C_6 
REMARK    2  A    between atoms: N_11  and  N_8 
REMARK    3  A    between atoms: C_13  and  N_10 
REMARK    4  A    between atoms: C_15  and  C_13 
ROOT
ATOM      1  C   UNL d   1       3.353   2.161  -0.689  0.00  0.00     0.126 C 
ATOM      2  N   UNL d   1       4.165   1.282  -0.178  0.00  0.00    -0.307 N 
ATOM      3  HN  UNL d   1       3.810   0.427   0.251  1.00  0.00     0.186 HD
ENDROOT
BRANCH   2   4
ATOM      4  N   UNL d   1       5.527   1.539  -0.232  0.00  0.00    -0.252 N 
ATOM      5  C   UNL d   1       6.114   2.795  -0.103  0.00  0.00     0.335 C 
ATOM      6  N   UNL d   1       7.494   2.741  -0.200  0.00  0.00    -0.338 N 
ATOM      7  O   UNL d   1       5.506   3.851   0.018  0.00  0.00    -0.246 OA
ATOM      8  H   UNL d   1       7.955   1.869   0.017  0.00  0.00     0.164 HD
ATOM      9  H   UNL d   1       6.086   0.742   0.043  0.00  0.00     0.191 HD
BRANCH   6  10
ATOM     10  C   UNL d   1       8.270   3.952  -0.033  0.00  0.00     0.162 C 
BRANCH  10  11
ATOM     11  C   UNL d   1       9.629   3.884  -0.688  0.00  0.00    -0.040 A 
ATOM     12  C   UNL d   1       9.746   3.633  -2.063  0.00  0.00     0.009 A 
ATOM     13  C   UNL d   1      10.994   3.667  -2.692  0.00  0.00     0.001 A 
ATOM     14  C   UNL d   1      12.140   3.958  -1.955  0.00  0.00     0.000 A 
ATOM     15  C   UNL d   1      12.039   4.211  -0.589  0.00  0.00     0.001 A 
ATOM     16  C   UNL d   1      10.792   4.176   0.042  0.00  0.00     0.009 A 
ENDBRANCH  10  11
ENDBRANCH   6  10
ENDBRANCH   2   4
BRANCH   1  17
ATOM     17  C   UNL d   1       1.904   2.010  -0.705  0.00  0.00     0.029 A 
ATOM     18  S   UNL d   1       1.164   0.620  -0.039  0.00  0.00    -0.088 SA
ATOM     19  C   UNL d   1      -0.422   1.134  -0.463  0.00  0.00     0.016 A 
ATOM     20  C   UNL d   1      -1.639   0.461  -0.219  0.00  0.00     0.019 A 
ATOM     21  C   UNL d   1      -0.391   2.365  -1.118  0.00  0.00    -0.012 A 
ATOM     22  C   UNL d   1      -2.838   1.036  -0.655  0.00  0.00     0.001 A 
ATOM     23  C   UNL d   1      -2.832   2.248  -1.324  0.00  0.00     0.001 A 
ATOM     24  C   UNL d   1      -1.627   2.913  -1.557  0.00  0.00     0.013 A 
ATOM     25  C   UNL d   1       0.959   2.886  -1.229  0.00  0.00    -0.032 A 
ATOM     26  C   UNL d   1       1.238   4.221  -1.851  0.00  0.00     0.050 C 
ENDBRANCH   1  17
TORSDOF 4
