REMARK  6 active torsions:
REMARK  status: ('A' for Active; 'I' for Inactive)
REMARK    1  A    between atoms: N_3  and  C_1 
REMARK    2  A    between atoms: C_2  and  N_3 
REMARK    3  A    between atoms: C_13  and  N_7 
REMARK    4  A    between atoms: C_10  and  C_13 
REMARK    5  A    between atoms: C_16  and  C_10 
REMARK    6  A    between atoms: O_12  and  C_16 
ROOT
ATOM      1  N   UNL d   1      -0.419   2.081  -0.008  0.00  0.00    -0.331 N 
ATOM      2  H   UNL d   1      -0.716   1.109  -0.071  0.00  0.00     0.168 HD
ENDROOT
BRANCH   1   3
ATOM      3  C   UNL d   1      -1.446   2.906  -0.348  0.00  0.00     0.172 C 
ATOM      4  S   UNL d   1      -2.748   2.188  -1.118  0.00  0.00    -0.041 SA
ATOM      5  N   UNL d   1      -1.402   4.197   0.071  0.00  0.00    -0.367 N 
ATOM      6  H   UNL d   1      -0.511   4.524   0.413  0.00  0.00     0.161 HD
BRANCH   5   7
ATOM      7  C   UNL d   1      -2.446   5.211  -0.027  0.00  0.00     0.124 C 
BRANCH   7   8
ATOM      8  C   UNL d   1      -3.479   5.103   1.091  0.00  0.00     0.046 C 
BRANCH   8   9
ATOM      9  C   UNL d   1      -2.840   5.157   2.473  0.00  0.00     0.168 C 
BRANCH   9  10
ATOM     10  O   UNL d   1      -3.868   5.074   3.459  0.00  0.00    -0.396 OA
ATOM     11  C   UNL d   1      -3.322   5.019   4.771  0.00  0.00     0.201 C 
ENDBRANCH   9  10
ENDBRANCH   8   9
ENDBRANCH   7   8
ENDBRANCH   5   7
ENDBRANCH   1   3
BRANCH   1  12
ATOM     12  C   UNL d   1       0.875   2.242   0.557  0.00  0.00     0.078 A 
ATOM     13  C   UNL d   1       1.722   3.358   0.440  0.00  0.00     0.062 A 
ATOM     14 CL   UNL d   1       1.402   4.724  -0.570  0.00  0.00    -0.082 Cl
ATOM     15  C   UNL d   1       2.986   3.367   1.057  0.00  0.00     0.026 A 
ATOM     16  C   UNL d   1       3.446   2.263   1.770  0.00  0.00     0.003 A 
ATOM     17  C   UNL d   1       2.648   1.131   1.859  0.00  0.00     0.026 A 
ATOM     18  C   UNL d   1       1.386   1.120   1.254  0.00  0.00     0.062 A 
ATOM     19 CL   UNL d   1       0.452  -0.336   1.414  0.00  0.00    -0.082 Cl
ENDBRANCH   1  12
TORSDOF 6
