REMARK  6 active torsions:
REMARK  status: ('A' for Active; 'I' for Inactive)
REMARK    1  A    between atoms: C_12  and  C_2 
REMARK    2  A    between atoms: S_13  and  C_5 
REMARK    3  A    between atoms: C_8  and  C_9 
REMARK    4  A    between atoms: C_18  and  S_13 
REMARK    5  A    between atoms: C_15  and  C_18 
REMARK    6  A    between atoms: C_16  and  C_15 
ROOT
ATOM      1  S   UNL d   1       1.172  -0.017   0.198  0.00  0.00    -0.043 SA
ATOM      2  C   UNL d   1      -0.056   1.179  -0.004  0.00  0.00     0.118 A 
ATOM      3  N   UNL d   1      -1.275   0.667  -0.053  0.00  0.00    -0.291 N 
ATOM      4  HN  UNL d   1      -2.118   1.226  -0.183  1.00  0.00     0.187 HD
ATOM      5  C   UNL d   1      -0.068  -1.192   0.243  0.00  0.00     0.129 A 
ATOM      6  N   UNL d   1      -1.281  -0.710   0.089  0.00  0.00    -0.287 N 
ATOM      7  HN  UNL d   1      -2.125  -1.282   0.077  1.00  0.00     0.188 HD
ENDROOT
BRANCH   2   8
ATOM      8  C   UNL d   1       0.274   2.611  -0.089  0.00  0.00     0.067 A 
ATOM      9  N   UNL d   1       1.590   2.944  -0.049  0.00  0.00    -0.363 N 
ATOM     10  C   UNL d   1       1.917   4.257  -0.107  0.00  0.00     0.104 A 
ATOM     11  HN  UNL d   1       2.311   2.226   0.023  1.00  0.00     0.165 HD
ATOM     12  C   UNL d   1       0.991   5.282  -0.204  0.00  0.00     0.063 A 
ATOM     13  C   UNL d   1      -0.360   4.924  -0.246  0.00  0.00     0.020 A 
ATOM     14  C   UNL d   1      -0.724   3.576  -0.189  0.00  0.00     0.033 A 
BRANCH  12  15
ATOM     15  C   UNL d   1       1.433   6.713  -0.263  0.00  0.00     0.418 C 
ATOM     16  F   UNL d   1       2.784   6.870  -0.205  0.00  0.00    -0.166 F 
ATOM     17  F   UNL d   1       1.034   7.333  -1.407  0.00  0.00    -0.166 F 
ATOM     18  F   UNL d   1       0.928   7.455   0.760  0.00  0.00    -0.166 F 
ENDBRANCH  12  15
ENDBRANCH   2   8
BRANCH   5  19
ATOM     19  S   UNL d   1       0.267  -2.889   0.487  0.00  0.00    -0.096 SA
BRANCH  19  20
ATOM     20  C   UNL d   1      -1.407  -3.588   0.460  0.00  0.00     0.165 C 
BRANCH  20  21
ATOM     21  C   UNL d   1      -1.404  -5.079   0.770  0.00  0.00     0.169 C 
ATOM     22  O   UNL d   1      -0.400  -5.712   1.098  0.00  0.00    -0.291 OA
BRANCH  21  23
ATOM     23  C   UNL d   1      -2.702  -5.821   0.667  0.00  0.00     0.011 A 
ATOM     24  C   UNL d   1      -3.919  -5.179   0.399  0.00  0.00     0.017 A 
ATOM     25  C   UNL d   1      -5.096  -5.926   0.278  0.00  0.00     0.025 A 
ATOM     26  C   UNL d   1      -5.065  -7.312   0.426  0.00  0.00     0.034 A 
ATOM     27  C   UNL d   1      -3.866  -7.960   0.712  0.00  0.00     0.025 A 
ATOM     28 CL   UNL d   1      -6.511  -8.224   0.245  0.00  0.00    -0.084 Cl
ATOM     29  C   UNL d   1      -2.689  -7.216   0.835  0.00  0.00     0.017 A 
ENDBRANCH  21  23
ENDBRANCH  20  21
ENDBRANCH  19  20
ENDBRANCH   5  19
TORSDOF 6
