REMARK  1 active torsions:
REMARK  status: ('A' for Active; 'I' for Inactive)
REMARK    1  A    between atoms: C_2  and  C_1 
ROOT
ATOM      1  C   UNL d   1       3.946   0.138  -0.540  0.00  0.00     0.170 C 
ATOM      2  N   UNL d   1       4.518  -0.668  -1.370  0.00  0.00    -0.302 N 
ATOM      3  HN  UNL d   1       3.965  -1.361  -1.874  1.00  0.00     0.171 HD
ATOM      4  C   UNL d   1       5.869  -0.589  -1.568  0.00  0.00     0.260 C 
ATOM      5  O   UNL d   1       4.575   1.108   0.221  0.00  0.00    -0.291 OA
ATOM      6  C   UNL d   1       6.657   0.299  -0.702  0.00  0.00     0.066 A 
ATOM      7  C   UNL d   1       5.963   1.125   0.164  0.00  0.00     0.093 A 
ATOM      8  O   UNL d   1       6.452  -1.241  -2.425  0.00  0.00    -0.267 OA
ATOM      9  C   UNL d   1       8.054   0.322  -0.722  0.00  0.00     0.020 A 
ATOM     10  C   UNL d   1       6.636   1.992   1.020  0.00  0.00     0.038 A 
ATOM     11  C   UNL d   1       8.740   1.179   0.143  0.00  0.00     0.001 A 
ATOM     12  C   UNL d   1       8.031   2.014   1.011  0.00  0.00     0.003 A 
ENDROOT
BRANCH   1  13
ATOM     13  C   UNL d   1       2.532   0.092  -0.242  0.00  0.00     0.079 A 
ATOM     14  S   UNL d   1       1.724  -1.414  -0.318  0.00  0.00    -0.084 SA
ATOM     15  C   UNL d   1       0.254  -0.762   0.282  0.00  0.00     0.017 A 
ATOM     16  C   UNL d   1      -0.933  -1.471   0.556  0.00  0.00     0.020 A 
ATOM     17  C   UNL d   1       0.350   0.617   0.482  0.00  0.00     0.004 A 
ATOM     18  C   UNL d   1      -2.040  -0.776   1.046  0.00  0.00     0.001 A 
ATOM     19  C   UNL d   1      -1.978   0.594   1.248  0.00  0.00     0.001 A 
ATOM     20  C   UNL d   1      -0.801   1.294   0.966  0.00  0.00     0.014 A 
ATOM     21  C   UNL d   1       1.669   1.097   0.151  0.00  0.00     0.067 A 
ATOM     22 CL   UNL d   1       2.064   2.770   0.266  0.00  0.00    -0.082 Cl
ENDBRANCH   1  13
TORSDOF 1
