REMARK  5 active torsions:
REMARK  status: ('A' for Active; 'I' for Inactive)
REMARK    1  A    between atoms: N_2  and  C_5 
REMARK    2  A    between atoms: C_3  and  N_2 
REMARK    3  A    between atoms: C_6  and  C_3 
REMARK    4  A    between atoms: C_7  and  C_3 
REMARK    5  A    between atoms: C_8  and  C_6 
ROOT
ATOM      1  N   UNL d   1       4.558  -0.145  -2.114  0.00  0.00    -0.195 NA
ATOM      2  C   UNL d   1       4.240  -0.361  -1.016  0.00  0.00     0.101 C 
ATOM      3  C   UNL d   1       3.796  -0.744   0.364  0.00  0.00     0.245 C 
ATOM      4  C   UNL d   1       4.192  -2.242   0.543  0.00  0.00     0.057 C 
ATOM      5  C   UNL d   1       2.240  -0.613   0.319  0.00  0.00     0.057 C 
ATOM      6  C   UNL d   1       3.938  -2.874   1.908  0.00  0.00     0.004 C 
ATOM      7  C   UNL d   1       1.406  -1.177   1.472  0.00  0.00     0.004 C 
ATOM      8  C   UNL d   1       1.352  -2.700   1.528  0.00  0.00     0.000 C 
ATOM      9  C   UNL d   1       2.533  -3.390   2.193  0.00  0.00     0.000 C 
ENDROOT
BRANCH   3  10
ATOM     10  N   UNL d   1       4.340   0.193   1.407  0.00  0.00     0.116 NA
ATOM     11  H   UNL d   1       3.916  -0.041   2.304  0.00  0.00     0.319 HD
BRANCH  10  12
ATOM     12  C   UNL d   1       5.812   0.215   1.590  0.00  0.00     0.260 C 
BRANCH  12  13
ATOM     13  C   UNL d   1       6.753   0.814   0.487  0.00  0.00     0.079 C 
BRANCH  13  14
ATOM     14  C   UNL d   1       6.522   2.081  -0.315  0.00  0.00    -0.056 A 
ATOM     15  C   UNL d   1       7.484   2.369  -1.309  0.00  0.00     0.007 A 
ATOM     16  C   UNL d   1       7.348   3.456  -2.173  0.00  0.00     0.001 A 
ATOM     17  C   UNL d   1       6.244   4.292  -2.053  0.00  0.00     0.000 A 
ATOM     18  C   UNL d   1       5.299   4.045  -1.057  0.00  0.00     0.001 A 
ATOM     19  C   UNL d   1       5.437   2.949  -0.188  0.00  0.00     0.007 A 
ENDBRANCH  13  14
ENDBRANCH  12  13
BRANCH  12  20
ATOM     20  C   UNL d   1       6.226   0.682   2.998  0.00  0.00    -0.025 A 
ATOM     21  C   UNL d   1       6.296  -0.271   4.036  0.00  0.00     0.009 A 
ATOM     22  C   UNL d   1       6.885   0.034   5.264  0.00  0.00     0.001 A 
ATOM     23  C   UNL d   1       7.405   1.305   5.485  0.00  0.00     0.000 A 
ATOM     24  C   UNL d   1       7.287   2.281   4.496  0.00  0.00     0.001 A 
ATOM     25  C   UNL d   1       6.684   1.981   3.269  0.00  0.00     0.009 A 
ENDBRANCH  12  20
ENDBRANCH  10  12
ENDBRANCH   3  10
TORSDOF 5
