REMARK  5 active torsions:
REMARK  status: ('A' for Active; 'I' for Inactive)
REMARK    1  A    between atoms: C_4  and  C_1 
REMARK    2  A    between atoms: C_10  and  N_3 
REMARK    3  A    between atoms: O_11  and  C_4 
REMARK    4  A    between atoms: C_12  and  C_10 
REMARK    5  A    between atoms: C_13  and  O_11 
ROOT
ATOM      1  C   UNL d   1      -0.380  -1.316  -0.436  0.00  0.00     0.158 C 
ATOM      2  C   UNL d   1      -1.025   0.021  -0.191  0.00  0.00     0.168 C 
ATOM      3  N   UNL d   1       1.150   1.100   0.299  0.00  0.00     0.099 N 
ATOM      4  C   UNL d   1      -0.142   1.239  -0.413  0.00  0.00     0.351 C 
ATOM      5  C   UNL d   1       0.933  -1.363   0.333  0.00  0.00     0.052 C 
ATOM      6  O   UNL d   1      -2.221   0.118   0.078  0.00  0.00    -0.295 OA
ATOM      7  C   UNL d   1       1.826  -0.169  -0.009  0.00  0.00     0.274 C 
ENDROOT
BRANCH   3   8
ATOM      8  C   UNL d   1       1.993   2.265  -0.054  0.00  0.00     0.311 C 
BRANCH   8   9
ATOM      9  C   UNL d   1       3.327   2.323   0.659  0.00  0.00    -0.030 A 
ATOM     10  C   UNL d   1       4.523   2.267  -0.074  0.00  0.00     0.009 A 
ATOM     11  C   UNL d   1       5.757   2.311   0.576  0.00  0.00     0.001 A 
ATOM     12  C   UNL d   1       5.809   2.419   1.964  0.00  0.00     0.000 A 
ATOM     13  C   UNL d   1       4.629   2.492   2.702  0.00  0.00     0.001 A 
ATOM     14  C   UNL d   1       3.393   2.443   2.054  0.00  0.00     0.009 A 
ENDBRANCH   8   9
ENDBRANCH   3   8
BRANCH   1  15
ATOM     15  C   UNL d   1      -0.198  -1.584  -1.911  0.00  0.00     0.270 C 
ATOM     16  O   UNL d   1      -0.527  -0.828  -2.817  0.00  0.00    -0.264 OA
BRANCH  15  17
ATOM     17  O   UNL d   1       0.311  -2.837  -2.090  0.00  0.00    -0.321 OA
BRANCH  17  18
ATOM     18  C   UNL d   1       0.121  -3.402  -3.395  0.00  0.00     0.174 C 
ATOM     19  C   UNL d   1      -1.225  -4.104  -3.397  0.00  0.00     0.034 C 
ENDBRANCH  17  18
ENDBRANCH  15  17
ENDBRANCH   1  15
TORSDOF 5
