REMARK  3 active torsions:
REMARK  status: ('A' for Active; 'I' for Inactive)
REMARK    1  A    between atoms: C_2  and  C_1 
REMARK       I    between atoms: N_4  and  C_2 
REMARK    2  A    between atoms: C_6  and  N_4 
REMARK    3  A    between atoms: C_22  and  C_18 
ROOT
ATOM      1  C   UNL d   1      -2.395  -0.259  -0.063  0.00  0.00     0.102 C 
ATOM      2  N   UNL d   1      -1.624   0.890  -0.052  0.00  0.00    -0.351 N 
ATOM      3  C   UNL d   1      -1.504  -1.308   0.096  0.00  0.00     0.049 C 
ATOM      4  C   UNL d   1      -0.180  -0.790   0.048  0.00  0.00    -0.007 A 
ATOM      5  C   UNL d   1      -0.286   0.593  -0.039  0.00  0.00     0.043 A 
ATOM      6  C   UNL d   1       1.101  -1.369   0.074  0.00  0.00     0.021 A 
ATOM      7  C   UNL d   1       0.831   1.434  -0.086  0.00  0.00     0.031 A 
ATOM      8  C   UNL d   1       2.250  -0.556  -0.006  0.00  0.00    -0.058 A 
ATOM      9  C   UNL d   1       2.097   0.834  -0.074  0.00  0.00     0.009 A 
ATOM     10  H   UNL d   1      -2.017   1.821  -0.082  0.00  0.00     0.166 HD
ENDROOT
BRANCH   1  11
ATOM     11  C   UNL d   1      -3.841  -0.156  -0.141  0.00  0.00     0.274 C 
ATOM     12  N   UNL d   1      -4.603  -1.240  -0.609  0.00  0.00    -0.314 N 
ATOM     13  C   UNL d   1      -4.064  -2.453  -1.222  0.00  0.00     0.160 C 
ATOM     14  O   UNL d   1      -4.365   0.903   0.213  0.00  0.00    -0.265 OA
BRANCH  12  15
ATOM     15  C   UNL d   1      -6.032  -1.159  -0.572  0.00  0.00     0.076 A 
ATOM     16  C   UNL d   1      -6.800  -2.197  -0.020  0.00  0.00     0.146 A 
ATOM     17  C   UNL d   1      -8.186  -2.114   0.043  0.00  0.00     0.086 A 
ATOM     18  F   UNL d   1      -6.203  -3.274   0.514  0.00  0.00    -0.204 F 
ATOM     19  C   UNL d   1      -8.815  -0.995  -0.485  0.00  0.00     0.119 A 
ATOM     20  C   UNL d   1      -8.087   0.035  -1.066  0.00  0.00     0.044 A 
ATOM     21  F   UNL d   1     -10.154  -0.909  -0.437  0.00  0.00    -0.206 F 
ATOM     22  C   UNL d   1      -6.694  -0.042  -1.102  0.00  0.00     0.036 A 
ENDBRANCH  12  15
ENDBRANCH   1  11
BRANCH   8  23
ATOM     23  C   UNL d   1       3.593  -1.254  -0.026  0.00  0.00     0.034 C 
ATOM     24  C   UNL d   1       4.834  -0.377  -0.114  0.00  0.00     0.010 C 
ENDBRANCH   8  23
TORSDOF 3
