REMARK  6 active torsions:
REMARK  status: ('A' for Active; 'I' for Inactive)
REMARK    1  A    between atoms: C_13  and  C_1 
REMARK    2  A    between atoms: C_14  and  C_4 
REMARK    3  A    between atoms: N_11  and  C_5 
REMARK    4  A    between atoms: C_15  and  C_8 
REMARK    5  A    between atoms: N_9  and  N_11 
REMARK    6  A    between atoms: C_16  and  C_12 
ROOT
ATOM      1  C   UNL d   1       1.205  -0.805   0.052  0.00  0.00     0.018 A 
ATOM      2  N   UNL d   1       3.605  -0.798   0.271  0.00  0.00    -0.297 N 
ATOM      3  HN  UNL d   1       4.484  -1.310   0.344  1.00  0.00     0.187 HD
ATOM      4  C   UNL d   1       2.444  -1.482   0.173  0.00  0.00     0.070 A 
ATOM      5  C   UNL d   1       2.486   1.282   0.133  0.00  0.00     0.146 A 
ATOM      6  N   UNL d   1       3.622   0.567   0.275  0.00  0.00    -0.283 N 
ATOM      7  HN  UNL d   1       4.510   1.056   0.386  1.00  0.00     0.188 HD
ATOM      8  C   UNL d   1       1.229   0.637   0.004  0.00  0.00     0.034 A 
ENDROOT
BRANCH   5   9
ATOM      9  N   UNL d   1       2.570   2.704   0.136  0.00  0.00    -0.284 N 
ATOM     10  H   UNL d   1       2.246   3.073  -0.755  0.00  0.00     0.188 HD
BRANCH   9  11
ATOM     11  N   UNL d   1       3.659   3.241   0.736  0.00  0.00    -0.303 N 
ATOM     12  C   UNL d   1       3.827   4.539   0.760  0.00  0.00     0.032 C 
ATOM     13  C   UNL d   1       2.907   5.537   0.089  0.00  0.00     0.070 C 
ATOM     14  HN  UNL d   1       4.352   2.632   1.171  1.00  0.00     0.186 HD
BRANCH  12  15
ATOM     15  C   UNL d   1       4.989   5.083   1.555  0.00  0.00    -0.013 A 
ATOM     16  C   UNL d   1       5.840   4.186   2.220  0.00  0.00     0.013 A 
ATOM     17  C   UNL d   1       6.894   4.655   3.010  0.00  0.00     0.001 A 
ATOM     18  C   UNL d   1       7.109   6.024   3.146  0.00  0.00     0.000 A 
ATOM     19  C   UNL d   1       6.276   6.925   2.486  0.00  0.00     0.001 A 
ATOM     20  C   UNL d   1       5.218   6.459   1.697  0.00  0.00     0.013 A 
ENDBRANCH  12  15
ENDBRANCH   9  11
ENDBRANCH   5   9
BRANCH   8  21
ATOM     21  C   UNL d   1      -0.029   1.451  -0.101  0.00  0.00    -0.021 A 
ATOM     22  C   UNL d   1      -1.017   1.178  -1.065  0.00  0.00     0.012 A 
ATOM     23  C   UNL d   1      -2.247   1.849  -1.059  0.00  0.00     0.001 A 
ATOM     24  C   UNL d   1      -2.488   2.862  -0.138  0.00  0.00     0.000 A 
ATOM     25  C   UNL d   1      -1.504   3.201   0.783  0.00  0.00     0.001 A 
ATOM     26  C   UNL d   1      -0.301   2.490   0.813  0.00  0.00     0.012 A 
ENDBRANCH   8  21
BRANCH   1  27
ATOM     27  C   UNL d   1      -0.078  -1.564   0.009  0.00  0.00    -0.023 A 
ATOM     28  C   UNL d   1      -1.089  -1.329   0.962  0.00  0.00     0.012 A 
ATOM     29  C   UNL d   1      -2.296  -2.033   0.933  0.00  0.00     0.001 A 
ATOM     30  C   UNL d   1      -2.499  -3.026  -0.019  0.00  0.00     0.000 A 
ATOM     31  C   UNL d   1      -1.509  -3.294  -0.961  0.00  0.00     0.001 A 
ATOM     32  C   UNL d   1      -0.323  -2.552  -0.963  0.00  0.00     0.012 A 
ENDBRANCH   1  27
BRANCH   4  33
ATOM     33  C   UNL d   1       2.660  -2.954   0.172  0.00  0.00    -0.007 A 
ATOM     34  C   UNL d   1       1.876  -3.852   0.915  0.00  0.00     0.014 A 
ATOM     35  C   UNL d   1       2.063  -5.236   0.821  0.00  0.00     0.001 A 
ATOM     36  C   UNL d   1       3.078  -5.754   0.021  0.00  0.00     0.000 A 
ATOM     37  C   UNL d   1       3.914  -4.889  -0.676  0.00  0.00     0.001 A 
ATOM     38  C   UNL d   1       3.703  -3.507  -0.602  0.00  0.00     0.014 A 
ENDBRANCH   4  33
TORSDOF 6
