REMARK  4 active torsions:
REMARK  status: ('A' for Active; 'I' for Inactive)
REMARK    1  A    between atoms: C_4  and  N_1 
REMARK       I    between atoms: C_2  and  N_5 
REMARK    2  A    between atoms: C_11  and  C_2 
REMARK    3  A    between atoms: N_5  and  C_14 
REMARK    4  A    between atoms: C_17  and  C_11 
ROOT
ATOM      1  C   UNL d   1      -3.053   0.084   0.741  0.00  0.00     0.030 A 
ATOM      2  C   UNL d   1      -3.203  -0.570   1.974  0.00  0.00     0.031 A 
ATOM      3  C   UNL d   1      -4.189   0.726   0.241  0.00  0.00     0.031 A 
ATOM      4  C   UNL d   1      -5.559   0.013   2.106  0.00  0.00     0.034 A 
ATOM      5  C   UNL d   1      -4.432  -0.605   2.651  0.00  0.00     0.032 A 
ATOM      6  C   UNL d   1      -5.417   0.698   0.904  0.00  0.00     0.032 A 
ENDROOT
BRANCH   4   7
ATOM      7  N   UNL d   1      -6.786  -0.076   2.795  0.00  0.00    -0.327 N 
ATOM      8  C   UNL d   1      -8.033   0.249   2.279  0.00  0.00     0.226 C 
ATOM      9  O   UNL d   1      -8.274   0.615   1.129  0.00  0.00    -0.273 OA
ATOM     10  H   UNL d   1      -6.767  -0.539   3.695  0.00  0.00     0.169 HD
BRANCH   8  11
ATOM     11  C   UNL d   1      -9.165   0.086   3.276  0.00  0.00     0.141 C 
BRANCH  11  12
ATOM     12  C   UNL d   1      -9.719  -1.317   3.310  0.00  0.00    -0.050 A 
ATOM     13  C   UNL d   1      -9.783  -2.027   4.515  0.00  0.00     0.007 A 
ATOM     14  C   UNL d   1     -10.304  -3.321   4.546  0.00  0.00     0.001 A 
ATOM     15  C   UNL d   1     -10.773  -3.916   3.375  0.00  0.00     0.000 A 
ATOM     16  C   UNL d   1     -10.726  -3.214   2.173  0.00  0.00     0.001 A 
ATOM     17  C   UNL d   1     -10.208  -1.920   2.140  0.00  0.00     0.007 A 
ENDBRANCH  11  12
ENDBRANCH   8  11
ENDBRANCH   4   7
BRANCH   1  18
ATOM     18  N   UNL d   1      -1.860   0.136   0.060  0.00  0.00    -0.378 N 
ATOM     19  C   UNL d   1      -1.793   0.098  -1.411  0.00  0.00     0.153 C 
ATOM     20  C   UNL d   1      -0.853   1.209  -1.928  0.00  0.00     0.291 C 
ATOM     21  N   UNL d   1       0.498   1.114  -1.327  0.00  0.00     0.087 N 
ATOM     22  C   UNL d   1       0.373   1.182   0.148  0.00  0.00     0.291 C 
ATOM     23  C   UNL d   1       1.362   2.179  -1.827  0.00  0.00     0.310 C 
ATOM     24  C   UNL d   1      -0.552   0.080   0.727  0.00  0.00     0.153 C 
ENDBRANCH   1  18
TORSDOF 4
