REMARK  4 active torsions:
REMARK  status: ('A' for Active; 'I' for Inactive)
REMARK       I    between atoms: N_4  and  C_1 
REMARK    1  A    between atoms: C_14  and  C_1 
REMARK    2  A    between atoms: N_2  and  C_5 
REMARK    3  A    between atoms: N_3  and  C_6 
REMARK    4  A    between atoms: C_19  and  N_4 
ROOT
ATOM      1  C   UNL d   1       1.952  -5.180   0.102  0.00  0.00     0.030 A 
ATOM      2  C   UNL d   1       2.319  -4.159   0.994  0.00  0.00     0.031 A 
ATOM      3  C   UNL d   1       0.993  -4.857  -0.864  0.00  0.00     0.031 A 
ATOM      4  C   UNL d   1       0.776  -2.586  -0.026  0.00  0.00     0.035 A 
ATOM      5  C   UNL d   1       0.415  -3.585  -0.928  0.00  0.00     0.032 A 
ATOM      6  C   UNL d   1       1.749  -2.878   0.931  0.00  0.00     0.032 A 
ENDROOT
BRANCH   1   7
ATOM      7  N   UNL d   1       2.505  -6.463   0.236  0.00  0.00    -0.381 N 
ATOM      8  C   UNL d   1       1.783  -7.574  -0.398  0.00  0.00     0.125 C 
ATOM      9  C   UNL d   1       2.235  -8.893   0.214  0.00  0.00     0.045 C 
ATOM     10  C   UNL d   1       3.757  -9.063   0.219  0.00  0.00     0.091 C 
ATOM     11  C   UNL d   1       4.495  -7.804   0.694  0.00  0.00     0.045 C 
ATOM     12  C   UNL d   1       3.965  -6.516   0.072  0.00  0.00     0.125 C 
BRANCH  10  13
ATOM     13  N   UNL d   1       4.285  -9.616  -1.030  0.00  0.00    -0.362 N 
ATOM     14  C   UNL d   1       4.330  -9.017  -2.261  0.00  0.00     0.091 A 
ATOM     15  C   UNL d   1       4.955  -9.874  -3.140  0.00  0.00     0.019 A 
ATOM     16  C   UNL d   1       5.279 -11.047  -2.426  0.00  0.00     0.019 A 
ATOM     17  C   UNL d   1       4.848 -10.868  -1.131  0.00  0.00     0.091 A 
ENDBRANCH  10  13
ENDBRANCH   1   7
BRANCH   4  18
ATOM     18  N   UNL d   1       0.230  -1.283  -0.061  0.00  0.00    -0.323 N 
ATOM     19  C   UNL d   1      -0.879  -0.900  -0.798  0.00  0.00     0.256 C 
ATOM     20  O   UNL d   1      -1.678  -1.656  -1.344  0.00  0.00    -0.267 OA
ATOM     21  H   UNL d   1       0.639  -0.603   0.563  0.00  0.00     0.169 HD
BRANCH  19  22
ATOM     22  C   UNL d   1      -1.125   0.563  -0.915  0.00  0.00     0.032 A 
ATOM     23  C   UNL d   1      -0.083   1.499  -0.904  0.00  0.00     0.017 A 
ATOM     24  C   UNL d   1      -0.358   2.847  -1.149  0.00  0.00     0.001 A 
ATOM     25  C   UNL d   1      -1.665   3.263  -1.409  0.00  0.00     0.000 A 
ATOM     26  C   UNL d   1      -2.706   2.337  -1.412  0.00  0.00     0.001 A 
ATOM     27  C   UNL d   1      -2.438   0.991  -1.167  0.00  0.00     0.017 A 
ENDBRANCH  19  22
ENDBRANCH   4  18
TORSDOF 4
