REMARK  6 active torsions:
REMARK  status: ('A' for Active; 'I' for Inactive)
REMARK    1  A    between atoms: C_2  and  C_1 
REMARK    2  A    between atoms: C_4  and  C_2 
REMARK    3  A    between atoms: N_6  and  C_3 
REMARK    4  A    between atoms: S_11  and  C_3 
REMARK    5  A    between atoms: C_12  and  N_6 
REMARK    6  A    between atoms: C_13  and  C_12 
ROOT
ATOM      1  C   UNL d   1       1.081   0.207  -0.022  0.00  0.00     0.086 C 
ATOM      2  C   UNL d   1       2.404  -0.013   0.117  0.00  0.00     0.049 C 
ENDROOT
BRANCH   2   3
ATOM      3  N   UNL d   1       2.889  -1.318  -0.026  0.00  0.00    -0.283 NA
ATOM      4  H   UNL d   1       2.158  -2.013   0.109  0.00  0.00     0.128 HD
BRANCH   3   5
ATOM      5  C   UNL d   1       3.631  -1.655  -1.243  0.00  0.00     0.131 C 
BRANCH   5   6
ATOM      6  C   UNL d   1       4.174  -3.056  -1.136  0.00  0.00    -0.045 A 
ATOM      7  C   UNL d   1       3.639  -4.100  -1.904  0.00  0.00     0.008 A 
ATOM      8  C   UNL d   1       4.165  -5.389  -1.808  0.00  0.00     0.001 A 
ATOM      9  C   UNL d   1       5.226  -5.647  -0.941  0.00  0.00     0.000 A 
ATOM     10  C   UNL d   1       5.759  -4.621  -0.166  0.00  0.00     0.001 A 
ATOM     11  C   UNL d   1       5.234  -3.332  -0.261  0.00  0.00     0.008 A 
ENDBRANCH   5   6
ENDBRANCH   3   5
ENDBRANCH   2   3
BRANCH   2  12
ATOM     12  S   UNL d   1       3.510   1.314   0.434  0.00  0.00    -0.122 SA
ATOM     13  C   UNL d   1       4.605   0.572   1.669  0.00  0.00     0.097 C 
ENDBRANCH   2  12
BRANCH   1  14
ATOM     14  C   UNL d   1       0.314   1.494  -0.045  0.00  0.00     0.191 C 
ATOM     15  O   UNL d   1       0.837   2.533  -0.445  0.00  0.00    -0.287 OA
BRANCH  14  16
ATOM     16  C   UNL d   1      -1.113   1.441   0.274  0.00  0.00     0.054 A 
ATOM     17  S   UNL d   1      -1.796   0.222   1.267  0.00  0.00    -0.098 SA
ATOM     18  C   UNL d   1      -3.368   0.873   1.114  0.00  0.00     0.050 A 
ATOM     19  C   UNL d   1      -3.381   2.011   0.340  0.00  0.00     0.009 A 
ATOM     20  C   UNL d   1      -2.080   2.347  -0.131  0.00  0.00     0.023 A 
ENDBRANCH  14  16
ENDBRANCH   1  14
TORSDOF 6
