REMARK  4 active torsions:
REMARK  status: ('A' for Active; 'I' for Inactive)
REMARK    1  A    between atoms: C_2  and  S_1 
REMARK    2  A    between atoms: N_4  and  S_1 
REMARK    3  A    between atoms: C_6  and  N_4 
REMARK    4  A    between atoms: C_13  and  C_5 
ROOT
ATOM      1  S   UNL d   1       0.774   0.038  -0.191  0.00  0.00     0.248 S 
ATOM      2  O   UNL d   1      -0.114   0.397  -1.278  0.00  0.00    -0.205 OA
ATOM      3  O   UNL d   1       2.210   0.067  -0.340  0.00  0.00    -0.205 OA
ENDROOT
BRANCH   1   4
ATOM      4  C   UNL d   1       0.372  -1.649   0.206  0.00  0.00     0.116 A 
ATOM      5  S   UNL d   1       1.177  -2.309   1.562  0.00  0.00    -0.075 SA
ATOM      6  C   UNL d   1       0.540  -3.880   1.281  0.00  0.00     0.033 A 
ATOM      7  C   UNL d   1      -0.402  -3.845   0.266  0.00  0.00     0.023 A 
ATOM      8  C   UNL d   1      -0.483  -2.570  -0.367  0.00  0.00     0.034 A 
BRANCH   6   9
ATOM      9  C   UNL d   1       1.003  -5.045   2.050  0.00  0.00     0.049 A 
ATOM     10  N   UNL d   1       0.099  -6.052   2.148  0.00  0.00    -0.365 N 
ATOM     11  C   UNL d   1       0.506  -7.193   2.749  0.00  0.00     0.088 A 
ATOM     12  HN  UNL d   1      -0.848  -5.953   1.784  1.00  0.00     0.165 HD
ATOM     13  C   UNL d   1       1.783  -7.393   3.247  0.00  0.00     0.017 A 
ATOM     14  C   UNL d   1       2.696  -6.353   3.140  0.00  0.00     0.004 A 
ATOM     15  C   UNL d   1       2.303  -5.160   2.539  0.00  0.00     0.031 A 
ENDBRANCH   6   9
ENDBRANCH   1   4
BRANCH   1  16
ATOM     16  N   UNL d   1       0.401   0.977   1.143  0.00  0.00    -0.202 NA
ATOM     17  H   UNL d   1       1.217   1.492   1.493  0.00  0.00     0.141 HD
BRANCH  16  18
ATOM     18  C   UNL d   1      -0.839   1.794   1.117  0.00  0.00     0.163 C 
ATOM     19  C   UNL d   1      -0.761   2.758   2.314  0.00  0.00     0.236 C 
ATOM     20  N   UNL d   1      -1.821   3.587   2.552  0.00  0.00    -0.360 N 
ATOM     21  O   UNL d   1       0.228   2.829   3.046  0.00  0.00    -0.272 OA
ATOM     22  C   UNL d   1      -2.920   3.862   1.653  0.00  0.00     0.122 C 
ATOM     23  H   UNL d   1      -1.680   4.200   3.348  0.00  0.00     0.162 HD
ATOM     24  C   UNL d   1      -3.878   2.690   1.501  0.00  0.00     0.020 C 
ATOM     25  C   UNL d   1      -3.324   1.552   0.648  0.00  0.00     0.004 C 
ATOM     26  C   UNL d   1      -2.073   0.898   1.230  0.00  0.00     0.030 C 
ENDBRANCH  16  18
ENDBRANCH   1  16
TORSDOF 4
