REMARK  5 active torsions:
REMARK  status: ('A' for Active; 'I' for Inactive)
REMARK    1  A    between atoms: N_2  and  C_1 
REMARK    2  A    between atoms: N_6  and  N_2 
REMARK    3  A    between atoms: C_3  and  N_6 
REMARK    4  A    between atoms: N_7  and  C_3 
REMARK    5  A    between atoms: C_11  and  N_7 
ROOT
ATOM      1  N   UNL d   1      -0.941  -2.897   0.082  0.00  0.00    -0.293 N 
ATOM      2  H   UNL d   1       0.011  -2.546   0.148  0.00  0.00     0.183 HD
ENDROOT
BRANCH   1   3
ATOM      3  C   UNL d   1      -1.062  -4.272   0.032  0.00  0.00     0.187 C 
ATOM      4  S   UNL d   1      -2.457  -5.144   0.352  0.00  0.00    -0.040 SA
BRANCH   3   5
ATOM      5  N   UNL d   1       0.092  -4.969  -0.220  0.00  0.00    -0.332 N 
ATOM      6  H   UNL d   1       0.060  -5.930   0.107  0.00  0.00     0.168 HD
BRANCH   5   7
ATOM      7  C   UNL d   1       1.253  -4.582  -0.908  0.00  0.00     0.034 A 
ATOM      8  C   UNL d   1       2.438  -5.269  -0.617  0.00  0.00     0.032 A 
ATOM      9  C   UNL d   1       3.612  -4.976  -1.313  0.00  0.00     0.044 A 
ATOM     10  C   UNL d   1       3.589  -4.022  -2.323  0.00  0.00     0.116 A 
ATOM     11  C   UNL d   1       2.417  -3.345  -2.637  0.00  0.00     0.044 A 
ATOM     12  F   UNL d   1       4.707  -3.764  -3.013  0.00  0.00    -0.206 F 
ATOM     13  C   UNL d   1       1.246  -3.618  -1.922  0.00  0.00     0.032 A 
ENDBRANCH   5   7
ENDBRANCH   3   5
ENDBRANCH   1   3
BRANCH   1  14
ATOM     14  N   UNL d   1      -1.890  -2.181   0.841  0.00  0.00    -0.200 NA
ATOM     15  H   UNL d   1      -2.758  -2.019   0.321  0.00  0.00     0.153 HD
BRANCH  14  16
ATOM     16  C   UNL d   1      -1.432  -1.016   1.516  0.00  0.00     0.073 A 
ATOM     17  C   UNL d   1      -0.555  -0.060   0.972  0.00  0.00     0.073 A 
ATOM     18 CL   UNL d   1       0.127  -0.175  -0.611  0.00  0.00    -0.081 Cl
ATOM     19  C   UNL d   1      -0.231   1.068   1.725  0.00  0.00     0.113 A 
ATOM     20  N   UNL d   1      -0.722   1.332   2.957  0.00  0.00    -0.372 N 
ATOM     21  C   UNL d   1      -1.598   0.436   3.451  0.00  0.00     0.113 A 
ATOM     22  HN  UNL d   1      -0.446   2.163   3.481  1.00  0.00     0.164 HD
ATOM     23  C   UNL d   1      -1.992  -0.718   2.778  0.00  0.00     0.073 A 
ATOM     24 CL   UNL d   1      -3.145  -1.757   3.537  0.00  0.00    -0.081 Cl
ENDBRANCH  14  16
ENDBRANCH   1  14
TORSDOF 5
