REMARK  3 active torsions:
REMARK  status: ('A' for Active; 'I' for Inactive)
REMARK    1  A    between atoms: C_17  and  C_4 
REMARK    2  A    between atoms: N_10  and  C_13 
REMARK    3  A    between atoms: C_16  and  C_11 
ROOT
ATOM      1  N   UNL d   1      -0.521  -0.813   0.088  0.00  0.00    -0.214 N 
ATOM      2  N   UNL d   1       0.451  -1.763   0.288  0.00  0.00    -0.293 N 
ATOM      3  HN  UNL d   1       0.217  -2.702   0.610  1.00  0.00     0.187 HD
ATOM      4  C   UNL d   1      -1.890  -1.031  -0.012  0.00  0.00     0.154 A 
ATOM      5  C   UNL d   1      -0.383   0.549  -0.015  0.00  0.00     0.182 A 
ATOM      6  N   UNL d   1      -2.490   0.138  -0.199  0.00  0.00    -0.281 N 
ATOM      7  HN  UNL d   1      -3.491   0.276  -0.336  1.00  0.00     0.188 HD
ATOM      8  N   UNL d   1      -1.540   1.133  -0.180  0.00  0.00    -0.277 N 
ATOM      9  HN  UNL d   1      -1.707   2.135  -0.275  1.00  0.00     0.189 HD
ATOM     10  C   UNL d   1       1.685  -1.415   0.050  0.00  0.00     0.046 C 
ATOM     11  S   UNL d   1       1.167   1.289   0.085  0.00  0.00    -0.085 SA
ATOM     12  C   UNL d   1       2.118  -0.095  -0.579  0.00  0.00     0.142 C 
ENDROOT
BRANCH  10  13
ATOM     13  C   UNL d   1       2.749  -2.435   0.340  0.00  0.00    -0.011 A 
ATOM     14  C   UNL d   1       3.962  -2.460  -0.360  0.00  0.00     0.016 A 
ATOM     15  C   UNL d   1       4.927  -3.433  -0.067  0.00  0.00     0.037 A 
ATOM     16  C   UNL d   1       4.673  -4.390   0.925  0.00  0.00     0.102 A 
ATOM     17  C   UNL d   1       3.460  -4.381   1.624  0.00  0.00     0.037 A 
ATOM     18  C   UNL d   1       2.503  -3.405   1.327  0.00  0.00     0.016 A 
BRANCH  16  19
ATOM     19  N   UNL d   1       5.684  -5.411   1.230  0.00  0.00    -0.116 N 
ATOM     20  O   UNL d   1       6.744  -5.378   0.588  0.00  0.00    -0.532 OA
ATOM     21  O   UNL d   1       5.417  -6.242   2.108  0.00  0.00    -0.532 OA
ENDBRANCH  16  19
ENDBRANCH  10  13
BRANCH   4  22
ATOM     22  C   UNL d   1      -2.560  -2.336  -0.003  0.00  0.00     0.014 A 
ATOM     23  C   UNL d   1      -2.053  -3.441   0.685  0.00  0.00     0.032 A 
ATOM     24  C   UNL d   1      -2.736  -4.644   0.614  0.00  0.00     0.088 A 
ATOM     25  N   UNL d   1      -3.881  -4.816  -0.077  0.00  0.00    -0.375 N 
ATOM     26  C   UNL d   1      -4.371  -3.734  -0.715  0.00  0.00     0.088 A 
ATOM     27  HN  UNL d   1      -4.352  -5.720  -0.114  1.00  0.00     0.164 HD
ATOM     28  C   UNL d   1      -3.759  -2.491  -0.705  0.00  0.00     0.032 A 
ENDBRANCH   4  22
TORSDOF 3
