REMARK  5 active torsions:
REMARK  status: ('A' for Active; 'I' for Inactive)
REMARK    1  A    between atoms: N_11  and  C_1 
REMARK    2  A    between atoms: C_7  and  C_2 
REMARK    3  A    between atoms: C_10  and  N_3 
REMARK       I    between atoms: N_12  and  C_7 
REMARK    4  A    between atoms: N_8  and  N_12 
REMARK    5  A    between atoms: C_15  and  C_14 
ROOT
ATOM      1  C   UNL d   1       1.046  -0.747  -0.303  0.00  0.00     0.118 A 
ATOM      2  C   UNL d   1      -0.236  -1.239  -0.113  0.00  0.00     0.090 A 
ATOM      3  N   UNL d   1       0.966   0.643  -0.082  0.00  0.00    -0.245 N 
ATOM      4  N   UNL d   1      -0.273   1.008   0.339  0.00  0.00    -0.303 N 
ATOM      5  HN  UNL d   1      -0.585   1.933   0.636  1.00  0.00     0.186 HD
ATOM      6  C   UNL d   1      -0.989  -0.112   0.277  0.00  0.00     0.128 A 
ENDROOT
BRANCH   2   7
ATOM      7  C   UNL d   1      -0.730  -2.603  -0.146  0.00  0.00     0.274 C 
ATOM      8  N   UNL d   1      -0.001  -3.480  -0.948  0.00  0.00    -0.266 N 
ATOM      9  H   UNL d   1       0.744  -3.127  -1.539  0.00  0.00     0.190 HD
ATOM     10  O   UNL d   1      -1.724  -2.925   0.498  0.00  0.00    -0.266 OA
BRANCH   8  11
ATOM     11  N   UNL d   1      -0.285  -4.812  -0.890  0.00  0.00    -0.308 N 
ATOM     12  C   UNL d   1       0.367  -5.602  -1.678  0.00  0.00     0.118 C 
ATOM     13  HN  UNL d   1      -0.989  -5.173  -0.246  1.00  0.00     0.186 HD
BRANCH  12  14
ATOM     14  C   UNL d   1       0.163  -7.069  -1.609  0.00  0.00    -0.019 A 
ATOM     15  C   UNL d   1      -0.767  -7.612  -0.714  0.00  0.00     0.013 A 
ATOM     16  C   UNL d   1      -0.909  -8.998  -0.608  0.00  0.00     0.001 A 
ATOM     17  C   UNL d   1      -0.126  -9.839  -1.396  0.00  0.00     0.000 A 
ATOM     18  C   UNL d   1       0.791  -9.299  -2.300  0.00  0.00     0.001 A 
ATOM     19  C   UNL d   1       0.936  -7.913  -2.411  0.00  0.00     0.013 A 
ENDBRANCH  12  14
ENDBRANCH   8  11
ENDBRANCH   2   7
BRANCH   1  20
ATOM     20  N   UNL d   1       2.217  -1.432  -0.501  0.00  0.00    -0.286 NA
ATOM     21  H   UNL d   1       2.255  -2.392  -0.154  0.00  0.00     0.125 HD
ATOM     22  H   UNL d   1       3.078  -0.961  -0.212  0.00  0.00     0.125 HD
ENDBRANCH   1  20
BRANCH   3  23
ATOM     23  C   UNL d   1       2.012   1.610  -0.137  0.00  0.00     0.058 A 
ATOM     24  C   UNL d   1       3.096   1.450  -1.009  0.00  0.00     0.031 A 
ATOM     25  C   UNL d   1       4.163   2.350  -0.969  0.00  0.00     0.002 A 
ATOM     26  C   UNL d   1       4.150   3.412  -0.067  0.00  0.00     0.000 A 
ATOM     27  C   UNL d   1       3.049   3.606   0.767  0.00  0.00     0.002 A 
ATOM     28  C   UNL d   1       1.969   2.720   0.720  0.00  0.00     0.031 A 
ENDBRANCH   3  23
TORSDOF 5
