REMARK  1 active torsions:
REMARK  status: ('A' for Active; 'I' for Inactive)
REMARK    1  A    between atoms: C_2  and  C_1 
REMARK       I    between atoms: N_6  and  C_2 
ROOT
ATOM      1  C   UNL d   1       1.260   1.502  -0.170  0.00  0.00     0.044 A 
ATOM      2  C   UNL d   1       1.171   0.066  -0.150  0.00  0.00     0.006 A 
ATOM      3  C   UNL d   1       0.025  -0.792  -0.308  0.00  0.00     0.018 A 
ATOM      4  C   UNL d   1       2.415  -0.612   0.029  0.00  0.00    -0.024 A 
ATOM      5  I   UNL d   1      -1.891  -0.169  -0.962  0.00  0.00    -0.044 I 
ATOM      6  C   UNL d   1       2.496   2.178  -0.123  0.00  0.00     0.018 A 
ATOM      7  C   UNL d   1       3.680   1.471  -0.009  0.00  0.00     0.002 A 
ATOM      8  C   UNL d   1       1.337  -2.793   0.072  0.00  0.00     0.002 A 
ATOM      9  C   UNL d   1       0.115  -2.189  -0.167  0.00  0.00     0.019 A 
ATOM     10  C   UNL d   1       2.478  -2.010   0.144  0.00  0.00     0.012 A 
ATOM     11  C   UNL d   1       3.632   0.088   0.086  0.00  0.00     0.012 A 
ENDROOT
BRANCH   1  12
ATOM     12  C   UNL d   1       0.111   2.438  -0.146  0.00  0.00     0.252 C 
ATOM     13  O   UNL d   1      -0.006   3.287  -1.021  0.00  0.00    -0.268 OA
ATOM     14  N   UNL d   1      -0.700   2.356   0.966  0.00  0.00    -0.361 N 
ATOM     15  C   UNL d   1      -1.828   3.239   1.113  0.00  0.00     0.149 C 
ATOM     16  H   UNL d   1      -0.584   1.586   1.613  0.00  0.00     0.162 HD
ENDBRANCH   1  12
TORSDOF 1
