REMARK  6 active torsions:
REMARK  status: ('A' for Active; 'I' for Inactive)
REMARK       I    between atoms: N_7  and  C_1 
REMARK       I    between atoms: N_8  and  C_1 
REMARK    1  A    between atoms: C_4  and  O_12 
REMARK    2  A    between atoms: N_19  and  C_5 
REMARK    3  A    between atoms: C_6  and  C_11 
REMARK    4  A    between atoms: C_21  and  N_7 
REMARK    5  A    between atoms: C_20  and  N_8 
REMARK    6  A    between atoms: O_12  and  C_23 
ROOT
ATOM      1  C   UNL d   1      -4.029   1.045   1.060  0.00  0.00    -0.009 A 
ATOM      2  C   UNL d   1      -3.312   2.243   0.891  0.00  0.00     0.016 A 
ATOM      3  C   UNL d   1      -3.304  -0.151   0.958  0.00  0.00     0.016 A 
ATOM      4  C   UNL d   1      -1.217   1.043   0.614  0.00  0.00     0.036 A 
ATOM      5  C   UNL d   1      -1.924  -0.152   0.753  0.00  0.00     0.030 A 
ATOM      6  C   UNL d   1      -1.922   2.246   0.684  0.00  0.00     0.030 A 
ENDROOT
BRANCH   4   7
ATOM      7  N   UNL d   1       0.186   1.079   0.444  0.00  0.00    -0.309 N 
ATOM      8  C   UNL d   1       0.952   0.001   0.029  0.00  0.00     0.325 C 
ATOM      9  N   UNL d   1       2.305   0.228   0.218  0.00  0.00    -0.309 N 
ATOM     10  O   UNL d   1       0.479  -1.037  -0.425  0.00  0.00    -0.247 OA
ATOM     11  H   UNL d   1       2.550   1.016   0.799  0.00  0.00     0.170 HD
ATOM     12  H   UNL d   1       0.624   1.987   0.419  0.00  0.00     0.170 HD
BRANCH   9  13
ATOM     13  C   UNL d   1       3.334  -0.701  -0.062  0.00  0.00     0.036 A 
ATOM     14  C   UNL d   1       3.143  -1.860  -0.821  0.00  0.00     0.032 A 
ATOM     15  C   UNL d   1       4.177  -2.782  -1.014  0.00  0.00     0.039 A 
ATOM     16  C   UNL d   1       5.441  -2.531  -0.500  0.00  0.00     0.078 A 
ATOM     17  C   UNL d   1       5.641  -1.373   0.258  0.00  0.00     0.039 A 
ATOM     18  C   UNL d   1       4.602  -0.458   0.468  0.00  0.00     0.032 A 
BRANCH  16  19
ATOM     19  O   UNL d   1       6.539  -3.322  -0.628  0.00  0.00    -0.255 OA
BRANCH  19  20
ATOM     20  C   UNL d   1       6.636  -4.226  -1.720  0.00  0.00     0.530 C 
ATOM     21  F   UNL d   1       5.795  -3.954  -2.740  0.00  0.00    -0.144 F 
ATOM     22  F   UNL d   1       7.897  -4.161  -2.207  0.00  0.00    -0.144 F 
ATOM     23  F   UNL d   1       6.417  -5.486  -1.290  0.00  0.00    -0.144 F 
ENDBRANCH  19  20
ENDBRANCH  16  19
ENDBRANCH   9  13
ENDBRANCH   4   7
BRANCH   1  24
ATOM     24  C   UNL d   1      -5.474   1.035   1.368  0.00  0.00     0.046 A 
ATOM     25  N   UNL d   1      -6.207   2.042   0.845  0.00  0.00    -0.332 N 
ATOM     26  C   UNL d   1      -7.519   2.033   1.100  0.00  0.00     0.155 A 
ATOM     27  HN  UNL d   1      -5.778   2.776   0.280  1.00  0.00     0.168 HD
ATOM     28  N   UNL d   1      -8.148   1.151   1.879  0.00  0.00    -0.343 N 
ATOM     29  C   UNL d   1      -7.394   0.172   2.397  0.00  0.00     0.093 A 
ATOM     30  HN  UNL d   1      -9.148   1.218   2.069  1.00  0.00     0.167 HD
ATOM     31  C   UNL d   1      -6.044   0.063   2.172  0.00  0.00     0.047 A 
BRANCH  26  32
ATOM     32  N   UNL d   1      -8.279   3.055   0.567  0.00  0.00    -0.274 NA
ATOM     33  H   UNL d   1      -7.696   3.856   0.378  0.00  0.00     0.127 HD
ATOM     34  H   UNL d   1      -9.102   3.196   1.137  0.00  0.00     0.127 HD
ENDBRANCH  26  32
ENDBRANCH   1  24
TORSDOF 6
