REMARK  6 active torsions:
REMARK  status: ('A' for Active; 'I' for Inactive)
REMARK    1  A    between atoms: C_9  and  C_1 
REMARK       I    between atoms: C_5  and  N_8 
REMARK       I    between atoms: N_7  and  C_5 
REMARK    2  A    between atoms: C_13  and  N_7 
REMARK    3  A    between atoms: N_8  and  C_9 
REMARK    4  A    between atoms: O_14  and  C_16 
REMARK    5  A    between atoms: C_18  and  O_14 
REMARK    6  A    between atoms: C_24  and  C_18 
ROOT
ATOM      1  C   UNL d   1       4.253  -4.114   0.779  0.00  0.00     0.320 C 
ATOM      2  N   UNL d   1       3.546  -4.988  -0.005  0.00  0.00    -0.309 N 
ATOM      3  N   UNL d   1       3.524  -3.203   1.486  0.00  0.00    -0.339 N 
ATOM      4  O   UNL d   1       5.480  -4.156   0.788  0.00  0.00    -0.247 OA
ATOM      5  H   UNL d   1       4.106  -5.752  -0.360  0.00  0.00     0.170 HD
ATOM      6  H   UNL d   1       2.519  -3.256   1.456  0.00  0.00     0.164 HD
ENDROOT
BRANCH   2   7
ATOM      7  C   UNL d   1       2.156  -5.120  -0.043  0.00  0.00     0.036 A 
ATOM      8  C   UNL d   1       1.445  -4.452  -1.039  0.00  0.00     0.032 A 
ATOM      9  C   UNL d   1       0.049  -4.488  -1.040  0.00  0.00     0.039 A 
ATOM     10  C   UNL d   1      -0.628  -5.197  -0.047  0.00  0.00     0.069 A 
ATOM     11  C   UNL d   1       0.100  -5.893   0.925  0.00  0.00     0.039 A 
ATOM     12  C   UNL d   1       1.494  -5.867   0.925  0.00  0.00     0.032 A 
BRANCH  10  13
ATOM     13  O   UNL d   1      -1.983  -5.272   0.097  0.00  0.00    -0.347 OA
BRANCH  13  14
ATOM     14  C   UNL d   1      -2.785  -4.758  -0.966  0.00  0.00     0.214 C 
BRANCH  14  15
ATOM     15  C   UNL d   1      -4.243  -5.080  -0.728  0.00  0.00    -0.034 A 
ATOM     16  C   UNL d   1      -5.233  -4.343  -1.396  0.00  0.00     0.009 A 
ATOM     17  C   UNL d   1      -6.586  -4.646  -1.217  0.00  0.00     0.001 A 
ATOM     18  C   UNL d   1      -6.961  -5.693  -0.378  0.00  0.00     0.000 A 
ATOM     19  C   UNL d   1      -5.989  -6.440   0.281  0.00  0.00     0.001 A 
ATOM     20  C   UNL d   1      -4.638  -6.140   0.102  0.00  0.00     0.009 A 
ENDBRANCH  14  15
ENDBRANCH  13  14
ENDBRANCH  10  13
ENDBRANCH   2   7
BRANCH   3  21
ATOM     21  C   UNL d   1       4.135  -2.112   2.206  0.00  0.00     0.164 C 
BRANCH  21  22
ATOM     22  C   UNL d   1       4.389  -2.477   3.639  0.00  0.00    -0.022 A 
ATOM     23  C   UNL d   1       3.454  -2.307   4.738  0.00  0.00    -0.009 A 
ATOM     24  C   UNL d   1       4.035  -2.642   5.969  0.00  0.00     0.015 A 
ATOM     25  C   UNL d   1       2.112  -1.845   4.754  0.00  0.00     0.037 A 
ATOM     26  C   UNL d   1       3.333  -2.518   7.186  0.00  0.00     0.021 A 
ATOM     27  S   UNL d   1       5.654  -3.185   5.774  0.00  0.00    -0.101 SA
ATOM     28  C   UNL d   1       2.020  -2.046   7.168  0.00  0.00     0.025 A 
ATOM     29  C   UNL d   1       1.420  -1.716   5.963  0.00  0.00     0.035 A 
ATOM     30 CL   UNL d   1      -0.198  -1.124   5.953  0.00  0.00    -0.084 Cl
ATOM     31  C   UNL d   1       5.606  -2.952   4.091  0.00  0.00     0.060 A 
ENDBRANCH  21  22
ENDBRANCH   3  21
TORSDOF 6
