REMARK  9 active torsions:
REMARK  status: ('A' for Active; 'I' for Inactive)
REMARK    1  A    between atoms: N_2  and  S_1 
REMARK    2  A    between atoms: C_3  and  S_1 
REMARK    3  A    between atoms: C_5  and  N_2 
REMARK    4  A    between atoms: C_12  and  N_2 
REMARK    5  A    between atoms: C_8  and  C_5 
REMARK    6  A    between atoms: O_22  and  C_9 
REMARK    7  A    between atoms: C_10  and  C_11 
REMARK       I    between atoms: N_21  and  C_10 
REMARK    8  A    between atoms: C_11  and  C_12 
REMARK    9  A    between atoms: O_23  and  C_14 
ROOT
ATOM      1  N   UNL d   1       0.263  -1.352   0.532  0.00  0.00    -0.200 NA
ENDROOT
BRANCH   1   2
ATOM      2  S   UNL d   1       0.995   0.104  -0.089  0.00  0.00     0.244 S 
ATOM      3  O   UNL d   1       0.696   0.159  -1.501  0.00  0.00    -0.206 OA
ATOM      4  O   UNL d   1       2.365   0.129   0.379  0.00  0.00    -0.206 OA
BRANCH   2   5
ATOM      5  C   UNL d   1       0.194   1.519   0.645  0.00  0.00     0.077 A 
ATOM      6  C   UNL d   1      -1.109   1.857   0.258  0.00  0.00     0.064 A 
ATOM      7  C   UNL d   1      -1.721   3.032   0.716  0.00  0.00     0.102 A 
ATOM      8  C   UNL d   1      -0.965   3.930   1.491  0.00  0.00     0.101 A 
ATOM      9  C   UNL d   1       0.363   3.610   1.820  0.00  0.00     0.041 A 
ATOM     10  C   UNL d   1       0.942   2.409   1.413  0.00  0.00     0.028 A 
BRANCH   7  11
ATOM     11  O   UNL d   1      -3.018   3.350   0.417  0.00  0.00    -0.353 OA
ATOM     12  C   UNL d   1      -3.799   2.424  -0.327  0.00  0.00     0.210 C 
ENDBRANCH   7  11
BRANCH   8  13
ATOM     13  O   UNL d   1      -1.333   5.154   1.984  0.00  0.00    -0.353 OA
ATOM     14  C   UNL d   1      -2.640   5.638   1.716  0.00  0.00     0.210 C 
ENDBRANCH   8  13
ENDBRANCH   2   5
ENDBRANCH   1   2
BRANCH   1  15
ATOM     15  C   UNL d   1      -1.232  -1.352   0.389  0.00  0.00     0.172 C 
BRANCH  15  16
ATOM     16  C   UNL d   1      -1.905  -2.559   0.949  0.00  0.00     0.066 A 
ATOM     17  O   UNL d   1      -2.707  -3.250   0.085  0.00  0.00    -0.326 OA
ATOM     18  C   UNL d   1      -3.290  -4.251   0.792  0.00  0.00     0.142 A 
ATOM     19  C   UNL d   1      -2.877  -4.216   2.103  0.00  0.00     0.027 A 
ATOM     20  C   UNL d   1      -1.980  -3.123   2.206  0.00  0.00     0.036 A 
ENDBRANCH  15  16
ENDBRANCH   1  15
BRANCH   1  21
ATOM     21  C   UNL d   1       0.832  -2.583  -0.182  0.00  0.00     0.117 C 
BRANCH  21  22
ATOM     22  C   UNL d   1       2.331  -2.778   0.014  0.00  0.00     0.118 C 
BRANCH  22  23
ATOM     23  C   UNL d   1       2.817  -4.012  -0.707  0.00  0.00     0.216 C 
ATOM     24  O   UNL d   1       2.108  -4.763  -1.364  0.00  0.00    -0.274 OA
ATOM     25  N   UNL d   1       4.160  -4.229  -0.588  0.00  0.00    -0.370 N 
ATOM     26  H   UNL d   1       4.781  -3.565  -0.147  0.00  0.00     0.159 HD
ATOM     27  H   UNL d   1       4.562  -4.996  -1.111  0.00  0.00     0.159 HD
ENDBRANCH  22  23
ENDBRANCH  21  22
ENDBRANCH   1  21
TORSDOF 9
