REMARK  4 active torsions:
REMARK  status: ('A' for Active; 'I' for Inactive)
REMARK    1  A    between atoms: N_4  and  N_1 
REMARK       I    between atoms: C_3  and  N_4 
REMARK    2  A    between atoms: O_10  and  C_3 
REMARK    3  A    between atoms: C_6  and  C_5 
REMARK    4  A    between atoms: C_15  and  O_10 
ROOT
ATOM      1  N   UNL d   1       1.019   0.014   0.128  0.00  0.00    -0.300 N 
ATOM      2  HN  UNL d   1       0.559  -0.896   0.148  1.00  0.00     0.186 HD
ATOM      3  C   UNL d   1       2.318   0.073   0.085  0.00  0.00     0.032 C 
ATOM      4  C   UNL d   1       3.134   1.351   0.046  0.00  0.00     0.070 C 
ENDROOT
BRANCH   1   5
ATOM      5  N   UNL d   1       0.266   1.145   0.147  0.00  0.00    -0.245 N 
ATOM      6  C   UNL d   1      -1.099   1.080   0.037  0.00  0.00     0.379 C 
ATOM      7  O   UNL d   1      -1.780   0.064  -0.017  0.00  0.00    -0.237 OA
ATOM      8  H   UNL d   1       0.670   2.064   0.061  0.00  0.00     0.192 HD
BRANCH   6   9
ATOM      9  O   UNL d   1      -1.588   2.344  -0.095  0.00  0.00    -0.303 OA
BRANCH   9  10
ATOM     10  C   UNL d   1      -2.910   2.424  -0.645  0.00  0.00     0.176 C 
ATOM     11  C   UNL d   1      -2.777   2.473  -2.158  0.00  0.00     0.034 C 
ENDBRANCH   9  10
ENDBRANCH   6   9
ENDBRANCH   1   5
BRANCH   3  12
ATOM     12  C   UNL d   1       3.083  -1.228   0.079  0.00  0.00    -0.013 A 
ATOM     13  C   UNL d   1       2.379  -2.442   0.093  0.00  0.00     0.014 A 
ATOM     14  C   UNL d   1       3.065  -3.664   0.094  0.00  0.00     0.007 A 
ATOM     15  C   UNL d   1       4.463  -3.693   0.078  0.00  0.00    -0.062 A 
ATOM     16  C   UNL d   1       5.165  -2.483   0.068  0.00  0.00     0.007 A 
ATOM     17  C   UNL d   1       5.191  -5.004   0.071  0.00  0.00     0.048 C 
ATOM     18  C   UNL d   1       4.481  -1.263   0.068  0.00  0.00     0.014 A 
ENDBRANCH   3  12
TORSDOF 4
