REMARK  4 active torsions:
REMARK  status: ('A' for Active; 'I' for Inactive)
REMARK    1  A    between atoms: C_2  and  C_1 
REMARK       I    between atoms: N_3  and  C_1 
REMARK    2  A    between atoms: C_7  and  N_3 
REMARK    3  A    between atoms: C_8  and  N_3 
REMARK    4  A    between atoms: C_11  and  C_7 
ROOT
ATOM      1  C   UNL d   1       0.780   0.183  -0.283  0.00  0.00     0.259 C 
ATOM      2  N   UNL d   1       0.177   1.169   0.531  0.00  0.00    -0.340 N 
ATOM      3  O   UNL d   1       1.965   0.226  -0.610  0.00  0.00    -0.267 OA
ENDROOT
BRANCH   2   4
ATOM      4  C   UNL d   1       1.051   2.269   0.973  0.00  0.00     0.165 C 
BRANCH   4   5
ATOM      5  C   UNL d   1       2.002   1.933   2.100  0.00  0.00    -0.040 A 
ATOM      6  C   UNL d   1       3.312   1.513   1.823  0.00  0.00     0.009 A 
ATOM      7  C   UNL d   1       4.217   1.255   2.854  0.00  0.00     0.001 A 
ATOM      8  C   UNL d   1       3.826   1.415   4.182  0.00  0.00     0.000 A 
ATOM      9  C   UNL d   1       2.529   1.830   4.474  0.00  0.00     0.001 A 
ATOM     10  C   UNL d   1       1.624   2.088   3.442  0.00  0.00     0.009 A 
ENDBRANCH   4   5
ENDBRANCH   2   4
BRANCH   2  11
ATOM     11  C   UNL d   1      -1.284   1.276   0.787  0.00  0.00     0.079 C 
ATOM     12  C   UNL d   1      -1.643   1.038   2.256  0.00  0.00     0.032 C 
ATOM     13  C   UNL d   1      -1.887   2.607   0.317  0.00  0.00     0.032 C 
ENDBRANCH   2  11
BRANCH   1  14
ATOM     14  C   UNL d   1       0.006  -0.968  -0.811  0.00  0.00     0.092 A 
ATOM     15  C   UNL d   1      -0.692  -1.801   0.063  0.00  0.00     0.133 A 
ATOM     16  F   UNL d   1      -0.652  -1.602   1.385  0.00  0.00    -0.205 F 
ATOM     17  C   UNL d   1      -1.455  -2.873  -0.399  0.00  0.00     0.043 A 
ATOM     18  C   UNL d   1      -1.466  -3.181  -1.754  0.00  0.00     0.005 A 
ATOM     19  C   UNL d   1      -0.704  -2.415  -2.635  0.00  0.00     0.025 A 
ATOM     20  C   UNL d   1       0.026  -1.308  -2.172  0.00  0.00     0.052 A 
ATOM     21 CL   UNL d   1       0.897  -0.410  -3.367  0.00  0.00    -0.083 Cl
ENDBRANCH   1  14
TORSDOF 4
