REMARK  7 active torsions:
REMARK  status: ('A' for Active; 'I' for Inactive)
REMARK    1  A    between atoms: C_2  and  C_6 
REMARK    2  A    between atoms: O_18  and  C_2 
REMARK    3  A    between atoms: C_15  and  N_3 
REMARK    4  A    between atoms: C_7  and  N_8 
REMARK    5  A    between atoms: N_8  and  C_23 
REMARK    6  A    between atoms: C_9  and  C_16 
REMARK    7  A    between atoms: C_23  and  C_17 
ROOT
ATOM      1  N   UNL d   1       1.080  -0.659   0.354  0.00  0.00    -0.197 NA
ATOM      2  C   UNL d   1       2.199  -0.594   0.062  0.00  0.00     0.060 C 
ATOM      3  C   UNL d   1       3.621  -0.493  -0.317  0.00  0.00     0.143 C 
ENDROOT
BRANCH   3   4
ATOM      4  C   UNL d   1       4.487  -1.441   0.523  0.00  0.00     0.136 C 
BRANCH   4   5
ATOM      5  N   UNL d   1       5.906  -1.409   0.115  0.00  0.00    -0.384 N 
ATOM      6  C   UNL d   1       6.548  -2.698  -0.141  0.00  0.00     0.149 C 
BRANCH   5   7
ATOM      7  C   UNL d   1       6.689  -0.267   0.207  0.00  0.00     0.029 A 
ATOM      8  C   UNL d   1       6.436   0.747   1.143  0.00  0.00     0.030 A 
ATOM      9  C   UNL d   1       7.173   1.941   1.157  0.00  0.00     0.015 A 
ATOM     10  C   UNL d   1       8.194   2.138   0.229  0.00  0.00    -0.021 A 
ATOM     11  C   UNL d   1       8.505   1.132  -0.678  0.00  0.00     0.015 A 
ATOM     12  C   UNL d   1       7.759  -0.053  -0.682  0.00  0.00     0.030 A 
BRANCH  10  13
ATOM     13  C   UNL d   1       8.928   3.420   0.226  0.00  0.00     0.099 C 
ATOM     14  N   UNL d   1       9.827   3.696  -0.665  0.00  0.00    -0.365 N 
ATOM     15  HN  UNL d   1      10.031   3.028  -1.408  1.00  0.00     0.165 HD
BRANCH  14  16
ATOM     16  C   UNL d   1      10.520   4.916  -0.605  0.00  0.00     0.031 A 
ATOM     17  C   UNL d   1      11.848   4.930  -1.049  0.00  0.00     0.030 A 
ATOM     18  C   UNL d   1      12.611   6.103  -1.010  0.00  0.00     0.020 A 
ATOM     19  C   UNL d   1      12.050   7.291  -0.530  0.00  0.00     0.037 A 
ATOM     20  C   UNL d   1      10.720   7.293  -0.093  0.00  0.00     0.020 A 
ATOM     21  C   UNL d   1       9.960   6.118  -0.155  0.00  0.00     0.030 A 
BRANCH  19  22
ATOM     22  C   UNL d   1      12.916   8.496  -0.456  0.00  0.00     0.176 C 
ATOM     23  O   UNL d   1      14.127   8.431  -0.330  0.00  0.00    -0.646 OA
BRANCH  22  24
ATOM     24  O   UNL d   1      12.253   9.666  -0.567  0.00  0.00    -0.773 OA
ATOM     25  H   UNL d   1      11.324   9.595  -0.850  0.00  0.00     0.167 HD
ENDBRANCH  22  24
ENDBRANCH  19  22
ENDBRANCH  14  16
ENDBRANCH  10  13
ENDBRANCH   5   7
ENDBRANCH   4   5
ENDBRANCH   3   4
TORSDOF 7
