REMARK  3 active torsions:
REMARK  status: ('A' for Active; 'I' for Inactive)
REMARK    1  A    between atoms: C_6  and  C_2 
REMARK    2  A    between atoms: O_16  and  C_8 
REMARK    3  A    between atoms: O_17  and  C_10 
ROOT
ATOM      1  N   UNL d   1      -1.666  -1.776  -0.428  0.00  0.00    -0.260 NA
ATOM      2  C   UNL d   1      -2.411  -0.575   0.001  0.00  0.00     0.239 A 
ATOM      3  O   UNL d   1      -1.527   0.557   0.229  0.00  0.00    -0.324 OA
ATOM      4  C   UNL d   1      -0.343  -1.306  -0.323  0.00  0.00     0.044 A 
ATOM      5  C   UNL d   1      -0.285   0.032   0.013  0.00  0.00     0.092 A 
ATOM      6  C   UNL d   1       0.813  -2.038  -0.515  0.00  0.00     0.033 A 
ATOM      7  C   UNL d   1       0.908   0.708   0.157  0.00  0.00     0.039 A 
ATOM      8  C   UNL d   1       2.050  -1.391  -0.362  0.00  0.00    -0.060 A 
ATOM      9  C   UNL d   1       2.087  -0.017  -0.037  0.00  0.00     0.009 A 
ATOM     10  C   UNL d   1       3.333  -2.145  -0.552  0.00  0.00     0.048 C 
ATOM     11  H   UNL d   1      -1.799  -2.559   0.207  0.00  0.00     0.130 HD
ENDROOT
BRANCH   2  12
ATOM     12  C   UNL d   1      -3.226  -0.907   1.244  0.00  0.00    -0.012 A 
ATOM     13  C   UNL d   1      -2.680  -0.774   2.533  0.00  0.00     0.050 A 
ATOM     14  C   UNL d   1      -3.392  -1.184   3.667  0.00  0.00     0.102 A 
ATOM     15  C   UNL d   1      -4.679  -1.736   3.518  0.00  0.00     0.101 A 
ATOM     16  C   UNL d   1      -5.232  -1.858   2.239  0.00  0.00     0.040 A 
ATOM     17  C   UNL d   1      -4.508  -1.455   1.113  0.00  0.00     0.014 A 
BRANCH  14  18
ATOM     18  O   UNL d   1      -2.911  -1.107   4.951  0.00  0.00    -0.353 OA
ATOM     19  C   UNL d   1      -1.613  -0.561   5.137  0.00  0.00     0.210 C 
ENDBRANCH  14  18
BRANCH  15  20
ATOM     20  O   UNL d   1      -5.302  -2.135   4.675  0.00  0.00    -0.353 OA
ATOM     21  C   UNL d   1      -6.586  -2.729   4.564  0.00  0.00     0.210 C 
ENDBRANCH  15  20
ENDBRANCH   2  12
TORSDOF 3
