REMARK  6 active torsions:
REMARK  status: ('A' for Active; 'I' for Inactive)
REMARK    1  A    between atoms: C_4  and  C_1 
REMARK    2  A    between atoms: C_6  and  C_1 
REMARK    3  A    between atoms: C_3  and  C_2 
REMARK    4  A    between atoms: C_9  and  C_3 
REMARK    5  A    between atoms: C_5  and  C_4 
REMARK    6  A    between atoms: C_10  and  C_5 
ROOT
ATOM      1  C   UNL d   1       2.361   0.069   0.023  0.00  0.00    -0.037 C 
ATOM      2  C   UNL d   1       2.823  -1.125  -0.399  0.00  0.00     0.064 C 
ENDROOT
BRANCH   1   3
ATOM      3  C   UNL d   1       3.312   1.234   0.249  0.00  0.00     0.123 C 
BRANCH   3   4
ATOM      4  C   UNL d   1       4.295   1.447  -0.903  0.00  0.00     0.163 C 
ATOM      5  O   UNL d   1       3.942   1.336  -2.079  0.00  0.00    -0.292 OA
BRANCH   4   6
ATOM      6  C   UNL d   1       5.722   1.808  -0.614  0.00  0.00     0.010 A 
ATOM      7  C   UNL d   1       6.228   1.987   0.679  0.00  0.00     0.015 A 
ATOM      8  C   UNL d   1       7.585   2.265   0.875  0.00  0.00     0.001 A 
ATOM      9  C   UNL d   1       8.443   2.383  -0.216  0.00  0.00     0.000 A 
ATOM     10  C   UNL d   1       7.946   2.235  -1.508  0.00  0.00     0.001 A 
ATOM     11  C   UNL d   1       6.594   1.949  -1.706  0.00  0.00     0.015 A 
ENDBRANCH   4   6
ENDBRANCH   3   4
ENDBRANCH   1   3
BRANCH   1  12
ATOM     12  C   UNL d   1       0.936   0.372   0.289  0.00  0.00    -0.029 A 
ATOM     13  C   UNL d   1       0.550   0.996   1.484  0.00  0.00     0.012 A 
ATOM     14  C   UNL d   1      -0.758   1.455   1.661  0.00  0.00     0.007 A 
ATOM     15  C   UNL d   1      -1.706   1.301   0.644  0.00  0.00    -0.062 A 
ATOM     16  C   UNL d   1      -1.345   0.614  -0.519  0.00  0.00     0.007 A 
ATOM     17  C   UNL d   1      -3.088   1.859   0.809  0.00  0.00     0.048 C 
ATOM     18  C   UNL d   1      -0.034   0.163  -0.699  0.00  0.00     0.012 A 
ENDBRANCH   1  12
BRANCH   2  19
ATOM     19  C   UNL d   1       2.037  -2.374  -0.564  0.00  0.00     0.182 C 
ATOM     20  O   UNL d   1       1.204  -2.750   0.253  0.00  0.00    -0.288 OA
BRANCH  19  21
ATOM     21  C   UNL d   1       2.422  -3.235  -1.711  0.00  0.00     0.014 A 
ATOM     22  C   UNL d   1       2.494  -4.620  -1.523  0.00  0.00     0.015 A 
ATOM     23  C   UNL d   1       2.879  -5.445  -2.581  0.00  0.00     0.001 A 
ATOM     24  C   UNL d   1       3.172  -4.891  -3.829  0.00  0.00     0.000 A 
ATOM     25  C   UNL d   1       3.080  -3.513  -4.022  0.00  0.00     0.001 A 
ATOM     26  C   UNL d   1       2.709  -2.681  -2.965  0.00  0.00     0.015 A 
ENDBRANCH  19  21
ENDBRANCH   2  19
TORSDOF 6
