REMARK  3 active torsions:
REMARK  status: ('A' for Active; 'I' for Inactive)
REMARK    1  A    between atoms: O_4  and  C_1 
REMARK    2  A    between atoms: C_12  and  O_4 
REMARK    3  A    between atoms: C_7  and  C_8 
ROOT
ATOM      1  O   UNL d   1       0.030  -2.260  -0.111  0.00  0.00    -0.307 OA
ENDROOT
BRANCH   1   2
ATOM      2  C   UNL d   1       1.098  -2.579   0.702  0.00  0.00     0.122 A 
ATOM      3  C   UNL d   1       1.670  -3.853   0.791  0.00  0.00     0.085 A 
ATOM      4 CL   UNL d   1       1.163  -5.210  -0.146  0.00  0.00    -0.080 Cl
ATOM      5  C   UNL d   1       2.757  -4.026   1.642  0.00  0.00     0.114 A 
ATOM      6  N   UNL d   1       3.343  -3.027   2.343  0.00  0.00    -0.372 N 
ATOM      7  C   UNL d   1       2.822  -1.790   2.173  0.00  0.00     0.114 A 
ATOM      8  HN  UNL d   1       4.134  -3.197   2.964  1.00  0.00     0.164 HD
ATOM      9  C   UNL d   1       1.714  -1.520   1.380  0.00  0.00     0.085 A 
ATOM     10 CL   UNL d   1       1.165   0.109   1.241  0.00  0.00    -0.080 Cl
ENDBRANCH   1   2
BRANCH   1  11
ATOM     11  C   UNL d   1      -1.149  -2.968  -0.032  0.00  0.00     0.076 A 
ATOM     12  C   UNL d   1      -1.549  -3.757   1.043  0.00  0.00     0.038 A 
ATOM     13  C   UNL d   1      -2.723  -4.519   0.952  0.00  0.00     0.018 A 
ATOM     14  C   UNL d   1      -3.541  -4.425  -0.181  0.00  0.00     0.009 A 
ATOM     15  C   UNL d   1      -3.179  -3.577  -1.230  0.00  0.00     0.018 A 
ATOM     16  C   UNL d   1      -1.980  -2.849  -1.150  0.00  0.00     0.038 A 
BRANCH  14  17
ATOM     17  C   UNL d   1      -4.768  -5.261  -0.224  0.00  0.00     0.155 C 
ATOM     18  O   UNL d   1      -4.761  -6.369   0.308  0.00  0.00    -0.293 OA
ATOM     19  C   UNL d   1      -6.014  -4.713  -0.870  0.00  0.00     0.096 C 
ENDBRANCH  14  17
ENDBRANCH   1  11
TORSDOF 3
