REMARK  2 active torsions:
REMARK  status: ('A' for Active; 'I' for Inactive)
REMARK    1  A    between atoms: O_9  and  N_4 
REMARK    2  A    between atoms: C_8  and  C_6 
ROOT
ATOM      1  C   UNL d   1       0.540   0.418   0.071  0.00  0.00     0.105 A 
ATOM      2  N   UNL d   1       1.912   0.466   0.057  0.00  0.00    -0.335 N 
ATOM      3  HN  UNL d   1       2.494   1.301   0.115  1.00  0.00     0.168 HD
ATOM      4  N   UNL d   1       1.235  -1.634  -0.056  0.00  0.00    -0.209 N 
ATOM      5  C   UNL d   1       0.109  -0.889   0.025  0.00  0.00     0.072 A 
ATOM      6  C   UNL d   1       2.333  -0.793  -0.047  0.00  0.00     0.144 A 
ATOM      7  C   UNL d   1      -0.403   1.532   0.128  0.00  0.00     0.177 C 
ATOM      8  O   UNL d   1      -0.062   2.713   0.123  0.00  0.00    -0.291 OA
ATOM      9  C   UNL d   1      -1.297  -1.359   0.046  0.00  0.00     0.062 C 
ATOM     10  C   UNL d   1      -1.873   1.129   0.286  0.00  0.00     0.086 C 
ATOM     11  C   UNL d   1      -2.210  -0.207  -0.406  0.00  0.00     0.014 C 
ENDROOT
BRANCH   6  12
ATOM     12  C   UNL d   1       3.740  -1.211  -0.114  0.00  0.00     0.010 A 
ATOM     13  C   UNL d   1       4.725  -0.406   0.478  0.00  0.00     0.015 A 
ATOM     14  C   UNL d   1       6.078  -0.769   0.425  0.00  0.00     0.001 A 
ATOM     15  C   UNL d   1       6.459  -1.936  -0.230  0.00  0.00     0.000 A 
ATOM     16  C   UNL d   1       5.495  -2.737  -0.836  0.00  0.00     0.001 A 
ATOM     17  C   UNL d   1       4.146  -2.376  -0.781  0.00  0.00     0.015 A 
ENDBRANCH   6  12
BRANCH   4  18
ATOM     18  O   UNL d   1       1.234  -3.024  -0.116  0.00  0.00    -0.281 OA
ATOM     19  H   UNL d   1       0.769  -3.222   0.714  0.00  0.00     0.245 HD
ENDBRANCH   4  18
TORSDOF 2
