REMARK  5 active torsions:
REMARK  status: ('A' for Active; 'I' for Inactive)
REMARK    1  A    between atoms: C_3  and  C_1 
REMARK    2  A    between atoms: N_2  and  C_6 
REMARK       I    between atoms: N_7  and  C_3 
REMARK    3  A    between atoms: S_8  and  C_4 
REMARK    4  A    between atoms: C_19  and  N_7 
REMARK    5  A    between atoms: C_10  and  S_8 
ROOT
ATOM      1  C   UNL d   1       1.299  -0.092  -0.341  0.00  0.00     0.051 A 
ATOM      2  C   UNL d   1       0.606  -1.289  -0.089  0.00  0.00     0.022 A 
ATOM      3  C   UNL d   1       0.640   1.146  -0.310  0.00  0.00     0.054 A 
ATOM      4  C   UNL d   1      -0.732   1.186  -0.040  0.00  0.00     0.103 A 
ATOM      5  C   UNL d   1      -0.771  -1.222   0.186  0.00  0.00     0.022 A 
ATOM      6  C   UNL d   1      -1.443   0.006   0.208  0.00  0.00     0.037 A 
ENDROOT
BRANCH   1   7
ATOM      7  C   UNL d   1       2.702  -0.084  -0.802  0.00  0.00     0.257 C 
ATOM      8  N   UNL d   1       3.586   0.572   0.034  0.00  0.00    -0.323 N 
ATOM      9  H   UNL d   1       3.263   0.790   0.970  0.00  0.00     0.169 HD
ATOM     10  O   UNL d   1       2.955  -0.626  -1.872  0.00  0.00    -0.267 OA
BRANCH   8  11
ATOM     11  C   UNL d   1       4.958   0.774  -0.237  0.00  0.00     0.037 A 
ATOM     12  C   UNL d   1       5.502   0.675  -1.515  0.00  0.00     0.046 A 
ATOM     13  C   UNL d   1       6.868   0.841  -1.670  0.00  0.00     0.090 A 
ATOM     14  N   UNL d   1       7.713   1.101  -0.650  0.00  0.00    -0.375 N 
ATOM     15  C   UNL d   1       7.159   1.219   0.574  0.00  0.00     0.090 A 
ATOM     16  HN  UNL d   1       8.717   1.204  -0.798  1.00  0.00     0.164 HD
ATOM     17  C   UNL d   1       5.801   1.086   0.827  0.00  0.00     0.046 A 
ENDBRANCH   8  11
ENDBRANCH   1   7
BRANCH   2  18
ATOM     18  S   UNL d   1       1.342  -2.913  -0.171  0.00  0.00    -0.072 SA
BRANCH  18  19
ATOM     19  C   UNL d   1       2.352  -2.987   1.299  0.00  0.00     0.074 A 
ATOM     20  N   UNL d   1       2.106  -2.124   2.314  0.00  0.00    -0.360 N 
ATOM     21  C   UNL d   1       2.839  -2.280   3.441  0.00  0.00     0.089 A 
ATOM     22  HN  UNL d   1       1.401  -1.391   2.233  1.00  0.00     0.166 HD
ATOM     23  C   UNL d   1       3.824  -3.242   3.601  0.00  0.00     0.017 A 
ATOM     24  C   UNL d   1       4.077  -4.102   2.542  0.00  0.00     0.004 A 
ATOM     25  C   UNL d   1       3.329  -3.976   1.374  0.00  0.00     0.037 A 
ENDBRANCH  18  19
ENDBRANCH   2  18
BRANCH   4  26
ATOM     26  N   UNL d   1      -1.437   2.474  -0.054  0.00  0.00    -0.116 N 
ATOM     27  O   UNL d   1      -0.758   3.495  -0.229  0.00  0.00    -0.532 OA
ATOM     28  O   UNL d   1      -2.664   2.460   0.114  0.00  0.00    -0.532 OA
ENDBRANCH   4  26
TORSDOF 5
