REMARK  2 active torsions:
REMARK  status: ('A' for Active; 'I' for Inactive)
REMARK    1  A    between atoms: C_2  and  S_1 
REMARK    2  A    between atoms: N_4  and  S_1 
ROOT
ATOM      1  S   UNL d   1       0.909   0.036   0.044  0.00  0.00     0.263 S 
ATOM      2  O   UNL d   1       1.147  -0.555   1.342  0.00  0.00    -0.200 OA
ATOM      3  O   UNL d   1      -0.072  -0.541  -0.855  0.00  0.00    -0.200 OA
ENDROOT
BRANCH   1   4
ATOM      4  C   UNL d   1       2.432   0.039  -0.833  0.00  0.00     0.110 A 
ATOM      5  C   UNL d   1       3.628   0.610  -0.370  0.00  0.00     0.108 A 
ATOM      6  C   UNL d   1       4.835   0.618  -1.197  0.00  0.00     0.086 A 
ATOM      7  N   UNL d   1       3.933   1.216   0.784  0.00  0.00    -0.238 N 
ATOM      8  N   UNL d   1       5.803   1.256  -0.531  0.00  0.00    -0.239 N 
ATOM      9  C   UNL d   1       4.887   0.036  -2.478  0.00  0.00     0.034 A 
ATOM     10  O   UNL d   1       5.250   1.619   0.682  0.00  0.00    -0.156 OA
ATOM     11  HN  UNL d   1       6.754   1.438  -0.852  1.00  0.00     0.197 HD
ATOM     12  C   UNL d   1       3.692  -0.566  -2.900  0.00  0.00     0.004 A 
ATOM     13  C   UNL d   1       2.512  -0.564  -2.115  0.00  0.00     0.028 A 
ATOM     14  HN  UNL d   1       3.314   1.354   1.582  1.00  0.00     0.197 HD
ENDBRANCH   1   4
BRANCH   1  15
ATOM     15  N   UNL d   1       0.473   1.673   0.228  0.00  0.00    -0.306 N 
ATOM     16  C   UNL d   1       0.420   2.486  -1.010  0.00  0.00     0.140 C 
ATOM     17  C   UNL d   1      -0.387   3.756  -0.780  0.00  0.00     0.089 C 
ATOM     18  C   UNL d   1       0.114   4.529   0.438  0.00  0.00     0.167 C 
ATOM     19  C   UNL d   1       0.160   3.627   1.669  0.00  0.00     0.089 C 
ATOM     20  O   UNL d   1      -0.782   5.628   0.672  0.00  0.00    -0.353 OA
ATOM     21  O   UNL d   1       1.436   5.039   0.185  0.00  0.00    -0.353 OA
ATOM     22  C   UNL d   1       1.027   2.407   1.388  0.00  0.00     0.140 C 
ATOM     23  C   UNL d   1       0.054   6.774   0.815  0.00  0.00     0.197 C 
ATOM     24  C   UNL d   1       1.266   6.441  -0.010  0.00  0.00     0.197 C 
ENDBRANCH   1  15
TORSDOF 2
