REMARK  3 active torsions:
REMARK  status: ('A' for Active; 'I' for Inactive)
REMARK    1  A    between atoms: N_3  and  S_1 
REMARK    2  A    between atoms: C_11  and  S_1 
REMARK    3  A    between atoms: C_2  and  C_5 
REMARK       I    between atoms: C_5  and  N_3 
ROOT
ATOM      1  N   UNL d   1       0.834  -1.442  -0.525  0.00  0.00    -0.278 N 
ATOM      2  HN  UNL d   1       0.656  -2.236   0.089  1.00  0.00     0.179 HD
ATOM      3  C   UNL d   1       0.876  -1.630  -1.916  0.00  0.00     0.281 C 
ATOM      4  O   UNL d   1       1.700  -1.047  -2.617  0.00  0.00    -0.265 OA
ENDROOT
BRANCH   1   5
ATOM      5  S   UNL d   1       1.055  -0.048   0.075  0.00  0.00     0.055 S 
ATOM      6  O   UNL d   1       0.693   1.193  -0.583  0.00  0.00    -0.245 OA
ATOM      7  C   UNL d   1       2.759   0.079   0.560  0.00  0.00     0.142 C 
BRANCH   5   8
ATOM      8  C   UNL d   1       0.205  -0.052   1.649  0.00  0.00     0.038 A 
ATOM      9  C   UNL d   1       0.128  -1.233   2.389  0.00  0.00     0.022 A 
ATOM     10  C   UNL d   1      -0.579  -1.245   3.595  0.00  0.00     0.008 A 
ATOM     11  C   UNL d   1      -1.214  -0.085   4.058  0.00  0.00    -0.062 A 
ATOM     12  C   UNL d   1      -1.122   1.094   3.307  0.00  0.00     0.008 A 
ATOM     13  C   UNL d   1      -2.001  -0.128   5.335  0.00  0.00     0.048 C 
ATOM     14  C   UNL d   1      -0.418   1.113   2.101  0.00  0.00     0.022 A 
ENDBRANCH   5   8
ENDBRANCH   1   5
BRANCH   3  15
ATOM     15  C   UNL d   1      -0.030  -2.620  -2.542  0.00  0.00     0.125 A 
ATOM     16  N   UNL d   1      -0.816  -3.448  -1.828  0.00  0.00    -0.256 N 
ATOM     17  O   UNL d   1      -1.543  -4.180  -2.746  0.00  0.00    -0.242 OA
ATOM     18  HN  UNL d   1      -0.865  -3.521  -0.811  1.00  0.00     0.195 HD
ATOM     19  C   UNL d   1      -1.207  -3.796  -4.004  0.00  0.00     0.075 A 
ATOM     20  C   UNL d   1      -0.226  -2.840  -3.935  0.00  0.00     0.071 A 
ATOM     21  C   UNL d   1      -1.948  -4.438  -5.104  0.00  0.00     0.079 C 
ENDBRANCH   3  15
TORSDOF 3
