REMARK  7 active torsions:
REMARK  status: ('A' for Active; 'I' for Inactive)
REMARK    1  A    between atoms: C_4  and  S_1 
REMARK    2  A    between atoms: N_6  and  S_1 
REMARK    3  A    between atoms: C_2  and  N_6 
REMARK    4  A    between atoms: C_13  and  C_3 
REMARK    5  A    between atoms: C_18  and  C_5 
REMARK    6  A    between atoms: C_15  and  C_9 
REMARK    7  A    between atoms: O_24  and  C_15 
ROOT
ATOM      1  C   UNL d   1       0.751  -1.545   2.150  0.00  0.00     0.145 A 
ATOM      2  C   UNL d   1       1.182  -3.607   2.901  0.00  0.00     0.147 A 
ATOM      3  C   UNL d   1       0.384  -2.870   1.958  0.00  0.00     0.053 A 
ATOM      4  N   UNL d   1       1.997  -2.776   3.587  0.00  0.00    -0.292 N 
ATOM      5  HN  UNL d   1       2.671  -3.024   4.311  1.00  0.00     0.187 HD
ATOM      6  N   UNL d   1       1.727  -1.555   3.109  0.00  0.00    -0.279 N 
ATOM      7  C   UNL d   1       2.547  -0.442   3.527  0.00  0.00     0.179 C 
ENDROOT
BRANCH   1   8
ATOM      8  N   UNL d   1       0.270  -0.429   1.476  0.00  0.00    -0.264 N 
ATOM      9  H   UNL d   1       0.041   0.409   2.007  0.00  0.00     0.180 HD
BRANCH   8  10
ATOM     10  S   UNL d   1       0.873  -0.030   0.009  0.00  0.00     0.267 S 
ATOM     11  O   UNL d   1       1.670   1.172   0.147  0.00  0.00    -0.200 OA
ATOM     12  O   UNL d   1       1.420  -1.179  -0.682  0.00  0.00    -0.200 OA
BRANCH  10  13
ATOM     13  C   UNL d   1      -0.441   0.505  -0.978  0.00  0.00     0.127 A 
ATOM     14  C   UNL d   1      -1.293   1.621  -0.669  0.00  0.00     0.094 A 
ATOM     15  C   UNL d   1      -2.115   1.774  -1.774  0.00  0.00     0.067 A 
ATOM     16  C   UNL d   1      -3.193   2.710  -2.173  0.00  0.00     0.078 C 
ATOM     17  O   UNL d   1      -1.828   0.823  -2.703  0.00  0.00    -0.318 OA
ATOM     18  C   UNL d   1      -0.803   0.059  -2.233  0.00  0.00     0.073 A 
ATOM     19  C   UNL d   1      -0.333  -0.973  -3.183  0.00  0.00     0.078 C 
BRANCH  14  20
ATOM     20  C   UNL d   1      -1.275   2.424   0.539  0.00  0.00     0.297 C 
ATOM     21  O   UNL d   1      -0.797   1.995   1.585  0.00  0.00    -0.259 OA
BRANCH  20  22
ATOM     22  O   UNL d   1      -1.837   3.647   0.365  0.00  0.00    -0.322 OA
ATOM     23  C   UNL d   1      -1.892   4.496   1.511  0.00  0.00     0.213 C 
ENDBRANCH  20  22
ENDBRANCH  14  20
ENDBRANCH  10  13
ENDBRANCH   8  10
ENDBRANCH   1   8
BRANCH   3  24
ATOM     24  C   UNL d   1      -0.618  -3.316   1.000  0.00  0.00    -0.020 A 
ATOM     25  C   UNL d   1      -1.841  -2.639   0.875  0.00  0.00     0.012 A 
ATOM     26  C   UNL d   1      -2.787  -3.046  -0.068  0.00  0.00     0.001 A 
ATOM     27  C   UNL d   1      -2.535  -4.152  -0.875  0.00  0.00     0.000 A 
ATOM     28  C   UNL d   1      -1.335  -4.846  -0.747  0.00  0.00     0.001 A 
ATOM     29  C   UNL d   1      -0.374  -4.423   0.176  0.00  0.00     0.012 A 
ENDBRANCH   3  24
BRANCH   2  30
ATOM     30  C   UNL d   1       1.202  -5.096   3.180  0.00  0.00     0.434 C 
ATOM     31  F   UNL d   1       0.154  -5.760   2.627  0.00  0.00    -0.165 F 
ATOM     32  F   UNL d   1       2.328  -5.682   2.692  0.00  0.00    -0.165 F 
ATOM     33  F   UNL d   1       1.159  -5.370   4.512  0.00  0.00    -0.165 F 
ENDBRANCH   2  30
TORSDOF 7
