REMARK  5 active torsions:
REMARK  status: ('A' for Active; 'I' for Inactive)
REMARK    1  A    between atoms: C_5  and  S_1 
REMARK    2  A    between atoms: N_6  and  S_1 
REMARK    3  A    between atoms: C_2  and  N_8 
REMARK    4  A    between atoms: C_10  and  O_13 
REMARK    5  A    between atoms: O_13  and  C_12 
ROOT
ATOM      1  N   UNL d   1       0.306  -1.026   1.159  0.00  0.00    -0.304 N 
ATOM      2  N   UNL d   1       0.939  -3.803   1.428  0.00  0.00    -0.358 N 
ATOM      3  C   UNL d   1       1.210  -1.452   2.249  0.00  0.00     0.155 C 
ATOM      4  C   UNL d   1      -0.692  -2.040   0.781  0.00  0.00     0.155 C 
ATOM      5  C   UNL d   1       0.015  -3.337   0.362  0.00  0.00     0.145 C 
ATOM      6  C   UNL d   1       1.905  -2.777   1.892  0.00  0.00     0.145 C 
ENDROOT
BRANCH   1   7
ATOM      7  S   UNL d   1       0.778   0.156   0.068  0.00  0.00     0.263 S 
ATOM      8  O   UNL d   1       2.205   0.317   0.188  0.00  0.00    -0.200 OA
ATOM      9  O   UNL d   1       0.135  -0.106  -1.201  0.00  0.00    -0.200 OA
BRANCH   7  10
ATOM     10  C   UNL d   1       0.013   1.625   0.738  0.00  0.00     0.113 A 
ATOM     11  C   UNL d   1       0.174   2.850   0.083  0.00  0.00     0.101 A 
ATOM     12  C   UNL d   1      -0.578   3.955   0.498  0.00  0.00     0.039 A 
ATOM     13  C   UNL d   1      -1.451   3.847   1.586  0.00  0.00     0.003 A 
ATOM     14  C   UNL d   1      -1.563   2.644   2.276  0.00  0.00     0.002 A 
ATOM     15  C   UNL d   1      -0.828   1.535   1.859  0.00  0.00     0.028 A 
BRANCH  11  16
ATOM     16  O   UNL d   1       0.918   2.964  -1.056  0.00  0.00    -0.254 OA
BRANCH  16  17
ATOM     17  C   UNL d   1       2.268   3.361  -0.812  0.00  0.00     0.530 C 
ATOM     18  F   UNL d   1       2.736   2.925   0.375  0.00  0.00    -0.144 F 
ATOM     19  F   UNL d   1       3.046   2.863  -1.799  0.00  0.00    -0.144 F 
ATOM     20  F   UNL d   1       2.361   4.708  -0.842  0.00  0.00    -0.144 F 
ENDBRANCH  16  17
ENDBRANCH  11  16
ENDBRANCH   7  10
ENDBRANCH   1   7
BRANCH   2  21
ATOM     21  C   UNL d   1       1.371  -5.100   1.308  0.00  0.00     0.148 A 
ATOM     22  N   UNL d   1       0.933  -5.932   0.386  0.00  0.00    -0.336 N 
ATOM     23  C   UNL d   1       1.500  -7.186   0.525  0.00  0.00     0.051 A 
ATOM     24  HN  UNL d   1       0.260  -5.683  -0.339  1.00  0.00     0.168 HD
ATOM     25  C   UNL d   1       1.258  -8.306  -0.298  0.00  0.00     0.032 A 
ATOM     26  C   UNL d   1       2.384  -7.321   1.592  0.00  0.00     0.036 A 
ATOM     27  C   UNL d   1       1.889  -9.524  -0.017  0.00  0.00     0.026 A 
ATOM     28  C   UNL d   1       2.757  -9.630   1.065  0.00  0.00     0.035 A 
ATOM     29  C   UNL d   1       3.029  -8.534   1.885  0.00  0.00     0.045 A 
ATOM     30 CL   UNL d   1       3.509 -11.141   1.408  0.00  0.00    -0.084 Cl
ATOM     31  S   UNL d   1       2.499  -5.820   2.409  0.00  0.00    -0.052 SA
ENDBRANCH   2  21
TORSDOF 5
