REMARK  3 active torsions:
REMARK  status: ('A' for Active; 'I' for Inactive)
REMARK    1  A    between atoms: C_8  and  C_1 
REMARK    2  A    between atoms: C_11  and  N_5 
REMARK       I    between atoms: N_14  and  C_8 
REMARK    3  A    between atoms: N_16  and  N_14 
ROOT
ATOM      1  C   UNL d   1      -0.628   1.158  -0.037  0.00  0.00     0.125 A 
ATOM      2  C   UNL d   1       1.499   0.068  -0.013  0.00  0.00     0.122 A 
ATOM      3  N   UNL d   1      -1.312   0.054  -0.007  0.00  0.00    -0.285 N 
ATOM      4  HN  UNL d   1      -2.332   0.072  -0.018  1.00  0.00     0.188 HD
ATOM      5  N   UNL d   1      -0.626  -1.147   0.041  0.00  0.00    -0.219 N 
ATOM      6  C   UNL d   1       0.769  -1.227  -0.017  0.00  0.00     0.288 A 
ATOM      7  C   UNL d   1       0.857   1.248  -0.020  0.00  0.00    -0.002 A 
ATOM      8  C   UNL d   1       2.920  -0.009   0.006  0.00  0.00     0.106 C 
ATOM      9  N   UNL d   1       4.081  -0.003   0.032  0.00  0.00    -0.191 NA
ATOM     10  O   UNL d   1       1.431  -2.262  -0.085  0.00  0.00    -0.265 OA
ATOM     11  C   UNL d   1       1.533   2.590   0.008  0.00  0.00     0.052 C 
ENDROOT
BRANCH   1  12
ATOM     12  C   UNL d   1      -1.438   2.466  -0.039  0.00  0.00     0.284 C 
ATOM     13  O   UNL d   1      -1.034   3.472  -0.603  0.00  0.00    -0.265 OA
ATOM     14  N   UNL d   1      -2.629   2.391   0.670  0.00  0.00    -0.288 N 
ATOM     15  H   UNL d   1      -2.992   1.468   0.912  0.00  0.00     0.183 HD
BRANCH  14  16
ATOM     16  N   UNL d   1      -3.482   3.519   0.719  0.00  0.00    -0.247 NA
ATOM     17  H   UNL d   1      -3.049   4.260   0.148  0.00  0.00     0.143 HD
ATOM     18  H   UNL d   1      -3.467   3.894   1.671  0.00  0.00     0.143 HD
ENDBRANCH  14  16
ENDBRANCH   1  12
BRANCH   5  19
ATOM     19  C   UNL d   1      -1.466  -2.311   0.158  0.00  0.00     0.060 A 
ATOM     20  C   UNL d   1      -0.981  -3.533   0.656  0.00  0.00     0.031 A 
ATOM     21  C   UNL d   1      -1.806  -4.657   0.774  0.00  0.00     0.002 A 
ATOM     22  C   UNL d   1      -3.139  -4.586   0.390  0.00  0.00     0.000 A 
ATOM     23  C   UNL d   1      -3.647  -3.388  -0.103  0.00  0.00     0.002 A 
ATOM     24  C   UNL d   1      -2.823  -2.259  -0.208  0.00  0.00     0.031 A 
ENDBRANCH   5  19
TORSDOF 3
