REMARK  3 active torsions:
REMARK  status: ('A' for Active; 'I' for Inactive)
REMARK    1  A    between atoms: N_2  and  S_1 
REMARK    2  A    between atoms: C_4  and  S_1 
REMARK    3  A    between atoms: C_6  and  N_5 
ROOT
ATOM      1  N   UNL d   1       0.653  -0.327   1.112  0.00  0.00    -0.203 NA
ATOM      2  N   UNL d   1       2.424  -1.476   3.093  0.00  0.00    -0.378 N 
ATOM      3  C   UNL d   1       1.418   0.532   2.079  0.00  0.00     0.127 C 
ATOM      4  C   UNL d   1       0.463  -1.718   1.644  0.00  0.00     0.127 C 
ATOM      5  C   UNL d   1       1.793  -2.357   2.087  0.00  0.00     0.138 C 
ATOM      6  C   UNL d   1       2.741  -0.141   2.525  0.00  0.00     0.138 C 
ENDROOT
BRANCH   2   7
ATOM      7  C   UNL d   1       3.342  -2.003   4.012  0.00  0.00     0.044 A 
ATOM      8  C   UNL d   1       3.544  -1.387   5.285  0.00  0.00     0.017 A 
ATOM      9  C   UNL d   1       4.504  -1.951   6.159  0.00  0.00     0.046 A 
ATOM     10  C   UNL d   1       2.812  -0.262   5.742  0.00  0.00     0.018 A 
ATOM     11  C   UNL d   1       4.749  -1.349   7.385  0.00  0.00     0.054 A 
ATOM     12  N   UNL d   1       5.191  -3.062   5.864  0.00  0.00    -0.365 N 
ATOM     13  C   UNL d   1       4.058  -0.207   7.784  0.00  0.00     0.036 A 
ATOM     14  C   UNL d   1       3.078   0.336   6.971  0.00  0.00     0.025 A 
ATOM     15 CL   UNL d   1       4.406   0.524   9.302  0.00  0.00    -0.084 Cl
ATOM     16  C   UNL d   1       4.950  -3.655   4.679  0.00  0.00     0.090 A 
ATOM     17  HN  UNL d   1       5.876  -3.447   6.515  1.00  0.00     0.165 HD
ATOM     18  C   UNL d   1       4.062  -3.170   3.737  0.00  0.00     0.047 A 
ENDBRANCH   2   7
BRANCH   1  19
ATOM     19  S   UNL d   1       1.093  -0.192  -0.517  0.00  0.00     0.243 S 
ATOM     20  O   UNL d   1       0.610  -1.354  -1.228  0.00  0.00    -0.206 OA
ATOM     21  O   UNL d   1       2.485   0.203  -0.588  0.00  0.00    -0.206 OA
BRANCH  19  22
ATOM     22  C   UNL d   1       0.103   1.191  -1.040  0.00  0.00     0.076 A 
ATOM     23  C   UNL d   1      -1.186   0.953  -1.530  0.00  0.00     0.043 A 
ATOM     24  C   UNL d   1      -1.935   2.020  -2.019  0.00  0.00     0.012 A 
ATOM     25 BR   UNL d   1      -3.667   1.709  -2.711  0.00  0.00    -0.051 Br
ATOM     26  C   UNL d   1      -1.413   3.313  -2.020  0.00  0.00     0.019 A 
ATOM     27  C   UNL d   1      -0.126   3.546  -1.528  0.00  0.00     0.003 A 
ATOM     28  C   UNL d   1       0.640   2.483  -1.044  0.00  0.00     0.025 A 
ENDBRANCH  19  22
ENDBRANCH   1  19
TORSDOF 3
