REMARK  5 active torsions:
REMARK  status: ('A' for Active; 'I' for Inactive)
REMARK    1  A    between atoms: C_3  and  N_1 
REMARK    2  A    between atoms: S_6  and  C_2 
REMARK    3  A    between atoms: C_7  and  C_3 
REMARK    4  A    between atoms: C_8  and  C_3 
REMARK    5  A    between atoms: C_9  and  S_6 
ROOT
ATOM      1  C   UNL d   1       0.651   2.076   0.566  0.00  0.00     0.289 C 
ENDROOT
BRANCH   1   2
ATOM      2  N   UNL d   1       0.290   0.967  -0.344  0.00  0.00     0.104 N 
ATOM      3  C   UNL d   1      -1.161   0.640  -0.335  0.00  0.00     0.291 C 
ATOM      4  C   UNL d   1      -0.775  -0.860  -0.374  0.00  0.00     0.109 C 
ATOM      5  C   UNL d   1       0.540  -0.362   0.288  0.00  0.00     0.291 C 
BRANCH   4   6
ATOM      6  S   UNL d   1      -0.447  -1.522  -2.068  0.00  0.00    -0.122 SA
BRANCH   6   7
ATOM      7  C   UNL d   1      -2.105  -1.937  -2.554  0.00  0.00     0.001 A 
ATOM      8  C   UNL d   1      -2.898  -1.004  -3.230  0.00  0.00     0.020 A 
ATOM      9  C   UNL d   1      -4.151  -1.371  -3.729  0.00  0.00     0.025 A 
ATOM     10  C   UNL d   1      -4.608  -2.677  -3.561  0.00  0.00     0.034 A 
ATOM     11  C   UNL d   1      -3.829  -3.614  -2.884  0.00  0.00     0.025 A 
ATOM     12 CL   UNL d   1      -6.130  -3.142  -4.214  0.00  0.00    -0.084 Cl
ATOM     13  C   UNL d   1      -2.577  -3.243  -2.382  0.00  0.00     0.020 A 
ENDBRANCH   6   7
ENDBRANCH   4   6
ENDBRANCH   1   2
BRANCH   1  14
ATOM     14  C   UNL d   1       2.170   2.302   0.561  0.00  0.00    -0.021 A 
ATOM     15  C   UNL d   1       2.858   2.565  -0.638  0.00  0.00     0.010 A 
ATOM     16  C   UNL d   1       4.227   2.838  -0.636  0.00  0.00     0.001 A 
ATOM     17  C   UNL d   1       4.933   2.843   0.562  0.00  0.00     0.000 A 
ATOM     18  C   UNL d   1       4.273   2.566   1.759  0.00  0.00     0.001 A 
ATOM     19  C   UNL d   1       2.901   2.299   1.761  0.00  0.00     0.010 A 
ENDBRANCH   1  14
BRANCH   1  20
ATOM     20  C   UNL d   1      -0.073   3.394   0.247  0.00  0.00    -0.021 A 
ATOM     21  C   UNL d   1      -0.357   4.295   1.290  0.00  0.00     0.010 A 
ATOM     22  C   UNL d   1      -0.988   5.512   1.027  0.00  0.00     0.001 A 
ATOM     23  C   UNL d   1      -1.339   5.851  -0.277  0.00  0.00     0.000 A 
ATOM     24  C   UNL d   1      -1.052   4.977  -1.324  0.00  0.00     0.001 A 
ATOM     25  C   UNL d   1      -0.416   3.762  -1.064  0.00  0.00     0.010 A 
ENDBRANCH   1  20
TORSDOF 5
