REMARK  5 active torsions:
REMARK  status: ('A' for Active; 'I' for Inactive)
REMARK    1  A    between atoms: N_4  and  S_1 
REMARK    2  A    between atoms: C_6  and  S_1 
REMARK    3  A    between atoms: N_3  and  C_2 
REMARK    4  A    between atoms: C_5  and  N_4 
REMARK    5  A    between atoms: O_21  and  C_15 
ROOT
ATOM      1  N   UNL d   1       0.564   0.542   1.525  0.00  0.00    -0.179 NA
ATOM      2  H   UNL d   1      -0.210   1.183   1.708  0.00  0.00     0.146 HD
ENDROOT
BRANCH   1   3
ATOM      3  S   UNL d   1       0.226  -0.352   0.107  0.00  0.00     0.245 S 
ATOM      4  O   UNL d   1      -1.009  -1.064   0.357  0.00  0.00    -0.206 OA
ATOM      5  O   UNL d   1       1.428  -1.021  -0.324  0.00  0.00    -0.206 OA
BRANCH   3   6
ATOM      6  C   UNL d   1      -0.131   0.947  -1.054  0.00  0.00     0.074 A 
ATOM      7  C   UNL d   1       0.855   1.896  -1.342  0.00  0.00     0.026 A 
ATOM      8  C   UNL d   1       0.569   2.933  -2.235  0.00  0.00     0.025 A 
ATOM      9  C   UNL d   1      -0.691   3.010  -2.833  0.00  0.00     0.034 A 
ATOM     10  C   UNL d   1      -1.669   2.055  -2.553  0.00  0.00     0.025 A 
ATOM     11 CL   UNL d   1      -1.041   4.294  -3.923  0.00  0.00    -0.084 Cl
ATOM     12  C   UNL d   1      -1.391   1.017  -1.660  0.00  0.00     0.026 A 
ENDBRANCH   3   6
ENDBRANCH   1   3
BRANCH   1  13
ATOM     13  C   UNL d   1       0.892  -0.278   2.666  0.00  0.00     0.056 A 
ATOM     14  C   UNL d   1       2.190  -0.701   2.966  0.00  0.00     0.127 A 
ATOM     15  C   UNL d   1       2.449  -1.590   4.019  0.00  0.00     0.074 A 
ATOM     16  C   UNL d   1       1.395  -2.062   4.800  0.00  0.00     0.070 A 
ATOM     17  C   UNL d   1       0.093  -1.634   4.524  0.00  0.00     0.039 A 
ATOM     18  C   UNL d   1      -0.157  -0.763   3.454  0.00  0.00     0.030 A 
BRANCH  14  19
ATOM     19  N   UNL d   1       3.327  -0.133   2.274  0.00  0.00    -0.114 N 
ATOM     20  O   UNL d   1       3.467   1.097   2.340  0.00  0.00    -0.532 OA
ATOM     21  O   UNL d   1       4.119  -0.918   1.740  0.00  0.00    -0.532 OA
ENDBRANCH  14  19
BRANCH  16  22
ATOM     22  O   UNL d   1       1.762  -2.923   5.794  0.00  0.00    -0.356 OA
ATOM     23  C   UNL d   1       0.734  -3.443   6.630  0.00  0.00     0.210 C 
ENDBRANCH  16  22
ENDBRANCH   1  13
TORSDOF 5
