REMARK  3 active torsions:
REMARK  status: ('A' for Active; 'I' for Inactive)
REMARK    1  A    between atoms: N_2  and  C_1 
REMARK    2  A    between atoms: C_3  and  C_6 
REMARK    3  A    between atoms: N_7  and  C_4 
REMARK       I    between atoms: C_9  and  N_7 
ROOT
ATOM      1  C   UNL d   1       1.458  -0.201   0.097  0.00  0.00     0.130 A 
ATOM      2  C   UNL d   1       0.637  -1.340   0.024  0.00  0.00     0.068 A 
ATOM      3  C   UNL d   1       0.910   1.096   0.154  0.00  0.00     0.054 A 
ATOM      4  C   UNL d   1      -0.481   1.274   0.151  0.00  0.00     0.050 A 
ATOM      5  C   UNL d   1      -0.752  -1.149   0.065  0.00  0.00     0.033 A 
ATOM      6  C   UNL d   1      -1.302   0.138   0.114  0.00  0.00     0.018 A 
ENDROOT
BRANCH   2   7
ATOM      7  N   UNL d   1       1.070  -2.681  -0.108  0.00  0.00    -0.325 N 
ATOM      8  C   UNL d   1       2.157  -3.067  -0.869  0.00  0.00     0.218 C 
ATOM      9  O   UNL d   1       2.811  -2.312  -1.581  0.00  0.00    -0.274 OA
ATOM     10  C   UNL d   1       2.468  -4.539  -0.789  0.00  0.00     0.117 C 
ATOM     11  H   UNL d   1       0.396  -3.407   0.103  0.00  0.00     0.169 HD
ENDBRANCH   2   7
BRANCH   1  12
ATOM     12  N   UNL d   1       2.894  -0.300   0.342  0.00  0.00    -0.113 N 
ATOM     13  O   UNL d   1       3.265  -1.067   1.244  0.00  0.00    -0.532 OA
ATOM     14  O   UNL d   1       3.629   0.478  -0.284  0.00  0.00    -0.532 OA
ENDBRANCH   1  12
BRANCH   4  15
ATOM     15  C   UNL d   1      -1.098   2.652   0.217  0.00  0.00     0.417 C 
ATOM     16  F   UNL d   1      -0.185   3.652   0.334  0.00  0.00    -0.166 F 
ATOM     17  F   UNL d   1      -1.836   2.940  -0.889  0.00  0.00    -0.166 F 
ATOM     18  F   UNL d   1      -1.941   2.787   1.277  0.00  0.00    -0.166 F 
ENDBRANCH   4  15
TORSDOF 3
