REMARK  4 active torsions:
REMARK  status: ('A' for Active; 'I' for Inactive)
REMARK    1  A    between atoms: C_7  and  C_1 
REMARK    2  A    between atoms: C_8  and  C_6 
REMARK    3  A    between atoms: C_13  and  C_10 
REMARK    4  A    between atoms: O_18  and  C_13 
ROOT
ATOM      1  C   UNL d   1       0.145  -1.194  -0.006  0.00  0.00     0.136 A 
ATOM      2  N   UNL d   1      -0.644  -0.078   0.055  0.00  0.00    -0.292 N 
ATOM      3  C   UNL d   1       1.442  -0.720  -0.096  0.00  0.00     0.068 A 
ATOM      4  N   UNL d   1       0.071   1.069   0.087  0.00  0.00    -0.297 N 
ATOM      5  HN  UNL d   1      -0.284   2.021   0.186  1.00  0.00     0.187 HD
ATOM      6  C   UNL d   1       1.343   0.683  -0.040  0.00  0.00     0.067 A 
ATOM      7  C   UNL d   1      -2.082   0.062   0.028  0.00  0.00     0.178 C 
ENDROOT
BRANCH   6   8
ATOM      8  C   UNL d   1       2.476   1.660  -0.137  0.00  0.00     0.034 A 
ATOM      9  S   UNL d   1       4.093   1.216  -0.450  0.00  0.00    -0.081 SA
ATOM     10  C   UNL d   1       4.619   2.845  -0.487  0.00  0.00     0.079 A 
ATOM     11  C   UNL d   1       3.577   3.708  -0.203  0.00  0.00     0.027 A 
ATOM     12  C   UNL d   1       2.339   3.026  -0.004  0.00  0.00     0.023 A 
BRANCH  10  13
ATOM     13  C   UNL d   1       5.993   3.205  -0.786  0.00  0.00     0.183 C 
ATOM     14  O   UNL d   1       6.427   4.349  -0.837  0.00  0.00    -0.646 OA
BRANCH  13  15
ATOM     15  O   UNL d   1       6.791   2.131  -1.023  0.00  0.00    -0.772 OA
ATOM     16  H   UNL d   1       6.295   1.293  -0.949  0.00  0.00     0.167 HD
ENDBRANCH  13  15
ENDBRANCH  10  13
ENDBRANCH   6   8
BRANCH   1  17
ATOM     17  C   UNL d   1      -0.317  -2.596  -0.003  0.00  0.00     0.434 C 
ATOM     18  F   UNL d   1      -1.645  -2.752   0.200  0.00  0.00    -0.165 F 
ATOM     19  F   UNL d   1      -0.027  -3.208  -1.179  0.00  0.00    -0.165 F 
ATOM     20  F   UNL d   1       0.306  -3.310   0.969  0.00  0.00    -0.165 F 
ENDBRANCH   1  17
TORSDOF 4
