REMARK  2 active torsions:
REMARK  status: ('A' for Active; 'I' for Inactive)
REMARK    1  A    between atoms: C_4  and  C_1 
REMARK    2  A    between atoms: O_15  and  C_9 
ROOT
ATOM      1  C   UNL d   1       1.872  -1.577  -0.264  0.00  0.00     0.222 C 
ATOM      2  N   UNL d   1       1.288  -2.084  -1.478  0.00  0.00    -0.331 N 
ATOM      3  C   UNL d   1       0.872  -1.303  -2.519  0.00  0.00     0.255 C 
ATOM      4  N   UNL d   1       2.589  -0.353  -0.529  0.00  0.00    -0.364 N 
ATOM      5  C   UNL d   1       1.329   0.104  -2.532  0.00  0.00     0.058 A 
ATOM      6  C   UNL d   1       2.182   0.521  -1.510  0.00  0.00     0.045 A 
ATOM      7  O   UNL d   1       0.185  -1.764  -3.420  0.00  0.00    -0.268 OA
ATOM      8  C   UNL d   1       0.966   0.964  -3.574  0.00  0.00     0.019 A 
ATOM      9  C   UNL d   1       2.610   1.852  -1.503  0.00  0.00     0.030 A 
ATOM     10  C   UNL d   1       1.425   2.281  -3.569  0.00  0.00     0.001 A 
ATOM     11  C   UNL d   1       2.234   2.728  -2.525  0.00  0.00     0.002 A 
ATOM     12  H   UNL d   1       0.902  -3.014  -1.462  0.00  0.00     0.165 HD
ATOM     13  H   UNL d   1       3.320  -0.098   0.119  0.00  0.00     0.162 HD
ENDROOT
BRANCH   1  14
ATOM     14  C   UNL d   1       2.819  -2.547   0.431  0.00  0.00     0.028 A 
ATOM     15  C   UNL d   1       3.752  -3.393  -0.270  0.00  0.00    -0.013 A 
ATOM     16  C   UNL d   1       4.628  -4.212   0.487  0.00  0.00    -0.025 A 
ATOM     17  C   UNL d   1       3.885  -3.486  -1.682  0.00  0.00     0.013 A 
ATOM     18  C   UNL d   1       5.534  -5.083  -0.150  0.00  0.00     0.012 A 
ATOM     19  C   UNL d   1       4.616  -4.160   1.881  0.00  0.00     0.015 A 
ATOM     20  C   UNL d   1       5.591  -5.174  -1.533  0.00  0.00     0.001 A 
ATOM     21  C   UNL d   1       4.768  -4.373  -2.304  0.00  0.00     0.001 A 
ATOM     22  C   UNL d   1       3.736  -3.327   2.561  0.00  0.00     0.038 A 
ATOM     23  C   UNL d   1       2.838  -2.529   1.859  0.00  0.00     0.079 A 
BRANCH  23  24
ATOM     24  O   UNL d   1       1.951  -1.672   2.468  0.00  0.00    -0.355 OA
ATOM     25  C   UNL d   1       1.899  -1.670   3.891  0.00  0.00     0.210 C 
ENDBRANCH  23  24
ENDBRANCH   1  14
TORSDOF 2
