REMARK  4 active torsions:
REMARK  status: ('A' for Active; 'I' for Inactive)
REMARK    1  A    between atoms: C_12  and  C_3 
REMARK    2  A    between atoms: C_11  and  C_4 
REMARK    3  A    between atoms: O_19  and  C_12 
REMARK    4  A    between atoms: C_22  and  O_19 
ROOT
ATOM      1  N   UNL d   1       0.063  -0.703   0.063  0.00  0.00    -0.283 N 
ATOM      2  C   UNL d   1       0.207   0.641   0.015  0.00  0.00     0.151 C 
ATOM      3  C   UNL d   1      -2.337  -0.268   0.094  0.00  0.00     0.067 C 
ATOM      4  C   UNL d   1      -1.252  -1.310  -0.042  0.00  0.00     0.176 C 
ATOM      5  N   UNL d   1      -0.746   1.506  -0.007  0.00  0.00    -0.340 N 
ATOM      6  HN  UNL d   1      -0.545   2.504  -0.081  1.00  0.00     0.167 HD
ATOM      7  C   UNL d   1       1.207  -1.447   0.213  0.00  0.00     0.240 C 
ATOM      8  C   UNL d   1      -2.047   1.052   0.069  0.00  0.00     0.022 C 
ATOM      9  S   UNL d   1       1.870   1.124   0.037  0.00  0.00    -0.080 SA
ATOM     10  C   UNL d   1       2.454  -0.593   0.093  0.00  0.00     0.144 C 
ATOM     11  O   UNL d   1       1.237  -2.658   0.412  0.00  0.00    -0.272 OA
ATOM     12  C   UNL d   1      -3.029   2.199   0.129  0.00  0.00     0.069 C 
ATOM     13  C   UNL d   1       3.398  -0.820   1.258  0.00  0.00     0.031 C 
ENDROOT
BRANCH   3  14
ATOM     14  C   UNL d   1      -3.681  -0.896   0.187  0.00  0.00     0.293 C 
ATOM     15  O   UNL d   1      -3.853  -2.026   0.621  0.00  0.00    -0.259 OA
BRANCH  14  16
ATOM     16  O   UNL d   1      -4.612  -0.136  -0.424  0.00  0.00    -0.318 OA
BRANCH  16  17
ATOM     17  C   UNL d   1      -5.801  -0.806  -0.858  0.00  0.00     0.174 C 
ATOM     18  C   UNL d   1      -5.590  -1.158  -2.317  0.00  0.00     0.034 C 
ENDBRANCH  16  17
ENDBRANCH  14  16
ENDBRANCH   3  14
BRANCH   4  19
ATOM     19  C   UNL d   1      -1.302  -2.093  -1.354  0.00  0.00     0.011 A 
ATOM     20  S   UNL d   1      -1.176  -1.302  -2.877  0.00  0.00    -0.104 SA
ATOM     21  C   UNL d   1      -1.277  -2.780  -3.728  0.00  0.00     0.050 A 
ATOM     22  C   UNL d   1      -1.419  -3.856  -2.883  0.00  0.00     0.008 A 
ATOM     23  C   UNL d   1      -1.440  -3.460  -1.515  0.00  0.00     0.017 A 
ENDBRANCH   4  19
TORSDOF 4
