REMARK  4 active torsions:
REMARK  status: ('A' for Active; 'I' for Inactive)
REMARK       I    between atoms: N_2  and  C_1 
REMARK       I    between atoms: N_3  and  C_1 
REMARK    1  A    between atoms: C_10  and  N_3 
REMARK    2  A    between atoms: C_13  and  N_4 
REMARK    3  A    between atoms: N_5  and  C_14 
REMARK    4  A    between atoms: C_14  and  C_13 
ROOT
ATOM      1  C   UNL d   1       0.965   0.138   0.154  0.00  0.00     0.323 C 
ATOM      2  N   UNL d   1       0.494  -1.147  -0.059  0.00  0.00    -0.331 N 
ATOM      3  N   UNL d   1       0.420   1.127  -0.639  0.00  0.00    -0.309 N 
ATOM      4  N   UNL d   1      -0.097  -4.010  -0.551  0.00  0.00     0.093 N 
ATOM      5  O   UNL d   1       1.851   0.342   0.982  0.00  0.00    -0.247 OA
ATOM      6  C   UNL d   1       1.084  -2.202   0.784  0.00  0.00     0.158 C 
ATOM      7  C   UNL d   1      -0.713  -1.547  -0.796  0.00  0.00     0.158 C 
ATOM      8  C   UNL d   1      -0.563  -2.936  -1.454  0.00  0.00     0.292 C 
ATOM      9  C   UNL d   1       1.179  -3.557   0.056  0.00  0.00     0.292 C 
ATOM     10  H   UNL d   1      -0.394   0.899  -1.181  0.00  0.00     0.170 HD
ENDROOT
BRANCH   3  11
ATOM     11  C   UNL d   1       0.903   2.448  -0.789  0.00  0.00     0.036 A 
ATOM     12  C   UNL d   1       2.042   2.942  -0.137  0.00  0.00     0.032 A 
ATOM     13  C   UNL d   1       2.510   4.233  -0.396  0.00  0.00     0.044 A 
ATOM     14  C   UNL d   1       1.839   5.035  -1.306  0.00  0.00     0.116 A 
ATOM     15  C   UNL d   1       0.695   4.577  -1.946  0.00  0.00     0.044 A 
ATOM     16  F   UNL d   1       2.304   6.261  -1.574  0.00  0.00    -0.206 F 
ATOM     17  C   UNL d   1       0.227   3.283  -1.684  0.00  0.00     0.032 A 
ENDBRANCH   3  11
BRANCH   4  18
ATOM     18  C   UNL d   1      -1.061  -4.358   0.516  0.00  0.00     0.302 C 
BRANCH  18  19
ATOM     19  C   UNL d   1      -2.430  -4.878   0.023  0.00  0.00     0.302 C 
BRANCH  19  20
ATOM     20  N   UNL d   1      -3.355  -5.271   1.106  0.00  0.00     0.094 N 
ATOM     21  C   UNL d   1      -4.626  -5.787   0.543  0.00  0.00     0.298 C 
ATOM     22  C   UNL d   1      -5.542  -4.688  -0.026  0.00  0.00     0.198 C 
ATOM     23  O   UNL d   1      -5.841  -3.694   0.962  0.00  0.00    -0.388 OA
ATOM     24  C   UNL d   1      -4.642  -3.115   1.489  0.00  0.00     0.198 C 
ATOM     25  C   UNL d   1      -3.696  -4.188   2.055  0.00  0.00     0.298 C 
ENDBRANCH  19  20
ENDBRANCH  18  19
ENDBRANCH   4  18
TORSDOF 4
