REMARK  6 active torsions:
REMARK  status: ('A' for Active; 'I' for Inactive)
REMARK    1  A    between atoms: N_3  and  S_1 
REMARK    2  A    between atoms: C_7  and  S_1 
REMARK    3  A    between atoms: C_2  and  C_4 
REMARK    4  A    between atoms: N_9  and  N_3 
REMARK       I    between atoms: C_4  and  N_9 
REMARK    5  A    between atoms: C_5  and  C_11 
REMARK    6  A    between atoms: C_6  and  C_10 
ROOT
ATOM      1  S   UNL d   1       1.039   0.230  -0.149  0.00  0.00     0.276 S 
ATOM      2  O   UNL d   1       0.444   1.079  -1.160  0.00  0.00    -0.199 OA
ATOM      3  O   UNL d   1       2.477   0.092  -0.060  0.00  0.00    -0.199 OA
ENDROOT
BRANCH   1   4
ATOM      4  N   UNL d   1       0.394  -1.310  -0.347  0.00  0.00    -0.220 N 
ATOM      5  H   UNL d   1      -0.225  -1.744   0.344  0.00  0.00     0.200 HD
BRANCH   4   6
ATOM      6  N   UNL d   1       0.658  -1.995  -1.599  0.00  0.00    -0.256 N 
ATOM      7  C   UNL d   1       0.113  -3.240  -1.859  0.00  0.00     0.277 C 
ATOM      8  O   UNL d   1      -0.569  -3.822  -1.015  0.00  0.00    -0.265 OA
ATOM      9  H   UNL d   1       1.237  -1.521  -2.292  0.00  0.00     0.191 HD
BRANCH   7  10
ATOM     10  C   UNL d   1       0.405  -3.787  -3.182  0.00  0.00     0.074 A 
ATOM     11  S   UNL d   1       1.214  -2.870  -4.384  0.00  0.00    -0.096 SA
ATOM     12  C   UNL d   1       1.106  -4.134  -5.526  0.00  0.00     0.057 A 
ATOM     13  C   UNL d   1       0.480  -5.256  -5.021  0.00  0.00    -0.054 A 
ATOM     14  C   UNL d   1       0.081  -5.045  -3.659  0.00  0.00     0.031 A 
ATOM     15  C   UNL d   1       0.249  -6.510  -5.798  0.00  0.00     0.048 C 
ENDBRANCH   7  10
ENDBRANCH   4   6
ENDBRANCH   1   4
BRANCH   1  16
ATOM     16  C   UNL d   1       0.441   0.765   1.437  0.00  0.00     0.082 A 
ATOM     17  C   UNL d   1       1.220   0.536   2.579  0.00  0.00     0.041 A 
ATOM     18  C   UNL d   1       0.862   1.118   3.805  0.00  0.00     0.050 A 
ATOM     19  C   UNL d   1      -0.287   1.929   3.863  0.00  0.00     0.032 A 
ATOM     20  C   UNL d   1      -1.069   2.174   2.720  0.00  0.00     0.050 A 
ATOM     21  C   UNL d   1      -0.697   1.579   1.504  0.00  0.00     0.041 A 
BRANCH  18  22
ATOM     22  C   UNL d   1       1.711   0.931   5.044  0.00  0.00     0.417 C 
ATOM     23  F   UNL d   1       2.820   0.171   4.834  0.00  0.00    -0.166 F 
ATOM     24  F   UNL d   1       2.154   2.115   5.548  0.00  0.00    -0.166 F 
ATOM     25  F   UNL d   1       1.025   0.327   6.052  0.00  0.00    -0.166 F 
ENDBRANCH  18  22
BRANCH  20  26
ATOM     26  C   UNL d   1      -2.254   3.110   2.807  0.00  0.00     0.417 C 
ATOM     27  F   UNL d   1      -2.894   3.289   1.620  0.00  0.00    -0.166 F 
ATOM     28  F   UNL d   1      -3.198   2.669   3.682  0.00  0.00    -0.166 F 
ATOM     29  F   UNL d   1      -1.897   4.353   3.233  0.00  0.00    -0.166 F 
ENDBRANCH  20  26
ENDBRANCH   1  16
TORSDOF 6
