REMARK  2 active torsions:
REMARK  status: ('A' for Active; 'I' for Inactive)
REMARK    1  A    between atoms: O_7  and  C_5 
REMARK    2  A    between atoms: C_9  and  O_7 
ROOT
ATOM      1  N   UNL d   1       3.097   0.710   0.199  0.00  0.00    -0.191 NA
ATOM      2  N   UNL d   1      -1.581   1.217  -0.772  0.00  0.00    -0.345 N 
ATOM      3  HN  UNL d   1      -2.112   1.881  -1.334  1.00  0.00     0.167 HD
ATOM      4  C   UNL d   1       1.947   0.561   0.128  0.00  0.00     0.101 C 
ATOM      5  C   UNL d   1      -2.193   0.224  -0.085  0.00  0.00     0.147 A 
ATOM      6  C   UNL d   1       0.534   0.395   0.048  0.00  0.00     0.060 A 
ATOM      7  C   UNL d   1      -0.234   1.289  -0.679  0.00  0.00     0.113 A 
ATOM      8  C   UNL d   1      -1.507  -0.745   0.633  0.00  0.00     0.058 A 
ATOM      9  C   UNL d   1      -0.117  -0.651   0.705  0.00  0.00     0.028 A 
ENDROOT
BRANCH   5  10
ATOM     10  O   UNL d   1      -3.579   0.151  -0.083  0.00  0.00    -0.294 OA
BRANCH  10  11
ATOM     11  C   UNL d   1      -4.280   1.337  -0.145  0.00  0.00     0.077 A 
ATOM     12  C   UNL d   1      -5.503   1.306  -0.819  0.00  0.00     0.039 A 
ATOM     13  C   UNL d   1      -6.284   2.463  -0.905  0.00  0.00     0.026 A 
ATOM     14  C   UNL d   1      -5.843   3.645  -0.310  0.00  0.00     0.034 A 
ATOM     15  C   UNL d   1      -4.635   3.678   0.382  0.00  0.00     0.026 A 
ATOM     16 CL   UNL d   1      -6.800   5.070  -0.419  0.00  0.00    -0.084 Cl
ATOM     17  C   UNL d   1      -3.864   2.518   0.481  0.00  0.00     0.039 A 
ENDBRANCH  10  11
ENDBRANCH   5  10
TORSDOF 2
