REMARK  5 active torsions:
REMARK  status: ('A' for Active; 'I' for Inactive)
REMARK    1  A    between atoms: C_5  and  S_1 
REMARK    2  A    between atoms: N_8  and  S_1 
REMARK    3  A    between atoms: C_2  and  C_7 
REMARK    4  A    between atoms: C_13  and  C_6 
REMARK       I    between atoms: C_7  and  N_10 
REMARK    5  A    between atoms: N_10  and  N_8 
ROOT
ATOM      1  C   UNL d   1       0.665  -3.329   2.292  0.00  0.00     0.287 C 
ATOM      2  N   UNL d   1       0.869  -2.328   1.365  0.00  0.00    -0.255 N 
ATOM      3  O   UNL d   1       1.247  -4.413   2.235  0.00  0.00    -0.264 OA
ATOM      4  H   UNL d   1       0.391  -1.431   1.442  0.00  0.00     0.191 HD
ENDROOT
BRANCH   1   5
ATOM      5  C   UNL d   1      -0.286  -2.987   3.354  0.00  0.00     0.110 A 
ATOM      6  N   UNL d   1      -0.959  -1.758   3.412  0.00  0.00    -0.345 N 
ATOM      7  C   UNL d   1      -1.723  -1.703   4.491  0.00  0.00     0.086 A 
ATOM      8  HN  UNL d   1      -0.872  -1.014   2.720  1.00  0.00     0.167 HD
ATOM      9  S   UNL d   1      -1.710  -3.138   5.454  0.00  0.00    -0.081 SA
ATOM     10  C   UNL d   1      -0.590  -3.852   4.387  0.00  0.00     0.087 A 
BRANCH   7  11
ATOM     11  C   UNL d   1      -2.581  -0.569   4.870  0.00  0.00     0.013 A 
ATOM     12  C   UNL d   1      -2.893  -0.263   6.196  0.00  0.00     0.101 A 
ATOM     13  N   UNL d   1      -3.703   0.753   6.589  0.00  0.00    -0.374 N 
ATOM     14  C   UNL d   1      -4.233   1.516   5.612  0.00  0.00     0.087 A 
ATOM     15  HN  UNL d   1      -3.900   0.930   7.574  1.00  0.00     0.164 HD
ATOM     16  C   UNL d   1      -3.981   1.316   4.266  0.00  0.00     0.018 A 
ATOM     17  C   UNL d   1      -3.140   0.265   3.895  0.00  0.00     0.017 A 
ENDBRANCH   7  11
ENDBRANCH   1   5
BRANCH   2  18
ATOM     18  N   UNL d   1       1.819  -2.554   0.288  0.00  0.00    -0.220 N 
ATOM     19  H   UNL d   1       2.268  -3.472   0.217  0.00  0.00     0.200 HD
BRANCH  18  20
ATOM     20  S   UNL d   1       2.106  -1.351  -0.850  0.00  0.00     0.279 S 
ATOM     21  O   UNL d   1       0.920  -1.193  -1.662  0.00  0.00    -0.199 OA
ATOM     22  O   UNL d   1       2.660  -0.224  -0.127  0.00  0.00    -0.199 OA
BRANCH  20  23
ATOM     23  C   UNL d   1       3.380  -2.015  -1.871  0.00  0.00     0.119 A 
ATOM     24  C   UNL d   1       3.158  -3.205  -2.555  0.00  0.00     0.142 A 
ATOM     25  C   UNL d   1       4.128  -3.721  -3.411  0.00  0.00     0.086 A 
ATOM     26  F   UNL d   1       2.020  -3.892  -2.388  0.00  0.00    -0.204 F 
ATOM     27  C   UNL d   1       5.323  -3.030  -3.574  0.00  0.00     0.119 A 
ATOM     28  C   UNL d   1       5.564  -1.841  -2.892  0.00  0.00     0.044 A 
ATOM     29  F   UNL d   1       6.258  -3.516  -4.401  0.00  0.00    -0.206 F 
ATOM     30  C   UNL d   1       4.589  -1.324  -2.034  0.00  0.00     0.031 A 
ENDBRANCH  20  23
ENDBRANCH  18  20
ENDBRANCH   2  18
TORSDOF 5
