REMARK  5 active torsions:
REMARK  status: ('A' for Active; 'I' for Inactive)
REMARK    1  A    between atoms: C_8  and  C_2 
REMARK    2  A    between atoms: S_14  and  C_3 
REMARK    3  A    between atoms: C_16  and  C_9 
REMARK    4  A    between atoms: S_15  and  C_16 
REMARK    5  A    between atoms: C_17  and  S_15 
ROOT
ATOM      1  C   UNL d   1      -0.565   0.077  -0.032  0.00  0.00     0.101 A 
ATOM      2  C   UNL d   1       0.166   1.260  -0.021  0.00  0.00     0.038 A 
ATOM      3  C   UNL d   1       0.167  -1.102  -0.013  0.00  0.00     0.093 A 
ATOM      4  N   UNL d   1       1.517  -1.125  -0.000  0.00  0.00    -0.339 N 
ATOM      5  HN  UNL d   1       2.032  -2.005   0.003  1.00  0.00     0.168 HD
ATOM      6  N   UNL d   1       1.524   1.240  -0.010  0.00  0.00    -0.347 N 
ATOM      7  HN  UNL d   1       2.056   2.110  -0.015  1.00  0.00     0.167 HD
ATOM      8  C   UNL d   1       2.153   0.055   0.007  0.00  0.00     0.092 A 
ATOM      9  C   UNL d   1      -1.991   0.094  -0.079  0.00  0.00     0.104 C 
ATOM     10  N   UNL d   1      -3.152   0.132  -0.117  0.00  0.00    -0.191 NA
ENDROOT
BRANCH   2  11
ATOM     11  C   UNL d   1      -0.451   2.647  -0.073  0.00  0.00     0.037 A 
ATOM     12  C   UNL d   1      -0.115   3.601   1.058  0.00  0.00     0.011 A 
ATOM     13  C   UNL d   1      -1.523   3.132   0.872  0.00  0.00     0.011 A 
ENDBRANCH   2  11
BRANCH   3  14
ATOM     14  S   UNL d   1      -0.635  -2.711  -0.014  0.00  0.00    -0.115 SA
ATOM     15  C   UNL d   1       0.801  -3.820   0.033  0.00  0.00     0.097 C 
ENDBRANCH   3  14
BRANCH   8  16
ATOM     16  C   UNL d   1       3.664   0.051   0.046  0.00  0.00     0.156 C 
BRANCH  16  17
ATOM     17  S   UNL d   1       4.280  -0.008   1.767  0.00  0.00    -0.122 SA
BRANCH  17  18
ATOM     18  C   UNL d   1       6.044   0.168   1.554  0.00  0.00     0.001 A 
ATOM     19  C   UNL d   1       6.752   0.827   2.570  0.00  0.00     0.020 A 
ATOM     20  C   UNL d   1       8.143   0.949   2.511  0.00  0.00     0.025 A 
ATOM     21  C   UNL d   1       8.838   0.407   1.434  0.00  0.00     0.034 A 
ATOM     22  C   UNL d   1       8.151  -0.251   0.417  0.00  0.00     0.025 A 
ATOM     23 CL   UNL d   1      10.551   0.533   1.368  0.00  0.00    -0.084 Cl
ATOM     24  C   UNL d   1       6.757  -0.374   0.479  0.00  0.00     0.020 A 
ENDBRANCH  17  18
ENDBRANCH  16  17
ENDBRANCH   8  16
TORSDOF 5
