REMARK  10 active torsions:
REMARK  status: ('A' for Active; 'I' for Inactive)
REMARK    1  A    between atoms: C_5  and  S_1 
REMARK    2  A    between atoms: N_6  and  S_1 
REMARK    3  A    between atoms: C_2  and  C_12 
REMARK       I    between atoms: N_7  and  C_2 
REMARK    4  A    between atoms: C_3  and  C_4 
REMARK    5  A    between atoms: C_4  and  C_13 
REMARK    6  A    between atoms: C_30  and  N_6 
REMARK    7  A    between atoms: C_31  and  N_6 
REMARK    8  A    between atoms: C_23  and  N_7 
REMARK    9  A    between atoms: C_33  and  C_30 
REMARK   10  A    between atoms: C_34  and  C_31 
ROOT
ATOM      1  C   UNL d   1      -0.599   0.954   5.747  0.00  0.00     0.256 C 
ATOM      2  N   UNL d   1      -0.781   2.278   6.138  0.00  0.00    -0.323 N 
ATOM      3  O   UNL d   1      -0.832  -0.038   6.430  0.00  0.00    -0.267 OA
ATOM      4  H   UNL d   1      -0.755   2.989   5.416  0.00  0.00     0.169 HD
ENDROOT
BRANCH   2   5
ATOM      5  C   UNL d   1      -1.052   2.742   7.452  0.00  0.00     0.035 A 
ATOM      6  C   UNL d   1      -0.945   1.918   8.577  0.00  0.00     0.030 A 
ATOM      7  C   UNL d   1      -1.123   2.432   9.870  0.00  0.00     0.018 A 
ATOM      8  C   UNL d   1      -1.380   3.792  10.063  0.00  0.00     0.015 A 
ATOM      9  C   UNL d   1      -1.556   4.611   8.946  0.00  0.00     0.018 A 
ATOM     10  C   UNL d   1      -1.387   4.088   7.647  0.00  0.00     0.030 A 
BRANCH   8  11
ATOM     11  C   UNL d   1      -1.499   4.383  11.428  0.00  0.00     0.192 C 
ATOM     12  O   UNL d   1      -2.219   5.367  11.592  0.00  0.00    -0.287 OA
BRANCH  11  13
ATOM     13  C   UNL d   1      -0.764   3.821  12.598  0.00  0.00     0.015 A 
ATOM     14  C   UNL d   1      -1.361   3.912  13.864  0.00  0.00     0.023 A 
ATOM     15  C   UNL d   1      -0.703   3.348  14.947  0.00  0.00    -0.051 A 
ATOM     16  C   UNL d   1      -1.171   3.262  16.367  0.00  0.00     0.039 C 
ATOM     17  C   UNL d   1       0.528   2.704  14.789  0.00  0.00    -0.052 A 
ATOM     18  C   UNL d   1       0.135   2.897  17.089  0.00  0.00     0.009 C 
ATOM     19  C   UNL d   1       0.988   2.110  16.084  0.00  0.00     0.039 C 
ATOM     20  C   UNL d   1       1.145   2.633  13.553  0.00  0.00     0.009 A 
ATOM     21  C   UNL d   1       0.502   3.216  12.457  0.00  0.00     0.016 A 
ENDBRANCH  11  13
ENDBRANCH   8  11
ENDBRANCH   2   5
BRANCH   1  22
ATOM     22  C   UNL d   1      -0.115   0.734   4.349  0.00  0.00     0.032 A 
ATOM     23  C   UNL d   1       0.776   1.631   3.746  0.00  0.00     0.018 A 
ATOM     24  C   UNL d   1       1.198   1.418   2.429  0.00  0.00     0.026 A 
ATOM     25  C   UNL d   1       0.703   0.344   1.687  0.00  0.00     0.074 A 
ATOM     26  C   UNL d   1      -0.096  -0.618   2.317  0.00  0.00     0.026 A 
ATOM     27  C   UNL d   1      -0.495  -0.425   3.649  0.00  0.00     0.018 A 
BRANCH  25  28
ATOM     28  S   UNL d   1       1.255   0.126   0.002  0.00  0.00     0.243 S 
ATOM     29  O   UNL d   1       0.764  -1.159  -0.440  0.00  0.00    -0.206 OA
ATOM     30  O   UNL d   1       2.674   0.435  -0.029  0.00  0.00    -0.206 OA
BRANCH  28  31
ATOM     31  N   UNL d   1       0.453   1.375  -0.954  0.00  0.00    -0.206 NA
BRANCH  31  32
ATOM     32  C   UNL d   1       0.665   2.774  -0.429  0.00  0.00     0.107 C 
BRANCH  32  33
ATOM     33  C   UNL d   1      -0.033   3.873  -1.240  0.00  0.00     0.011 C 
ATOM     34  C   UNL d   1       0.122   5.238  -0.584  0.00  0.00     0.006 C 
ENDBRANCH  32  33
ENDBRANCH  31  32
BRANCH  31  35
ATOM     35  C   UNL d   1       0.832   1.294  -2.419  0.00  0.00     0.107 C 
BRANCH  35  36
ATOM     36  C   UNL d   1       0.321   0.052  -3.142  0.00  0.00     0.011 C 
ATOM     37  C   UNL d   1      -1.192  -0.068  -3.047  0.00  0.00     0.006 C 
ENDBRANCH  35  36
ENDBRANCH  31  35
ENDBRANCH  28  31
ENDBRANCH  25  28
ENDBRANCH   1  22
TORSDOF 10
