REMARK  6 active torsions:
REMARK  status: ('A' for Active; 'I' for Inactive)
REMARK    1  A    between atoms: C_7  and  C_1 
REMARK    2  A    between atoms: N_14  and  C_1 
REMARK    3  A    between atoms: C_3  and  C_8 
REMARK    4  A    between atoms: O_17  and  N_5 
REMARK    5  A    between atoms: C_8  and  O_12 
REMARK    6  A    between atoms: O_12  and  C_16 
ROOT
ATOM      1  C   UNL d   1       0.346  -1.211   0.123  0.00  0.00     0.004 A 
ATOM      2  C   UNL d   1       0.727  -2.134   1.103  0.00  0.00     0.017 A 
ATOM      3  C   UNL d   1      -0.781  -1.461  -0.664  0.00  0.00     0.017 A 
ATOM      4  C   UNL d   1      -1.210  -3.495   0.578  0.00  0.00     0.069 A 
ATOM      5  C   UNL d   1      -0.052  -3.273   1.328  0.00  0.00     0.037 A 
ATOM      6  C   UNL d   1      -1.547  -2.607  -0.447  0.00  0.00     0.037 A 
ENDROOT
BRANCH   4   7
ATOM      7  O   UNL d   1      -1.948  -4.599   0.925  0.00  0.00    -0.347 OA
BRANCH   7   8
ATOM      8  C   UNL d   1      -3.337  -4.519   0.576  0.00  0.00     0.216 C 
BRANCH   8   9
ATOM      9  C   UNL d   1      -4.174  -5.467   1.407  0.00  0.00    -0.012 A 
ATOM     10  C   UNL d   1      -5.498  -5.155   1.771  0.00  0.00     0.044 A 
ATOM     11  C   UNL d   1      -6.269  -6.052   2.515  0.00  0.00     0.048 A 
ATOM     12 CL   UNL d   1      -6.255  -3.669   1.308  0.00  0.00    -0.084 Cl
ATOM     13  C   UNL d   1      -5.732  -7.280   2.884  0.00  0.00     0.035 A 
ATOM     14  C   UNL d   1      -4.436  -7.624   2.512  0.00  0.00     0.024 A 
ATOM     15 CL   UNL d   1      -6.684  -8.385   3.796  0.00  0.00    -0.084 Cl
ATOM     16  C   UNL d   1      -3.662  -6.724   1.774  0.00  0.00     0.013 A 
ENDBRANCH   8   9
ENDBRANCH   7   8
ENDBRANCH   4   7
BRANCH   1  17
ATOM     17  C   UNL d   1       1.121   0.046  -0.085  0.00  0.00     0.108 C 
ATOM     18  N   UNL d   1       2.392   0.057   0.198  0.00  0.00    -0.258 N 
ATOM     19  HN  UNL d   1       2.915  -0.744   0.550  1.00  0.00     0.195 HD
BRANCH  18  20
ATOM     20  O   UNL d   1       2.943   1.326  -0.050  0.00  0.00    -0.289 OA
ATOM     21  H   UNL d   1       3.897   1.154   0.055  0.00  0.00     0.244 HD
ENDBRANCH  18  20
BRANCH  17  22
ATOM     22  N   UNL d   1       0.460   1.158  -0.556  0.00  0.00    -0.287 NA
ATOM     23  H   UNL d   1       1.062   1.972  -0.453  0.00  0.00     0.125 HD
ATOM     24  H   UNL d   1      -0.456   1.312  -0.149  0.00  0.00     0.125 HD
ENDBRANCH  17  22
ENDBRANCH   1  17
TORSDOF 6
