REMARK  7 active torsions:
REMARK  status: ('A' for Active; 'I' for Inactive)
REMARK    1  A    between atoms: C_10  and  N_1 
REMARK    2  A    between atoms: C_4  and  S_12 
REMARK    3  A    between atoms: C_17  and  C_7 
REMARK    4  A    between atoms: O_23  and  C_9 
REMARK    5  A    between atoms: S_12  and  C_16 
REMARK    6  A    between atoms: C_13  and  C_15 
REMARK    7  A    between atoms: C_16  and  C_13 
ROOT
ATOM      1  N   UNL d   1      -5.633   0.571  -5.515  0.00  0.00    -0.318 N 
ATOM      2  HN  UNL d   1      -5.574  -0.447  -5.554  1.00  0.00     0.170 HD
ATOM      3  C   UNL d   1      -4.580   1.351  -5.239  0.00  0.00     0.147 A 
ATOM      4  N   UNL d   1      -4.626   2.688  -5.152  0.00  0.00    -0.336 N 
ATOM      5  HN  UNL d   1      -3.790   3.220  -4.913  1.00  0.00     0.168 HD
ATOM      6  C   UNL d   1      -5.800   3.320  -5.386  0.00  0.00     0.048 A 
ATOM      7  C   UNL d   1      -6.932   2.612  -5.697  0.00  0.00     0.086 A 
ATOM      8  C   UNL d   1      -6.772   1.246  -5.735  0.00  0.00     0.143 A 
ENDROOT
BRANCH   3   9
ATOM      9  S   UNL d   1      -2.950   0.690  -4.990  0.00  0.00    -0.086 SA
BRANCH   9  10
ATOM     10  C   UNL d   1      -3.248  -1.090  -4.851  0.00  0.00     0.166 C 
BRANCH  10  11
ATOM     11  C   UNL d   1      -1.930  -1.827  -4.643  0.00  0.00     0.169 C 
ATOM     12  O   UNL d   1      -1.504  -2.595  -5.509  0.00  0.00    -0.291 OA
BRANCH  11  13
ATOM     13  C   UNL d   1      -1.126  -1.675  -3.377  0.00  0.00     0.011 A 
ATOM     14  C   UNL d   1      -1.526  -0.880  -2.294  0.00  0.00     0.017 A 
ATOM     15  C   UNL d   1      -0.701  -0.744  -1.165  0.00  0.00     0.037 A 
ATOM     16  C   UNL d   1       0.521  -1.427  -1.104  0.00  0.00     0.102 A 
ATOM     17  C   UNL d   1       0.920  -2.249  -2.162  0.00  0.00     0.037 A 
ATOM     18  C   UNL d   1       0.099  -2.365  -3.290  0.00  0.00     0.017 A 
BRANCH  16  19
ATOM     19  N   UNL d   1       1.389  -1.278   0.074  0.00  0.00    -0.116 N 
ATOM     20  O   UNL d   1       2.429  -1.947   0.113  0.00  0.00    -0.532 OA
ATOM     21  O   UNL d   1       1.025  -0.491   0.960  0.00  0.00    -0.532 OA
ENDBRANCH  16  19
ENDBRANCH  11  13
ENDBRANCH  10  11
ENDBRANCH   9  10
ENDBRANCH   3   9
BRANCH   8  22
ATOM     22  O   UNL d   1      -7.850   0.469  -6.021  0.00  0.00    -0.346 OA
ATOM     23  H   UNL d   1      -7.467  -0.426  -5.997  0.00  0.00     0.219 HD
ENDBRANCH   8  22
BRANCH   6  24
ATOM     24  C   UNL d   1      -5.731   4.790  -5.273  0.00  0.00    -0.009 A 
ATOM     25  C   UNL d   1      -6.526   5.658  -6.043  0.00  0.00     0.013 A 
ATOM     26  C   UNL d   1      -6.388   7.047  -5.941  0.00  0.00     0.001 A 
ATOM     27  C   UNL d   1      -5.458   7.602  -5.065  0.00  0.00     0.000 A 
ATOM     28  C   UNL d   1      -4.664   6.768  -4.286  0.00  0.00     0.001 A 
ATOM     29  C   UNL d   1      -4.801   5.384  -4.391  0.00  0.00     0.013 A 
ENDBRANCH   6  24
TORSDOF 7
