REMARK  6 active torsions:
REMARK  status: ('A' for Active; 'I' for Inactive)
REMARK    1  A    between atoms: C_8  and  N_1 
REMARK    2  A    between atoms: S_7  and  C_2 
REMARK    3  A    between atoms: C_17  and  S_7 
REMARK    4  A    between atoms: C_9  and  N_13 
REMARK    5  A    between atoms: C_10  and  C_17 
REMARK       I    between atoms: N_13  and  C_10 
REMARK    6  A    between atoms: O_23  and  C_20 
ROOT
ATOM      1  S   UNL d   1       2.216  -1.950   1.367  0.00  0.00    -0.082 SA
ENDROOT
BRANCH   1   2
ATOM      2  C   UNL d   1       3.084  -0.533   0.874  0.00  0.00     0.177 A 
ATOM      3  N   UNL d   1       3.072   0.705   1.507  0.00  0.00    -0.219 N 
ATOM      4  N   UNL d   1       3.772   1.558   0.706  0.00  0.00     0.001 NA
ATOM      5  N   UNL d   1       4.232   0.841  -0.305  0.00  0.00    -0.006 NA
ATOM      6  N   UNL d   1       3.797  -0.449  -0.229  0.00  0.00    -0.264 N 
ATOM      7  HN  UNL d   1       3.986  -1.199  -0.894  1.00  0.00     0.186 HD
BRANCH   3   8
ATOM      8  C   UNL d   1       2.526   1.171   2.736  0.00  0.00     0.057 A 
ATOM      9  C   UNL d   1       2.111   0.302   3.753  0.00  0.00     0.034 A 
ATOM     10  C   UNL d   1       1.613   0.806   4.956  0.00  0.00     0.039 A 
ATOM     11  C   UNL d   1       1.536   2.177   5.154  0.00  0.00     0.065 A 
ATOM     12  C   UNL d   1       1.934   3.061   4.160  0.00  0.00     0.039 A 
ATOM     13  C   UNL d   1       2.432   2.559   2.953  0.00  0.00     0.034 A 
BRANCH  11  14
ATOM     14  O   UNL d   1       1.077   2.615   6.360  0.00  0.00    -0.361 OA
ATOM     15  H   UNL d   1       1.212   3.575   6.414  0.00  0.00     0.217 HD
ENDBRANCH  11  14
ENDBRANCH   3   8
ENDBRANCH   1   2
BRANCH   1  16
ATOM     16  C   UNL d   1       2.559  -3.135   0.055  0.00  0.00     0.185 C 
BRANCH  16  17
ATOM     17  C   UNL d   1       3.931  -3.779   0.193  0.00  0.00     0.227 C 
ATOM     18  N   UNL d   1       5.000  -2.956  -0.083  0.00  0.00    -0.355 N 
ATOM     19  H   UNL d   1       4.786  -2.030  -0.452  0.00  0.00     0.162 HD
ATOM     20  O   UNL d   1       4.054  -4.975   0.458  0.00  0.00    -0.273 OA
BRANCH  18  21
ATOM     21  C   UNL d   1       6.286  -3.518  -0.432  0.00  0.00     0.092 C 
ATOM     22  C   UNL d   1       7.002  -4.316   0.680  0.00  0.00     0.064 C 
ATOM     23  C   UNL d   1       8.375  -4.383   0.070  0.00  0.00    -0.050 A 
ATOM     24  C   UNL d   1       9.345  -5.350   0.252  0.00  0.00     0.007 A 
ATOM     25  C   UNL d   1       8.562  -3.319  -0.824  0.00  0.00    -0.050 A 
ATOM     26  C   UNL d   1      10.512  -5.253  -0.506  0.00  0.00     0.001 A 
ATOM     27  C   UNL d   1      10.706  -4.184  -1.398  0.00  0.00     0.001 A 
ATOM     28  C   UNL d   1       9.731  -3.195  -1.552  0.00  0.00     0.007 A 
ATOM     29  C   UNL d   1       7.327  -2.473  -0.886  0.00  0.00     0.064 C 
ENDBRANCH  18  21
ENDBRANCH  16  17
ENDBRANCH   1  16
TORSDOF 6
