REMARK  6 active torsions:
REMARK  status: ('A' for Active; 'I' for Inactive)
REMARK       I    between atoms: C_4  and  N_1 
REMARK    1  A    between atoms: C_8  and  C_2 
REMARK    2  A    between atoms: C_3  and  N_10 
REMARK    3  A    between atoms: C_14  and  C_4 
REMARK    4  A    between atoms: C_7  and  C_5 
REMARK    5  A    between atoms: C_9  and  C_7 
REMARK    6  A    between atoms: O_23  and  C_8 
REMARK       I    between atoms: N_10  and  C_9 
ROOT
ATOM      1  N   UNL d   1      -1.793  -1.595   0.009  0.00  0.00    -0.333 N 
ATOM      2  C   UNL d   1      -2.526  -2.284   0.977  0.00  0.00     0.254 C 
ATOM      3  C   UNL d   1      -0.302  -1.668  -0.038  0.00  0.00     0.188 C 
ATOM      4  C   UNL d   1       0.347  -0.310   0.357  0.00  0.00     0.241 C 
ATOM      5  N   UNL d   1      -0.339   0.838   0.030  0.00  0.00    -0.358 N 
ATOM      6  O   UNL d   1      -1.994  -2.857   1.926  0.00  0.00    -0.267 OA
ATOM      7  O   UNL d   1       1.502  -0.199   0.768  0.00  0.00    -0.271 OA
ATOM      8  C   UNL d   1      -2.325  -0.432  -0.717  0.00  0.00     0.147 C 
ATOM      9  C   UNL d   1      -1.777   0.857  -0.106  0.00  0.00     0.142 C 
ATOM     10  H   UNL d   1       0.136   1.683   0.326  0.00  0.00     0.162 HD
ENDROOT
BRANCH   3  11
ATOM     11  C   UNL d   1       0.456  -2.781   0.708  0.00  0.00     0.138 C 
BRANCH  11  12
ATOM     12  C   UNL d   1       0.096  -4.189   0.290  0.00  0.00     0.224 C 
ATOM     13  N   UNL d   1       0.829  -5.138   0.994  0.00  0.00    -0.326 N 
ATOM     14  H   UNL d   1       1.671  -4.837   1.481  0.00  0.00     0.169 HD
ATOM     15  O   UNL d   1      -0.717  -4.430  -0.595  0.00  0.00    -0.273 OA
BRANCH  13  16
ATOM     16  C   UNL d   1       0.550  -6.505   1.020  0.00  0.00     0.058 A 
ATOM     17  C   UNL d   1       1.443  -7.449   1.515  0.00  0.00     0.106 A 
ATOM     18  S   UNL d   1       0.779  -9.035   1.444  0.00  0.00    -0.094 SA
ATOM     19  C   UNL d   1      -0.681  -8.476   0.775  0.00  0.00     0.053 A 
ATOM     20  C   UNL d   1      -0.673  -7.112   0.597  0.00  0.00     0.038 A 
BRANCH  17  21
ATOM     21  C   UNL d   1       2.790  -7.220   2.018  0.00  0.00     0.302 C 
ATOM     22  O   UNL d   1       3.308  -6.111   2.123  0.00  0.00    -0.259 OA
BRANCH  21  23
ATOM     23  O   UNL d   1       3.418  -8.389   2.337  0.00  0.00    -0.322 OA
ATOM     24  C   UNL d   1       4.769  -8.264   2.784  0.00  0.00     0.213 C 
ENDBRANCH  21  23
ENDBRANCH  17  21
ENDBRANCH  13  16
ENDBRANCH  11  12
ENDBRANCH   3  11
BRANCH   2  25
ATOM     25  C   UNL d   1      -4.020  -2.359   0.911  0.00  0.00     0.032 A 
ATOM     26  C   UNL d   1      -4.745  -2.371  -0.290  0.00  0.00     0.020 A 
ATOM     27  C   UNL d   1      -6.144  -2.394  -0.269  0.00  0.00     0.043 A 
ATOM     28  C   UNL d   1      -6.813  -2.479   0.947  0.00  0.00     0.116 A 
ATOM     29  C   UNL d   1      -6.111  -2.554   2.143  0.00  0.00     0.043 A 
ATOM     30  F   UNL d   1      -8.152  -2.503   0.965  0.00  0.00    -0.206 F 
ATOM     31  C   UNL d   1      -4.716  -2.493   2.124  0.00  0.00     0.020 A 
ENDBRANCH   2  25
TORSDOF 6
