REMARK  4 active torsions:
REMARK  status: ('A' for Active; 'I' for Inactive)
REMARK    1  A    between atoms: S_6  and  C_1 
REMARK    2  A    between atoms: C_9  and  S_6 
REMARK    3  A    between atoms: C_7  and  C_9 
REMARK       I    between atoms: N_10  and  C_7 
REMARK    4  A    between atoms: N_11  and  N_10 
ROOT
ATOM      1  C   UNL d   1      -1.240  -1.240   0.054  0.00  0.00     0.035 A 
ATOM      2  N   UNL d   1      -1.218   0.976   0.046  0.00  0.00    -0.358 N 
ATOM      3  C   UNL d   1      -2.049  -0.119   0.045  0.00  0.00     0.023 A 
ATOM      4  C   UNL d   1       0.121  -0.808   0.021  0.00  0.00     0.009 A 
ATOM      5  C   UNL d   1       0.101   0.587   0.030  0.00  0.00     0.044 A 
ATOM      6  C   UNL d   1      -3.526   0.043   0.025  0.00  0.00     0.069 C 
ATOM      7  C   UNL d   1       1.377  -1.452  -0.030  0.00  0.00     0.015 A 
ATOM      8  C   UNL d   1       1.264   1.367   0.009  0.00  0.00     0.030 A 
ATOM      9  C   UNL d   1       2.550  -0.690  -0.040  0.00  0.00     0.001 A 
ATOM     10  C   UNL d   1       2.492   0.700  -0.020  0.00  0.00     0.002 A 
ATOM     11  H   UNL d   1      -1.526   1.939   0.033  0.00  0.00     0.166 HD
ENDROOT
BRANCH   1  12
ATOM     12  S   UNL d   1      -1.800  -2.902   0.024  0.00  0.00    -0.118 SA
BRANCH  12  13
ATOM     13  C   UNL d   1      -1.044  -3.562   1.539  0.00  0.00     0.183 C 
BRANCH  13  14
ATOM     14  C   UNL d   1      -1.285  -5.056   1.661  0.00  0.00     0.241 C 
ATOM     15  O   UNL d   1      -1.802  -5.571   2.655  0.00  0.00    -0.271 OA
ATOM     16  N   UNL d   1      -0.769  -5.813   0.610  0.00  0.00    -0.293 N 
ATOM     17  H   UNL d   1      -0.607  -5.347  -0.283  0.00  0.00     0.183 HD
BRANCH  16  18
ATOM     18  N   UNL d   1      -0.971  -7.214   0.607  0.00  0.00    -0.247 NA
ATOM     19  H   UNL d   1      -1.606  -7.426   1.391  0.00  0.00     0.143 HD
ATOM     20  H   UNL d   1      -0.090  -7.660   0.878  0.00  0.00     0.143 HD
ENDBRANCH  16  18
ENDBRANCH  13  14
ENDBRANCH  12  13
ENDBRANCH   1  12
TORSDOF 4
