REMARK  8 active torsions:
REMARK  status: ('A' for Active; 'I' for Inactive)
REMARK    1  A    between atoms: C_10  and  C_2 
REMARK    2  A    between atoms: C_11  and  C_3 
REMARK    3  A    between atoms: C_13  and  C_4 
REMARK    4  A    between atoms: N_15  and  C_5 
REMARK    5  A    between atoms: O_18  and  C_10 
REMARK    6  A    between atoms: O_19  and  C_11 
REMARK    7  A    between atoms: C_25  and  O_18 
REMARK    8  A    between atoms: C_24  and  O_19 
ROOT
ATOM      1  C   UNL d   1      -0.736   0.671  -0.002  0.00  0.00     0.142 A 
ATOM      2  C   UNL d   1      -1.551   0.446  -1.272  0.00  0.00     0.079 C 
ATOM      3  C   UNL d   1      -1.536   0.351   1.259  0.00  0.00     0.090 C 
ATOM      4  C   UNL d   1      -2.649  -0.333  -1.219  0.00  0.00     0.102 C 
ATOM      5  C   UNL d   1      -2.628  -0.441   1.183  0.00  0.00     0.135 C 
ATOM      6  C   UNL d   1      -0.228   2.151   0.056  0.00  0.00     0.245 A 
ATOM      7  O   UNL d   1      -3.106  -0.887  -0.037  0.00  0.00    -0.297 OA
ATOM      8  N   UNL d   1       1.168   2.113   0.057  0.00  0.00    -0.325 N 
ATOM      9  C   UNL d   1       0.583  -0.096  -0.020  0.00  0.00    -0.004 A 
ATOM     10  C   UNL d   1       1.647   0.806   0.019  0.00  0.00     0.043 A 
ATOM     11  O   UNL d   1      -0.910   3.162   0.088  0.00  0.00    -0.271 OA
ATOM     12  C   UNL d   1       0.820  -1.464  -0.043  0.00  0.00     0.011 A 
ATOM     13  C   UNL d   1       2.963   0.398   0.025  0.00  0.00     0.030 A 
ATOM     14  C   UNL d   1       2.147  -1.901  -0.035  0.00  0.00     0.001 A 
ATOM     15  C   UNL d   1       3.209  -0.978  -0.005  0.00  0.00     0.002 A 
ATOM     16  H   UNL d   1       1.737   2.942   0.111  0.00  0.00     0.169 HD
ENDROOT
BRANCH   2  17
ATOM     17  C   UNL d   1      -1.145   1.042  -2.574  0.00  0.00     0.294 C 
ATOM     18  O   UNL d   1      -1.897   1.258  -3.510  0.00  0.00    -0.259 OA
BRANCH  17  19
ATOM     19  O   UNL d   1       0.195   1.220  -2.620  0.00  0.00    -0.318 OA
BRANCH  19  20
ATOM     20  C   UNL d   1       0.764   1.290  -3.935  0.00  0.00     0.174 C 
ATOM     21  C   UNL d   1       1.167  -0.123  -4.310  0.00  0.00     0.034 C 
ENDBRANCH  19  20
ENDBRANCH  17  19
ENDBRANCH   2  17
BRANCH   3  22
ATOM     22  C   UNL d   1      -0.986   0.822   2.562  0.00  0.00     0.295 C 
ATOM     23  O   UNL d   1       0.177   1.153   2.733  0.00  0.00    -0.259 OA
BRANCH  22  24
ATOM     24  O   UNL d   1      -1.920   0.783   3.551  0.00  0.00    -0.318 OA
BRANCH  24  25
ATOM     25  C   UNL d   1      -1.392   0.705   4.884  0.00  0.00     0.174 C 
ATOM     26  C   UNL d   1      -1.105  -0.756   5.190  0.00  0.00     0.034 C 
ENDBRANCH  24  25
ENDBRANCH  22  24
ENDBRANCH   3  22
BRANCH   4  27
ATOM     27  C   UNL d   1      -3.478  -0.770  -2.355  0.00  0.00    -0.001 A 
ATOM     28  C   UNL d   1      -3.185  -1.969  -3.022  0.00  0.00     0.014 A 
ATOM     29  C   UNL d   1      -3.990  -2.402  -4.078  0.00  0.00     0.001 A 
ATOM     30  C   UNL d   1      -5.093  -1.643  -4.470  0.00  0.00     0.000 A 
ATOM     31  C   UNL d   1      -5.389  -0.451  -3.812  0.00  0.00     0.001 A 
ATOM     32  C   UNL d   1      -4.587  -0.016  -2.756  0.00  0.00     0.014 A 
ENDBRANCH   4  27
BRANCH   5  33
ATOM     33  N   UNL d   1      -3.370  -0.935   2.229  0.00  0.00    -0.282 NA
ATOM     34  H   UNL d   1      -3.306  -0.360   3.070  0.00  0.00     0.126 HD
ATOM     35  H   UNL d   1      -4.330  -1.123   1.952  0.00  0.00     0.126 HD
ENDBRANCH   5  33
TORSDOF 8
