REMARK  3 active torsions:
REMARK  status: ('A' for Active; 'I' for Inactive)
REMARK    1  A    between atoms: C_2  and  C_1 
REMARK       I    between atoms: N_6  and  C_2 
REMARK    2  A    between atoms: S_4  and  C_3 
REMARK    3  A    between atoms: C_7  and  S_4 
ROOT
ATOM      1  C   UNL d   1       1.367  -0.138   0.197  0.00  0.00     0.049 A 
ATOM      2  C   UNL d   1       0.669  -1.361   0.241  0.00  0.00     0.021 A 
ATOM      3  C   UNL d   1       0.647   1.076   0.203  0.00  0.00     0.018 A 
ATOM      4  C   UNL d   1      -0.742  -1.317   0.271  0.00  0.00     0.020 A 
ATOM      5  C   UNL d   1      -0.746   1.094   0.213  0.00  0.00     0.001 A 
ATOM      6  C   UNL d   1      -1.441  -0.106   0.250  0.00  0.00     0.001 A 
ENDROOT
BRANCH   2   7
ATOM      7  S   UNL d   1       1.358  -2.996   0.038  0.00  0.00    -0.090 SA
BRANCH   7   8
ATOM      8  C   UNL d   1       2.251  -3.454   1.510  0.00  0.00     0.005 A 
ATOM      9  C   UNL d   1       2.666  -2.587   2.524  0.00  0.00     0.019 A 
ATOM     10  C   UNL d   1       3.467  -3.054   3.577  0.00  0.00     0.001 A 
ATOM     11  C   UNL d   1       3.852  -4.391   3.634  0.00  0.00     0.000 A 
ATOM     12  C   UNL d   1       3.423  -5.274   2.651  0.00  0.00     0.001 A 
ATOM     13  C   UNL d   1       2.628  -4.805   1.600  0.00  0.00     0.019 A 
ENDBRANCH   7   8
ENDBRANCH   2   7
BRANCH   1  14
ATOM     14  C   UNL d   1       2.845   0.028   0.102  0.00  0.00     0.252 C 
ATOM     15  O   UNL d   1       3.380   0.991   0.640  0.00  0.00    -0.268 OA
ATOM     16  N   UNL d   1       3.532  -0.889  -0.658  0.00  0.00    -0.361 N 
ATOM     17  C   UNL d   1       4.935  -0.754  -0.949  0.00  0.00     0.149 C 
ATOM     18  H   UNL d   1       3.032  -1.683  -1.040  0.00  0.00     0.162 HD
ENDBRANCH   1  14
TORSDOF 3
