REMARK  7 active torsions:
REMARK  status: ('A' for Active; 'I' for Inactive)
REMARK    1  A    between atoms: C_3  and  S_1 
REMARK    2  A    between atoms: C_5  and  S_1 
REMARK    3  A    between atoms: C_2  and  C_3 
REMARK    4  A    between atoms: C_4  and  C_2 
REMARK    5  A    between atoms: C_9  and  C_3 
REMARK    6  A    between atoms: C_6  and  C_4 
REMARK    7  A    between atoms: N_12  and  C_7 
ROOT
ATOM      1  C   UNL d   1       0.512   1.735  -0.554  0.00  0.00     0.092 C 
ENDROOT
BRANCH   1   2
ATOM      2  C   UNL d   1       0.854   2.534  -1.817  0.00  0.00     0.104 C 
BRANCH   2   3
ATOM      3  C   UNL d   1       0.656   1.873  -3.164  0.00  0.00     0.161 C 
ATOM      4  O   UNL d   1       0.023   0.836  -3.333  0.00  0.00    -0.292 OA
BRANCH   3   5
ATOM      5  C   UNL d   1       1.265   2.546  -4.360  0.00  0.00     0.010 A 
ATOM      6  C   UNL d   1       1.405   1.812  -5.544  0.00  0.00     0.016 A 
ATOM      7  C   UNL d   1       2.004   2.389  -6.670  0.00  0.00     0.020 A 
ATOM      8  C   UNL d   1       2.451   3.708  -6.611  0.00  0.00     0.011 A 
ATOM      9  C   UNL d   1       2.300   4.458  -5.449  0.00  0.00     0.020 A 
ATOM     10 BR   UNL d   1       3.278   4.485  -8.127  0.00  0.00    -0.051 Br
ATOM     11  C   UNL d   1       1.705   3.878  -4.323  0.00  0.00     0.016 A 
ENDBRANCH   3   5
ENDBRANCH   2   3
ENDBRANCH   1   2
BRANCH   1  12
ATOM     12  S   UNL d   1       1.325   0.090  -0.276  0.00  0.00    -0.118 SA
BRANCH  12  13
ATOM     13  C   UNL d   1       3.026   0.284  -0.801  0.00  0.00     0.022 C 
ATOM     14  C   UNL d   1       3.899   1.312  -0.395  0.00  0.00     0.022 C 
ATOM     15  C   UNL d   1       5.198   1.352  -0.926  0.00  0.00     0.024 C 
ATOM     16  C   UNL d   1       5.685   0.308  -1.714  0.00  0.00     0.002 C 
ATOM     17  C   UNL d   1       4.860  -0.764  -2.026  0.00  0.00     0.001 C 
ATOM     18  C   UNL d   1       3.535  -0.767  -1.587  0.00  0.00     0.020 C 
BRANCH  14  19
ATOM     19  N   UNL d   1       3.470   2.395   0.404  0.00  0.00    -0.302 NA
ATOM     20  H   UNL d   1       2.802   2.068   1.101  0.00  0.00     0.124 HD
ATOM     21  H   UNL d   1       4.242   2.884   0.846  0.00  0.00     0.124 HD
ENDBRANCH  14  19
ENDBRANCH  12  13
ENDBRANCH   1  12
BRANCH   1  22
ATOM     22  C   UNL d   1      -0.996   1.667  -0.291  0.00  0.00    -0.044 A 
ATOM     23  C   UNL d   1      -1.805   0.626  -0.774  0.00  0.00     0.008 A 
ATOM     24  C   UNL d   1      -3.171   0.583  -0.482  0.00  0.00     0.001 A 
ATOM     25  C   UNL d   1      -3.756   1.591   0.279  0.00  0.00     0.000 A 
ATOM     26  C   UNL d   1      -2.978   2.648   0.742  0.00  0.00     0.001 A 
ATOM     27  C   UNL d   1      -1.610   2.687   0.459  0.00  0.00     0.008 A 
ENDBRANCH   1  22
TORSDOF 7
