REMARK  6 active torsions:
REMARK  status: ('A' for Active; 'I' for Inactive)
REMARK    1  A    between atoms: O_11  and  N_2 
REMARK    2  A    between atoms: O_22  and  C_6 
REMARK    3  A    between atoms: C_7  and  C_8 
REMARK    4  A    between atoms: C_8  and  O_11 
REMARK    5  A    between atoms: O_24  and  C_9 
REMARK    6  A    between atoms: O_23  and  C_10 
ROOT
ATOM      1  C   UNL d   1      -3.075   2.658   3.093  0.00  0.00     0.315 C 
ATOM      2  O   UNL d   1      -2.814   2.235   4.217  0.00  0.00    -0.257 OA
ENDROOT
BRANCH   1   3
ATOM      3  C   UNL d   1      -3.964   3.825   2.864  0.00  0.00     0.046 A 
ATOM      4  C   UNL d   1      -4.487   4.473   3.982  0.00  0.00     0.057 A 
ATOM      5  C   UNL d   1      -5.242   5.649   3.855  0.00  0.00     0.105 A 
ATOM      6  C   UNL d   1      -5.498   6.192   2.571  0.00  0.00     0.135 A 
ATOM      7  C   UNL d   1      -5.013   5.497   1.438  0.00  0.00     0.105 A 
ATOM      8  C   UNL d   1      -4.243   4.332   1.599  0.00  0.00     0.057 A 
BRANCH   5   9
ATOM      9  O   UNL d   1      -5.801   6.232   4.968  0.00  0.00    -0.353 OA
ATOM     10  C   UNL d   1      -5.028   6.154   6.168  0.00  0.00     0.210 C 
ENDBRANCH   5   9
BRANCH   6  11
ATOM     11  O   UNL d   1      -6.179   7.351   2.315  0.00  0.00    -0.351 OA
ATOM     12  C   UNL d   1      -6.515   8.252   3.360  0.00  0.00     0.210 C 
ENDBRANCH   6  11
BRANCH   7  13
ATOM     13  O   UNL d   1      -5.177   5.773   0.105  0.00  0.00    -0.353 OA
ATOM     14  C   UNL d   1      -5.849   6.942  -0.333  0.00  0.00     0.210 C 
ENDBRANCH   7  13
ENDBRANCH   1   3
BRANCH   1  15
ATOM     15  O   UNL d   1      -2.560   2.208   1.914  0.00  0.00    -0.195 OA
BRANCH  15  16
ATOM     16  N   UNL d   1      -1.213   1.877   2.107  0.00  0.00    -0.265 N 
ATOM     17  C   UNL d   1      -0.753   1.114   1.170  0.00  0.00     0.019 C 
ATOM     18  C   UNL d   1      -1.545   0.484   0.030  0.00  0.00     0.034 C 
ATOM     19  C   UNL d   1       0.742   0.838   1.133  0.00  0.00     0.034 C 
ATOM     20  C   UNL d   1      -0.985   1.067  -1.274  0.00  0.00     0.015 C 
ATOM     21  C   UNL d   1      -1.291  -1.032   0.085  0.00  0.00     0.015 C 
ATOM     22  C   UNL d   1       0.527   0.779  -1.381  0.00  0.00    -0.013 C 
ATOM     23  C   UNL d   1       1.253   1.433  -0.187  0.00  0.00     0.015 C 
ATOM     24  C   UNL d   1       0.759  -0.741  -1.344  0.00  0.00     0.009 C 
ATOM     25  C   UNL d   1       0.217  -1.331  -0.030  0.00  0.00    -0.013 C 
ATOM     26  C   UNL d   1       0.945  -0.679   1.161  0.00  0.00     0.015 C 
ATOM     27  HN  UNL d   1      -0.657   2.201   2.899  1.00  0.00     0.194 HD
ENDBRANCH  15  16
ENDBRANCH   1  15
TORSDOF 6
