REMARK  2 active torsions:
REMARK  status: ('A' for Active; 'I' for Inactive)
REMARK    1  A    between atoms: C_7  and  N_1 
REMARK    2  A    between atoms: N_14  and  C_10 
ROOT
ATOM      1  N   UNL d   1       2.312  -0.065   0.097  0.00  0.00    -0.242 N 
ATOM      2  C   UNL d   1       1.620  -1.274  -0.049  0.00  0.00     0.266 C 
ATOM      3  C   UNL d   1       1.698   1.193   0.170  0.00  0.00     0.266 C 
ATOM      4  C   UNL d   1       0.141  -1.213   0.001  0.00  0.00     0.045 A 
ATOM      5  C   UNL d   1       0.220   1.224   0.050  0.00  0.00     0.045 A 
ATOM      6  C   UNL d   1      -0.500   0.026   0.016  0.00  0.00     0.006 A 
ATOM      7  O   UNL d   1       2.139  -2.378  -0.208  0.00  0.00    -0.267 OA
ATOM      8  O   UNL d   1       2.281   2.266   0.318  0.00  0.00    -0.267 OA
ATOM      9  C   UNL d   1      -1.915   0.070  -0.003  0.00  0.00    -0.024 A 
ATOM     10  C   UNL d   1      -0.597  -2.403   0.015  0.00  0.00     0.018 A 
ATOM     11  C   UNL d   1      -0.445   2.456   0.011  0.00  0.00     0.018 A 
ATOM     12  C   UNL d   1      -1.837   2.499  -0.041  0.00  0.00     0.002 A 
ATOM     13  C   UNL d   1      -1.989  -2.361   0.032  0.00  0.00     0.002 A 
ATOM     14  C   UNL d   1      -2.643  -1.131   0.013  0.00  0.00     0.012 A 
ATOM     15  C   UNL d   1      -2.567   1.312  -0.034  0.00  0.00     0.012 A 
ENDROOT
BRANCH   1  16
ATOM     16  C   UNL d   1       3.740  -0.120   0.236  0.00  0.00     0.067 A 
ATOM     17  C   UNL d   1       4.565  -0.725  -0.739  0.00  0.00     0.033 A 
ATOM     18  C   UNL d   1       5.955  -0.706  -0.548  0.00  0.00     0.025 A 
ATOM     19  C   UNL d   1       6.516  -0.204   0.629  0.00  0.00     0.002 A 
ATOM     20  C   UNL d   1       5.698   0.351   1.606  0.00  0.00     0.002 A 
ATOM     21  C   UNL d   1       4.320   0.414   1.401  0.00  0.00     0.032 A 
BRANCH  17  22
ATOM     22  N   UNL d   1       4.071  -1.108  -2.009  0.00  0.00    -0.301 NA
ATOM     23  H   UNL d   1       3.142  -1.517  -1.924  0.00  0.00     0.124 HD
ATOM     24  H   UNL d   1       4.690  -1.758  -2.483  0.00  0.00     0.124 HD
ENDBRANCH  17  22
ENDBRANCH   1  16
TORSDOF 2
