REMARK  5 active torsions:
REMARK  status: ('A' for Active; 'I' for Inactive)
REMARK    1  A    between atoms: C_8  and  C_2 
REMARK    2  A    between atoms: S_9  and  C_5 
REMARK    3  A    between atoms: C_14  and  S_9 
REMARK    4  A    between atoms: C_11  and  C_14 
REMARK    5  A    between atoms: C_13  and  C_11 
ROOT
ATOM      1  N   UNL d   1       0.901   0.083  -0.116  0.00  0.00    -0.315 N 
ATOM      2  C   UNL d   1       0.035   1.159  -0.092  0.00  0.00     0.134 C 
ATOM      3  N   UNL d   1      -1.199   0.678  -0.062  0.00  0.00    -0.283 N 
ATOM      4  HN  UNL d   1      -2.049   1.232   0.048  1.00  0.00     0.188 HD
ATOM      5  C   UNL d   1       0.117  -1.027  -0.279  0.00  0.00     0.163 C 
ATOM      6  N   UNL d   1      -1.147  -0.692  -0.203  0.00  0.00    -0.278 N 
ATOM      7  HN  UNL d   1      -1.944  -1.326  -0.242  1.00  0.00     0.189 HD
ATOM      8  C   UNL d   1       2.332   0.091   0.054  0.00  0.00     0.160 C 
ENDROOT
BRANCH   5   9
ATOM      9  S   UNL d   1       0.769  -2.597  -0.581  0.00  0.00    -0.085 SA
BRANCH   9  10
ATOM     10  C   UNL d   1      -0.732  -3.590  -0.843  0.00  0.00     0.166 C 
BRANCH  10  11
ATOM     11  C   UNL d   1      -0.397  -4.927  -1.495  0.00  0.00     0.169 C 
ATOM     12  O   UNL d   1       0.720  -5.213  -1.927  0.00  0.00    -0.291 OA
BRANCH  11  13
ATOM     13  C   UNL d   1      -1.488  -5.942  -1.646  0.00  0.00     0.011 A 
ATOM     14  C   UNL d   1      -2.792  -5.726  -1.193  0.00  0.00     0.015 A 
ATOM     15  C   UNL d   1      -3.770  -6.716  -1.363  0.00  0.00     0.007 A 
ATOM     16  C   UNL d   1      -3.460  -7.930  -1.987  0.00  0.00    -0.062 A 
ATOM     17  C   UNL d   1      -2.157  -8.143  -2.445  0.00  0.00     0.007 A 
ATOM     18  C   UNL d   1      -4.521  -8.975  -2.175  0.00  0.00     0.048 C 
ATOM     19  C   UNL d   1      -1.180  -7.159  -2.273  0.00  0.00     0.015 A 
ENDBRANCH  11  13
ENDBRANCH  10  11
ENDBRANCH   9  10
ENDBRANCH   5   9
BRANCH   2  20
ATOM     20  C   UNL d   1       0.396   2.582  -0.104  0.00  0.00     0.010 A 
ATOM     21  C   UNL d   1      -0.344   3.505   0.651  0.00  0.00     0.027 A 
ATOM     22  C   UNL d   1      -0.025   4.878   0.648  0.00  0.00    -0.025 A 
ATOM     23  C   UNL d   1      -0.762   5.812   1.397  0.00  0.00     0.012 A 
ATOM     24  C   UNL d   1       1.062   5.335  -0.130  0.00  0.00    -0.026 A 
ATOM     25  C   UNL d   1      -0.425   7.169   1.384  0.00  0.00     0.001 A 
ATOM     26  C   UNL d   1       0.654   7.611   0.628  0.00  0.00     0.001 A 
ATOM     27  C   UNL d   1       1.395   6.700  -0.127  0.00  0.00     0.012 A 
ATOM     28  C   UNL d   1       1.782   4.417  -0.903  0.00  0.00     0.013 A 
ATOM     29  C   UNL d   1       1.442   3.061  -0.904  0.00  0.00     0.016 A 
ENDBRANCH   2  20
TORSDOF 5
