REMARK  2 active torsions:
REMARK  status: ('A' for Active; 'I' for Inactive)
REMARK    1  A    between atoms: N_9  and  C_3 
REMARK    2  A    between atoms: C_7  and  C_4 
ROOT
ATOM      1  N   UNL d   1       0.555   1.426  -0.106  0.00  0.00    -0.350 N 
ATOM      2  HN  UNL d   1      -0.180   2.130  -0.179  1.00  0.00     0.166 HD
ATOM      3  C   UNL d   1       2.607  -0.497   0.052  0.00  0.00     0.045 A 
ATOM      4  C   UNL d   1       1.854   1.805  -0.062  0.00  0.00     0.119 A 
ATOM      5  C   UNL d   1       0.235   0.118  -0.053  0.00  0.00     0.067 A 
ATOM      6  C   UNL d   1       1.228  -0.888   0.054  0.00  0.00     0.019 A 
ATOM      7  C   UNL d   1       2.883   0.874  -0.007  0.00  0.00     0.064 A 
ATOM      8  C   UNL d   1      -1.114  -0.269  -0.082  0.00  0.00     0.061 A 
ATOM      9 CL   UNL d   1      -2.377   0.918  -0.206  0.00  0.00    -0.082 Cl
ATOM     10  C   UNL d   1       0.790  -2.230   0.200  0.00  0.00     0.016 A 
ATOM     11  C   UNL d   1      -0.555  -2.590   0.150  0.00  0.00     0.003 A 
ATOM     12  C   UNL d   1      -1.514  -1.604  -0.000  0.00  0.00     0.026 A 
ENDROOT
BRANCH   3  13
ATOM     13  N   UNL d   1       3.645  -1.443   0.121  0.00  0.00    -0.380 N 
ATOM     14  C   UNL d   1       4.998  -1.100   0.598  0.00  0.00     0.123 C 
ATOM     15  C   UNL d   1       5.937  -1.616  -0.487  0.00  0.00     0.021 C 
ATOM     16  C   UNL d   1       5.216  -2.852  -0.982  0.00  0.00     0.021 C 
ATOM     17  C   UNL d   1       3.755  -2.405  -0.998  0.00  0.00     0.123 C 
ENDBRANCH   3  13
BRANCH   4  18
ATOM     18  C   UNL d   1       2.197   3.288  -0.059  0.00  0.00     0.432 C 
ATOM     19  F   UNL d   1       1.121   4.122  -0.113  0.00  0.00    -0.165 F 
ATOM     20  F   UNL d   1       2.893   3.655   1.058  0.00  0.00    -0.165 F 
ATOM     21  F   UNL d   1       2.993   3.641  -1.111  0.00  0.00    -0.165 F 
ENDBRANCH   4  18
TORSDOF 2
