REMARK  6 active torsions:
REMARK  status: ('A' for Active; 'I' for Inactive)
REMARK    1  A    between atoms: C_6  and  C_3 
REMARK    2  A    between atoms: N_10  and  C_4 
REMARK    3  A    between atoms: C_9  and  C_5 
REMARK    4  A    between atoms: O_12  and  C_9 
REMARK    5  A    between atoms: C_17  and  O_12 
REMARK    6  A    between atoms: C_19  and  C_17 
ROOT
ATOM      1  N   UNL d   1       1.284   0.560  -0.052  0.00  0.00    -0.185 N 
ATOM      2  HN  UNL d   1       2.205   0.998  -0.061  1.00  0.00     0.184 HD
ATOM      3  C   UNL d   1       1.182  -0.804  -0.006  0.00  0.00     0.150 A 
ATOM      4  C   UNL d   1       0.186   1.326  -0.084  0.00  0.00     0.680 A 
ATOM      5  C   UNL d   1      -0.050  -1.435  -0.001  0.00  0.00     0.087 A 
ATOM      6  N   UNL d   1      -1.035   0.775  -0.092  0.00  0.00    -0.201 N 
ATOM      7  HN  UNL d   1      -1.872   1.358  -0.129  1.00  0.00     0.183 HD
ATOM      8  C   UNL d   1      -1.130  -0.579  -0.050  0.00  0.00     0.126 A 
ENDROOT
BRANCH   5   9
ATOM      9  C   UNL d   1      -0.204  -2.906   0.037  0.00  0.00     0.297 C 
ATOM     10  O   UNL d   1       0.744  -3.670   0.019  0.00  0.00    -0.259 OA
BRANCH   9  11
ATOM     11  O   UNL d   1      -1.506  -3.278   0.077  0.00  0.00    -0.313 OA
BRANCH  11  12
ATOM     12  C   UNL d   1      -1.752  -4.697   0.014  0.00  0.00     0.217 C 
BRANCH  12  13
ATOM     13  C   UNL d   1      -2.536  -5.152   1.222  0.00  0.00    -0.034 A 
ATOM     14  C   UNL d   1      -3.765  -5.812   1.071  0.00  0.00     0.011 A 
ATOM     15  C   UNL d   1      -4.467  -6.273   2.189  0.00  0.00     0.024 A 
ATOM     16  C   UNL d   1      -3.941  -6.081   3.464  0.00  0.00     0.034 A 
ATOM     17  C   UNL d   1      -2.716  -5.440   3.631  0.00  0.00     0.024 A 
ATOM     18 CL   UNL d   1      -4.806  -6.646   4.840  0.00  0.00    -0.084 Cl
ATOM     19  C   UNL d   1      -2.013  -4.982   2.513  0.00  0.00     0.011 A 
ENDBRANCH  12  13
ENDBRANCH  11  12
ENDBRANCH   9  11
ENDBRANCH   5   9
BRANCH   3  20
ATOM     20  C   UNL d   1       2.492  -1.566   0.051  0.00  0.00     0.434 C 
ATOM     21  F   UNL d   1       3.584  -0.737   0.059  0.00  0.00    -0.165 F 
ATOM     22  F   UNL d   1       2.629  -2.322   1.175  0.00  0.00    -0.165 F 
ATOM     23  F   UNL d   1       2.693  -2.381  -1.021  0.00  0.00    -0.165 F 
ENDBRANCH   3  20
BRANCH   4  24
ATOM     24  N   UNL d   1       0.343   2.707  -0.038  0.00  0.00    -0.218 N 
ATOM     25  C   UNL d   1       1.649   3.201  -0.484  0.00  0.00     0.141 C 
ATOM     26  C   UNL d   1       1.854   4.638  -0.005  0.00  0.00     0.020 C 
ATOM     27  C   UNL d   1       0.694   5.541  -0.410  0.00  0.00     0.003 C 
ATOM     28  C   UNL d   1      -0.639   4.945   0.033  0.00  0.00     0.020 C 
ATOM     29  C   UNL d   1      -0.812   3.502  -0.452  0.00  0.00     0.141 C 
ENDBRANCH   4  24
TORSDOF 6
