REMARK  9 active torsions:
REMARK  status: ('A' for Active; 'I' for Inactive)
REMARK    1  A    between atoms: N_3  and  C_1 
REMARK    2  A    between atoms: N_14  and  C_1 
REMARK    3  A    between atoms: C_2  and  N_13 
REMARK    4  A    between atoms: N_4  and  C_2 
REMARK    5  A    between atoms: C_15  and  N_3 
REMARK    6  A    between atoms: C_16  and  N_4 
REMARK    7  A    between atoms: N_13  and  N_7 
REMARK    8  A    between atoms: N_9  and  N_14 
REMARK    9  A    between atoms: C_12  and  C_11 
ROOT
ATOM      1  N   UNL d   1       5.307  -0.435   0.870  0.00  0.00    -0.308 N 
ATOM      2  HN  UNL d   1       6.195  -0.574   1.352  1.00  0.00     0.186 HD
ATOM      3  C   UNL d   1       4.665   0.680   0.951  0.00  0.00     0.125 C 
ENDROOT
BRANCH   3   4
ATOM      4  C   UNL d   1       5.293   1.753   1.783  0.00  0.00     0.125 C 
ATOM      5  N   UNL d   1       6.458   2.172   1.434  0.00  0.00    -0.308 N 
ATOM      6  HN  UNL d   1       6.870   1.915   0.538  1.00  0.00     0.186 HD
BRANCH   5   7
ATOM      7  N   UNL d   1       7.118   2.979   2.318  0.00  0.00    -0.277 N 
ATOM      8  H   UNL d   1       6.847   2.946   3.290  0.00  0.00     0.189 HD
BRANCH   7   9
ATOM      9  C   UNL d   1       8.340   3.490   1.971  0.00  0.00     0.187 C 
ATOM     10  S   UNL d   1       8.814   3.871   0.408  0.00  0.00    -0.040 SA
BRANCH   9  11
ATOM     11  N   UNL d   1       9.265   3.678   2.950  0.00  0.00    -0.358 N 
ATOM     12  H   UNL d   1      10.120   4.052   2.548  0.00  0.00     0.162 HD
BRANCH  11  13
ATOM     13  C   UNL d   1       9.401   3.142   4.319  0.00  0.00     0.021 C 
ATOM     14  C   UNL d   1       9.127   1.629   4.367  0.00  0.00     0.037 C 
ATOM     15  C   UNL d   1      10.867   3.367   4.749  0.00  0.00     0.037 C 
ATOM     16  C   UNL d   1       8.497   3.887   5.309  0.00  0.00     0.037 C 
ENDBRANCH  11  13
ENDBRANCH   9  11
ENDBRANCH   7   9
ENDBRANCH   5   7
ENDBRANCH   3   4
BRANCH   1  17
ATOM     17  N   UNL d   1       4.748  -1.421   0.113  0.00  0.00    -0.277 N 
ATOM     18  H   UNL d   1       3.827  -1.321  -0.297  0.00  0.00     0.189 HD
BRANCH  17  19
ATOM     19  C   UNL d   1       5.506  -2.537  -0.225  0.00  0.00     0.187 C 
ATOM     20  S   UNL d   1       4.823  -3.724  -1.169  0.00  0.00    -0.040 SA
BRANCH  19  21
ATOM     21  N   UNL d   1       6.778  -2.464   0.285  0.00  0.00    -0.358 N 
ATOM     22  H   UNL d   1       6.887  -1.569   0.759  0.00  0.00     0.162 HD
BRANCH  21  23
ATOM     23  C   UNL d   1       8.012  -3.227   0.021  0.00  0.00     0.021 C 
ATOM     24  C   UNL d   1       8.376  -3.188  -1.470  0.00  0.00     0.037 C 
ATOM     25  C   UNL d   1       9.153  -2.543   0.806  0.00  0.00     0.037 C 
ATOM     26  C   UNL d   1       7.909  -4.676   0.518  0.00  0.00     0.037 C 
ENDBRANCH  21  23
ENDBRANCH  19  21
ENDBRANCH  17  19
ENDBRANCH   1  17
TORSDOF 9
