REMARK  6 active torsions:
REMARK  status: ('A' for Active; 'I' for Inactive)
REMARK    1  A    between atoms: C_3  and  C_1 
REMARK       I    between atoms: C_2  and  N_4 
REMARK       I    between atoms: N_5  and  C_2 
REMARK    2  A    between atoms: N_4  and  C_8 
REMARK    3  A    between atoms: C_9  and  N_5 
REMARK    4  A    between atoms: C_13  and  C_9 
REMARK    5  A    between atoms: C_14  and  C_13 
REMARK    6  A    between atoms: O_15  and  C_13 
ROOT
ATOM      1  C   UNL d   1       2.870  -4.395  -1.143  0.00  0.00     0.320 C 
ATOM      2  N   UNL d   1       1.671  -4.439  -0.496  0.00  0.00    -0.309 N 
ATOM      3  N   UNL d   1       3.340  -3.166  -1.482  0.00  0.00    -0.340 N 
ATOM      4  O   UNL d   1       3.572  -5.355  -1.455  0.00  0.00    -0.247 OA
ATOM      5  H   UNL d   1       1.308  -3.543  -0.185  0.00  0.00     0.170 HD
ATOM      6  H   UNL d   1       4.218  -3.245  -1.983  0.00  0.00     0.164 HD
ENDROOT
BRANCH   2   7
ATOM      7  C   UNL d   1       0.994  -5.585  -0.022  0.00  0.00     0.037 A 
ATOM      8  C   UNL d   1       1.446  -6.893  -0.216  0.00  0.00     0.045 A 
ATOM      9  C   UNL d   1       0.756  -7.991   0.329  0.00  0.00     0.050 A 
ATOM     10  C   UNL d   1      -0.420  -7.763   1.056  0.00  0.00     0.016 A 
ATOM     11  C   UNL d   1      -0.895  -6.465   1.234  0.00  0.00     0.003 A 
ATOM     12  C   UNL d   1      -0.189  -5.383   0.701  0.00  0.00     0.029 A 
BRANCH   9  13
ATOM     13  C   UNL d   1       1.293  -9.392   0.174  0.00  0.00     0.417 C 
ATOM     14  F   UNL d   1       2.352  -9.493  -0.675  0.00  0.00    -0.166 F 
ATOM     15  F   UNL d   1       0.355 -10.262  -0.298  0.00  0.00    -0.166 F 
ATOM     16  F   UNL d   1       1.716  -9.915   1.360  0.00  0.00    -0.166 F 
ENDBRANCH   9  13
ENDBRANCH   2   7
BRANCH   3  17
ATOM     17  C   UNL d   1       2.700  -1.854  -1.457  0.00  0.00     0.161 C 
BRANCH  17  18
ATOM     18  C   UNL d   1       2.490  -1.274  -0.041  0.00  0.00     0.169 C 
BRANCH  18  19
ATOM     19  C   UNL d   1       2.276   0.229   0.045  0.00  0.00    -0.028 A 
ATOM     20  C   UNL d   1       2.026   1.038  -1.073  0.00  0.00     0.010 A 
ATOM     21  C   UNL d   1       1.800   2.410  -0.928  0.00  0.00     0.001 A 
ATOM     22  C   UNL d   1       1.803   2.992   0.337  0.00  0.00     0.000 A 
ATOM     23  C   UNL d   1       2.049   2.207   1.459  0.00  0.00     0.001 A 
ATOM     24  C   UNL d   1       2.291   0.839   1.314  0.00  0.00     0.010 A 
ENDBRANCH  18  19
BRANCH  18  25
ATOM     25  O   UNL d   1       1.345  -1.933   0.534  0.00  0.00    -0.389 OA
ATOM     26  H   UNL d   1       0.788  -1.248   0.947  0.00  0.00     0.210 HD
ENDBRANCH  18  25
ENDBRANCH  17  18
ENDBRANCH   3  17
TORSDOF 6
