REMARK  5 active torsions:
REMARK  status: ('A' for Active; 'I' for Inactive)
REMARK       I    between atoms: N_2  and  C_1 
REMARK       I    between atoms: N_4  and  C_1 
REMARK    1  A    between atoms: C_3  and  N_2 
REMARK    2  A    between atoms: C_6  and  N_4 
REMARK    3  A    between atoms: C_11  and  C_6 
REMARK    4  A    between atoms: C_12  and  C_11 
REMARK    5  A    between atoms: O_14  and  C_11 
ROOT
ATOM      1  C   UNL d   1       1.037  -0.193   0.009  0.00  0.00     0.320 C 
ATOM      2  N   UNL d   1       0.451  -0.236  -1.239  0.00  0.00    -0.309 N 
ATOM      3  N   UNL d   1       0.120   0.119   0.990  0.00  0.00    -0.340 N 
ATOM      4  O   UNL d   1       2.214  -0.396   0.277  0.00  0.00    -0.247 OA
ATOM      5  H   UNL d   1      -0.501   0.082  -1.295  0.00  0.00     0.170 HD
ATOM      6  H   UNL d   1      -0.694   0.651   0.713  0.00  0.00     0.164 HD
ENDROOT
BRANCH   2   7
ATOM      7  C   UNL d   1       1.088  -0.557  -2.457  0.00  0.00     0.037 A 
ATOM      8  C   UNL d   1       2.358  -1.132  -2.527  0.00  0.00     0.036 A 
ATOM      9  C   UNL d   1       2.958  -1.414  -3.761  0.00  0.00    -0.059 A 
ATOM     10  C   UNL d   1       4.328  -2.022  -3.821  0.00  0.00     0.048 C 
ATOM     11  C   UNL d   1       2.270  -1.109  -4.940  0.00  0.00     0.013 A 
ATOM     12  C   UNL d   1       0.989  -0.541  -4.893  0.00  0.00    -0.059 A 
ATOM     13  C   UNL d   1       0.399  -0.285  -3.647  0.00  0.00     0.036 A 
ATOM     14  C   UNL d   1       0.282  -0.207  -6.173  0.00  0.00     0.048 C 
ENDBRANCH   2   7
BRANCH   3  15
ATOM     15  C   UNL d   1       0.596   0.398   2.341  0.00  0.00     0.161 C 
BRANCH  15  16
ATOM     16  C   UNL d   1      -0.573   0.728   3.281  0.00  0.00     0.169 C 
BRANCH  16  17
ATOM     17  C   UNL d   1      -0.141   1.009   4.706  0.00  0.00    -0.028 A 
ATOM     18  C   UNL d   1       0.752   2.046   5.020  0.00  0.00     0.010 A 
ATOM     19  C   UNL d   1       1.111   2.301   6.346  0.00  0.00     0.001 A 
ATOM     20  C   UNL d   1       0.589   1.519   7.374  0.00  0.00     0.000 A 
ATOM     21  C   UNL d   1      -0.291   0.481   7.079  0.00  0.00     0.001 A 
ATOM     22  C   UNL d   1      -0.656   0.229   5.754  0.00  0.00     0.010 A 
ENDBRANCH  16  17
BRANCH  16  23
ATOM     23  O   UNL d   1      -1.280   1.852   2.733  0.00  0.00    -0.389 OA
ATOM     24  H   UNL d   1      -1.137   2.611   3.324  0.00  0.00     0.210 HD
ENDBRANCH  16  23
ENDBRANCH  15  16
ENDBRANCH   3  15
TORSDOF 5
