REMARK  6 active torsions:
REMARK  status: ('A' for Active; 'I' for Inactive)
REMARK    1  A    between atoms: C_12  and  C_1 
REMARK    2  A    between atoms: S_9  and  C_3 
REMARK    3  A    between atoms: N_10  and  C_6 
REMARK    4  A    between atoms: C_11  and  S_9 
REMARK    5  A    between atoms: C_17  and  C_13 
REMARK    6  A    between atoms: O_26  and  C_17 
ROOT
ATOM      1  C   UNL d   1       3.008  -2.523   1.011  0.00  0.00     0.137 A 
ATOM      2  C   UNL d   1       2.259  -2.850  -0.113  0.00  0.00     0.110 A 
ATOM      3  C   UNL d   1       5.043  -2.946  -0.196  0.00  0.00     0.057 A 
ATOM      4  C   UNL d   1       4.411  -2.565   0.986  0.00  0.00     0.058 A 
ATOM      5  N   UNL d   1       2.878  -3.219  -1.269  0.00  0.00    -0.357 N 
ATOM      6  HN  UNL d   1       2.337  -3.444  -2.104  1.00  0.00     0.166 HD
ATOM      7  C   UNL d   1       4.238  -3.278  -1.279  0.00  0.00     0.106 A 
ENDROOT
BRANCH   2   8
ATOM      8  S   UNL d   1       0.483  -2.725  -0.219  0.00  0.00    -0.032 SA
BRANCH   8   9
ATOM      9  C   UNL d   1       0.096  -4.378  -0.545  0.00  0.00     0.169 A 
ATOM     10  N   UNL d   1      -0.974  -4.775  -1.305  0.00  0.00    -0.312 N 
ATOM     11  C   UNL d   1      -1.001  -6.153  -1.217  0.00  0.00     0.209 A 
ATOM     12  C   UNL d   1      -1.892  -3.920  -2.016  0.00  0.00     0.160 C 
ATOM     13  N   UNL d   1       0.023  -6.540  -0.472  0.00  0.00    -0.279 N 
ATOM     14  N   UNL d   1       0.700  -5.427  -0.043  0.00  0.00    -0.278 N 
ATOM     15  HN  UNL d   1       0.268  -7.506  -0.254  1.00  0.00     0.188 HD
ATOM     16  HN  UNL d   1       1.524  -5.418   0.558  1.00  0.00     0.189 HD
BRANCH  11  17
ATOM     17  C   UNL d   1      -2.014  -7.053  -1.833  0.00  0.00     0.450 C 
ATOM     18  F   UNL d   1      -3.031  -6.385  -2.440  0.00  0.00    -0.163 F 
ATOM     19  F   UNL d   1      -1.470  -7.857  -2.784  0.00  0.00    -0.163 F 
ATOM     20  F   UNL d   1      -2.600  -7.865  -0.916  0.00  0.00    -0.163 F 
ENDBRANCH  11  17
ENDBRANCH   8   9
ENDBRANCH   2   8
BRANCH   1  21
ATOM     21  N   UNL d   1       2.371  -2.094   2.231  0.00  0.00    -0.113 N 
ATOM     22  O   UNL d   1       1.730  -1.038   2.194  0.00  0.00    -0.532 OA
ATOM     23  O   UNL d   1       2.580  -2.777   3.239  0.00  0.00    -0.532 OA
ENDBRANCH   1  21
BRANCH   3  24
ATOM     24  C   UNL d   1       6.512  -2.983  -0.374  0.00  0.00     0.294 C 
ATOM     25  O   UNL d   1       7.050  -3.390  -1.388  0.00  0.00    -0.259 OA
BRANCH  24  26
ATOM     26  O   UNL d   1       7.136  -2.466   0.712  0.00  0.00    -0.322 OA
ATOM     27  C   UNL d   1       8.560  -2.403   0.584  0.00  0.00     0.213 C 
ENDBRANCH  24  26
ENDBRANCH   3  24
TORSDOF 6
