REMARK  6 active torsions:
REMARK  status: ('A' for Active; 'I' for Inactive)
REMARK    1  A    between atoms: S_8  and  C_1 
REMARK    2  A    between atoms: C_6  and  C_3 
REMARK    3  A    between atoms: C_10  and  C_7 
REMARK    4  A    between atoms: C_14  and  S_8 
REMARK    5  A    between atoms: N_13  and  C_16 
REMARK       I    between atoms: C_17  and  N_13 
REMARK    6  A    between atoms: C_25  and  C_17 
ROOT
ATOM      1  C   UNL d   1      -0.100  -1.023  -0.471  0.00  0.00     0.097 A 
ATOM      2  C   UNL d   1      -1.321  -0.719   0.146  0.00  0.00     0.093 A 
ATOM      3  C   UNL d   1      -1.839   0.577  -0.006  0.00  0.00     0.073 A 
ATOM      4  N   UNL d   1       0.627  -0.100  -1.152  0.00  0.00    -0.348 N 
ATOM      5  HN  UNL d   1       1.503  -0.359  -1.606  1.00  0.00     0.166 HD
ATOM      6  C   UNL d   1       0.166   1.170  -1.217  0.00  0.00     0.051 A 
ATOM      7  C   UNL d   1      -1.072   1.526  -0.701  0.00  0.00     0.048 A 
ATOM      8  C   UNL d   1      -1.982  -1.711   0.944  0.00  0.00     0.103 C 
ATOM      9  N   UNL d   1      -2.467  -2.518   1.616  0.00  0.00    -0.191 NA
ENDROOT
BRANCH   1  10
ATOM     10  S   UNL d   1       0.541  -2.708  -0.488  0.00  0.00    -0.069 SA
BRANCH  10  11
ATOM     11  C   UNL d   1       2.212  -2.457   0.097  0.00  0.00     0.033 A 
ATOM     12  C   UNL d   1       2.560  -2.590   1.455  0.00  0.00     0.051 A 
ATOM     13  C   UNL d   1       3.877  -2.326   1.852  0.00  0.00     0.031 A 
ATOM     14  C   UNL d   1       4.838  -1.930   0.920  0.00  0.00     0.002 A 
ATOM     15  C   UNL d   1       4.492  -1.798  -0.421  0.00  0.00     0.002 A 
ATOM     16  C   UNL d   1       3.187  -2.065  -0.831  0.00  0.00     0.021 A 
BRANCH  12  17
ATOM     17  N   UNL d   1       1.593  -3.016   2.398  0.00  0.00    -0.326 N 
ATOM     18  C   UNL d   1       1.536  -2.550   3.702  0.00  0.00     0.221 C 
ATOM     19  O   UNL d   1       2.260  -1.675   4.169  0.00  0.00    -0.273 OA
ATOM     20  H   UNL d   1       0.763  -3.463   2.025  0.00  0.00     0.169 HD
BRANCH  18  21
ATOM     21  C   UNL d   1       0.452  -3.224   4.522  0.00  0.00     0.098 C 
ATOM     22  C   UNL d   1       0.195  -2.482   5.824  0.00  0.00     0.014 C 
ENDBRANCH  18  21
ENDBRANCH  12  17
ENDBRANCH  10  11
ENDBRANCH   1  10
BRANCH   3  23
ATOM     23  C   UNL d   1      -3.173   1.030   0.528  0.00  0.00     0.419 C 
ATOM     24  F   UNL d   1      -3.901   0.072   1.150  0.00  0.00    -0.166 F 
ATOM     25  F   UNL d   1      -3.045   2.047   1.421  0.00  0.00    -0.166 F 
ATOM     26  F   UNL d   1      -3.969   1.509  -0.468  0.00  0.00    -0.166 F 
ENDBRANCH   3  23
BRANCH   6  27
ATOM     27  C   UNL d   1       1.077   2.133  -1.852  0.00  0.00     0.031 A 
ATOM     28  S   UNL d   1       1.058   3.793  -1.390  0.00  0.00    -0.100 SA
ATOM     29  C   UNL d   1       2.334   4.189  -2.449  0.00  0.00     0.050 A 
ATOM     30  C   UNL d   1       2.779   3.092  -3.150  0.00  0.00     0.008 A 
ATOM     31  C   UNL d   1       2.060   1.909  -2.802  0.00  0.00     0.021 A 
ENDBRANCH   6  27
TORSDOF 6
