REMARK  3 active torsions:
REMARK  status: ('A' for Active; 'I' for Inactive)
REMARK    1  A    between atoms: C_10  and  C_1 
REMARK    2  A    between atoms: C_11  and  C_2 
REMARK    3  A    between atoms: C_12  and  C_8 
ROOT
ATOM      1  C   UNL d   1      -0.607   2.362  -0.023  0.00  0.00    -0.003 A 
ATOM      2  C   UNL d   1       0.761   2.341   0.005  0.00  0.00    -0.003 A 
ATOM      3  C   UNL d   1      -1.079   0.907  -0.038  0.00  0.00    -0.011 A 
ATOM      4  C   UNL d   1       1.190   0.875   0.000  0.00  0.00    -0.012 A 
ATOM      5  C   UNL d   1       0.042   0.099  -0.021  0.00  0.00    -0.004 A 
ATOM      6  C   UNL d   1      -2.350   0.341  -0.058  0.00  0.00     0.025 A 
ATOM      7  C   UNL d   1       0.022  -1.263  -0.015  0.00  0.00    -0.023 A 
ATOM      8  C   UNL d   1      -2.446  -1.075  -0.026  0.00  0.00    -0.024 A 
ATOM      9  C   UNL d   1      -1.255  -1.858  -0.008  0.00  0.00     0.024 A 
ATOM     10  C   UNL d   1       2.441   0.268   0.017  0.00  0.00     0.013 A 
ATOM     11  C   UNL d   1       1.274  -1.904  -0.002  0.00  0.00     0.012 A 
ATOM     12  C   UNL d   1       2.460  -1.140   0.011  0.00  0.00     0.002 A 
ENDROOT
BRANCH   1  13
ATOM     13  C   UNL d   1      -1.459   3.553  -0.035  0.00  0.00    -0.024 A 
ATOM     14  C   UNL d   1      -1.808   4.151  -1.252  0.00  0.00     0.012 A 
ATOM     15  C   UNL d   1      -2.671   5.248  -1.273  0.00  0.00     0.001 A 
ATOM     16  C   UNL d   1      -3.189   5.751  -0.081  0.00  0.00     0.000 A 
ATOM     17  C   UNL d   1      -2.839   5.165   1.135  0.00  0.00     0.001 A 
ATOM     18  C   UNL d   1      -1.976   4.067   1.158  0.00  0.00     0.012 A 
ENDBRANCH   1  13
BRANCH   2  19
ATOM     19  C   UNL d   1       1.650   3.504   0.041  0.00  0.00    -0.024 A 
ATOM     20  C   UNL d   1       2.026   4.063   1.267  0.00  0.00     0.012 A 
ATOM     21  C   UNL d   1       2.927   5.130   1.304  0.00  0.00     0.001 A 
ATOM     22  C   UNL d   1       3.453   5.639   0.118  0.00  0.00     0.000 A 
ATOM     23  C   UNL d   1       3.076   5.089  -1.107  0.00  0.00     0.001 A 
ATOM     24  C   UNL d   1       2.176   4.022  -1.146  0.00  0.00     0.012 A 
ENDBRANCH   2  19
BRANCH   8  25
ATOM     25  C   UNL d   1      -3.775  -1.740   0.022  0.00  0.00    -0.026 A 
ATOM     26  C   UNL d   1      -4.002  -2.979  -0.605  0.00  0.00     0.012 A 
ATOM     27  C   UNL d   1      -5.235  -3.633  -0.510  0.00  0.00     0.001 A 
ATOM     28  C   UNL d   1      -6.280  -3.051   0.200  0.00  0.00     0.000 A 
ATOM     29  C   UNL d   1      -6.092  -1.815   0.811  0.00  0.00     0.001 A 
ATOM     30  C   UNL d   1      -4.853  -1.171   0.726  0.00  0.00     0.012 A 
ENDBRANCH   8  25
TORSDOF 3
