REMARK  2 active torsions:
REMARK  status: ('A' for Active; 'I' for Inactive)
REMARK    1  A    between atoms: C_7  and  N_1 
REMARK    2  A    between atoms: C_9  and  C_2 
ROOT
ATOM      1  N   UNL d   1       0.994  -0.658  -0.024  0.00  0.00    -0.298 N 
ATOM      2  C   UNL d   1       1.010   0.720   0.052  0.00  0.00     0.135 C 
ATOM      3  N   UNL d   1      -0.166   1.282   0.128  0.00  0.00    -0.282 N 
ATOM      4  HN  UNL d   1      -0.381   2.279   0.153  1.00  0.00     0.188 HD
ATOM      5  C   UNL d   1      -0.355  -0.955   0.157  0.00  0.00     0.195 C 
ATOM      6  N   UNL d   1      -1.028   0.253   0.167  0.00  0.00    -0.274 N 
ATOM      7  S   UNL d   1      -1.196  -2.366   0.380  0.00  0.00    -0.039 SA
ATOM      8  H   UNL d   1      -2.022   0.383   0.314  0.00  0.00     0.189 HD
ENDROOT
BRANCH   2   9
ATOM      9  C   UNL d   1       2.191   1.589   0.052  0.00  0.00     0.012 A 
ATOM     10  C   UNL d   1       2.301   2.552  -0.950  0.00  0.00     0.032 A 
ATOM     11  C   UNL d   1       3.357   3.440  -0.878  0.00  0.00     0.088 A 
ATOM     12  N   UNL d   1       4.281   3.423   0.108  0.00  0.00    -0.375 N 
ATOM     13  C   UNL d   1       4.118   2.509   1.089  0.00  0.00     0.088 A 
ATOM     14  HN  UNL d   1       5.067   4.073   0.111  1.00  0.00     0.164 HD
ATOM     15  C   UNL d   1       3.082   1.592   1.121  0.00  0.00     0.032 A 
ENDBRANCH   2   9
BRANCH   1  16
ATOM     16  C   UNL d   1       2.138  -1.651  -0.097  0.00  0.00     0.030 C 
ATOM     17  C   UNL d   1       2.506  -2.120   1.322  0.00  0.00     0.038 C 
ATOM     18  C   UNL d   1       1.785  -2.900  -0.946  0.00  0.00     0.038 C 
ATOM     19  C   UNL d   1       3.400  -1.081  -0.785  0.00  0.00     0.038 C 
ENDBRANCH   1  16
TORSDOF 2
