REMARK  4 active torsions:
REMARK  status: ('A' for Active; 'I' for Inactive)
REMARK    1  A    between atoms: C_8  and  C_2 
REMARK    2  A    between atoms: S_11  and  C_5 
REMARK    3  A    between atoms: C_9  and  C_13 
REMARK       I    between atoms: N_10  and  C_9 
REMARK    4  A    between atoms: C_13  and  S_11 
ROOT
ATOM      1  N   UNL d   1       0.806   0.026   0.070  0.00  0.00    -0.315 N 
ATOM      2  C   UNL d   1      -0.021   1.124  -0.093  0.00  0.00     0.134 A 
ATOM      3  N   UNL d   1      -1.271   0.683  -0.114  0.00  0.00    -0.283 N 
ATOM      4  HN  UNL d   1      -2.102   1.267  -0.202  1.00  0.00     0.188 HD
ATOM      5  C   UNL d   1      -0.022  -1.069   0.113  0.00  0.00     0.163 A 
ATOM      6  N   UNL d   1      -1.269  -0.689   0.002  0.00  0.00    -0.278 N 
ATOM      7  HN  UNL d   1      -2.089  -1.297   0.001  1.00  0.00     0.189 HD
ATOM      8  C   UNL d   1       2.239  -0.002   0.222  0.00  0.00     0.160 C 
ENDROOT
BRANCH   2   9
ATOM      9  C   UNL d   1       0.368   2.542  -0.150  0.00  0.00     0.010 A 
ATOM     10  C   UNL d   1      -0.469   3.512   0.425  0.00  0.00     0.029 A 
ATOM     11  C   UNL d   1      -0.103   4.876   0.452  0.00  0.00    -0.009 A 
ATOM     12  C   UNL d   1      -0.925   5.861   1.018  0.00  0.00     0.015 A 
ATOM     13  C   UNL d   1       1.127   5.290  -0.099  0.00  0.00     0.042 A 
ATOM     14  C   UNL d   1      -0.506   7.187   1.037  0.00  0.00     0.018 A 
ATOM     15  C   UNL d   1       0.730   7.486   0.494  0.00  0.00     0.088 A 
ATOM     16  N   UNL d   1       1.543   6.567  -0.070  0.00  0.00    -0.365 N 
ATOM     17  HN  UNL d   1       2.445   6.835  -0.463  1.00  0.00     0.165 HD
ATOM     18  C   UNL d   1       1.923   4.332  -0.703  0.00  0.00     0.031 A 
ATOM     19  C   UNL d   1       1.545   2.984  -0.761  0.00  0.00     0.017 A 
ENDBRANCH   2   9
BRANCH   5  20
ATOM     20  S   UNL d   1       0.566  -2.679   0.311  0.00  0.00    -0.083 SA
BRANCH  20  21
ATOM     21  C   UNL d   1      -0.951  -3.691   0.275  0.00  0.00     0.185 C 
BRANCH  21  22
ATOM     22  C   UNL d   1      -0.624  -5.149   0.630  0.00  0.00     0.229 C 
ATOM     23  N   UNL d   1      -1.665  -6.071   0.615  0.00  0.00    -0.347 N 
ATOM     24  C   UNL d   1      -3.080  -5.808   0.336  0.00  0.00     0.152 C 
ATOM     25  C   UNL d   1      -1.397  -7.469   0.975  0.00  0.00     0.152 C 
ATOM     26  C   UNL d   1      -3.956  -6.322   1.490  0.00  0.00     0.187 C 
ATOM     27  O   UNL d   1      -3.686  -7.703   1.786  0.00  0.00    -0.388 OA
ATOM     28  C   UNL d   1      -2.303  -7.893   2.133  0.00  0.00     0.187 C 
ATOM     29  O   UNL d   1       0.512  -5.512   0.934  0.00  0.00    -0.273 OA
ENDBRANCH  21  22
ENDBRANCH  20  21
ENDBRANCH   5  20
TORSDOF 4
