REMARK  2 active torsions:
REMARK  status: ('A' for Active; 'I' for Inactive)
REMARK    1  A    between atoms: C_2  and  C_1 
REMARK    2  A    between atoms: C_8  and  C_2 
ROOT
ATOM      1  C   UNL d   1       2.415   0.702  -0.003  0.00  0.00     0.035 A 
ATOM      2  C   UNL d   1       2.405  -0.705  -0.030  0.00  0.00     0.028 A 
ATOM      3  C   UNL d   1       1.183   1.383  -0.026  0.00  0.00     0.056 A 
ATOM      4  C   UNL d   1       1.186  -1.402  -0.040  0.00  0.00     0.059 A 
ATOM      5  C   UNL d   1      -0.021   0.683  -0.024  0.00  0.00     0.103 A 
ATOM      6  C   UNL d   1      -0.022  -0.709  -0.013  0.00  0.00     0.103 A 
ATOM      7  O   UNL d   1      -1.165   1.438  -0.024  0.00  0.00    -0.346 OA
ATOM      8  O   UNL d   1      -1.168  -1.460   0.011  0.00  0.00    -0.346 OA
ATOM      9 BR   UNL d   1       3.969  -1.786   0.000  0.00  0.00    -0.050 Br
ATOM     10  C   UNL d   1      -2.308   0.651  -0.383  0.00  0.00     0.202 C 
ATOM     11  C   UNL d   1      -2.308  -0.668   0.371  0.00  0.00     0.202 C 
ENDROOT
BRANCH   1  12
ATOM     12  C   UNL d   1       3.669   1.515   0.003  0.00  0.00     0.193 C 
ATOM     13  O   UNL d   1       4.673   1.126  -0.597  0.00  0.00    -0.287 OA
BRANCH  12  14
ATOM     14  C   UNL d   1       3.746   2.832   0.697  0.00  0.00     0.015 A 
ATOM     15  C   UNL d   1       4.613   3.815   0.205  0.00  0.00     0.016 A 
ATOM     16  C   UNL d   1       4.770   5.023   0.889  0.00  0.00     0.007 A 
ATOM     17  C   UNL d   1       4.051   5.269   2.067  0.00  0.00    -0.062 A 
ATOM     18  C   UNL d   1       3.148   4.307   2.530  0.00  0.00     0.007 A 
ATOM     19  C   UNL d   1       4.306   6.515   2.861  0.00  0.00     0.048 C 
ATOM     20  C   UNL d   1       3.008   3.090   1.860  0.00  0.00     0.016 A 
ENDBRANCH  12  14
ENDBRANCH   1  12
TORSDOF 2
