REMARK  7 active torsions:
REMARK  status: ('A' for Active; 'I' for Inactive)
REMARK    1  A    between atoms: C_6  and  C_1 
REMARK    2  A    between atoms: C_12  and  C_3 
REMARK    3  A    between atoms: C_8  and  C_11 
REMARK    4  A    between atoms: C_14  and  N_18 
REMARK    5  A    between atoms: N_20  and  C_14 
REMARK    6  A    between atoms: N_18  and  N_15 
REMARK    7  A    between atoms: C_22  and  N_20 
ROOT
ATOM      1  C   UNL d   1      -4.170  -3.062  -0.397  0.00  0.00     0.103 A 
ATOM      2  S   UNL d   1      -2.981  -1.890  -0.832  0.00  0.00    -0.066 SA
ATOM      3  C   UNL d   1      -1.757  -2.801  -0.042  0.00  0.00     0.052 A 
ATOM      4  N   UNL d   1      -3.692  -4.068   0.307  0.00  0.00    -0.351 N 
ATOM      5  HN  UNL d   1      -4.257  -4.835   0.673  1.00  0.00     0.166 HD
ATOM      6  C   UNL d   1      -2.321  -3.952   0.488  0.00  0.00     0.025 A 
ATOM      7  C   UNL d   1      -1.638  -5.034   1.247  0.00  0.00     0.070 C 
ENDROOT
BRANCH   3   8
ATOM      8  C   UNL d   1      -0.366  -2.369  -0.025  0.00  0.00     0.041 C 
ATOM      9  N   UNL d   1       0.552  -3.290  -0.103  0.00  0.00    -0.302 N 
ATOM     10  HN  UNL d   1       0.288  -4.263  -0.256  1.00  0.00     0.186 HD
ATOM     11  C   UNL d   1      -0.036  -0.892   0.053  0.00  0.00     0.071 C 
BRANCH   9  12
ATOM     12  N   UNL d   1       1.870  -2.947   0.022  0.00  0.00    -0.276 N 
ATOM     13  H   UNL d   1       2.123  -2.141   0.574  0.00  0.00     0.189 HD
BRANCH  12  14
ATOM     14  C   UNL d   1       2.855  -3.654  -0.615  0.00  0.00     0.187 C 
ATOM     15  S   UNL d   1       2.633  -4.631  -1.957  0.00  0.00    -0.040 SA
BRANCH  14  16
ATOM     16  N   UNL d   1       4.124  -3.568  -0.121  0.00  0.00    -0.358 N 
ATOM     17  H   UNL d   1       4.761  -4.101  -0.705  0.00  0.00     0.162 HD
BRANCH  16  18
ATOM     18  C   UNL d   1       4.614  -3.301   1.250  0.00  0.00     0.021 C 
ATOM     19  C   UNL d   1       3.723  -3.967   2.311  0.00  0.00     0.037 C 
ATOM     20  C   UNL d   1       6.024  -3.925   1.361  0.00  0.00     0.037 C 
ATOM     21  C   UNL d   1       4.743  -1.797   1.523  0.00  0.00     0.037 C 
ENDBRANCH  16  18
ENDBRANCH  14  16
ENDBRANCH  12  14
ENDBRANCH   9  12
ENDBRANCH   3   8
BRANCH   1  22
ATOM     22  C   UNL d   1      -5.584  -2.898  -0.800  0.00  0.00     0.088 A 
ATOM     23  N   UNL d   1      -6.013  -1.603  -0.896  0.00  0.00    -0.361 N 
ATOM     24  C   UNL d   1      -7.312  -1.380  -1.212  0.00  0.00     0.104 A 
ATOM     25  HN  UNL d   1      -5.373  -0.826  -0.734  1.00  0.00     0.165 HD
ATOM     26  C   UNL d   1      -8.234  -2.390  -1.442  0.00  0.00     0.065 A 
ATOM     27  C   UNL d   1      -7.780  -3.706  -1.349  0.00  0.00     0.043 A 
ATOM     28  C   UNL d   1      -6.446  -3.976  -1.025  0.00  0.00     0.064 A 
ATOM     29 CL   UNL d   1      -5.973  -5.634  -0.974  0.00  0.00    -0.082 Cl
BRANCH  26  30
ATOM     30  C   UNL d   1      -9.652  -2.043  -1.777  0.00  0.00     0.418 C 
ATOM     31  F   UNL d   1     -10.435  -3.133  -1.994  0.00  0.00    -0.166 F 
ATOM     32  F   UNL d   1     -10.260  -1.334  -0.789  0.00  0.00    -0.166 F 
ATOM     33  F   UNL d   1      -9.749  -1.282  -2.900  0.00  0.00    -0.166 F 
ENDBRANCH  26  30
ENDBRANCH   1  22
TORSDOF 7
