REMARK  5 active torsions:
REMARK  status: ('A' for Active; 'I' for Inactive)
REMARK    1  A    between atoms: C_9  and  C_5 
REMARK    2  A    between atoms: N_7  and  C_10 
REMARK    3  A    between atoms: N_8  and  C_15 
REMARK       I    between atoms: N_21  and  C_9 
REMARK    4  A    between atoms: C_28  and  N_21 
REMARK    5  A    between atoms: C_29  and  N_21 
ROOT
ATOM      1  C   UNL d   1      -1.607   0.537   0.151  0.00  0.00     0.002 C 
ATOM      2  C   UNL d   1       0.714   0.082   0.038  0.00  0.00     0.018 C 
ATOM      3  C   UNL d   1      -0.328   1.172   0.117  0.00  0.00    -0.008 C 
ATOM      4  C   UNL d   1      -0.018  -1.228   0.114  0.00  0.00    -0.009 A 
ATOM      5  C   UNL d   1      -2.763   1.332   0.075  0.00  0.00     0.046 C 
ATOM      6  C   UNL d   1      -1.398  -0.917   0.245  0.00  0.00    -0.013 A 
ATOM      7  C   UNL d   1      -1.386   3.332   0.226  0.00  0.00     0.104 C 
ATOM      8  C   UNL d   1       2.058   0.243  -0.079  0.00  0.00     0.136 C 
ATOM      9  C   UNL d   1      -0.218   2.562   0.174  0.00  0.00     0.049 C 
ATOM     10  C   UNL d   1      -2.646   2.732   0.172  0.00  0.00     0.054 C 
ATOM     11  C   UNL d   1       0.417  -2.553   0.100  0.00  0.00     0.049 A 
ATOM     12  C   UNL d   1      -0.519  -3.573   0.314  0.00  0.00     0.103 A 
ATOM     13  C   UNL d   1       2.681   1.517  -0.203  0.00  0.00     0.111 C 
ATOM     14  C   UNL d   1       2.988  -0.840  -0.097  0.00  0.00     0.111 C 
ATOM     15  N   UNL d   1       3.196   2.551  -0.316  0.00  0.00    -0.191 NA
ATOM     16  N   UNL d   1       3.762  -1.703  -0.105  0.00  0.00    -0.191 NA
ATOM     17  C   UNL d   1      -2.303  -1.942   0.513  0.00  0.00     0.015 A 
ATOM     18  C   UNL d   1      -1.864  -3.271   0.561  0.00  0.00     0.037 A 
ENDROOT
BRANCH   5  19
ATOM     19  C   UNL d   1      -4.152   0.829  -0.068  0.00  0.00     0.254 C 
ATOM     20  N   UNL d   1      -4.948   1.290  -1.135  0.00  0.00    -0.349 N 
ATOM     21  O   UNL d   1      -4.576   0.103   0.826  0.00  0.00    -0.267 OA
BRANCH  20  22
ATOM     22  C   UNL d   1      -6.370   0.917  -1.124  0.00  0.00     0.121 C 
ATOM     23  C   UNL d   1      -6.749  -0.041  -2.242  0.00  0.00     0.026 C 
ENDBRANCH  20  22
BRANCH  20  24
ATOM     24  C   UNL d   1      -4.450   2.011  -2.324  0.00  0.00     0.121 C 
ATOM     25  C   UNL d   1      -5.160   3.338  -2.574  0.00  0.00     0.026 C 
ENDBRANCH  20  24
ENDBRANCH   5  19
BRANCH   7  26
ATOM     26  N   UNL d   1      -1.298   4.795   0.304  0.00  0.00    -0.116 N 
ATOM     27  O   UNL d   1      -0.187   5.293   0.538  0.00  0.00    -0.532 OA
ATOM     28  O   UNL d   1      -2.338   5.443   0.123  0.00  0.00    -0.532 OA
ENDBRANCH   7  26
BRANCH  12  29
ATOM     29  N   UNL d   1      -0.085  -4.978   0.282  0.00  0.00    -0.116 N 
ATOM     30  O   UNL d   1       1.046  -5.217  -0.164  0.00  0.00    -0.532 OA
ATOM     31  O   UNL d   1      -0.881  -5.836   0.686  0.00  0.00    -0.532 OA
ENDBRANCH  12  29
TORSDOF 5
