REMARK  3 active torsions:
REMARK  status: ('A' for Active; 'I' for Inactive)
REMARK    1  A    between atoms: C_7  and  N_1 
REMARK    2  A    between atoms: C_8  and  C_2 
REMARK    3  A    between atoms: O_11  and  C_8 
ROOT
ATOM      1  N   UNL d   1       0.945  -0.556   0.063  0.00  0.00    -0.260 N 
ATOM      2  C   UNL d   1      -0.425   1.195   0.405  0.00  0.00     0.078 A 
ATOM      3  C   UNL d   1       0.880   0.737   0.596  0.00  0.00     0.049 A 
ATOM      4  N   UNL d   1      -0.260  -0.924  -0.434  0.00  0.00    -0.304 N 
ATOM      5  HN  UNL d   1      -0.502  -1.814  -0.871  1.00  0.00     0.186 HD
ATOM      6  C   UNL d   1      -1.060   0.115  -0.235  0.00  0.00     0.128 A 
ATOM      7  C   UNL d   1       2.057   1.477   1.145  0.00  0.00     0.071 C 
ENDROOT
BRANCH   1   8
ATOM      8  C   UNL d   1       2.054  -1.463   0.005  0.00  0.00     0.062 A 
ATOM      9  C   UNL d   1       2.238  -2.378  -1.060  0.00  0.00    -0.033 A 
ATOM     10  C   UNL d   1       1.345  -2.548  -2.262  0.00  0.00     0.050 C 
ATOM     11  C   UNL d   1       3.380  -3.211  -1.045  0.00  0.00     0.009 A 
ATOM     12  C   UNL d   1       4.322  -3.146  -0.022  0.00  0.00     0.001 A 
ATOM     13  C   UNL d   1       4.125  -2.270   1.034  0.00  0.00     0.002 A 
ATOM     14  C   UNL d   1       2.994  -1.450   1.054  0.00  0.00     0.032 A 
ENDBRANCH   1   8
BRANCH   2  15
ATOM     15  C   UNL d   1      -0.965   2.500   0.771  0.00  0.00     0.179 C 
ATOM     16  O   UNL d   1      -0.332   3.352   1.387  0.00  0.00    -0.646 OA
BRANCH  15  17
ATOM     17  O   UNL d   1      -2.241   2.745   0.382  0.00  0.00    -0.773 OA
ATOM     18  H   UNL d   1      -2.665   2.031  -0.122  0.00  0.00     0.167 HD
ENDBRANCH  15  17
ENDBRANCH   2  15
TORSDOF 3
