REMARK  4 active torsions:
REMARK  status: ('A' for Active; 'I' for Inactive)
REMARK    1  A    between atoms: C_2  and  N_1 
REMARK       I    between atoms: C_4  and  N_1 
REMARK    2  A    between atoms: C_5  and  C_2 
REMARK    3  A    between atoms: C_3  and  C_6 
REMARK    4  A    between atoms: C_7  and  C_4 
ROOT
ATOM      1  N   UNL d   1       1.067  -0.036   0.059  0.00  0.00    -0.308 N 
ATOM      2  C   UNL d   1       2.428  -0.223  -0.093  0.00  0.00     0.257 C 
ATOM      3  O   UNL d   1       3.116  -0.843   0.715  0.00  0.00    -0.267 OA
ATOM      4  H   UNL d   1       0.546   0.427  -0.671  0.00  0.00     0.170 HD
ENDROOT
BRANCH   2   5
ATOM      5  C   UNL d   1       3.078   0.331  -1.314  0.00  0.00     0.033 A 
ATOM      6  C   UNL d   1       2.600   1.454  -2.003  0.00  0.00     0.033 A 
ATOM      7  C   UNL d   1       3.292   1.944  -3.129  0.00  0.00     0.048 A 
ATOM      8  C   UNL d   1       4.467   1.296  -3.548  0.00  0.00     0.016 A 
ATOM      9  C   UNL d   1       4.947   0.184  -2.861  0.00  0.00     0.002 A 
ATOM     10  C   UNL d   1       4.257  -0.293  -1.749  0.00  0.00     0.017 A 
BRANCH   7  11
ATOM     11  C   UNL d   1       2.810   3.158  -3.888  0.00  0.00     0.417 C 
ATOM     12  F   UNL d   1       1.657   3.681  -3.389  0.00  0.00    -0.166 F 
ATOM     13  F   UNL d   1       3.718   4.172  -3.881  0.00  0.00    -0.166 F 
ATOM     14  F   UNL d   1       2.561   2.885  -5.198  0.00  0.00    -0.166 F 
ENDBRANCH   7  11
ENDBRANCH   2   5
BRANCH   1  15
ATOM     15  C   UNL d   1       0.308  -0.521   1.107  0.00  0.00     0.119 C 
ATOM     16  N   UNL d   1       0.827  -1.186   2.083  0.00  0.00    -0.384 N 
ATOM     17  H   UNL d   1       1.845  -1.272   1.916  0.00  0.00     0.157 HD
ATOM     18  HN  UNL d   1       0.320  -1.564   2.883  1.00  0.00     0.157 HD
BRANCH  15  19
ATOM     19  C   UNL d   1      -1.123  -0.279   1.100  0.00  0.00     0.048 A 
ATOM     20  S   UNL d   1      -1.891   0.621  -0.141  0.00  0.00    -0.098 SA
ATOM     21  C   UNL d   1      -3.438   0.402   0.559  0.00  0.00     0.050 A 
ATOM     22  C   UNL d   1      -3.379  -0.331   1.722  0.00  0.00     0.009 A 
ATOM     23  C   UNL d   1      -2.045  -0.715   2.036  0.00  0.00     0.023 A 
ENDBRANCH  15  19
ENDBRANCH   1  15
TORSDOF 4
