REMARK  3 active torsions:
REMARK  status: ('A' for Active; 'I' for Inactive)
REMARK    1  A    between atoms: C_6  and  C_1 
REMARK    2  A    between atoms: C_11  and  C_2 
REMARK    3  A    between atoms: C_8  and  C_6 
ROOT
ATOM      1  C   UNL d   1       2.171   0.630  -0.459  0.00  0.00     0.015 C 
ATOM      2  C   UNL d   1       2.326  -0.698  -0.269  0.00  0.00     0.026 C 
ATOM      3  S   UNL d   1       1.080  -1.830   0.122  0.00  0.00    -0.088 SA
ATOM      4  C   UNL d   1       0.844   1.305  -0.307  0.00  0.00     0.191 C 
ATOM      5  C   UNL d   1      -0.401   0.520  -0.178  0.00  0.00     0.032 A 
ATOM      6  C   UNL d   1      -0.390  -0.862  -0.024  0.00  0.00     0.019 A 
ATOM      7  O   UNL d   1       0.763   2.532  -0.319  0.00  0.00    -0.287 OA
ATOM      8  C   UNL d   1      -1.626   1.214  -0.220  0.00  0.00     0.017 A 
ATOM      9  C   UNL d   1      -1.620  -1.540   0.054  0.00  0.00     0.020 A 
ATOM     10  C   UNL d   1      -2.837   0.529  -0.134  0.00  0.00     0.001 A 
ATOM     11  C   UNL d   1      -2.832  -0.855  -0.006  0.00  0.00     0.001 A 
ENDROOT
BRANCH   1  12
ATOM     12  C   UNL d   1       3.314   1.587  -0.782  0.00  0.00     0.084 C 
BRANCH  12  13
ATOM     13  C   UNL d   1       3.895   1.543  -2.191  0.00  0.00    -0.032 A 
ATOM     14  C   UNL d   1       5.081   2.246  -2.488  0.00  0.00     0.042 A 
ATOM     15  C   UNL d   1       5.684   2.152  -3.746  0.00  0.00     0.048 A 
ATOM     16 CL   UNL d   1       5.854   3.262  -1.320  0.00  0.00    -0.084 Cl
ATOM     17  C   UNL d   1       5.109   1.352  -4.726  0.00  0.00     0.035 A 
ATOM     18  C   UNL d   1       3.914   0.686  -4.477  0.00  0.00     0.024 A 
ATOM     19 CL   UNL d   1       5.878   1.184  -6.255  0.00  0.00    -0.084 Cl
ATOM     20  C   UNL d   1       3.298   0.804  -3.228  0.00  0.00     0.011 A 
ENDBRANCH  12  13
ENDBRANCH   1  12
BRANCH   2  21
ATOM     21  C   UNL d   1       3.649  -1.351  -0.396  0.00  0.00    -0.018 A 
ATOM     22  C   UNL d   1       4.566  -1.322   0.662  0.00  0.00     0.013 A 
ATOM     23  C   UNL d   1       5.833  -1.889   0.513  0.00  0.00     0.001 A 
ATOM     24  C   UNL d   1       6.196  -2.487  -0.693  0.00  0.00     0.000 A 
ATOM     25  C   UNL d   1       5.286  -2.541  -1.745  0.00  0.00     0.001 A 
ATOM     26  C   UNL d   1       4.013  -1.989  -1.593  0.00  0.00     0.013 A 
ENDBRANCH   2  21
TORSDOF 3
