REMARK  5 active torsions:
REMARK  status: ('A' for Active; 'I' for Inactive)
REMARK    1  A    between atoms: N_2  and  C_1 
REMARK    2  A    between atoms: N_4  and  C_1 
REMARK    3  A    between atoms: C_3  and  N_2 
REMARK    4  A    between atoms: O_14  and  C_3 
REMARK    5  A    between atoms: C_5  and  N_4 
ROOT
ATOM      1  C   UNL d   1       1.126   0.006  -0.077  0.00  0.00     0.179 C 
ATOM      2  S   UNL d   1       0.978   1.541  -0.722  0.00  0.00    -0.040 SA
ENDROOT
BRANCH   1   3
ATOM      3  N   UNL d   1       2.330  -0.354   0.503  0.00  0.00    -0.299 N 
ATOM      4  H   UNL d   1       3.107   0.266   0.316  0.00  0.00     0.171 HD
BRANCH   3   5
ATOM      5  C   UNL d   1       2.612  -1.365   1.376  0.00  0.00     0.218 C 
ATOM      6  N   UNL d   1       1.729  -2.064   1.989  0.00  0.00    -0.365 N 
ATOM      7  H   UNL d   1       0.800  -1.700   1.751  0.00  0.00     0.159 HD
ATOM      8  HN  UNL d   1       1.918  -2.851   2.611  1.00  0.00     0.159 HD
BRANCH   5   9
ATOM      9  O   UNL d   1       3.940  -1.534   1.540  0.00  0.00    -0.327 OA
ATOM     10  C   UNL d   1       4.327  -2.619   2.392  0.00  0.00     0.213 C 
ENDBRANCH   5   9
ENDBRANCH   3   5
ENDBRANCH   1   3
BRANCH   1  11
ATOM     11  N   UNL d   1       0.199  -1.016  -0.139  0.00  0.00    -0.331 N 
ATOM     12  H   UNL d   1       0.601  -1.907  -0.432  0.00  0.00     0.168 HD
BRANCH  11  13
ATOM     13  C   UNL d   1      -1.192  -0.914  -0.343  0.00  0.00     0.073 A 
ATOM     14  C   UNL d   1      -1.832  -1.886  -1.125  0.00  0.00     0.145 A 
ATOM     15  C   UNL d   1      -3.203  -1.868  -1.322  0.00  0.00     0.086 A 
ATOM     16  F   UNL d   1      -1.098  -2.840  -1.721  0.00  0.00    -0.204 F 
ATOM     17  C   UNL d   1      -3.954  -0.885  -0.691  0.00  0.00     0.119 A 
ATOM     18  C   UNL d   1      -3.348   0.071   0.120  0.00  0.00     0.044 A 
ATOM     19  F   UNL d   1      -5.283  -0.862  -0.853  0.00  0.00    -0.206 F 
ATOM     20  C   UNL d   1      -1.962   0.064   0.290  0.00  0.00     0.036 A 
ENDBRANCH  11  13
ENDBRANCH   1  11
TORSDOF 5
