REMARK  5 active torsions:
REMARK  status: ('A' for Active; 'I' for Inactive)
REMARK    1  A    between atoms: S_10  and  C_3 
REMARK    2  A    between atoms: C_4  and  C_5 
REMARK    3  A    between atoms: C_7  and  C_16 
REMARK       I    between atoms: N_11  and  C_7 
REMARK    4  A    between atoms: C_16  and  S_10 
REMARK    5  A    between atoms: C_19  and  N_11 
ROOT
ATOM      1  N   UNL d   1       0.482   4.200   3.472  0.00  0.00    -0.336 N 
ATOM      2  HN  UNL d   1       1.443   4.168   3.133  1.00  0.00     0.168 HD
ATOM      3  C   UNL d   1      -0.513   3.561   2.842  0.00  0.00     0.145 A 
ATOM      4  C   UNL d   1       0.140   4.891   4.580  0.00  0.00     0.052 A 
ATOM      5  N   UNL d   1      -1.798   3.555   3.220  0.00  0.00    -0.347 N 
ATOM      6  HN  UNL d   1      -2.507   3.028   2.710  1.00  0.00     0.167 HD
ATOM      7  C   UNL d   1      -1.165   4.985   5.023  0.00  0.00     0.048 A 
ATOM      8  C   UNL d   1      -2.100   4.281   4.306  0.00  0.00     0.092 A 
ENDROOT
BRANCH   3   9
ATOM      9  S   UNL d   1      -0.119   2.815   1.286  0.00  0.00    -0.085 SA
BRANCH   9  10
ATOM     10  C   UNL d   1      -1.386   3.665   0.297  0.00  0.00     0.185 C 
BRANCH  10  11
ATOM     11  C   UNL d   1      -1.255   5.184   0.298  0.00  0.00     0.227 C 
ATOM     12  N   UNL d   1       0.031   5.686   0.370  0.00  0.00    -0.357 N 
ATOM     13  H   UNL d   1       0.753   5.059   0.713  0.00  0.00     0.162 HD
ATOM     14  O   UNL d   1      -2.236   5.908   0.139  0.00  0.00    -0.273 OA
BRANCH  12  15
ATOM     15  C   UNL d   1       0.315   7.111   0.312  0.00  0.00     0.076 C 
ATOM     16  C   UNL d   1       0.190   7.770   1.684  0.00  0.00     0.032 C 
ATOM     17  C   UNL d   1       1.709   7.335  -0.264  0.00  0.00     0.032 C 
ENDBRANCH  12  15
ENDBRANCH  10  11
ENDBRANCH   9  10
ENDBRANCH   3   9
BRANCH   4  18
ATOM     18  C   UNL d   1       1.272   5.543   5.256  0.00  0.00     0.031 A 
ATOM     19  S   UNL d   1       1.204   5.924   6.934  0.00  0.00    -0.100 SA
ATOM     20  C   UNL d   1       2.785   6.563   6.935  0.00  0.00     0.050 A 
ATOM     21  C   UNL d   1       3.370   6.494   5.692  0.00  0.00     0.008 A 
ATOM     22  C   UNL d   1       2.503   5.899   4.730  0.00  0.00     0.021 A 
ENDBRANCH   4  18
TORSDOF 5
