REMARK  1 active torsions:
REMARK  status: ('A' for Active; 'I' for Inactive)
REMARK    1  A    between atoms: C_2  and  C_1 
REMARK       I    between atoms: N_7  and  C_2 
ROOT
ATOM      1  C   UNL d   1       2.315   1.309  -0.013  0.00  0.00     0.048 A 
ATOM      2  N   UNL d   1       2.404  -1.121  -0.011  0.00  0.00    -0.373 N 
ATOM      3  HN  UNL d   1       2.946  -1.985  -0.008  1.00  0.00     0.164 HD
ATOM      4  C   UNL d   1       0.918   1.263  -0.013  0.00  0.00     0.039 A 
ATOM      5  C   UNL d   1       3.004   0.098  -0.009  0.00  0.00     0.104 A 
ATOM      6  C   UNL d   1       0.281   0.023  -0.016  0.00  0.00     0.027 A 
ATOM      7 BR   UNL d   1      -1.602  -0.081  -0.022  0.00  0.00    -0.050 Br
ATOM      8  C   UNL d   1       1.052  -1.129  -0.016  0.00  0.00     0.106 A 
ENDROOT
BRANCH   1   9
ATOM      9  C   UNL d   1       3.108   2.562  -0.022  0.00  0.00     0.250 C 
ATOM     10  O   UNL d   1       4.332   2.536  -0.014  0.00  0.00    -0.268 OA
ATOM     11  N   UNL d   1       2.449   3.758  -0.046  0.00  0.00    -0.366 N 
ATOM     12  H   UNL d   1       1.450   3.884  -0.074  0.00  0.00     0.159 HD
ATOM     13  H   UNL d   1       3.025   4.591  -0.066  0.00  0.00     0.159 HD
ENDBRANCH   1   9
TORSDOF 1
