REMARK  7 active torsions:
REMARK  status: ('A' for Active; 'I' for Inactive)
REMARK    1  A    between atoms: C_2  and  C_1 
REMARK    2  A    between atoms: C_3  and  C_2 
REMARK    3  A    between atoms: C_4  and  C_2 
REMARK       I    between atoms: N_5  and  C_3 
REMARK       I    between atoms: N_6  and  C_4 
REMARK    4  A    between atoms: C_11  and  N_5 
REMARK    5  A    between atoms: C_12  and  N_6 
REMARK    6  A    between atoms: C_7  and  C_11 
REMARK    7  A    between atoms: C_8  and  C_12 
ROOT
ATOM      1  C   UNL d   1      -2.813   0.514   0.802  0.00  0.00     0.178 C 
ENDROOT
BRANCH   1   2
ATOM      2  C   UNL d   1      -1.599  -0.456   0.513  0.00  0.00    -0.019 C 
ATOM      3  C   UNL d   1      -2.074  -1.940   0.506  0.00  0.00     0.015 C 
ATOM      4  C   UNL d   1      -0.916  -2.901   0.190  0.00  0.00    -0.013 C 
ATOM      5  C   UNL d   1      -0.356  -2.578  -1.201  0.00  0.00     0.009 C 
ATOM      6  C   UNL d   1       0.186  -2.722   1.247  0.00  0.00     0.009 C 
ATOM      7  C   UNL d   1       0.159  -1.134  -1.226  0.00  0.00    -0.013 C 
ATOM      8  C   UNL d   1      -0.991  -0.173  -0.884  0.00  0.00     0.015 C 
ATOM      9  C   UNL d   1       1.270  -0.970  -0.179  0.00  0.00     0.009 C 
ATOM     10  C   UNL d   1       0.713  -1.279   1.219  0.00  0.00    -0.013 C 
ATOM     11  C   UNL d   1      -0.441  -0.313   1.542  0.00  0.00     0.015 C 
ENDBRANCH   1   2
BRANCH   1  12
ATOM     12  C   UNL d   1      -3.666  -0.002   1.970  0.00  0.00     0.232 C 
ATOM     13  N   UNL d   1      -3.123   0.126   3.242  0.00  0.00    -0.356 N 
ATOM     14  H   UNL d   1      -2.497   0.916   3.368  0.00  0.00     0.162 HD
ATOM     15  O   UNL d   1      -4.715  -0.612   1.765  0.00  0.00    -0.273 OA
BRANCH  13  16
ATOM     16  C   UNL d   1      -3.778  -0.419   4.452  0.00  0.00     0.084 C 
ATOM     17  C   UNL d   1      -4.993   0.454   4.774  0.00  0.00     0.032 C 
BRANCH  16  18
ATOM     18  C   UNL d   1      -2.725  -0.588   5.589  0.00  0.00     0.012 C 
ATOM     19  C   UNL d   1      -2.938  -1.759   6.601  0.00  0.00    -0.008 C 
ATOM     20  C   UNL d   1      -1.991  -1.358   7.746  0.00  0.00     0.010 C 
ATOM     21  C   UNL d   1      -4.283  -1.677   7.332  0.00  0.00     0.005 C 
ATOM     22  C   UNL d   1      -2.662   0.001   7.938  0.00  0.00    -0.014 C 
ATOM     23  C   UNL d   1      -2.508   0.617   6.534  0.00  0.00     0.011 C 
ATOM     24  C   UNL d   1      -4.134  -0.398   8.169  0.00  0.00     0.005 C 
ENDBRANCH  16  18
ENDBRANCH  13  16
ENDBRANCH   1  12
BRANCH   1  25
ATOM     25  C   UNL d   1      -2.380   1.980   0.979  0.00  0.00     0.232 C 
ATOM     26  N   UNL d   1      -2.239   2.758  -0.173  0.00  0.00    -0.356 N 
ATOM     27  H   UNL d   1      -2.411   2.326  -1.066  0.00  0.00     0.162 HD
ATOM     28  O   UNL d   1      -2.115   2.409   2.106  0.00  0.00    -0.273 OA
BRANCH  26  29
ATOM     29  C   UNL d   1      -1.497   4.020  -0.108  0.00  0.00     0.084 C 
ATOM     30  C   UNL d   1      -2.223   5.060   0.769  0.00  0.00     0.032 C 
BRANCH  29  31
ATOM     31  C   UNL d   1      -1.037   4.748  -1.425  0.00  0.00     0.012 C 
ATOM     32  C   UNL d   1      -1.047   4.150  -2.870  0.00  0.00    -0.008 C 
ATOM     33  C   UNL d   1       0.129   4.895  -3.548  0.00  0.00     0.010 C 
ATOM     34  C   UNL d   1      -0.477   2.747  -2.959  0.00  0.00     0.005 C 
ATOM     35  C   UNL d   1       1.126   4.476  -2.474  0.00  0.00    -0.014 C 
ATOM     36  C   UNL d   1       0.466   5.144  -1.265  0.00  0.00     0.011 C 
ATOM     37  C   UNL d   1       0.933   2.942  -2.394  0.00  0.00     0.005 C 
ENDBRANCH  29  31
ENDBRANCH  26  29
ENDBRANCH   1  25
TORSDOF 7
