REMARK  4 active torsions:
REMARK  status: ('A' for Active; 'I' for Inactive)
REMARK    1  A    between atoms: C_3  and  C_4 
REMARK    2  A    between atoms: C_12  and  C_5 
REMARK    3  A    between atoms: C_7  and  O_16 
REMARK    4  A    between atoms: O_16  and  C_25 
ROOT
ATOM      1  N   UNL d   1       1.006  -0.104  -1.018  0.00  0.00    -0.352 N 
ATOM      2  HN  UNL d   1       1.630  -0.255  -1.811  1.00  0.00     0.166 HD
ATOM      3  C   UNL d   1       1.248   0.793   0.012  0.00  0.00     0.025 A 
ATOM      4  C   UNL d   1      -0.134  -0.737  -0.837  0.00  0.00     0.084 A 
ATOM      5  S   UNL d   1      -0.955  -0.329   0.624  0.00  0.00    -0.081 SA
ATOM      6  C   UNL d   1       0.282   0.788   0.996  0.00  0.00     0.077 A 
ENDROOT
BRANCH   4   7
ATOM      7  C   UNL d   1      -0.676  -1.760  -1.745  0.00  0.00    -0.002 A 
ATOM      8  C   UNL d   1       0.204  -2.550  -2.501  0.00  0.00     0.017 A 
ATOM      9  C   UNL d   1      -0.271  -3.559  -3.351  0.00  0.00     0.038 A 
ATOM     10  C   UNL d   1      -1.638  -3.809  -3.440  0.00  0.00     0.078 A 
ATOM     11  C   UNL d   1      -2.522  -2.986  -2.739  0.00  0.00     0.038 A 
ATOM     12  C   UNL d   1      -2.050  -1.971  -1.904  0.00  0.00     0.017 A 
BRANCH  10  13
ATOM     13  O   UNL d   1      -2.245  -4.770  -4.184  0.00  0.00    -0.255 OA
BRANCH  13  14
ATOM     14  C   UNL d   1      -1.544  -5.950  -4.544  0.00  0.00     0.530 C 
ATOM     15  F   UNL d   1      -0.395  -6.143  -3.866  0.00  0.00    -0.144 F 
ATOM     16  F   UNL d   1      -2.347  -7.011  -4.297  0.00  0.00    -0.144 F 
ATOM     17  F   UNL d   1      -1.276  -5.926  -5.867  0.00  0.00    -0.144 F 
ENDBRANCH  13  14
ENDBRANCH  10  13
ENDBRANCH   4   7
BRANCH   3  18
ATOM     18  C   UNL d   1       2.486   1.664  -0.023  0.00  0.00     0.004 C 
ATOM     19  C   UNL d   1       3.353   1.390  -1.286  0.00  0.00     0.020 C 
ATOM     20  C   UNL d   1       4.598   2.292  -1.306  0.00  0.00    -0.013 C 
ATOM     21  C   UNL d   1       4.156   3.763  -1.312  0.00  0.00     0.009 C 
ATOM     22  C   UNL d   1       5.442   2.017  -0.051  0.00  0.00     0.009 C 
ATOM     23  C   UNL d   1       3.327   4.068  -0.055  0.00  0.00    -0.013 C 
ATOM     24  C   UNL d   1       2.084   3.166  -0.040  0.00  0.00     0.020 C 
ATOM     25  C   UNL d   1       4.173   3.783   1.197  0.00  0.00     0.009 C 
ATOM     26  C   UNL d   1       4.617   2.311   1.211  0.00  0.00    -0.013 C 
ATOM     27  C   UNL d   1       3.373   1.407   1.226  0.00  0.00     0.020 C 
ENDBRANCH   3  18
TORSDOF 4
