REMARK  2 active torsions:
REMARK  status: ('A' for Active; 'I' for Inactive)
REMARK    1  A    between atoms: C_7  and  C_2 
REMARK    2  A    between atoms: N_9  and  C_8 
ROOT
ATOM      1  N   UNL d   1      -1.636  -1.769  -0.400  0.00  0.00    -0.260 NA
ATOM      2  C   UNL d   1      -2.398  -0.579   0.031  0.00  0.00     0.239 A 
ATOM      3  O   UNL d   1      -1.525   0.566   0.247  0.00  0.00    -0.324 OA
ATOM      4  C   UNL d   1      -0.318  -1.288  -0.297  0.00  0.00     0.046 A 
ATOM      5  C   UNL d   1      -0.279   0.056   0.025  0.00  0.00     0.092 A 
ATOM      6  C   UNL d   1       0.847  -2.003  -0.490  0.00  0.00     0.050 A 
ATOM      7  C   UNL d   1       0.908   0.754   0.150  0.00  0.00     0.040 A 
ATOM      8  C   UNL d   1       2.061  -1.325  -0.359  0.00  0.00     0.035 A 
ATOM      9  C   UNL d   1       2.095   0.046  -0.049  0.00  0.00     0.026 A 
ATOM     10 CL   UNL d   1       3.539  -2.180  -0.572  0.00  0.00    -0.084 Cl
ATOM     11  H   UNL d   1      -1.771  -2.560   0.227  0.00  0.00     0.130 HD
ENDROOT
BRANCH   2  12
ATOM     12  C   UNL d   1      -3.200  -0.922   1.276  0.00  0.00    -0.015 A 
ATOM     13  C   UNL d   1      -2.679  -0.754   2.562  0.00  0.00     0.013 A 
ATOM     14  C   UNL d   1      -3.409  -1.157   3.689  0.00  0.00     0.030 A 
ATOM     15  C   UNL d   1      -4.672  -1.764   3.597  0.00  0.00     0.029 A 
ATOM     16  C   UNL d   1      -5.181  -1.915   2.298  0.00  0.00     0.030 A 
ATOM     17  C   UNL d   1      -4.465  -1.507   1.159  0.00  0.00     0.013 A 
BRANCH  15  18
ATOM     18  N   UNL d   1      -5.378  -2.132   4.736  0.00  0.00    -0.390 N 
ATOM     19  C   UNL d   1      -4.671  -2.657   5.905  0.00  0.00     0.149 C 
ATOM     20  C   UNL d   1      -6.794  -2.485   4.685  0.00  0.00     0.149 C 
ENDBRANCH  15  18
ENDBRANCH   2  12
TORSDOF 2
