REMARK  3 active torsions:
REMARK  status: ('A' for Active; 'I' for Inactive)
REMARK    1  A    between atoms: C_6  and  C_1 
REMARK    2  A    between atoms: C_15  and  N_4 
REMARK    3  A    between atoms: C_8  and  C_9 
REMARK       I    between atoms: N_10  and  C_8 
ROOT
ATOM      1  C   UNL d   1       2.356   0.022   0.031  0.00  0.00     0.194 A 
ATOM      2  N   UNL d   1       1.605  -1.070   0.012  0.00  0.00    -0.337 N 
ATOM      3  HN  UNL d   1       1.930  -2.036   0.047  1.00  0.00     0.167 HD
ATOM      4  N   UNL d   1       1.560   1.157  -0.042  0.00  0.00    -0.323 N 
ATOM      5  C   UNL d   1       0.309  -0.645  -0.065  0.00  0.00     0.061 A 
ATOM      6  C   UNL d   1       0.239   0.745  -0.085  0.00  0.00     0.063 A 
ATOM      7  C   UNL d   1      -2.100  -0.751  -0.179  0.00  0.00     0.034 A 
ATOM      8  C   UNL d   1      -0.865  -1.410  -0.116  0.00  0.00     0.049 A 
ATOM      9  C   UNL d   1      -0.986   1.420  -0.165  0.00  0.00     0.033 A 
ATOM     10  C   UNL d   1      -2.150   0.644  -0.251  0.00  0.00     0.019 A 
ENDROOT
BRANCH   7  11
ATOM     11  C   UNL d   1      -3.329  -1.588  -0.244  0.00  0.00     0.253 C 
ATOM     12  N   UNL d   1      -4.484  -1.209   0.453  0.00  0.00    -0.348 N 
ATOM     13  C   UNL d   1      -5.648  -2.091   0.347  0.00  0.00     0.126 C 
ATOM     14  C   UNL d   1      -4.517  -0.304   1.602  0.00  0.00     0.126 C 
ATOM     15  C   UNL d   1      -6.962  -1.306   0.371  0.00  0.00     0.020 C 
ATOM     16  C   UNL d   1      -7.018  -0.307   1.526  0.00  0.00     0.003 C 
ATOM     17  C   UNL d   1      -5.767   0.568   1.548  0.00  0.00     0.020 C 
ATOM     18  O   UNL d   1      -3.275  -2.603  -0.936  0.00  0.00    -0.267 OA
ENDBRANCH   7  11
BRANCH   1  19
ATOM     19  C   UNL d   1       3.849   0.069   0.120  0.00  0.00     0.449 C 
ATOM     20  F   UNL d   1       4.426  -1.157   0.174  0.00  0.00    -0.163 F 
ATOM     21  F   UNL d   1       4.398   0.712  -0.946  0.00  0.00    -0.163 F 
ATOM     22  F   UNL d   1       4.259   0.744   1.228  0.00  0.00    -0.163 F 
ENDBRANCH   1  19
BRANCH   4  23
ATOM     23  C   UNL d   1       2.042   2.538  -0.114  0.00  0.00     0.084 C 
ATOM     24  C   UNL d   1       1.627   3.234  -1.413  0.00  0.00     0.032 C 
ATOM     25  C   UNL d   1       1.668   3.361   1.119  0.00  0.00     0.032 C 
ENDBRANCH   4  23
TORSDOF 3
