REMARK  4 active torsions:
REMARK  status: ('A' for Active; 'I' for Inactive)
REMARK    1  A    between atoms: N_3  and  C_1 
REMARK    2  A    between atoms: N_6  and  C_1 
REMARK    3  A    between atoms: C_8  and  N_3 
REMARK    4  A    between atoms: C_7  and  C_8 
ROOT
ATOM      1  C   UNL d   1      -1.235  -1.087   0.446  0.00  0.00     0.162 C 
ENDROOT
BRANCH   1   2
ATOM      2  C   UNL d   1      -1.603  -2.429   1.004  0.00  0.00    -0.025 A 
ATOM      3  C   UNL d   1      -1.725  -2.621   2.377  0.00  0.00     0.096 A 
ATOM      4  N   UNL d   1      -2.088  -3.790   2.951  0.00  0.00    -0.375 N 
ATOM      5  C   UNL d   1      -2.349  -4.820   2.118  0.00  0.00     0.087 A 
ATOM      6  HN  UNL d   1      -2.162  -3.889   3.963  1.00  0.00     0.164 HD
ATOM      7  C   UNL d   1      -2.244  -4.740   0.740  0.00  0.00     0.018 A 
ATOM      8  C   UNL d   1      -1.857  -3.526   0.176  0.00  0.00     0.011 A 
ENDBRANCH   1   2
BRANCH   1   9
ATOM      9  N   UNL d   1       0.203  -0.904   0.326  0.00  0.00    -0.363 N 
ATOM     10  H   UNL d   1       0.786  -1.587   0.787  0.00  0.00     0.162 HD
BRANCH   9  11
ATOM     11  C   UNL d   1       0.810   0.241  -0.161  0.00  0.00     0.167 C 
ATOM     12  S   UNL d   1      -0.021   1.577  -0.726  0.00  0.00    -0.041 SA
BRANCH  11  13
ATOM     13  N   UNL d   1       2.183   0.123  -0.125  0.00  0.00    -0.372 N 
ATOM     14  C   UNL d   1       3.162   1.100  -0.572  0.00  0.00     0.148 C 
ATOM     15  H   UNL d   1       2.562  -0.768   0.159  0.00  0.00     0.161 HD
ENDBRANCH  11  13
ENDBRANCH   9  11
ENDBRANCH   1   9
TORSDOF 4
