REMARK  8 active torsions:
REMARK  status: ('A' for Active; 'I' for Inactive)
REMARK    1  A    between atoms: C_2  and  S_1 
REMARK    2  A    between atoms: N_3  and  S_1 
REMARK    3  A    between atoms: C_15  and  N_3 
REMARK    4  A    between atoms: C_16  and  N_3 
REMARK    5  A    between atoms: C_4  and  C_7 
REMARK       I    between atoms: N_9  and  C_4 
REMARK    6  A    between atoms: N_14  and  N_9 
REMARK    7  A    between atoms: C_18  and  C_15 
REMARK    8  A    between atoms: C_17  and  C_16 
ROOT
ATOM      1  C   UNL d   1       0.451   0.976   1.277  0.00  0.00     0.074 A 
ATOM      2  C   UNL d   1      -0.508   2.554   3.386  0.00  0.00     0.033 A 
ATOM      3  C   UNL d   1       1.159   1.032   2.481  0.00  0.00     0.026 A 
ATOM      4  C   UNL d   1      -0.711   1.730   1.102  0.00  0.00     0.026 A 
ATOM      5  C   UNL d   1      -1.194   2.504   2.160  0.00  0.00     0.018 A 
ATOM      6  C   UNL d   1       0.681   1.824   3.532  0.00  0.00     0.018 A 
ENDROOT
BRANCH   1   7
ATOM      7  S   UNL d   1       1.103   0.025  -0.078  0.00  0.00     0.243 S 
ATOM      8  O   UNL d   1       2.543   0.058   0.051  0.00  0.00    -0.206 OA
ATOM      9  O   UNL d   1       0.459   0.483  -1.295  0.00  0.00    -0.206 OA
BRANCH   7  10
ATOM     10  N   UNL d   1       0.537  -1.595   0.229  0.00  0.00    -0.206 NA
BRANCH  10  11
ATOM     11  C   UNL d   1      -0.969  -1.663   0.288  0.00  0.00     0.107 C 
BRANCH  11  12
ATOM     12  C   UNL d   1      -1.560  -3.041   0.593  0.00  0.00     0.011 C 
ATOM     13  C   UNL d   1      -1.027  -3.681   1.864  0.00  0.00     0.006 C 
ENDBRANCH  11  12
ENDBRANCH  10  11
BRANCH  10  14
ATOM     14  C   UNL d   1       1.122  -2.586  -0.744  0.00  0.00     0.107 C 
BRANCH  14  15
ATOM     15  C   UNL d   1       2.592  -2.915  -0.480  0.00  0.00     0.011 C 
ATOM     16  C   UNL d   1       2.880  -3.348   0.949  0.00  0.00     0.006 C 
ENDBRANCH  14  15
ENDBRANCH  10  14
ENDBRANCH   7  10
ENDBRANCH   1   7
BRANCH   2  17
ATOM     17  C   UNL d   1      -1.085   3.417   4.463  0.00  0.00     0.265 C 
ATOM     18  O   UNL d   1      -2.055   4.136   4.231  0.00  0.00    -0.266 OA
ATOM     19  N   UNL d   1      -0.498   3.359   5.723  0.00  0.00    -0.290 N 
ATOM     20  H   UNL d   1       0.192   2.656   5.966  0.00  0.00     0.183 HD
BRANCH  19  21
ATOM     21  N   UNL d   1      -1.075   4.105   6.777  0.00  0.00    -0.247 NA
ATOM     22  H   UNL d   1      -2.030   4.348   6.474  0.00  0.00     0.143 HD
ATOM     23  H   UNL d   1      -0.602   5.013   6.808  0.00  0.00     0.143 HD
ENDBRANCH  19  21
ENDBRANCH   2  17
TORSDOF 8
