REMARK  10 active torsions:
REMARK  status: ('A' for Active; 'I' for Inactive)
REMARK    1  A    between atoms: C_3  and  S_1 
REMARK    2  A    between atoms: N_5  and  S_1 
REMARK    3  A    between atoms: S_2  and  N_4 
REMARK    4  A    between atoms: C_7  and  S_2 
REMARK    5  A    between atoms: N_4  and  C_17 
REMARK    6  A    between atoms: C_8  and  N_4 
REMARK    7  A    between atoms: N_6  and  N_5 
REMARK       I    between atoms: C_10  and  N_6 
REMARK    8  A    between atoms: C_11  and  C_8 
REMARK    9  A    between atoms: C_16  and  C_10 
REMARK   10  A    between atoms: C_17  and  C_16 
ROOT
ATOM      1  N   UNL d   1      -1.390  -4.874   0.511  0.00  0.00    -0.300 N 
ENDROOT
BRANCH   1   2
ATOM      2  S   UNL d   1      -0.437  -6.296   0.667  0.00  0.00     0.261 S 
ATOM      3  O   UNL d   1       0.950  -5.944   0.459  0.00  0.00    -0.200 OA
ATOM      4  O   UNL d   1      -0.868  -7.028   1.840  0.00  0.00    -0.200 OA
BRANCH   2   5
ATOM      5  C   UNL d   1      -0.968  -7.286  -0.717  0.00  0.00     0.079 A 
ATOM      6  C   UNL d   1      -0.044  -7.724  -1.670  0.00  0.00     0.027 A 
ATOM      7  C   UNL d   1      -0.467  -8.578  -2.694  0.00  0.00     0.025 A 
ATOM      8  C   UNL d   1      -1.800  -8.988  -2.754  0.00  0.00     0.034 A 
ATOM      9  C   UNL d   1      -2.716  -8.565  -1.790  0.00  0.00     0.025 A 
ATOM     10 CL   UNL d   1      -2.318 -10.032  -4.020  0.00  0.00    -0.084 Cl
ATOM     11  C   UNL d   1      -2.300  -7.715  -0.763  0.00  0.00     0.027 A 
ENDBRANCH   2   5
ENDBRANCH   1   2
BRANCH   1  12
ATOM     12  C   UNL d   1      -0.806  -3.810  -0.369  0.00  0.00     0.145 C 
BRANCH  12  13
ATOM     13  C   UNL d   1      -1.733  -2.612  -0.595  0.00  0.00     0.125 C 
BRANCH  13  14
ATOM     14  C   UNL d   1      -1.078  -1.567  -1.476  0.00  0.00     0.238 C 
ATOM     15  N   UNL d   1      -1.837  -0.420  -1.625  0.00  0.00    -0.260 N 
ATOM     16  H   UNL d   1      -2.736  -0.273  -1.166  0.00  0.00     0.190 HD
ATOM     17  O   UNL d   1       0.031  -1.696  -1.988  0.00  0.00    -0.272 OA
BRANCH  15  18
ATOM     18  N   UNL d   1      -1.252   0.701  -2.343  0.00  0.00    -0.220 N 
ATOM     19  H   UNL d   1      -0.276   0.609  -2.651  0.00  0.00     0.200 HD
BRANCH  18  20
ATOM     20  S   UNL d   1      -1.772   2.269  -1.980  0.00  0.00     0.282 S 
ATOM     21  O   UNL d   1      -1.020   3.209  -2.775  0.00  0.00    -0.198 OA
ATOM     22  O   UNL d   1      -3.222   2.249  -1.946  0.00  0.00    -0.198 OA
BRANCH  20  23
ATOM     23  C   UNL d   1      -1.304   2.561  -0.286  0.00  0.00     0.121 A 
ATOM     24  S   UNL d   1       0.363   2.430   0.072  0.00  0.00    -0.088 SA
ATOM     25  C   UNL d   1       0.090   2.710   1.738  0.00  0.00     0.051 A 
ATOM     26  C   UNL d   1      -1.244   2.907   2.018  0.00  0.00     0.009 A 
ATOM     27  C   UNL d   1      -2.049   2.830   0.846  0.00  0.00     0.033 A 
ENDBRANCH  20  23
ENDBRANCH  18  20
ENDBRANCH  15  18
ENDBRANCH  13  14
ENDBRANCH  12  13
ENDBRANCH   1  12
BRANCH   1  28
ATOM     28  C   UNL d   1      -2.022  -4.433   1.782  0.00  0.00     0.200 C 
BRANCH  28  29
ATOM     29  C   UNL d   1      -1.056  -3.902   2.777  0.00  0.00     0.071 A 
ATOM     30  O   UNL d   1      -0.755  -2.571   2.705  0.00  0.00    -0.325 OA
ATOM     31  C   UNL d   1       0.079  -2.298   3.743  0.00  0.00     0.142 A 
ATOM     32  C   UNL d   1       0.316  -3.432   4.484  0.00  0.00     0.027 A 
ATOM     33  C   UNL d   1      -0.407  -4.471   3.855  0.00  0.00     0.036 A 
ENDBRANCH  28  29
ENDBRANCH   1  28
TORSDOF 10
