REMARK  6 active torsions:
REMARK  status: ('A' for Active; 'I' for Inactive)
REMARK       I    between atoms: C_3  and  N_1 
REMARK    1  A    between atoms: C_4  and  N_2 
REMARK    2  A    between atoms: C_19  and  C_3 
REMARK    3  A    between atoms: C_5  and  C_21 
REMARK    4  A    between atoms: O_15  and  C_5 
REMARK    5  A    between atoms: C_20  and  C_19 
REMARK    6  A    between atoms: C_21  and  C_20 
ROOT
ATOM      1  N   UNL d   1      -1.408   0.048   0.232  0.00  0.00    -0.349 N 
ATOM      2  N   UNL d   1       1.396  -0.099  -0.246  0.00  0.00    -0.378 N 
ATOM      3  C   UNL d   1      -2.529   0.194   1.024  0.00  0.00     0.219 C 
ATOM      4  C   UNL d   1      -0.809  -1.224  -0.207  0.00  0.00     0.145 C 
ATOM      5  C   UNL d   1      -0.668   1.241  -0.198  0.00  0.00     0.145 C 
ATOM      6  C   UNL d   1       0.677  -1.306   0.199  0.00  0.00     0.143 C 
ATOM      7  C   UNL d   1       0.814   1.174   0.217  0.00  0.00     0.143 C 
ATOM      8  O   UNL d   1      -2.899   1.302   1.417  0.00  0.00    -0.273 OA
ENDROOT
BRANCH   3   9
ATOM      9  C   UNL d   1      -3.296  -1.064   1.389  0.00  0.00     0.103 C 
BRANCH   9  10
ATOM     10  C   UNL d   1      -4.582  -0.790   2.182  0.00  0.00     0.019 C 
BRANCH  10  11
ATOM     11  C   UNL d   1      -5.639   0.026   1.432  0.00  0.00     0.110 C 
BRANCH  11  12
ATOM     12  C   UNL d   1      -6.094  -0.638   0.155  0.00  0.00     0.139 C 
ATOM     13  O   UNL d   1      -6.181  -1.847  -0.001  0.00  0.00    -0.650 OA
BRANCH  12  14
ATOM     14  O   UNL d   1      -6.427   0.241  -0.815  0.00  0.00    -0.776 OA
ATOM     15  H   UNL d   1      -6.302   1.176  -0.561  0.00  0.00     0.167 HD
ENDBRANCH  12  14
ENDBRANCH  11  12
ENDBRANCH  10  11
ENDBRANCH   9  10
ENDBRANCH   3   9
BRANCH   2  16
ATOM     16  C   UNL d   1       2.572  -0.154  -0.963  0.00  0.00     0.030 A 
ATOM     17  C   UNL d   1       3.579   0.815  -0.811  0.00  0.00     0.032 A 
ATOM     18  C   UNL d   1       4.762   0.773  -1.558  0.00  0.00     0.044 A 
ATOM     19  C   UNL d   1       4.953  -0.246  -2.476  0.00  0.00     0.116 A 
ATOM     20  C   UNL d   1       3.986  -1.221  -2.657  0.00  0.00     0.044 A 
ATOM     21  F   UNL d   1       6.081  -0.288  -3.197  0.00  0.00    -0.206 F 
ATOM     22  C   UNL d   1       2.808  -1.171  -1.904  0.00  0.00     0.032 A 
ENDBRANCH   2  16
TORSDOF 6
