REMARK  7 active torsions:
REMARK  status: ('A' for Active; 'I' for Inactive)
REMARK    1  A    between atoms: C_9  and  C_1 
REMARK    2  A    between atoms: N_7  and  C_2 
REMARK    3  A    between atoms: C_6  and  N_7 
REMARK    4  A    between atoms: N_11  and  C_6 
REMARK    5  A    between atoms: C_16  and  N_11 
REMARK    6  A    between atoms: O_22  and  C_17 
REMARK    7  A    between atoms: C_23  and  O_22 
ROOT
ATOM      1  N   UNL d   1       4.026  -1.210  -0.980  0.00  0.00    -0.318 N 
ATOM      2  H   UNL d   1       4.257  -2.184  -0.797  0.00  0.00     0.170 HD
ENDROOT
BRANCH   1   3
ATOM      3  C   UNL d   1       3.317  -0.552   0.071  0.00  0.00     0.177 C 
ATOM      4  S   UNL d   1       2.764  -1.505   1.326  0.00  0.00    -0.040 SA
BRANCH   3   5
ATOM      5  N   UNL d   1       3.295   0.821  -0.041  0.00  0.00    -0.333 N 
ATOM      6  H   UNL d   1       4.179   1.237  -0.314  0.00  0.00     0.168 HD
BRANCH   5   7
ATOM      7  C   UNL d   1       2.372   1.688   0.590  0.00  0.00     0.034 A 
ATOM      8  C   UNL d   1       2.781   2.969   0.978  0.00  0.00     0.032 A 
ATOM      9  C   UNL d   1       1.887   3.829   1.642  0.00  0.00     0.039 A 
ATOM     10  C   UNL d   1       0.580   3.419   1.895  0.00  0.00     0.068 A 
ATOM     11  C   UNL d   1       0.164   2.164   1.456  0.00  0.00     0.039 A 
ATOM     12  C   UNL d   1       1.043   1.313   0.791  0.00  0.00     0.032 A 
BRANCH  10  13
ATOM     13  O   UNL d   1      -0.374   4.103   2.591  0.00  0.00    -0.352 OA
BRANCH  13  14
ATOM     14  C   UNL d   1      -0.231   5.515   2.710  0.00  0.00     0.171 C 
ATOM     15  C   UNL d   1      -1.407   6.011   3.534  0.00  0.00     0.034 C 
ENDBRANCH  13  14
ENDBRANCH  10  13
ENDBRANCH   5   7
ENDBRANCH   3   5
ENDBRANCH   1   3
BRANCH   1  16
ATOM     16  C   UNL d   1       4.284  -0.732  -2.249  0.00  0.00     0.124 A 
ATOM     17  C   UNL d   1       4.999  -1.432  -3.189  0.00  0.00     0.082 A 
ATOM     18  C   UNL d   1       5.090  -0.567  -4.305  0.00  0.00     0.068 A 
ATOM     19  N   UNL d   1       4.421   0.577  -4.092  0.00  0.00    -0.298 N 
ATOM     20  N   UNL d   1       3.891   0.422  -2.868  0.00  0.00    -0.285 N 
ATOM     21  HN  UNL d   1       4.336   1.379  -4.717  1.00  0.00     0.187 HD
ATOM     22  H   UNL d   1       3.273   1.147  -2.517  0.00  0.00     0.188 HD
BRANCH  18  23
ATOM     23  C   UNL d   1       5.840  -0.844  -5.574  0.00  0.00     0.033 A 
ATOM     24  S   UNL d   1       6.652  -2.314  -5.904  0.00  0.00    -0.100 SA
ATOM     25  C   UNL d   1       7.153  -1.768  -7.445  0.00  0.00     0.050 A 
ATOM     26  C   UNL d   1       6.728  -0.481  -7.697  0.00  0.00     0.008 A 
ATOM     27  C   UNL d   1       5.969   0.053  -6.614  0.00  0.00     0.021 A 
ENDBRANCH  18  23
ENDBRANCH   1  16
TORSDOF 7
