REMARK  6 active torsions:
REMARK  status: ('A' for Active; 'I' for Inactive)
REMARK    1  A    between atoms: C_3  and  N_1 
REMARK    2  A    between atoms: S_11  and  C_2 
REMARK    3  A    between atoms: C_21  and  S_11 
REMARK    4  A    between atoms: C_12  and  C_21 
REMARK       I    between atoms: N_14  and  C_12 
REMARK    5  A    between atoms: C_24  and  N_14 
REMARK    6  A    between atoms: C_25  and  C_18 
ROOT
ATOM      1  N   UNL d   1      -0.403   0.017  -0.988  0.00  0.00    -0.286 N 
ATOM      2  C   UNL d   1       0.927   0.041  -0.576  0.00  0.00     0.167 A 
ATOM      3  N   UNL d   1       1.216  -1.066   0.077  0.00  0.00    -0.279 N 
ATOM      4  HN  UNL d   1       2.114  -1.287   0.506  1.00  0.00     0.189 HD
ATOM      5  N   UNL d   1       0.114  -1.865   0.084  0.00  0.00    -0.294 N 
ATOM      6  HN  UNL d   1       0.038  -2.789   0.510  1.00  0.00     0.187 HD
ATOM      7  C   UNL d   1      -0.833  -1.226  -0.559  0.00  0.00     0.207 A 
ENDROOT
BRANCH   2   8
ATOM      8  S   UNL d   1       2.149   1.236  -0.945  0.00  0.00    -0.083 SA
BRANCH   8   9
ATOM      9  C   UNL d   1       3.572   0.448  -0.138  0.00  0.00     0.185 C 
BRANCH   9  10
ATOM     10  C   UNL d   1       4.902   1.179  -0.209  0.00  0.00     0.231 C 
ATOM     11  N   UNL d   1       4.931   2.408  -0.837  0.00  0.00    -0.327 N 
ATOM     12  H   UNL d   1       4.038   2.809  -1.094  0.00  0.00     0.169 HD
ATOM     13  O   UNL d   1       5.879   0.637   0.314  0.00  0.00    -0.272 OA
BRANCH  11  14
ATOM     14  C   UNL d   1       6.088   3.188  -1.101  0.00  0.00     0.034 A 
ATOM     15  C   UNL d   1       7.389   2.709  -0.941  0.00  0.00     0.030 A 
ATOM     16  C   UNL d   1       8.498   3.512  -1.242  0.00  0.00     0.010 A 
ATOM     17  C   UNL d   1       8.337   4.822  -1.703  0.00  0.00    -0.055 A 
ATOM     18  C   UNL d   1       7.030   5.303  -1.868  0.00  0.00     0.010 A 
ATOM     19  C   UNL d   1       5.919   4.492  -1.576  0.00  0.00     0.030 A 
BRANCH  17  20
ATOM     20  C   UNL d   1       9.534   5.685  -2.068  0.00  0.00     0.010 C 
ATOM     21  C   UNL d   1      10.585   5.755  -0.953  0.00  0.00     0.015 C 
ATOM     22  C   UNL d   1      10.168   5.198  -3.375  0.00  0.00     0.015 C 
ENDBRANCH  17  20
ENDBRANCH  11  14
ENDBRANCH   9  10
ENDBRANCH   8   9
ENDBRANCH   2   8
BRANCH   1  23
ATOM     23  C   UNL d   1      -1.228   0.976  -1.657  0.00  0.00     0.045 A 
ATOM     24  C   UNL d   1      -2.455   0.571  -2.219  0.00  0.00     0.069 A 
ATOM     25  C   UNL d   1      -3.299   1.497  -2.843  0.00  0.00     0.104 A 
ATOM     26  O   UNL d   1      -4.489   1.015  -3.321  0.00  0.00    -0.346 OA
ATOM     27  C   UNL d   1      -2.923   2.834  -2.923  0.00  0.00     0.102 A 
ATOM     28  C   UNL d   1      -5.196   1.976  -4.114  0.00  0.00     0.202 C 
ATOM     29  C   UNL d   1      -5.071   3.385  -3.554  0.00  0.00     0.202 C 
ATOM     30  O   UNL d   1      -3.701   3.799  -3.508  0.00  0.00    -0.346 OA
ATOM     31  C   UNL d   1      -1.713   3.247  -2.381  0.00  0.00     0.042 A 
ATOM     32  C   UNL d   1      -0.877   2.328  -1.734  0.00  0.00     0.033 A 
ENDBRANCH   1  23
TORSDOF 6
