REMARK  1 active torsions:
REMARK  status: ('A' for Active; 'I' for Inactive)
REMARK    1  A    between atoms: C_6  and  C_3 
ROOT
ATOM      1  N   UNL d   1      -1.815  -1.558  -0.069  0.00  0.00    -0.296 N 
ATOM      2  HN  UNL d   1      -2.539  -2.276  -0.096  1.00  0.00     0.187 HD
ATOM      3  C   UNL d   1      -0.555  -1.891  -0.081  0.00  0.00     0.069 A 
ATOM      4  N   UNL d   1      -2.152  -0.245  -0.019  0.00  0.00    -0.265 N 
ATOM      5  C   UNL d   1       0.532  -0.871   0.008  0.00  0.00     0.009 A 
ATOM      6  C   UNL d   1      -1.279   0.812  -0.059  0.00  0.00     0.271 A 
ATOM      7  C   UNL d   1       0.150   0.469  -0.044  0.00  0.00     0.046 A 
ATOM      8  O   UNL d   1      -1.659   1.977  -0.084  0.00  0.00    -0.266 OA
ATOM      9  C   UNL d   1       1.892  -1.175   0.167  0.00  0.00     0.015 A 
ATOM     10  C   UNL d   1       1.108   1.493  -0.028  0.00  0.00     0.018 A 
ATOM     11  C   UNL d   1       2.850  -0.156   0.173  0.00  0.00     0.001 A 
ATOM     12  C   UNL d   1       2.461   1.177   0.062  0.00  0.00     0.001 A 
ATOM     13  H   UNL d   1      -3.143  -0.028  -0.022  0.00  0.00     0.190 HD
ENDROOT
BRANCH   3  14
ATOM     14  C   UNL d   1      -0.276  -3.357  -0.201  0.00  0.00    -0.004 A 
ATOM     15  C   UNL d   1       0.739  -3.861  -1.021  0.00  0.00     0.037 A 
ATOM     16  C   UNL d   1       0.951  -5.239  -1.095  0.00  0.00     0.036 A 
ATOM     17 CL   UNL d   1       2.252  -5.845  -2.044  0.00  0.00    -0.084 Cl
ATOM     18  C   UNL d   1       0.127  -6.127  -0.410  0.00  0.00     0.047 A 
ATOM     19  C   UNL d   1      -0.923  -5.626   0.354  0.00  0.00     0.036 A 
ATOM     20  C   UNL d   1      -1.126  -4.251   0.467  0.00  0.00     0.037 A 
ATOM     21 CL   UNL d   1      -1.981  -6.715   1.164  0.00  0.00    -0.084 Cl
ENDBRANCH   3  14
TORSDOF 1
