REMARK  3 active torsions:
REMARK  status: ('A' for Active; 'I' for Inactive)
REMARK    1  A    between atoms: N_2  and  C_1 
REMARK    2  A    between atoms: C_3  and  N_2 
REMARK    3  A    between atoms: O_7  and  C_5 
ROOT
ATOM      1  C   UNL d   1       1.077   1.697   1.624  0.00  0.00     0.068 A 
ATOM      2  C   UNL d   1       2.239   2.215   1.026  0.00  0.00     0.095 A 
ATOM      3  C   UNL d   1       0.525   2.368   2.719  0.00  0.00     0.032 A 
ATOM      4  C   UNL d   1       2.831   3.380   1.526  0.00  0.00     0.039 A 
ATOM      5  C   UNL d   1       1.112   3.537   3.210  0.00  0.00     0.002 A 
ATOM      6  C   UNL d   1       2.261   4.045   2.612  0.00  0.00     0.003 A 
ENDROOT
BRANCH   1   7
ATOM      7  N   UNL d   1       0.561   0.465   1.166  0.00  0.00    -0.331 N 
ATOM      8  H   UNL d   1       1.238  -0.136   0.707  0.00  0.00     0.168 HD
BRANCH   7   9
ATOM      9  C   UNL d   1      -0.686  -0.055   1.248  0.00  0.00     0.170 C 
ATOM     10  S   UNL d   1      -0.970  -1.650   0.875  0.00  0.00    -0.041 SA
ATOM     11  N   UNL d   1      -1.714   0.756   1.569  0.00  0.00    -0.376 N 
ATOM     12  H   UNL d   1      -1.630   1.745   1.366  0.00  0.00     0.158 HD
ATOM     13  H   UNL d   1      -2.646   0.369   1.480  0.00  0.00     0.158 HD
ENDBRANCH   7   9
ENDBRANCH   1   7
BRANCH   2  14
ATOM     14  O   UNL d   1       2.893   1.616  -0.021  0.00  0.00    -0.354 OA
ATOM     15  C   UNL d   1       2.090   1.464  -1.194  0.00  0.00     0.210 C 
ENDBRANCH   2  14
TORSDOF 3
