REMARK  2 active torsions:
REMARK  status: ('A' for Active; 'I' for Inactive)
REMARK    1  A    between atoms: C_3  and  N_1 
REMARK    2  A    between atoms: N_5  and  C_4 
REMARK       I    between atoms: C_9  and  N_5 
ROOT
ATOM      1  C   UNL d   1       0.116  -1.951   3.051  0.00  0.00     0.073 A 
ATOM      2  C   UNL d   1       0.226  -0.949   0.842  0.00  0.00     0.104 A 
ATOM      3  C   UNL d   1      -0.956  -2.775   2.641  0.00  0.00     0.055 A 
ATOM      4  N   UNL d   1       1.077  -2.131   5.455  0.00  0.00    -0.191 NA
ATOM      5  C   UNL d   1       0.661  -2.036   4.377  0.00  0.00     0.102 C 
ATOM      6  C   UNL d   1       0.706  -1.043   2.154  0.00  0.00     0.061 A 
ATOM      7  C   UNL d   1      -0.846  -1.741   0.427  0.00  0.00     0.038 A 
ATOM      8  C   UNL d   1      -1.430  -2.640   1.327  0.00  0.00     0.033 A 
ENDROOT
BRANCH   3   9
ATOM      9  N   UNL d   1      -1.541  -3.698   3.551  0.00  0.00    -0.326 N 
ATOM     10  C   UNL d   1      -2.398  -4.739   3.227  0.00  0.00     0.218 C 
ATOM     11  O   UNL d   1      -2.732  -5.077   2.096  0.00  0.00    -0.274 OA
ATOM     12  C   UNL d   1      -2.933  -5.480   4.425  0.00  0.00     0.117 C 
ATOM     13  H   UNL d   1      -1.235  -3.658   4.518  0.00  0.00     0.169 HD
ENDBRANCH   3   9
BRANCH   2  14
ATOM     14  N   UNL d   1       0.852  -0.020  -0.106  0.00  0.00    -0.116 N 
ATOM     15  O   UNL d   1       1.788   0.676   0.310  0.00  0.00    -0.532 OA
ATOM     16  O   UNL d   1       0.408   0.011  -1.262  0.00  0.00    -0.532 OA
ENDBRANCH   2  14
TORSDOF 2
