REMARK  3 active torsions:
REMARK  status: ('A' for Active; 'I' for Inactive)
REMARK    1  A    between atoms: N_11  and  N_2 
REMARK       I    between atoms: C_18  and  N_11 
REMARK       I    between atoms: C_19  and  N_11 
REMARK    2  A    between atoms: C_21  and  C_12 
REMARK    3  A    between atoms: C_22  and  C_17 
ROOT
ATOM      1  C   UNL d   1      -1.380   0.828   0.176  0.00  0.00     0.104 A 
ATOM      2  N   UNL d   1      -3.589  -0.017   0.150  0.00  0.00    -0.195 N 
ATOM      3  C   UNL d   1      -2.784   1.139   0.215  0.00  0.00     0.288 A 
ATOM      4  C   UNL d   1      -0.903  -0.452   0.158  0.00  0.00     0.070 A 
ATOM      5  C   UNL d   1       0.526  -0.564   0.055  0.00  0.00     0.041 A 
ATOM      6  N   UNL d   1      -1.769  -1.548   0.153  0.00  0.00    -0.343 N 
ATOM      7  HN  UNL d   1      -1.421  -2.505   0.204  1.00  0.00     0.167 HD
ATOM      8  C   UNL d   1      -3.039  -1.288   0.082  0.00  0.00     0.104 A 
ATOM      9  S   UNL d   1      -0.124   1.961   0.105  0.00  0.00    -0.062 SA
ATOM     10  C   UNL d   1       1.056   0.722   0.022  0.00  0.00     0.103 A 
ATOM     11  C   UNL d   1       1.460  -1.645  -0.024  0.00  0.00     0.018 A 
ATOM     12  N   UNL d   1       3.222   0.017  -0.165  0.00  0.00    -0.298 N 
ATOM     13  HN  UNL d   1       4.218   0.225  -0.241  1.00  0.00     0.187 HD
ATOM     14  N   UNL d   1       2.362   1.023  -0.076  0.00  0.00    -0.292 N 
ATOM     15  HN  UNL d   1       2.682   1.991  -0.081  1.00  0.00     0.187 HD
ATOM     16  C   UNL d   1       2.821  -1.282  -0.158  0.00  0.00     0.070 A 
ATOM     17  O   UNL d   1      -3.254   2.273   0.308  0.00  0.00    -0.265 OA
ATOM     18  C   UNL d   1      -3.947  -2.486  -0.056  0.00  0.00     0.091 C 
ENDROOT
BRANCH   2  19
ATOM     19  N   UNL d   1      -4.996   0.200   0.004  0.00  0.00    -0.180 N 
ATOM     20  C   UNL d   1      -5.902  -0.293   0.937  0.00  0.00     0.242 C 
ATOM     21  O   UNL d   1      -7.065  -0.575   0.650  0.00  0.00    -0.272 OA
ATOM     22  C   UNL d   1      -5.417  -0.543   2.345  0.00  0.00     0.119 C 
ATOM     23  C   UNL d   1      -5.376   0.821  -1.185  0.00  0.00     0.242 C 
ATOM     24  O   UNL d   1      -4.683   0.765  -2.206  0.00  0.00    -0.272 OA
ATOM     25  C   UNL d   1      -6.669   1.609  -1.163  0.00  0.00     0.119 C 
ENDBRANCH   2  19
BRANCH  11  26
ATOM     26  C   UNL d   1       0.974  -3.038   0.048  0.00  0.00    -0.023 A 
ATOM     27  C   UNL d   1       0.035  -3.525  -0.879  0.00  0.00     0.012 A 
ATOM     28  C   UNL d   1      -0.444  -4.834  -0.815  0.00  0.00     0.001 A 
ATOM     29  C   UNL d   1       0.059  -5.711   0.139  0.00  0.00     0.000 A 
ATOM     30  C   UNL d   1       1.025  -5.271   1.040  0.00  0.00     0.001 A 
ATOM     31  C   UNL d   1       1.460  -3.941   1.011  0.00  0.00     0.012 A 
ENDBRANCH  11  26
BRANCH  16  32
ATOM     32  C   UNL d   1       3.951  -2.244  -0.301  0.00  0.00    -0.007 A 
ATOM     33  C   UNL d   1       3.863  -3.404  -1.095  0.00  0.00     0.014 A 
ATOM     34  C   UNL d   1       4.902  -4.340  -1.151  0.00  0.00     0.001 A 
ATOM     35  C   UNL d   1       6.083  -4.111  -0.456  0.00  0.00     0.000 A 
ATOM     36  C   UNL d   1       6.228  -2.945   0.288  0.00  0.00     0.001 A 
ATOM     37  C   UNL d   1       5.173  -2.026   0.366  0.00  0.00     0.014 A 
ENDBRANCH  16  32
TORSDOF 3
