REMARK  7 active torsions:
REMARK  status: ('A' for Active; 'I' for Inactive)
REMARK    1  A    between atoms: N_3  and  S_1 
REMARK       I    between atoms: C_2  and  N_6 
REMARK       I    between atoms: N_7  and  C_2 
REMARK    2  A    between atoms: C_4  and  N_3 
REMARK    3  A    between atoms: N_6  and  C_10 
REMARK    4  A    between atoms: C_14  and  N_7 
REMARK    5  A    between atoms: O_15  and  C_17 
REMARK    6  A    between atoms: C_19  and  O_15 
REMARK    7  A    between atoms: C_24  and  C_19 
ROOT
ATOM      1  C   UNL d   1      -2.367  -1.952  -4.988  0.00  0.00     0.325 C 
ATOM      2  N   UNL d   1      -3.010  -2.400  -6.102  0.00  0.00    -0.309 N 
ATOM      3  N   UNL d   1      -2.881  -2.249  -3.764  0.00  0.00    -0.309 N 
ATOM      4  O   UNL d   1      -1.343  -1.298  -5.187  0.00  0.00    -0.247 OA
ATOM      5  H   UNL d   1      -2.543  -1.986  -6.904  0.00  0.00     0.170 HD
ATOM      6  H   UNL d   1      -3.787  -2.684  -3.748  0.00  0.00     0.170 HD
ENDROOT
BRANCH   2   7
ATOM      7  C   UNL d   1      -4.078  -3.259  -6.420  0.00  0.00     0.038 A 
ATOM      8  C   UNL d   1      -4.735  -4.147  -5.565  0.00  0.00     0.054 A 
ATOM      9  C   UNL d   1      -5.835  -4.910  -6.015  0.00  0.00     0.030 A 
ATOM     10  C   UNL d   1      -6.277  -4.810  -7.346  0.00  0.00    -0.040 A 
ATOM     11  C   UNL d   1      -5.559  -3.984  -8.217  0.00  0.00     0.011 A 
ATOM     12  C   UNL d   1      -7.491  -5.515  -7.889  0.00  0.00     0.050 C 
ATOM     13  C   UNL d   1      -4.471  -3.238  -7.764  0.00  0.00     0.030 A 
BRANCH   9  14
ATOM     14  N   UNL d   1      -6.283  -5.947  -5.124  0.00  0.00    -0.185 NA
ATOM     15  H   UNL d   1      -6.015  -6.872  -5.473  0.00  0.00     0.146 HD
BRANCH  14  16
ATOM     16  S   UNL d   1      -7.912  -6.014  -4.668  0.00  0.00     0.210 S 
ATOM     17  O   UNL d   1      -8.447  -7.218  -5.258  0.00  0.00    -0.211 OA
ATOM     18  O   UNL d   1      -8.538  -4.717  -4.849  0.00  0.00    -0.211 OA
ATOM     19  C   UNL d   1      -7.743  -6.296  -2.923  0.00  0.00     0.180 C 
ENDBRANCH  14  16
ENDBRANCH   9  14
ENDBRANCH   2   7
BRANCH   3  20
ATOM     20  C   UNL d   1      -2.189  -2.176  -2.532  0.00  0.00     0.036 C 
ATOM     21  C   UNL d   1      -1.011  -1.453  -2.330  0.00  0.00     0.032 C 
ATOM     22  C   UNL d   1      -0.230  -1.657  -1.183  0.00  0.00     0.039 C 
ATOM     23  C   UNL d   1      -0.566  -2.670  -0.295  0.00  0.00     0.069 C 
ATOM     24  C   UNL d   1      -1.831  -3.251  -0.399  0.00  0.00     0.039 C 
ATOM     25  C   UNL d   1      -2.661  -2.974  -1.491  0.00  0.00     0.032 C 
BRANCH  23  26
ATOM     26  O   UNL d   1       0.285  -3.300   0.568  0.00  0.00    -0.347 OA
BRANCH  26  27
ATOM     27  C   UNL d   1       1.367  -2.600   1.177  0.00  0.00     0.214 C 
BRANCH  27  28
ATOM     28  C   UNL d   1       2.754  -2.735   0.559  0.00  0.00    -0.034 A 
ATOM     29  C   UNL d   1       3.014  -2.479  -0.794  0.00  0.00     0.009 A 
ATOM     30  C   UNL d   1       4.320  -2.321  -1.266  0.00  0.00     0.001 A 
ATOM     31  C   UNL d   1       5.399  -2.484  -0.406  0.00  0.00     0.000 A 
ATOM     32  C   UNL d   1       5.171  -2.837   0.919  0.00  0.00     0.001 A 
ATOM     33  C   UNL d   1       3.861  -2.953   1.399  0.00  0.00     0.009 A 
ENDBRANCH  27  28
ENDBRANCH  26  27
ENDBRANCH  23  26
ENDBRANCH   3  20
TORSDOF 7
