REMARK  3 active torsions:
REMARK  status: ('A' for Active; 'I' for Inactive)
REMARK    1  A    between atoms: C_6  and  C_3 
REMARK    2  A    between atoms: C_9  and  C_11 
REMARK    3  A    between atoms: C_10  and  C_12 
ROOT
ATOM      1  C   UNL d   1       1.298  -2.865  -0.116  0.00  0.00    -0.006 A 
ATOM      2  C   UNL d   1       2.494  -4.910   0.478  0.00  0.00     0.049 A 
ATOM      3  C   UNL d   1       0.403  -5.035  -0.780  0.00  0.00     0.049 A 
ATOM      4  C   UNL d   1       2.379  -3.510   0.503  0.00  0.00     0.030 A 
ATOM      5  C   UNL d   1       0.362  -3.633  -0.819  0.00  0.00     0.030 A 
ATOM      6  C   UNL d   1       1.480  -5.663  -0.138  0.00  0.00     0.032 A 
ENDROOT
BRANCH   1   7
ATOM      7  C   UNL d   1       1.205  -1.367  -0.042  0.00  0.00     0.070 C 
ATOM      8  N   UNL d   1       2.338  -0.725  -0.074  0.00  0.00    -0.294 N 
ATOM      9  N   UNL d   1       2.345   0.643  -0.069  0.00  0.00    -0.261 N 
ATOM     10  HN  UNL d   1       3.218  -1.240  -0.103  1.00  0.00     0.187 HD
ATOM     11  C   UNL d   1       1.206   1.437  -0.111  0.00  0.00     0.272 C 
ATOM     12  C   UNL d   1       3.643   1.289  -0.085  0.00  0.00     0.181 C 
ATOM     13  C   UNL d   1      -0.083   0.728  -0.068  0.00  0.00     0.046 A 
ATOM     14  O   UNL d   1       1.225   2.665  -0.155  0.00  0.00    -0.266 OA
ATOM     15  C   UNL d   1      -1.278   1.463  -0.093  0.00  0.00     0.018 A 
ATOM     16  C   UNL d   1      -0.103  -0.659   0.050  0.00  0.00     0.009 A 
ATOM     17  C   UNL d   1      -2.504   0.811   0.015  0.00  0.00     0.001 A 
ATOM     18  C   UNL d   1      -2.532  -0.565   0.208  0.00  0.00     0.001 A 
ATOM     19  C   UNL d   1      -1.339  -1.292   0.258  0.00  0.00     0.015 A 
ENDBRANCH   1   7
BRANCH   2  20
ATOM     20  C   UNL d   1       3.674  -5.614   1.107  0.00  0.00     0.417 C 
ATOM     21  F   UNL d   1       4.608  -4.770   1.622  0.00  0.00    -0.166 F 
ATOM     22  F   UNL d   1       3.301  -6.432   2.128  0.00  0.00    -0.166 F 
ATOM     23  F   UNL d   1       4.334  -6.407   0.216  0.00  0.00    -0.166 F 
ENDBRANCH   2  20
BRANCH   3  24
ATOM     24  C   UNL d   1      -0.711  -5.856  -1.388  0.00  0.00     0.417 C 
ATOM     25  F   UNL d   1      -1.733  -5.098  -1.874  0.00  0.00    -0.166 F 
ATOM     26  F   UNL d   1      -0.290  -6.635  -2.419  0.00  0.00    -0.166 F 
ATOM     27  F   UNL d   1      -1.276  -6.698  -0.480  0.00  0.00    -0.166 F 
ENDBRANCH   3  24
TORSDOF 3
