REMARK  6 active torsions:
REMARK  status: ('A' for Active; 'I' for Inactive)
REMARK    1  A    between atoms: C_2  and  C_1 
REMARK       I    between atoms: N_3  and  C_1 
REMARK    2  A    between atoms: N_4  and  C_2 
REMARK    3  A    between atoms: C_15  and  N_3 
REMARK    4  A    between atoms: C_14  and  N_4 
REMARK    5  A    between atoms: C_5  and  C_14 
REMARK    6  A    between atoms: C_8  and  C_9 
ROOT
ATOM      1  C   UNL d   1       1.214   0.342  -2.250  0.00  0.00     0.283 C 
ATOM      2  N   UNL d   1       0.330   0.861  -1.321  0.00  0.00    -0.321 N 
ATOM      3  O   UNL d   1       1.032   0.164  -3.446  0.00  0.00    -0.265 OA
ATOM      4  H   UNL d   1       0.701   1.096  -0.409  0.00  0.00     0.169 HD
ENDROOT
BRANCH   1   5
ATOM      5  C   UNL d   1       2.586   0.008  -1.685  0.00  0.00     0.165 C 
ATOM      6  S   UNL d   1       2.714  -1.383  -0.779  0.00  0.00    -0.055 SA
BRANCH   5   7
ATOM      7  N   UNL d   1       3.664   0.819  -1.942  0.00  0.00    -0.370 N 
ATOM      8  H   UNL d   1       4.569   0.474  -1.641  0.00  0.00     0.161 HD
BRANCH   7   9
ATOM      9  C   UNL d   1       3.615   2.072  -2.667  0.00  0.00     0.185 C 
BRANCH   9  10
ATOM     10  C   UNL d   1       4.985   2.478  -3.069  0.00  0.00     0.070 A 
ATOM     11  O   UNL d   1       5.521   1.833  -4.146  0.00  0.00    -0.325 OA
ATOM     12  C   UNL d   1       6.737   2.386  -4.380  0.00  0.00     0.142 A 
ATOM     13  C   UNL d   1       7.002   3.373  -3.461  0.00  0.00     0.027 A 
ATOM     14  C   UNL d   1       5.874   3.426  -2.604  0.00  0.00     0.036 A 
ENDBRANCH   9  10
ENDBRANCH   7   9
ENDBRANCH   5   7
ENDBRANCH   1   5
BRANCH   2  15
ATOM     15  C   UNL d   1      -1.069   0.986  -1.488  0.00  0.00     0.035 A 
ATOM     16  C   UNL d   1      -1.767   0.389  -2.537  0.00  0.00     0.030 A 
ATOM     17  C   UNL d   1      -3.167   0.459  -2.592  0.00  0.00     0.010 A 
ATOM     18  C   UNL d   1      -3.915   1.143  -1.619  0.00  0.00    -0.051 A 
ATOM     19  C   UNL d   1      -3.194   1.767  -0.587  0.00  0.00     0.010 A 
ATOM     20  C   UNL d   1      -1.794   1.677  -0.517  0.00  0.00     0.030 A 
BRANCH  18  21
ATOM     21  C   UNL d   1      -5.455   1.137  -1.682  0.00  0.00    -0.024 C 
ATOM     22  C   UNL d   1      -6.129   2.031  -0.617  0.00  0.00     0.019 C 
ATOM     23  C   UNL d   1      -5.949   1.629  -3.060  0.00  0.00     0.019 C 
ATOM     24  C   UNL d   1      -5.957  -0.306  -1.455  0.00  0.00     0.019 C 
ENDBRANCH  18  21
ENDBRANCH   2  15
TORSDOF 6
