REMARK  3 active torsions:
REMARK  status: ('A' for Active; 'I' for Inactive)
REMARK    1  A    between atoms: C_8  and  N_1 
REMARK    2  A    between atoms: N_6  and  C_9 
REMARK    3  A    between atoms: C_12  and  C_7 
ROOT
ATOM      1  N   UNL d   1       0.022  -0.956  -0.103  0.00  0.00    -0.252 N 
ATOM      2  C   UNL d   1      -1.231  -0.324  -0.112  0.00  0.00     0.231 C 
ATOM      3  C   UNL d   1       1.254  -0.306   0.037  0.00  0.00     0.231 C 
ATOM      4  C   UNL d   1      -1.229   1.117   0.326  0.00  0.00     0.113 C 
ATOM      5  C   UNL d   1       1.242   1.194   0.203  0.00  0.00     0.113 C 
ATOM      6  C   UNL d   1      -0.043   1.853  -0.270  0.00  0.00     0.036 C 
ATOM      7  O   UNL d   1      -2.305  -0.875  -0.349  0.00  0.00    -0.273 OA
ATOM      8  O   UNL d   1       2.351  -0.875   0.046  0.00  0.00    -0.273 OA
ENDROOT
BRANCH   1   9
ATOM      9  C   UNL d   1       0.054  -2.374  -0.285  0.00  0.00     0.045 A 
ATOM     10  C   UNL d   1      -0.553  -2.973  -1.390  0.00  0.00     0.032 A 
ATOM     11  C   UNL d   1      -0.460  -4.358  -1.584  0.00  0.00     0.031 A 
ATOM     12  C   UNL d   1       0.206  -5.193  -0.676  0.00  0.00     0.030 A 
ATOM     13  C   UNL d   1       0.776  -4.572   0.446  0.00  0.00     0.031 A 
ATOM     14  C   UNL d   1       0.716  -3.188   0.636  0.00  0.00     0.032 A 
BRANCH  12  15
ATOM     15  N   UNL d   1       0.287  -6.560  -0.841  0.00  0.00    -0.377 N 
ATOM     16  C   UNL d   1      -0.690  -7.334  -1.621  0.00  0.00     0.149 C 
ATOM     17  C   UNL d   1      -0.022  -7.933  -2.865  0.00  0.00     0.187 C 
ATOM     18  O   UNL d   1       1.118  -8.734  -2.506  0.00  0.00    -0.388 OA
ATOM     19  C   UNL d   1       2.095  -7.928  -1.826  0.00  0.00     0.187 C 
ATOM     20  C   UNL d   1       1.531  -7.291  -0.542  0.00  0.00     0.149 C 
ENDBRANCH  12  15
ENDBRANCH   1   9
BRANCH   6  21
ATOM     21  C   UNL d   1      -0.070   3.325   0.100  0.00  0.00    -0.053 A 
ATOM     22  C   UNL d   1      -0.177   4.303  -0.902  0.00  0.00     0.007 A 
ATOM     23  C   UNL d   1      -0.206   5.658  -0.569  0.00  0.00     0.001 A 
ATOM     24  C   UNL d   1      -0.127   6.058   0.763  0.00  0.00     0.000 A 
ATOM     25  C   UNL d   1      -0.019   5.100   1.768  0.00  0.00     0.001 A 
ATOM     26  C   UNL d   1       0.005   3.746   1.439  0.00  0.00     0.007 A 
ENDBRANCH   6  21
TORSDOF 3
