REMARK  6 active torsions:
REMARK  status: ('A' for Active; 'I' for Inactive)
REMARK       I    between atoms: N_2  and  C_1 
REMARK       I    between atoms: N_11  and  C_1 
REMARK    1  A    between atoms: C_6  and  N_2 
REMARK    2  A    between atoms: C_3  and  C_15 
REMARK    3  A    between atoms: C_18  and  N_11 
REMARK    4  A    between atoms: S_13  and  C_20 
REMARK    5  A    between atoms: C_15  and  S_13 
REMARK    6  A    between atoms: C_20  and  C_18 
ROOT
ATOM      1  C   UNL d   1       1.998   0.396   1.195  0.00  0.00     0.320 C 
ATOM      2  N   UNL d   1       2.197   1.705   1.532  0.00  0.00    -0.309 N 
ATOM      3  O   UNL d   1       1.266  -0.407   1.772  0.00  0.00    -0.247 OA
ATOM      4  N   UNL d   1       2.689  -0.064   0.116  0.00  0.00    -0.342 N 
ATOM      5  H   UNL d   1       2.874   2.214   0.986  0.00  0.00     0.170 HD
ATOM      6  H   UNL d   1       2.452  -1.029  -0.081  0.00  0.00     0.164 HD
ENDROOT
BRANCH   2   7
ATOM      7  C   UNL d   1       1.575   2.429   2.575  0.00  0.00     0.037 A 
ATOM      8  C   UNL d   1       0.602   1.893   3.425  0.00  0.00     0.053 A 
ATOM      9  C   UNL d   1       0.017   2.689   4.413  0.00  0.00     0.036 A 
ATOM     10 CL   UNL d   1      -1.190   2.023   5.445  0.00  0.00    -0.084 Cl
ATOM     11  C   UNL d   1       0.392   4.020   4.571  0.00  0.00     0.024 A 
ATOM     12  C   UNL d   1       1.370   4.560   3.738  0.00  0.00     0.004 A 
ATOM     13  C   UNL d   1       1.956   3.767   2.746  0.00  0.00     0.029 A 
ENDBRANCH   2   7
BRANCH   4  14
ATOM     14  C   UNL d   1       3.414   0.664  -0.911  0.00  0.00     0.134 C 
BRANCH  14  15
ATOM     15  C   UNL d   1       4.921   0.740  -0.648  0.00  0.00     0.094 C 
BRANCH  15  16
ATOM     16  S   UNL d   1       5.652   1.706  -2.007  0.00  0.00    -0.161 SA
BRANCH  16  17
ATOM     17  C   UNL d   1       7.423   1.595  -1.581  0.00  0.00     0.139 C 
BRANCH  17  18
ATOM     18  C   UNL d   1       8.213   2.291  -2.631  0.00  0.00     0.061 A 
ATOM     19  O   UNL d   1       8.919   3.394  -2.244  0.00  0.00    -0.326 OA
ATOM     20  C   UNL d   1       9.511   3.897  -3.359  0.00  0.00     0.142 A 
ATOM     21  C   UNL d   1       9.208   3.128  -4.456  0.00  0.00     0.027 A 
ATOM     22  C   UNL d   1       8.381   2.081  -3.987  0.00  0.00     0.035 A 
ENDBRANCH  17  18
ENDBRANCH  16  17
ENDBRANCH  15  16
ENDBRANCH  14  15
ENDBRANCH   4  14
TORSDOF 6
