REMARK  3 active torsions:
REMARK  status: ('A' for Active; 'I' for Inactive)
REMARK    1  A    between atoms: C_8  and  C_1 
REMARK    2  A    between atoms: C_9  and  C_2 
REMARK    3  A    between atoms: O_14  and  C_8 
ROOT
ATOM      1  C   UNL d   1      -1.952   0.053   0.004  0.00  0.00     0.080 A 
ATOM      2  C   UNL d   1      -1.154  -1.214   0.000  0.00  0.00     0.066 A 
ATOM      3  N   UNL d   1       0.147  -1.246  -0.022  0.00  0.00    -0.307 N 
ATOM      4  HN  UNL d   1       0.633  -2.143  -0.034  1.00  0.00     0.170 HD
ATOM      5  C   UNL d   1      -1.200   1.164   0.036  0.00  0.00     0.113 A 
ATOM      6  C   UNL d   1       0.866  -0.082  -0.030  0.00  0.00     0.324 A 
ATOM      7  N   UNL d   1       0.161   1.095  -0.005  0.00  0.00    -0.318 N 
ATOM      8  O   UNL d   1       2.091  -0.046  -0.044  0.00  0.00    -0.247 OA
ATOM      9  H   UNL d   1       0.739   1.926   0.036  0.00  0.00     0.170 HD
ENDROOT
BRANCH   2  10
ATOM     10  C   UNL d   1      -1.843  -2.537   0.044  0.00  0.00     0.007 A 
ATOM     11  C   UNL d   1      -2.987  -2.847  -0.679  0.00  0.00     0.101 A 
ATOM     12  N   UNL d   1      -3.589  -4.065  -0.664  0.00  0.00    -0.374 N 
ATOM     13  C   UNL d   1      -3.020  -5.019   0.104  0.00  0.00     0.087 A 
ATOM     14  HN  UNL d   1      -4.432  -4.251  -1.208  1.00  0.00     0.164 HD
ATOM     15  C   UNL d   1      -1.861  -4.824   0.835  0.00  0.00     0.018 A 
ATOM     16  C   UNL d   1      -1.261  -3.567   0.794  0.00  0.00     0.016 A 
ENDBRANCH   2  10
BRANCH   1  17
ATOM     17  C   UNL d   1      -3.409   0.188   0.163  0.00  0.00     0.179 C 
ATOM     18  O   UNL d   1      -4.074  -0.535   0.885  0.00  0.00    -0.646 OA
BRANCH  17  19
ATOM     19  O   UNL d   1      -3.959   1.177  -0.573  0.00  0.00    -0.773 OA
ATOM     20  H   UNL d   1      -3.373   1.626  -1.211  0.00  0.00     0.167 HD
ENDBRANCH  17  19
ENDBRANCH   1  17
TORSDOF 3
