REMARK  6 active torsions:
REMARK  status: ('A' for Active; 'I' for Inactive)
REMARK    1  A    between atoms: C_2  and  C_1 
REMARK    2  A    between atoms: C_8  and  C_2 
REMARK    3  A    between atoms: C_10  and  N_3 
REMARK    4  A    between atoms: C_11  and  C_8 
REMARK    5  A    between atoms: N_13  and  C_9 
REMARK    6  A    between atoms: O_25  and  C_19 
ROOT
ATOM      1  C   UNL d   1      -0.164  -1.569   0.207  0.00  0.00     0.154 A 
ATOM      2  N   UNL d   1       0.025  -0.699  -0.876  0.00  0.00    -0.224 N 
ATOM      3  N   UNL d   1       0.351   0.514  -0.348  0.00  0.00     0.001 NA
ATOM      4  N   UNL d   1       0.378   0.370   0.964  0.00  0.00    -0.007 NA
ATOM      5  N   UNL d   1       0.072  -0.906   1.324  0.00  0.00    -0.269 N 
ATOM      6  HN  UNL d   1       0.034  -1.279   2.273  1.00  0.00     0.185 HD
ENDROOT
BRANCH   1   7
ATOM      7  C   UNL d   1      -0.535  -2.927   0.047  0.00  0.00     0.077 C 
ATOM      8  C   UNL d   1       0.511  -3.783   0.026  0.00  0.00     0.104 C 
BRANCH   7   9
ATOM      9  C   UNL d   1      -2.000  -3.295  -0.060  0.00  0.00     0.197 C 
ATOM     10  O   UNL d   1      -2.386  -4.297  -0.667  0.00  0.00    -0.286 OA
BRANCH   9  11
ATOM     11  C   UNL d   1      -3.048  -2.470   0.619  0.00  0.00     0.015 A 
ATOM     12  C   UNL d   1      -3.103  -1.067   0.597  0.00  0.00     0.017 A 
ATOM     13  C   UNL d   1      -4.059  -0.370   1.342  0.00  0.00     0.025 A 
ATOM     14  C   UNL d   1      -5.019  -1.069   2.061  0.00  0.00     0.034 A 
ATOM     15  C   UNL d   1      -5.050  -2.461   2.013  0.00  0.00     0.025 A 
ATOM     16 CL   UNL d   1      -6.171  -0.211   3.005  0.00  0.00    -0.084 Cl
ATOM     17  C   UNL d   1      -4.071  -3.158   1.295  0.00  0.00     0.017 A 
ENDBRANCH   9  11
ENDBRANCH   7   9
BRANCH   8  18
ATOM     18  N   UNL d   1       0.718  -5.134  -0.221  0.00  0.00    -0.398 N 
ATOM     19  C   UNL d   1      -0.060  -5.929  -1.169  0.00  0.00     0.148 C 
ATOM     20  C   UNL d   1       1.841  -5.854   0.391  0.00  0.00     0.148 C 
ENDBRANCH   8  18
ENDBRANCH   1   7
BRANCH   2  21
ATOM     21  C   UNL d   1      -0.090  -0.849  -2.293  0.00  0.00     0.056 A 
ATOM     22  C   UNL d   1      -0.487  -2.040  -2.910  0.00  0.00     0.034 A 
ATOM     23  C   UNL d   1      -0.526  -2.150  -4.306  0.00  0.00     0.039 A 
ATOM     24  C   UNL d   1      -0.156  -1.076  -5.107  0.00  0.00     0.068 A 
ATOM     25  C   UNL d   1       0.177   0.135  -4.508  0.00  0.00     0.039 A 
ATOM     26  C   UNL d   1       0.216   0.251  -3.115  0.00  0.00     0.034 A 
BRANCH  24  27
ATOM     27  O   UNL d   1      -0.117  -1.107  -6.473  0.00  0.00    -0.356 OA
ATOM     28  C   UNL d   1       0.251  -2.369  -7.025  0.00  0.00     0.210 C 
ENDBRANCH  24  27
ENDBRANCH   2  21
TORSDOF 6
