REMARK  5 active torsions:
REMARK  status: ('A' for Active; 'I' for Inactive)
REMARK    1  A    between atoms: C_8  and  C_3 
REMARK    2  A    between atoms: N_9  and  C_4 
REMARK    3  A    between atoms: C_11  and  N_9 
REMARK    4  A    between atoms: N_10  and  C_14 
REMARK    5  A    between atoms: C_14  and  C_11 
ROOT
ATOM      1  N   UNL d   1      -1.207   1.374   0.051  0.00  0.00    -0.355 N 
ATOM      2  HN  UNL d   1      -1.211   2.394   0.066  1.00  0.00     0.166 HD
ATOM      3  C   UNL d   1      -2.365   0.681   0.065  0.00  0.00     0.044 A 
ATOM      4  C   UNL d   1      -1.192  -1.433  -0.141  0.00  0.00     0.023 A 
ATOM      5  C   UNL d   1      -2.379  -0.704  -0.000  0.00  0.00     0.054 A 
ATOM      6  C   UNL d   1      -0.048   0.696   0.018  0.00  0.00     0.044 A 
ATOM      7  C   UNL d   1       0.028  -0.717  -0.059  0.00  0.00     0.012 A 
ATOM      8  C   UNL d   1       1.315  -1.318  -0.068  0.00  0.00     0.015 A 
ATOM      9  C   UNL d   1       1.124   1.438   0.051  0.00  0.00     0.030 A 
ATOM     10  C   UNL d   1       2.479  -0.547  -0.025  0.00  0.00     0.001 A 
ATOM     11  C   UNL d   1       2.383   0.835   0.027  0.00  0.00     0.002 A 
ENDROOT
BRANCH   4  12
ATOM     12  N   UNL d   1      -1.245  -2.842  -0.270  0.00  0.00    -0.290 NA
ATOM     13  H   UNL d   1      -0.394  -3.252  -0.644  0.00  0.00     0.127 HD
BRANCH  12  14
ATOM     14  C   UNL d   1      -2.452  -3.401  -0.902  0.00  0.00     0.122 C 
BRANCH  14  15
ATOM     15  C   UNL d   1      -2.216  -4.771  -1.570  0.00  0.00     0.285 C 
BRANCH  15  16
ATOM     16  N   UNL d   1      -1.737  -5.867  -0.705  0.00  0.00     0.081 N 
ATOM     17  C   UNL d   1      -2.662  -6.134   0.399  0.00  0.00     0.309 C 
ATOM     18  C   UNL d   1      -1.570  -7.081  -1.512  0.00  0.00     0.309 C 
ENDBRANCH  15  16
ENDBRANCH  14  15
ENDBRANCH  12  14
ENDBRANCH   4  12
BRANCH   3  19
ATOM     19  C   UNL d   1      -3.620   1.464   0.054  0.00  0.00    -0.009 A 
ATOM     20  C   UNL d   1      -3.683   2.711  -0.590  0.00  0.00     0.013 A 
ATOM     21  C   UNL d   1      -4.887   3.412  -0.701  0.00  0.00     0.001 A 
ATOM     22  C   UNL d   1      -6.057   2.883  -0.164  0.00  0.00     0.000 A 
ATOM     23  C   UNL d   1      -6.019   1.666   0.507  0.00  0.00     0.001 A 
ATOM     24  C   UNL d   1      -4.812   0.970   0.621  0.00  0.00     0.013 A 
ENDBRANCH   3  19
TORSDOF 5
