REMARK  2 active torsions:
REMARK  status: ('A' for Active; 'I' for Inactive)
REMARK       I    between atoms: N_2  and  C_1 
REMARK       I    between atoms: N_3  and  C_1 
REMARK    1  A    between atoms: C_5  and  N_2 
REMARK    2  A    between atoms: C_13  and  N_3 
ROOT
ATOM      1  C   UNL d   1       1.121  -0.106   0.058  0.00  0.00     0.325 C 
ATOM      2  N   UNL d   1       0.504   0.883  -0.697  0.00  0.00    -0.309 N 
ATOM      3  N   UNL d   1       0.276  -0.612   1.031  0.00  0.00    -0.309 N 
ATOM      4  O   UNL d   1       2.281  -0.467  -0.102  0.00  0.00    -0.247 OA
ATOM      5  H   UNL d   1      -0.356   1.264  -0.335  0.00  0.00     0.170 HD
ATOM      6  H   UNL d   1      -0.696  -0.351   0.978  0.00  0.00     0.170 HD
ENDROOT
BRANCH   2   7
ATOM      7  C   UNL d   1       1.116   1.597  -1.756  0.00  0.00     0.037 A 
ATOM      8  C   UNL d   1       2.295   1.179  -2.375  0.00  0.00     0.043 A 
ATOM      9  C   UNL d   1       2.910   1.954  -3.371  0.00  0.00    -0.007 A 
ATOM     10  C   UNL d   1       4.113   1.545  -3.959  0.00  0.00     0.015 A 
ATOM     11  C   UNL d   1       2.333   3.165  -3.791  0.00  0.00     0.042 A 
ATOM     12  C   UNL d   1       4.706   2.336  -4.931  0.00  0.00     0.018 A 
ATOM     13  C   UNL d   1       4.069   3.511  -5.281  0.00  0.00     0.088 A 
ATOM     14  N   UNL d   1       2.904   3.936  -4.736  0.00  0.00    -0.365 N 
ATOM     15  HN  UNL d   1       2.473   4.811  -5.032  1.00  0.00     0.165 HD
ATOM     16  C   UNL d   1       1.138   3.551  -3.195  0.00  0.00     0.033 A 
ATOM     17  C   UNL d   1       0.523   2.782  -2.193  0.00  0.00     0.032 A 
ENDBRANCH   2   7
BRANCH   3  18
ATOM     18  C   UNL d   1       0.626  -1.535   2.046  0.00  0.00     0.036 A 
ATOM     19  C   UNL d   1       1.919  -2.035   2.234  0.00  0.00     0.029 A 
ATOM     20  C   UNL d   1       2.201  -2.932   3.268  0.00  0.00     0.002 A 
ATOM     21  C   UNL d   1       1.190  -3.334   4.133  0.00  0.00     0.000 A 
ATOM     22  C   UNL d   1      -0.101  -2.845   3.962  0.00  0.00     0.002 A 
ATOM     23  C   UNL d   1      -0.384  -1.950   2.922  0.00  0.00     0.029 A 
ENDBRANCH   3  18
TORSDOF 2
