REMARK  8 active torsions:
REMARK  status: ('A' for Active; 'I' for Inactive)
REMARK       I    between atoms: C_2  and  N_1 
REMARK       I    between atoms: N_7  and  C_2 
REMARK    1  A    between atoms: C_5  and  C_3 
REMARK    2  A    between atoms: C_6  and  C_5 
REMARK       I    between atoms: N_9  and  C_6 
REMARK    3  A    between atoms: C_13  and  N_7 
REMARK    4  A    between atoms: C_14  and  N_9 
REMARK    5  A    between atoms: O_15  and  C_17 
REMARK    6  A    between atoms: C_20  and  O_15 
REMARK    7  A    between atoms: O_30  and  C_19 
REMARK    8  A    between atoms: C_29  and  C_20 
ROOT
ATOM      1  N   UNL d   1      -1.437  -1.066   0.478  0.00  0.00    -0.318 N 
ATOM      2  C   UNL d   1      -2.266  -1.947   1.173  0.00  0.00     0.323 C 
ATOM      3  C   UNL d   1       0.054  -1.202   0.511  0.00  0.00     0.189 C 
ATOM      4  C   UNL d   1       0.674   0.005   1.271  0.00  0.00     0.241 C 
ATOM      5  N   UNL d   1      -3.614  -1.683   1.110  0.00  0.00    -0.309 N 
ATOM      6  N   UNL d   1       0.083   1.234   1.074  0.00  0.00    -0.358 N 
ATOM      7  O   UNL d   1      -1.813  -2.925   1.755  0.00  0.00    -0.247 OA
ATOM      8  O   UNL d   1       1.742  -0.035   1.875  0.00  0.00    -0.271 OA
ATOM      9  C   UNL d   1      -1.849   0.222  -0.109  0.00  0.00     0.148 C 
ATOM     10  C   UNL d   1      -1.318   1.379   0.739  0.00  0.00     0.142 C 
ATOM     11  H   UNL d   1      -3.917  -0.926   0.534  0.00  0.00     0.170 HD
ATOM     12  H   UNL d   1       0.541   1.978   1.588  0.00  0.00     0.162 HD
ENDROOT
BRANCH   3  13
ATOM     13  C   UNL d   1       0.727  -2.500   0.977  0.00  0.00     0.138 C 
BRANCH  13  14
ATOM     14  C   UNL d   1       0.649  -3.596  -0.062  0.00  0.00     0.224 C 
ATOM     15  N   UNL d   1      -0.308  -4.559   0.199  0.00  0.00    -0.327 N 
ATOM     16  H   UNL d   1      -1.018  -4.300   0.887  0.00  0.00     0.169 HD
ATOM     17  O   UNL d   1       1.385  -3.560  -1.047  0.00  0.00    -0.273 OA
BRANCH  15  18
ATOM     18  C   UNL d   1      -0.533  -5.725  -0.562  0.00  0.00     0.034 A 
ATOM     19  C   UNL d   1       0.433  -6.272  -1.409  0.00  0.00     0.032 A 
ATOM     20  C   UNL d   1       0.138  -7.377  -2.214  0.00  0.00     0.039 A 
ATOM     21  C   UNL d   1      -1.135  -7.941  -2.184  0.00  0.00     0.068 A 
ATOM     22  C   UNL d   1      -2.074  -7.462  -1.271  0.00  0.00     0.039 A 
ATOM     23  C   UNL d   1      -1.774  -6.361  -0.457  0.00  0.00     0.032 A 
BRANCH  21  24
ATOM     24  O   UNL d   1      -1.533  -8.978  -2.983  0.00  0.00    -0.356 OA
ATOM     25  C   UNL d   1      -1.012  -8.919  -4.312  0.00  0.00     0.210 C 
ENDBRANCH  21  24
ENDBRANCH  15  18
ENDBRANCH  13  14
ENDBRANCH   3  13
BRANCH   5  26
ATOM     26  C   UNL d   1      -4.673  -2.503   1.562  0.00  0.00     0.036 A 
ATOM     27  C   UNL d   1      -4.520  -3.714   2.240  0.00  0.00     0.032 A 
ATOM     28  C   UNL d   1      -5.627  -4.541   2.471  0.00  0.00     0.039 A 
ATOM     29  C   UNL d   1      -6.893  -4.159   2.036  0.00  0.00     0.069 A 
ATOM     30  C   UNL d   1      -7.073  -2.890   1.489  0.00  0.00     0.039 A 
ATOM     31  C   UNL d   1      -5.968  -2.074   1.241  0.00  0.00     0.032 A 
BRANCH  29  32
ATOM     32  O   UNL d   1      -7.889  -5.092   2.163  0.00  0.00    -0.347 OA
BRANCH  32  33
ATOM     33  C   UNL d   1      -8.901  -4.995   1.154  0.00  0.00     0.214 C 
BRANCH  33  34
ATOM     34  C   UNL d   1      -9.544  -6.338   0.912  0.00  0.00    -0.034 A 
ATOM     35  C   UNL d   1     -10.225  -7.002   1.940  0.00  0.00     0.009 A 
ATOM     36  C   UNL d   1     -10.864  -8.218   1.690  0.00  0.00     0.001 A 
ATOM     37  C   UNL d   1     -10.827  -8.781   0.414  0.00  0.00     0.000 A 
ATOM     38  C   UNL d   1     -10.147  -8.133  -0.613  0.00  0.00     0.001 A 
ATOM     39  C   UNL d   1      -9.508  -6.918  -0.366  0.00  0.00     0.009 A 
ENDBRANCH  33  34
ENDBRANCH  32  33
ENDBRANCH  29  32
ENDBRANCH   5  26
TORSDOF 8
