REMARK  5 active torsions:
REMARK  status: ('A' for Active; 'I' for Inactive)
REMARK    1  A    between atoms: C_3  and  S_1 
REMARK    2  A    between atoms: O_14  and  S_1 
REMARK    3  A    between atoms: C_9  and  C_2 
REMARK    4  A    between atoms: C_4  and  C_10 
REMARK    5  A    between atoms: C_20  and  O_14 
ROOT
ATOM      1  C   UNL d   1       0.529  -1.192  -1.127  0.00  0.00     0.128 A 
ATOM      2  S   UNL d   1      -0.157  -0.759  -2.632  0.00  0.00    -0.074 SA
ATOM      3  C   UNL d   1      -0.316  -2.393  -3.115  0.00  0.00     0.035 A 
ATOM      4  C   UNL d   1       0.639  -2.565  -1.000  0.00  0.00     0.035 A 
ATOM      5  C   UNL d   1       0.149  -3.258  -2.146  0.00  0.00     0.023 A 
ENDROOT
BRANCH   1   6
ATOM      6  S   UNL d   1       0.965   0.136  -0.014  0.00  0.00     0.309 S 
ATOM      7  O   UNL d   1       1.353   1.262  -0.836  0.00  0.00    -0.192 OA
ATOM      8  O   UNL d   1       1.867  -0.489   0.933  0.00  0.00    -0.192 OA
BRANCH   6   9
ATOM      9  O   UNL d   1      -0.481   0.419   0.685  0.00  0.00    -0.229 OA
BRANCH   9  10
ATOM     10  C   UNL d   1      -0.632   1.332   1.700  0.00  0.00     0.089 A 
ATOM     11  C   UNL d   1      -1.917   1.867   1.845  0.00  0.00     0.040 A 
ATOM     12  C   UNL d   1      -2.199   2.768   2.876  0.00  0.00     0.026 A 
ATOM     13  C   UNL d   1      -1.196   3.126   3.773  0.00  0.00     0.034 A 
ATOM     14  C   UNL d   1       0.086   2.599   3.638  0.00  0.00     0.026 A 
ATOM     15 CL   UNL d   1      -1.545   4.210   5.062  0.00  0.00    -0.084 Cl
ATOM     16  C   UNL d   1       0.369   1.701   2.602  0.00  0.00     0.040 A 
ENDBRANCH   9  10
ENDBRANCH   6   9
ENDBRANCH   1   6
BRANCH   3  17
ATOM     17  C   UNL d   1      -0.910  -2.835  -4.420  0.00  0.00     0.074 A 
ATOM     18  C   UNL d   1      -1.343  -2.002  -5.476  0.00  0.00     0.077 A 
ATOM     19  C   UNL d   1      -1.869  -2.869  -6.405  0.00  0.00     0.184 A 
ATOM     20  O   UNL d   1      -1.731  -4.143  -5.953  0.00  0.00    -0.233 OA
ATOM     21  N   UNL d   1      -1.115  -4.125  -4.713  0.00  0.00    -0.260 N 
ATOM     22  HN  UNL d   1      -0.868  -4.932  -4.140  1.00  0.00     0.195 HD
BRANCH  19  23
ATOM     23  C   UNL d   1      -2.533  -2.700  -7.709  0.00  0.00     0.441 C 
ATOM     24  F   UNL d   1      -2.561  -1.395  -8.089  0.00  0.00    -0.164 F 
ATOM     25  F   UNL d   1      -1.908  -3.381  -8.701  0.00  0.00    -0.164 F 
ATOM     26  F   UNL d   1      -3.822  -3.123  -7.683  0.00  0.00    -0.164 F 
ENDBRANCH  19  23
ENDBRANCH   3  17
TORSDOF 5
