REMARK  3 active torsions:
REMARK  status: ('A' for Active; 'I' for Inactive)
REMARK    1  A    between atoms: N_3  and  N_1 
REMARK    2  A    between atoms: C_5  and  C_8 
REMARK    3  A    between atoms: C_6  and  C_7 
ROOT
ATOM      1  N   UNL d   1       0.905   1.971   1.430  0.00  0.00    -0.304 N 
ATOM      2  HN  UNL d   1       0.384   2.717   1.890  1.00  0.00     0.186 HD
ATOM      3  C   UNL d   1       2.206   1.909   1.446  0.00  0.00     0.032 C 
ATOM      4  C   UNL d   1       2.987   0.803   0.766  0.00  0.00     0.070 C 
ENDROOT
BRANCH   1   5
ATOM      5  N   UNL d   1       0.283   0.937   0.735  0.00  0.00    -0.304 N 
ATOM      6  C   UNL d   1      -1.018   1.020   0.750  0.00  0.00     0.032 C 
ATOM      7  C   UNL d   1      -1.760   2.135   1.466  0.00  0.00     0.070 C 
ATOM      8  HN  UNL d   1       0.793   0.191   0.262  1.00  0.00     0.186 HD
BRANCH   6   9
ATOM      9  C   UNL d   1      -1.828  -0.032   0.063  0.00  0.00    -0.012 A 
ATOM     10  C   UNL d   1      -3.069   0.271  -0.512  0.00  0.00     0.025 A 
ATOM     11  C   UNL d   1      -3.865  -0.739  -1.080  0.00  0.00    -0.025 A 
ATOM     12  C   UNL d   1      -5.127  -0.451  -1.626  0.00  0.00     0.012 A 
ATOM     13  C   UNL d   1      -3.394  -2.071  -1.093  0.00  0.00    -0.026 A 
ATOM     14  C   UNL d   1      -5.921  -1.466  -2.163  0.00  0.00     0.001 A 
ATOM     15  C   UNL d   1      -5.462  -2.779  -2.168  0.00  0.00     0.001 A 
ATOM     16  C   UNL d   1      -4.204  -3.080  -1.641  0.00  0.00     0.012 A 
ATOM     17  C   UNL d   1      -2.129  -2.356  -0.552  0.00  0.00     0.013 A 
ATOM     18  C   UNL d   1      -1.351  -1.344   0.020  0.00  0.00     0.014 A 
ENDBRANCH   6   9
ENDBRANCH   1   5
BRANCH   3  19
ATOM     19  C   UNL d   1       2.959   2.956   2.202  0.00  0.00    -0.012 A 
ATOM     20  C   UNL d   1       4.234   3.378   1.807  0.00  0.00     0.025 A 
ATOM     21  C   UNL d   1       4.946   4.325   2.568  0.00  0.00    -0.025 A 
ATOM     22  C   UNL d   1       6.237   4.742   2.201  0.00  0.00     0.012 A 
ATOM     23  C   UNL d   1       4.356   4.865   3.735  0.00  0.00    -0.026 A 
ATOM     24  C   UNL d   1       6.939   5.665   2.978  0.00  0.00     0.001 A 
ATOM     25  C   UNL d   1       6.361   6.188   4.131  0.00  0.00     0.001 A 
ATOM     26  C   UNL d   1       5.075   5.794   4.505  0.00  0.00     0.012 A 
ATOM     27  C   UNL d   1       3.064   4.460   4.101  0.00  0.00     0.013 A 
ATOM     28  C   UNL d   1       2.370   3.517   3.339  0.00  0.00     0.014 A 
ENDBRANCH   3  19
TORSDOF 3
