REMARK  4 active torsions:
REMARK  status: ('A' for Active; 'I' for Inactive)
REMARK       I    between atoms: N_2  and  C_1 
REMARK    1  A    between atoms: C_4  and  C_1 
REMARK    2  A    between atoms: C_3  and  N_2 
REMARK       I    between atoms: C_5  and  N_6 
REMARK    3  A    between atoms: C_15  and  C_5 
REMARK    4  A    between atoms: N_6  and  C_7 
ROOT
ATOM      1  C   UNL d   1       0.099   0.736   0.898  0.00  0.00     0.059 A 
ATOM      2  C   UNL d   1       0.645   2.007   1.154  0.00  0.00     0.050 A 
ATOM      3  C   UNL d   1      -1.197   0.422   1.341  0.00  0.00     0.019 A 
ATOM      4  C   UNL d   1      -0.138   2.949   1.838  0.00  0.00     0.030 A 
ATOM      5  C   UNL d   1      -1.954   1.367   2.033  0.00  0.00     0.001 A 
ATOM      6  C   UNL d   1      -1.427   2.632   2.273  0.00  0.00     0.002 A 
ENDROOT
BRANCH   1   7
ATOM      7  C   UNL d   1       0.868  -0.362   0.256  0.00  0.00     0.259 C 
ATOM      8  N   UNL d   1       2.162  -0.482   0.709  0.00  0.00    -0.303 N 
ATOM      9  H   UNL d   1       2.488   0.081   1.482  0.00  0.00     0.171 HD
ATOM     10  O   UNL d   1       0.293  -1.066  -0.564  0.00  0.00    -0.267 OA
BRANCH   8  11
ATOM     11  C   UNL d   1       3.019  -1.433   0.235  0.00  0.00     0.151 A 
ATOM     12  N   UNL d   1       2.851  -2.300  -0.728  0.00  0.00    -0.346 N 
ATOM     13  C   UNL d   1       3.982  -3.084  -0.839  0.00  0.00     0.097 A 
ATOM     14  HN  UNL d   1       2.016  -2.384  -1.307  1.00  0.00     0.167 HD
ATOM     15  C   UNL d   1       5.004  -2.778   0.034  0.00  0.00     0.070 A 
ATOM     16  S   UNL d   1       4.535  -1.456   1.024  0.00  0.00    -0.064 SA
ENDBRANCH   8  11
ENDBRANCH   1   7
BRANCH   2  17
ATOM     17  N   UNL d   1       1.951   2.351   0.717  0.00  0.00    -0.322 N 
ATOM     18  C   UNL d   1       2.820   3.099   1.494  0.00  0.00     0.256 C 
ATOM     19  O   UNL d   1       2.585   3.506   2.629  0.00  0.00    -0.267 OA
ATOM     20  H   UNL d   1       2.349   1.809  -0.043  0.00  0.00     0.169 HD
BRANCH  18  21
ATOM     21  C   UNL d   1       4.182   3.294   0.946  0.00  0.00     0.032 A 
ATOM     22  C   UNL d   1       4.399   3.604  -0.400  0.00  0.00     0.017 A 
ATOM     23  C   UNL d   1       5.701   3.841  -0.848  0.00  0.00     0.001 A 
ATOM     24  C   UNL d   1       6.779   3.763   0.037  0.00  0.00     0.000 A 
ATOM     25  C   UNL d   1       6.562   3.445   1.378  0.00  0.00     0.001 A 
ATOM     26  C   UNL d   1       5.263   3.219   1.836  0.00  0.00     0.017 A 
ENDBRANCH  18  21
ENDBRANCH   2  17
TORSDOF 4
