REMARK  3 active torsions:
REMARK  status: ('A' for Active; 'I' for Inactive)
REMARK    1  A    between atoms: C_9  and  N_3 
REMARK    2  A    between atoms: C_8  and  C_9 
REMARK       I    between atoms: N_11  and  C_8 
REMARK    3  A    between atoms: C_13  and  N_11 
ROOT
ATOM      1  C   UNL d   1      -0.169   1.230   0.868  0.00  0.00     0.118 C 
ATOM      2  C   UNL d   1      -1.033   0.034   1.043  0.00  0.00     0.269 C 
ATOM      3  N   UNL d   1      -0.781  -1.036   0.170  0.00  0.00    -0.308 N 
ATOM      4  C   UNL d   1       1.055   1.058   0.332  0.00  0.00    -0.034 C 
ATOM      5  C   UNL d   1       0.534  -1.252  -0.269  0.00  0.00     0.012 C 
ATOM      6  C   UNL d   1       1.439  -0.263  -0.134  0.00  0.00     0.033 C 
ATOM      7  C   UNL d   1      -0.705   2.483   1.257  0.00  0.00     0.105 C 
ATOM      8  N   UNL d   1      -1.142   3.527   1.526  0.00  0.00    -0.191 NA
ATOM      9  O   UNL d   1      -1.928   0.019   1.883  0.00  0.00    -0.266 OA
ATOM     10  C   UNL d   1       2.068   2.152   0.138  0.00  0.00     0.050 C 
ATOM     11  C   UNL d   1       0.963  -2.597  -0.788  0.00  0.00     0.068 C 
ENDROOT
BRANCH   3  12
ATOM     12  C   UNL d   1      -1.854  -2.034   0.040  0.00  0.00     0.235 C 
BRANCH  12  13
ATOM     13  C   UNL d   1      -3.192  -1.398  -0.449  0.00  0.00     0.240 C 
ATOM     14  N   UNL d   1      -3.937  -0.835   0.579  0.00  0.00    -0.326 N 
ATOM     15  H   UNL d   1      -3.460  -0.800   1.482  0.00  0.00     0.169 HD
ATOM     16  O   UNL d   1      -3.475  -1.364  -1.644  0.00  0.00    -0.271 OA
BRANCH  14  17
ATOM     17  C   UNL d   1      -5.073   0.001   0.496  0.00  0.00     0.036 A 
ATOM     18  C   UNL d   1      -5.768   0.264  -0.683  0.00  0.00     0.053 A 
ATOM     19  C   UNL d   1      -6.836   1.171  -0.672  0.00  0.00     0.036 A 
ATOM     20 CL   UNL d   1      -7.671   1.520  -2.138  0.00  0.00    -0.084 Cl
ATOM     21  C   UNL d   1      -7.227   1.808   0.504  0.00  0.00     0.024 A 
ATOM     22  C   UNL d   1      -6.554   1.532   1.688  0.00  0.00     0.004 A 
ATOM     23  C   UNL d   1      -5.484   0.633   1.683  0.00  0.00     0.029 A 
ENDBRANCH  14  17
ENDBRANCH  12  13
ENDBRANCH   3  12
TORSDOF 3
