REMARK  5 active torsions:
REMARK  status: ('A' for Active; 'I' for Inactive)
REMARK    1  A    between atoms: C_4  and  C_1 
REMARK       I    between atoms: N_9  and  C_4 
REMARK    2  A    between atoms: C_7  and  N_11 
REMARK    3  A    between atoms: N_8  and  C_7 
REMARK    4  A    between atoms: C_10  and  N_8 
REMARK    5  A    between atoms: N_11  and  N_9 
ROOT
ATOM      1  C   UNL d   1       3.718  -0.251  -0.536  0.00  0.00     0.278 C 
ATOM      2  N   UNL d   1       4.636  -1.259  -0.780  0.00  0.00    -0.263 N 
ATOM      3  O   UNL d   1       2.584  -0.538  -0.142  0.00  0.00    -0.265 OA
ATOM      4  H   UNL d   1       5.584  -1.081  -1.100  0.00  0.00     0.190 HD
ENDROOT
BRANCH   2   5
ATOM      5  N   UNL d   1       4.216  -2.596  -0.726  0.00  0.00    -0.273 N 
ATOM      6  H   UNL d   1       3.203  -2.716  -0.654  0.00  0.00     0.189 HD
BRANCH   5   7
ATOM      7  C   UNL d   1       4.989  -3.566  -0.133  0.00  0.00     0.191 C 
ATOM      8  S   UNL d   1       6.491  -3.315   0.560  0.00  0.00    -0.039 SA
BRANCH   7   9
ATOM      9  N   UNL d   1       4.448  -4.827  -0.098  0.00  0.00    -0.332 N 
ATOM     10  H   UNL d   1       4.891  -5.444   0.572  0.00  0.00     0.168 HD
BRANCH   9  11
ATOM     11  C   UNL d   1       3.571  -5.441  -1.024  0.00  0.00     0.040 A 
ATOM     12  C   UNL d   1       2.889  -6.622  -0.671  0.00  0.00    -0.034 A 
ATOM     13  C   UNL d   1       2.111  -7.282  -1.644  0.00  0.00     0.032 A 
ATOM     14  C   UNL d   1       2.894  -7.220   0.712  0.00  0.00     0.050 C 
ATOM     15  C   UNL d   1       2.014  -6.783  -2.941  0.00  0.00     0.034 A 
ATOM     16  C   UNL d   1       2.680  -5.618  -3.291  0.00  0.00     0.026 A 
ATOM     17 CL   UNL d   1       1.078  -7.621  -4.116  0.00  0.00    -0.084 Cl
ATOM     18  C   UNL d   1       3.455  -4.954  -2.337  0.00  0.00     0.032 A 
ENDBRANCH   9  11
ENDBRANCH   7   9
ENDBRANCH   5   7
ENDBRANCH   2   5
BRANCH   1  19
ATOM     19  C   UNL d   1       4.181   1.107  -0.788  0.00  0.00     0.097 A 
ATOM     20  S   UNL d   1       3.264   2.400  -0.135  0.00  0.00    -0.082 SA
ATOM     21  C   UNL d   1       4.289   3.600  -0.808  0.00  0.00     0.017 A 
ATOM     22  C   UNL d   1       4.149   4.996  -0.681  0.00  0.00     0.020 A 
ATOM     23  C   UNL d   1       5.334   3.029  -1.536  0.00  0.00     0.004 A 
ATOM     24  C   UNL d   1       5.076   5.833  -1.307  0.00  0.00     0.001 A 
ATOM     25  C   UNL d   1       6.121   5.295  -2.041  0.00  0.00     0.001 A 
ATOM     26  C   UNL d   1       6.258   3.907  -2.162  0.00  0.00     0.014 A 
ATOM     27  C   UNL d   1       5.255   1.589  -1.514  0.00  0.00     0.068 A 
ATOM     28 CL   UNL d   1       6.407   0.631  -2.368  0.00  0.00    -0.082 Cl
ENDBRANCH   1  19
TORSDOF 5
