REMARK  8 active torsions:
REMARK  status: ('A' for Active; 'I' for Inactive)
REMARK    1  A    between atoms: N_2  and  C_1 
REMARK    2  A    between atoms: N_4  and  C_1 
REMARK    3  A    between atoms: C_11  and  N_2 
REMARK    4  A    between atoms: C_9  and  N_4 
REMARK    5  A    between atoms: C_19  and  N_4 
REMARK    6  A    between atoms: C_10  and  C_9 
REMARK    7  A    between atoms: C_12  and  C_10 
REMARK    8  A    between atoms: C_13  and  C_19 
ROOT
ATOM      1  N   UNL d   1      -4.464  -0.417   0.345  0.00  0.00    -0.197 NA
ATOM      2  C   UNL d   1      -3.336  -0.131   0.316  0.00  0.00     0.060 C 
ATOM      3  C   UNL d   1      -1.911   0.214   0.269  0.00  0.00     0.143 C 
ENDROOT
BRANCH   3   4
ATOM      4  C   UNL d   1      -1.092  -0.756   1.130  0.00  0.00     0.139 C 
BRANCH   4   5
ATOM      5  N   UNL d   1       0.341  -0.882   0.802  0.00  0.00    -0.357 N 
BRANCH   5   6
ATOM      6  C   UNL d   1       1.120   0.129   0.255  0.00  0.00     0.174 C 
ATOM      7  S   UNL d   1       1.131   1.717   0.786  0.00  0.00    -0.041 SA
BRANCH   6   8
ATOM      8  N   UNL d   1       2.036  -0.252  -0.695  0.00  0.00    -0.333 N 
ATOM      9  H   UNL d   1       2.817   0.382  -0.820  0.00  0.00     0.168 HD
BRANCH   8  10
ATOM     10  C   UNL d   1       1.892  -1.254  -1.684  0.00  0.00     0.034 A 
ATOM     11  C   UNL d   1       0.655  -1.810  -2.022  0.00  0.00     0.030 A 
ATOM     12  C   UNL d   1       0.548  -2.759  -3.038  0.00  0.00     0.009 A 
ATOM     13  C   UNL d   1       1.682  -3.177  -3.733  0.00  0.00    -0.062 A 
ATOM     14  C   UNL d   1       2.924  -2.624  -3.400  0.00  0.00     0.009 A 
ATOM     15  C   UNL d   1       1.542  -4.195  -4.825  0.00  0.00     0.048 C 
ATOM     16  C   UNL d   1       3.025  -1.656  -2.392  0.00  0.00     0.030 A 
ENDBRANCH   8  10
ENDBRANCH   6   8
ENDBRANCH   5   6
BRANCH   5  17
ATOM     17  C   UNL d   1       1.058  -2.005   1.457  0.00  0.00     0.131 C 
BRANCH  17  18
ATOM     18  C   UNL d   1       1.855  -1.574   2.703  0.00  0.00     0.077 C 
BRANCH  18  19
ATOM     19  C   UNL d   1       2.625  -2.699   3.357  0.00  0.00     0.010 A 
ATOM     20  N   UNL d   1       2.476  -3.952   2.868  0.00  0.00    -0.369 N 
ATOM     21  C   UNL d   1       3.188  -4.944   3.449  0.00  0.00     0.088 A 
ATOM     22  HN  UNL d   1       1.848  -4.142   2.087  1.00  0.00     0.165 HD
ATOM     23  C   UNL d   1       4.048  -4.751   4.514  0.00  0.00     0.017 A 
ATOM     24  C   UNL d   1       4.186  -3.463   5.016  0.00  0.00     0.003 A 
ATOM     25  C   UNL d   1       3.468  -2.421   4.433  0.00  0.00     0.025 A 
ENDBRANCH  18  19
ENDBRANCH  17  18
ENDBRANCH   5  17
ENDBRANCH   4   5
ENDBRANCH   3   4
TORSDOF 8
