REMARK  8 active torsions:
REMARK  status: ('A' for Active; 'I' for Inactive)
REMARK    1  A    between atoms: S_2  and  C_1 
REMARK    2  A    between atoms: C_8  and  C_1 
REMARK    3  A    between atoms: C_4  and  S_2 
REMARK    4  A    between atoms: C_3  and  C_4 
REMARK    5  A    between atoms: C_5  and  C_3 
REMARK    6  A    between atoms: C_6  and  C_4 
REMARK    7  A    between atoms: C_10  and  C_5 
REMARK    8  A    between atoms: O_16  and  C_13 
ROOT
ATOM      1  C   UNL d   1       1.048  -2.875   0.127  0.00  0.00     0.095 C 
ENDROOT
BRANCH   1   2
ATOM      2  C   UNL d   1       1.886  -2.853   1.418  0.00  0.00     0.104 C 
BRANCH   2   3
ATOM      3  C   UNL d   1       1.100  -2.697   2.711  0.00  0.00     0.161 C 
ATOM      4  O   UNL d   1       0.509  -3.657   3.205  0.00  0.00    -0.292 OA
BRANCH   3   5
ATOM      5  C   UNL d   1       1.057  -1.388   3.434  0.00  0.00     0.010 A 
ATOM      6  C   UNL d   1       1.680  -0.226   2.967  0.00  0.00     0.015 A 
ATOM      7  C   UNL d   1       1.591   0.967   3.693  0.00  0.00     0.001 A 
ATOM      8  C   UNL d   1       0.896   1.004   4.899  0.00  0.00     0.000 A 
ATOM      9  C   UNL d   1       0.283  -0.148   5.382  0.00  0.00     0.001 A 
ATOM     10  C   UNL d   1       0.359  -1.336   4.651  0.00  0.00     0.015 A 
ENDBRANCH   3   5
ENDBRANCH   2   3
ENDBRANCH   1   2
BRANCH   1  11
ATOM     11  S   UNL d   1       0.016  -1.373  -0.166  0.00  0.00    -0.077 SA
BRANCH  11  12
ATOM     12  C   UNL d   1       1.225  -0.192  -0.647  0.00  0.00     0.219 C 
ATOM     13  O   UNL d   1       2.421  -0.417  -0.491  0.00  0.00    -0.280 OA
BRANCH  12  14
ATOM     14  C   UNL d   1       0.766   1.121  -1.202  0.00  0.00     0.021 A 
ATOM     15  C   UNL d   1       1.719   2.147  -1.321  0.00  0.00     0.016 A 
ATOM     16  C   UNL d   1       1.376   3.386  -1.870  0.00  0.00     0.001 A 
ATOM     17  C   UNL d   1       0.075   3.615  -2.310  0.00  0.00     0.000 A 
ATOM     18  C   UNL d   1      -0.884   2.611  -2.187  0.00  0.00     0.001 A 
ATOM     19  C   UNL d   1      -0.545   1.371  -1.634  0.00  0.00     0.016 A 
ENDBRANCH  12  14
ENDBRANCH  11  12
ENDBRANCH   1  11
BRANCH   1  20
ATOM     20  C   UNL d   1       0.220  -4.157   0.011  0.00  0.00    -0.043 A 
ATOM     21  C   UNL d   1      -1.057  -4.282   0.582  0.00  0.00     0.011 A 
ATOM     22  C   UNL d   1      -1.791  -5.470   0.479  0.00  0.00     0.037 A 
ATOM     23  C   UNL d   1      -1.255  -6.569  -0.187  0.00  0.00     0.068 A 
ATOM     24  C   UNL d   1       0.016  -6.466  -0.750  0.00  0.00     0.037 A 
ATOM     25  C   UNL d   1       0.753  -5.279  -0.646  0.00  0.00     0.011 A 
BRANCH  23  26
ATOM     26  O   UNL d   1      -1.883  -7.770  -0.370  0.00  0.00    -0.356 OA
ATOM     27  C   UNL d   1      -2.930  -8.073   0.545  0.00  0.00     0.210 C 
ENDBRANCH  23  26
ENDBRANCH   1  20
TORSDOF 8
