REMARK  3 active torsions:
REMARK  status: ('A' for Active; 'I' for Inactive)
REMARK    1  A    between atoms: C_7  and  C_1 
REMARK    2  A    between atoms: N_2  and  C_10 
REMARK    3  A    between atoms: C_15  and  N_8 
ROOT
ATOM      1  C   UNL d   1       3.602   0.181   0.013  0.00  0.00     0.107 C 
ATOM      2  N   UNL d   1       4.257   1.292   0.061  0.00  0.00    -0.365 N 
ATOM      3  HN  UNL d   1       3.746   2.166   0.186  1.00  0.00     0.165 HD
ENDROOT
BRANCH   1   4
ATOM      4  C   UNL d   1       2.154   0.173   0.041  0.00  0.00     0.027 A 
ATOM      5  S   UNL d   1       1.382  -1.352   0.039  0.00  0.00    -0.088 SA
ATOM      6  C   UNL d   1      -0.188  -0.661   0.028  0.00  0.00     0.016 A 
ATOM      7  C   UNL d   1      -1.420  -1.345   0.024  0.00  0.00     0.019 A 
ATOM      8  C   UNL d   1      -0.124   0.732   0.023  0.00  0.00    -0.012 A 
ATOM      9  C   UNL d   1      -2.606  -0.607   0.007  0.00  0.00     0.001 A 
ATOM     10  C   UNL d   1      -2.572   0.780  -0.009  0.00  0.00     0.001 A 
ATOM     11  C   UNL d   1      -1.348   1.450  -0.002  0.00  0.00     0.013 A 
ATOM     12  C   UNL d   1       1.242   1.219   0.046  0.00  0.00    -0.032 A 
ATOM     13  C   UNL d   1       1.548   2.686   0.060  0.00  0.00     0.050 C 
ENDBRANCH   1   4
BRANCH   2  14
ATOM     14  C   UNL d   1       5.650   1.327  -0.052  0.00  0.00     0.032 A 
ATOM     15  C   UNL d   1       6.202   2.472  -0.644  0.00  0.00     0.032 A 
ATOM     16  C   UNL d   1       7.581   2.607  -0.813  0.00  0.00     0.038 A 
ATOM     17  C   UNL d   1       8.423   1.582  -0.376  0.00  0.00     0.103 A 
ATOM     18  C   UNL d   1       7.894   0.441   0.242  0.00  0.00     0.038 A 
ATOM     19  C   UNL d   1       6.510   0.326   0.411  0.00  0.00     0.032 A 
BRANCH  17  20
ATOM     20  N   UNL d   1       9.875   1.696  -0.563  0.00  0.00    -0.116 N 
ATOM     21  O   UNL d   1      10.304   2.718  -1.116  0.00  0.00    -0.532 OA
ATOM     22  O   UNL d   1      10.581   0.764  -0.160  0.00  0.00    -0.532 OA
ENDBRANCH  17  20
ENDBRANCH   2  14
TORSDOF 3
