REMARK  6 active torsions:
REMARK  status: ('A' for Active; 'I' for Inactive)
REMARK    1  A    between atoms: C_3  and  S_1 
REMARK    2  A    between atoms: N_4  and  S_1 
REMARK    3  A    between atoms: S_2  and  N_5 
REMARK    4  A    between atoms: C_12  and  S_2 
REMARK    5  A    between atoms: C_7  and  N_4 
REMARK    6  A    between atoms: N_5  and  C_8 
ROOT
ATOM      1  C   UNL d   1       0.966  -2.247  -1.506  0.00  0.00     0.070 A 
ATOM      2  C   UNL d   1      -0.102  -2.961  -2.081  0.00  0.00     0.070 A 
ATOM      3  C   UNL d   1       2.211  -2.232  -2.145  0.00  0.00     0.039 A 
ATOM      4  C   UNL d   1       0.097  -3.640  -3.285  0.00  0.00     0.033 A 
ATOM      5  C   UNL d   1       2.410  -2.921  -3.346  0.00  0.00    -0.060 A 
ATOM      6  C   UNL d   1       1.337  -3.608  -3.921  0.00  0.00     0.009 A 
ATOM      7  C   UNL d   1       3.740  -2.891  -4.035  0.00  0.00     0.048 C 
ENDROOT
BRANCH   1   8
ATOM      8  N   UNL d   1       0.849  -1.379  -0.387  0.00  0.00    -0.278 N 
ATOM      9  H   UNL d   1       0.369  -0.489  -0.534  0.00  0.00     0.179 HD
BRANCH   8  10
ATOM     10  S   UNL d   1       0.794  -1.927   1.184  0.00  0.00     0.265 S 
ATOM     11  O   UNL d   1       0.478  -0.763   1.986  0.00  0.00    -0.200 OA
ATOM     12  O   UNL d   1      -0.043  -3.107   1.267  0.00  0.00    -0.200 OA
BRANCH  10  13
ATOM     13  C   UNL d   1       2.491  -2.327   1.581  0.00  0.00     0.103 A 
ATOM     14  C   UNL d   1       3.320  -1.269   2.013  0.00  0.00     0.052 A 
ATOM     15  C   UNL d   1       4.592  -1.525   2.537  0.00  0.00     0.057 A 
ATOM     16 CL   UNL d   1       5.553  -0.173   3.032  0.00  0.00    -0.083 Cl
ATOM     17  C   UNL d   1       5.043  -2.838   2.658  0.00  0.00     0.057 A 
ATOM     18  C   UNL d   1       4.237  -3.885   2.204  0.00  0.00     0.051 A 
ATOM     19 CL   UNL d   1       6.569  -3.243   3.358  0.00  0.00    -0.082 Cl
ATOM     20  C   UNL d   1       2.968  -3.637   1.651  0.00  0.00     0.059 A 
ATOM     21 CL   UNL d   1       2.133  -5.017   1.046  0.00  0.00    -0.083 Cl
ENDBRANCH  10  13
ENDBRANCH   8  10
ENDBRANCH   1   8
BRANCH   2  22
ATOM     22  N   UNL d   1      -1.379  -3.099  -1.480  0.00  0.00    -0.278 N 
ATOM     23  H   UNL d   1      -1.504  -3.758  -0.709  0.00  0.00     0.179 HD
BRANCH  22  24
ATOM     24  S   UNL d   1      -2.642  -2.061  -1.805  0.00  0.00     0.263 S 
ATOM     25  O   UNL d   1      -3.781  -2.542  -1.049  0.00  0.00    -0.200 OA
ATOM     26  O   UNL d   1      -2.157  -0.704  -1.649  0.00  0.00    -0.200 OA
BRANCH  24  27
ATOM     27  C   UNL d   1      -3.019  -2.321  -3.534  0.00  0.00     0.079 A 
ATOM     28  C   UNL d   1      -3.844  -3.379  -3.932  0.00  0.00     0.026 A 
ATOM     29  C   UNL d   1      -4.192  -3.515  -5.284  0.00  0.00     0.008 A 
ATOM     30  C   UNL d   1      -3.740  -2.591  -6.237  0.00  0.00    -0.062 A 
ATOM     31  C   UNL d   1      -2.923  -1.532  -5.821  0.00  0.00     0.008 A 
ATOM     32  C   UNL d   1      -4.137  -2.732  -7.680  0.00  0.00     0.048 C 
ATOM     33  C   UNL d   1      -2.569  -1.393  -4.476  0.00  0.00     0.026 A 
ENDBRANCH  24  27
ENDBRANCH  22  24
ENDBRANCH   2  22
TORSDOF 6
