REMARK  2 active torsions:
REMARK  status: ('A' for Active; 'I' for Inactive)
REMARK    1  A    between atoms: C_8  and  C_4 
REMARK    2  A    between atoms: N_14  and  C_12 
ROOT
ATOM      1  C   UNL d   1       0.304  -0.217  -0.575  0.00  0.00     0.147 A 
ATOM      2  N   UNL d   1       1.416  -0.765  -0.972  0.00  0.00    -0.335 N 
ATOM      3  HN  UNL d   1       1.569  -1.354  -1.790  1.00  0.00     0.168 HD
ATOM      4  C   UNL d   1       2.348  -0.359  -0.020  0.00  0.00     0.060 A 
ATOM      5  N   UNL d   1       0.455   0.508   0.557  0.00  0.00    -0.335 N 
ATOM      6  C   UNL d   1       1.748   0.439   0.948  0.00  0.00     0.123 A 
ATOM      7  S   UNL d   1      -1.300  -0.180  -1.186  0.00  0.00    -0.092 SA
ATOM      8  C   UNL d   1      -0.718   1.136   1.114  0.00  0.00     0.141 C 
ATOM      9  C   UNL d   1      -1.778   1.137   0.007  0.00  0.00     0.102 C 
ENDROOT
BRANCH   4  10
ATOM     10  C   UNL d   1       3.754  -0.737  -0.074  0.00  0.00    -0.008 A 
ATOM     11  C   UNL d   1       4.225  -1.507  -1.145  0.00  0.00     0.015 A 
ATOM     12  C   UNL d   1       5.575  -1.868  -1.231  0.00  0.00     0.024 A 
ATOM     13  C   UNL d   1       6.476  -1.508  -0.227  0.00  0.00     0.005 A 
ATOM     14  C   UNL d   1       6.021  -0.696   0.812  0.00  0.00     0.024 A 
ATOM     15  C   UNL d   1       4.672  -0.332   0.902  0.00  0.00     0.015 A 
BRANCH  13  16
ATOM     16  N   UNL d   1       7.845  -1.755  -0.381  0.00  0.00    -0.303 NA
ATOM     17  H   UNL d   1       8.361  -1.754   0.492  0.00  0.00     0.124 HD
ATOM     18  H   UNL d   1       8.049  -2.572  -0.948  0.00  0.00     0.124 HD
ENDBRANCH  13  16
ENDBRANCH   4  10
TORSDOF 2
