REMARK  6 active torsions:
REMARK  status: ('A' for Active; 'I' for Inactive)
REMARK    1  A    between atoms: S_11  and  C_2 
REMARK    2  A    between atoms: C_6  and  C_3 
REMARK    3  A    between atoms: C_14  and  S_11 
REMARK    4  A    between atoms: C_17  and  C_12 
REMARK    5  A    between atoms: C_13  and  C_14 
REMARK    6  A    between atoms: C_16  and  C_13 
ROOT
ATOM      1  C   UNL d   1      -0.504  -5.176   0.440  0.00  0.00     0.088 A 
ATOM      2  C   UNL d   1      -1.758  -5.805   0.328  0.00  0.00     0.092 A 
ATOM      3  C   UNL d   1      -0.426  -3.777   0.295  0.00  0.00    -0.004 A 
ATOM      4  N   UNL d   1      -2.924  -5.120   0.168  0.00  0.00    -0.352 N 
ATOM      5  HN  UNL d   1      -3.826  -5.592   0.107  1.00  0.00     0.166 HD
ATOM      6  C   UNL d   1      -1.615  -3.082   0.142  0.00  0.00    -0.024 A 
ATOM      7  C   UNL d   1      -2.812  -3.786   0.095  0.00  0.00     0.017 A 
ATOM      8  C   UNL d   1       0.672  -5.931   0.764  0.00  0.00     0.103 C 
ATOM      9  N   UNL d   1       1.633  -6.507   1.072  0.00  0.00    -0.191 NA
ATOM     10  C   UNL d   1      -1.861  -1.614  -0.007  0.00  0.00     0.042 C 
ATOM     11  C   UNL d   1      -3.980  -2.850  -0.053  0.00  0.00     0.058 C 
ATOM     12  C   UNL d   1      -3.343  -1.526   0.387  0.00  0.00     0.011 C 
ENDROOT
BRANCH   2  13
ATOM     13  S   UNL d   1      -1.932  -7.583   0.488  0.00  0.00    -0.103 SA
BRANCH  13  14
ATOM     14  C   UNL d   1      -3.312  -7.899  -0.656  0.00  0.00     0.164 C 
BRANCH  14  15
ATOM     15  C   UNL d   1      -2.963  -7.666  -2.119  0.00  0.00     0.169 C 
ATOM     16  O   UNL d   1      -1.911  -7.149  -2.498  0.00  0.00    -0.291 OA
BRANCH  15  17
ATOM     17  C   UNL d   1      -3.961  -8.099  -3.155  0.00  0.00     0.010 A 
ATOM     18  C   UNL d   1      -5.136  -8.787  -2.824  0.00  0.00     0.015 A 
ATOM     19  C   UNL d   1      -6.020  -9.197  -3.830  0.00  0.00     0.001 A 
ATOM     20  C   UNL d   1      -5.742  -8.918  -5.166  0.00  0.00     0.000 A 
ATOM     21  C   UNL d   1      -4.580  -8.228  -5.502  0.00  0.00     0.001 A 
ATOM     22  C   UNL d   1      -3.693  -7.822  -4.502  0.00  0.00     0.015 A 
ENDBRANCH  15  17
ENDBRANCH  14  15
ENDBRANCH  13  14
ENDBRANCH   2  13
BRANCH   3  23
ATOM     23  C   UNL d   1       0.847  -3.042   0.303  0.00  0.00     0.014 C 
ATOM     24  C   UNL d   1       1.665  -2.920  -0.756  0.00  0.00     0.012 C 
BRANCH  24  25
ATOM     25  C   UNL d   1       1.424  -3.500  -2.080  0.00  0.00    -0.036 A 
ATOM     26  C   UNL d   1       0.743  -2.767  -3.058  0.00  0.00     0.011 A 
ATOM     27  C   UNL d   1       0.495  -3.331  -4.312  0.00  0.00     0.001 A 
ATOM     28  C   UNL d   1       0.920  -4.630  -4.590  0.00  0.00     0.000 A 
ATOM     29  C   UNL d   1       1.602  -5.362  -3.621  0.00  0.00     0.001 A 
ATOM     30  C   UNL d   1       1.861  -4.796  -2.372  0.00  0.00     0.011 A 
ENDBRANCH  24  25
ENDBRANCH   3  23
TORSDOF 6
