REMARK  1 active torsions:
REMARK  status: ('A' for Active; 'I' for Inactive)
REMARK    1  A    between atoms: O_12  and  C_3 
ROOT
ATOM      1  C   UNL d   1       0.003  -0.780  -0.001  0.00  0.00     0.046 A 
ATOM      2  C   UNL d   1       0.042   0.636  -0.004  0.00  0.00     0.053 A 
ATOM      3  C   UNL d   1       1.267  -1.425  -0.002  0.00  0.00     0.081 A 
ATOM      4  N   UNL d   1       1.206   1.320  -0.006  0.00  0.00    -0.359 N 
ATOM      5  HN  UNL d   1       1.194   2.340  -0.007  1.00  0.00     0.166 HD
ATOM      6  C   UNL d   1       2.457  -0.713  -0.005  0.00  0.00     0.062 A 
ATOM      7  C   UNL d   1      -1.275  -1.413   0.001  0.00  0.00     0.049 A 
ATOM      8  C   UNL d   1       2.387   0.662  -0.008  0.00  0.00     0.008 A 
ATOM      9  C   UNL d   1      -1.162   1.359  -0.003  0.00  0.00    -0.034 A 
ATOM     10  C   UNL d   1      -2.460  -0.678   0.001  0.00  0.00     0.025 A 
ATOM     11  C   UNL d   1      -2.403   0.704  -0.001  0.00  0.00     0.011 A 
ATOM     12 CL   UNL d   1      -1.465  -3.139   0.004  0.00  0.00    -0.083 Cl
ATOM     13  C   UNL d   1      -1.183   2.868  -0.005  0.00  0.00     0.050 C 
ATOM     14  C   UNL d   1       3.631   1.496  -0.012  0.00  0.00     0.068 C 
ENDROOT
BRANCH   3  15
ATOM     15  O   UNL d   1       1.435  -2.787   0.001  0.00  0.00    -0.360 OA
ATOM     16  H   UNL d   1       0.560  -3.214   0.004  0.00  0.00     0.217 HD
ENDBRANCH   3  15
TORSDOF 1
