REMARK  7 active torsions:
REMARK  status: ('A' for Active; 'I' for Inactive)
REMARK    1  A    between atoms: N_2  and  C_1 
REMARK    2  A    between atoms: N_5  and  C_1 
REMARK    3  A    between atoms: C_3  and  N_2 
REMARK    4  A    between atoms: N_8  and  N_5 
REMARK    5  A    between atoms: C_9  and  N_5 
REMARK    6  A    between atoms: C_16  and  C_9 
REMARK    7  A    between atoms: O_13  and  C_16 
ROOT
ATOM      1  C   UNL d   1       1.060  -0.341  -0.205  0.00  0.00     0.189 C 
ATOM      2  S   UNL d   1       2.318  -1.204  -0.929  0.00  0.00    -0.039 SA
ENDROOT
BRANCH   1   3
ATOM      3  N   UNL d   1       0.508  -0.644   1.031  0.00  0.00    -0.332 N 
ATOM      4  H   UNL d   1      -0.510  -0.570   1.047  0.00  0.00     0.168 HD
BRANCH   3   5
ATOM      5  C   UNL d   1       1.130  -1.256   2.142  0.00  0.00     0.042 A 
ATOM      6  C   UNL d   1       0.410  -2.120   2.996  0.00  0.00    -0.013 A 
ATOM      7  C   UNL d   1       1.048  -2.580   4.170  0.00  0.00     0.042 A 
ATOM      8  C   UNL d   1      -0.981  -2.599   2.672  0.00  0.00     0.052 C 
ATOM      9 CL   UNL d   1       0.241  -3.622   5.295  0.00  0.00    -0.084 Cl
ATOM     10  C   UNL d   1       2.360  -2.205   4.481  0.00  0.00     0.024 A 
ATOM     11  C   UNL d   1       3.062  -1.369   3.625  0.00  0.00     0.004 A 
ATOM     12  C   UNL d   1       2.448  -0.897   2.467  0.00  0.00     0.030 A 
ENDBRANCH   3   5
ENDBRANCH   1   3
BRANCH   1  13
ATOM     13  N   UNL d   1       0.415   0.740  -0.849  0.00  0.00    -0.289 N 
BRANCH  13  14
ATOM     14  N   UNL d   1       0.657   1.003  -2.230  0.00  0.00    -0.245 NA
ATOM     15  H   UNL d   1       0.902   0.104  -2.662  0.00  0.00     0.143 HD
ATOM     16  H   UNL d   1       1.528   1.540  -2.282  0.00  0.00     0.143 HD
ENDBRANCH  13  14
BRANCH  13  17
ATOM     17  C   UNL d   1      -0.416   1.736  -0.151  0.00  0.00     0.171 C 
BRANCH  17  18
ATOM     18  C   UNL d   1      -1.899   1.373  -0.154  0.00  0.00     0.185 C 
BRANCH  18  19
ATOM     19  O   UNL d   1      -2.147   0.231   0.672  0.00  0.00    -0.399 OA
ATOM     20  H   UNL d   1      -3.101   0.048   0.596  0.00  0.00     0.209 HD
ENDBRANCH  18  19
ENDBRANCH  17  18
ENDBRANCH  13  17
ENDBRANCH   1  13
TORSDOF 7
