REMARK  8 active torsions:
REMARK  status: ('A' for Active; 'I' for Inactive)
REMARK    1  A    between atoms: N_2  and  C_1 
REMARK    2  A    between atoms: C_3  and  C_1 
REMARK    3  A    between atoms: N_4  and  C_1 
REMARK    4  A    between atoms: C_6  and  C_1 
REMARK       I    between atoms: C_5  and  N_2 
REMARK    5  A    between atoms: C_8  and  N_4 
REMARK    6  A    between atoms: C_7  and  C_5 
REMARK    7  A    between atoms: O_23  and  C_6 
REMARK    8  A    between atoms: C_26  and  O_23 
ROOT
ATOM      1  C   UNL d   1       1.122   0.100  -0.032  0.00  0.00     0.297 C 
ENDROOT
BRANCH   1   2
ATOM      2  N   UNL d   1       0.736  -0.583   1.198  0.00  0.00    -0.313 N 
ATOM      3  C   UNL d   1      -0.558  -0.710   1.629  0.00  0.00     0.277 C 
ATOM      4  O   UNL d   1      -1.504  -0.181   1.061  0.00  0.00    -0.265 OA
ATOM      5  H   UNL d   1       1.445  -1.130   1.673  0.00  0.00     0.166 HD
BRANCH   3   6
ATOM      6  C   UNL d   1      -0.681  -1.522   2.825  0.00  0.00     0.142 A 
ATOM      7  O   UNL d   1       0.451  -2.067   3.381  0.00  0.00    -0.317 OA
ATOM      8  C   UNL d   1       0.065  -2.752   4.487  0.00  0.00     0.143 A 
ATOM      9  C   UNL d   1      -1.295  -2.664   4.658  0.00  0.00     0.027 A 
ATOM     10  C   UNL d   1      -1.779  -1.880   3.583  0.00  0.00     0.045 A 
ENDBRANCH   3   6
ENDBRANCH   1   2
BRANCH   1  11
ATOM     11  C   UNL d   1       0.669   1.617  -0.081  0.00  0.00     0.442 C 
ATOM     12  F   UNL d   1       0.049   2.022   1.054  0.00  0.00    -0.166 F 
ATOM     13  F   UNL d   1       1.703   2.484  -0.253  0.00  0.00    -0.166 F 
ATOM     14  F   UNL d   1      -0.183   1.847  -1.115  0.00  0.00    -0.166 F 
ENDBRANCH   1  11
BRANCH   1  15
ATOM     15  N   UNL d   1       0.579  -0.715  -1.161  0.00  0.00    -0.345 N 
ATOM     16  H   UNL d   1       0.391  -0.134  -1.977  0.00  0.00     0.163 HD
BRANCH  15  17
ATOM     17  C   UNL d   1       0.974  -2.009  -1.503  0.00  0.00     0.069 A 
ATOM     18  C   UNL d   1       1.797  -2.853  -0.732  0.00  0.00     0.145 A 
ATOM     19  C   UNL d   1       2.078  -4.166  -1.106  0.00  0.00     0.086 A 
ATOM     20  F   UNL d   1       2.368  -2.414   0.400  0.00  0.00    -0.204 F 
ATOM     21  C   UNL d   1       1.512  -4.672  -2.262  0.00  0.00     0.119 A 
ATOM     22  C   UNL d   1       0.668  -3.889  -3.039  0.00  0.00     0.044 A 
ATOM     23  F   UNL d   1       1.772  -5.933  -2.629  0.00  0.00    -0.206 F 
ATOM     24  C   UNL d   1       0.397  -2.573  -2.653  0.00  0.00     0.035 A 
ENDBRANCH  15  17
ENDBRANCH   1  15
BRANCH   1  25
ATOM     25  C   UNL d   1       2.659   0.237  -0.166  0.00  0.00     0.318 C 
ATOM     26  O   UNL d   1       3.256   0.360  -1.231  0.00  0.00    -0.260 OA
BRANCH  25  27
ATOM     27  O   UNL d   1       3.259   0.294   1.064  0.00  0.00    -0.318 OA
BRANCH  27  28
ATOM     28  C   UNL d   1       4.679   0.501   1.050  0.00  0.00     0.174 C 
ATOM     29  C   UNL d   1       5.009   1.959   0.783  0.00  0.00     0.034 C 
ENDBRANCH  27  28
ENDBRANCH  25  27
ENDBRANCH   1  25
TORSDOF 8
