REMARK  3 active torsions:
REMARK  status: ('A' for Active; 'I' for Inactive)
REMARK    1  A    between atoms: C_6  and  N_1 
REMARK    2  A    between atoms: N_9  and  C_6 
REMARK    3  A    between atoms: C_11  and  N_9 
ROOT
ATOM      1  N   UNL d   1       1.935   0.096  -0.146  0.00  0.00    -0.267 N 
ATOM      2  C   UNL d   1       1.206   0.178   1.006  0.00  0.00     0.262 A 
ATOM      3  C   UNL d   1       1.136   0.011  -1.251  0.00  0.00     0.262 A 
ATOM      4  C   UNL d   1      -0.199   0.226   0.605  0.00  0.00     0.048 A 
ATOM      5  C   UNL d   1      -0.240   0.134  -0.774  0.00  0.00     0.048 A 
ATOM      6  O   UNL d   1       1.590   0.199   2.159  0.00  0.00    -0.267 OA
ATOM      7  O   UNL d   1       1.433  -0.171  -2.414  0.00  0.00    -0.267 OA
ATOM      8  C   UNL d   1      -1.350   0.339   1.361  0.00  0.00     0.018 A 
ATOM      9  C   UNL d   1      -1.428   0.151  -1.478  0.00  0.00     0.018 A 
ATOM     10  C   UNL d   1      -2.568   0.365   0.672  0.00  0.00     0.001 A 
ATOM     11  C   UNL d   1      -2.607   0.272  -0.735  0.00  0.00     0.001 A 
ENDROOT
BRANCH   1  12
ATOM     12  C   UNL d   1       3.368  -0.000  -0.195  0.00  0.00     0.230 C 
BRANCH  12  13
ATOM     13  N   UNL d   1       3.893   1.354  -0.282  0.00  0.00    -0.276 NA
ATOM     14  H   UNL d   1       3.471   1.946   0.427  0.00  0.00     0.129 HD
BRANCH  13  15
ATOM     15  C   UNL d   1       5.285   1.526  -0.336  0.00  0.00     0.011 A 
ATOM     16  C   UNL d   1       6.147   0.636  -0.990  0.00  0.00     0.047 A 
ATOM     17  C   UNL d   1       7.516   0.906  -1.085  0.00  0.00     0.035 A 
ATOM     18 CL   UNL d   1       8.553  -0.212  -1.886  0.00  0.00    -0.084 Cl
ATOM     19  C   UNL d   1       8.050   2.075  -0.552  0.00  0.00     0.024 A 
ATOM     20  C   UNL d   1       7.204   2.988   0.070  0.00  0.00     0.003 A 
ATOM     21  C   UNL d   1       5.834   2.720   0.159  0.00  0.00     0.023 A 
ENDBRANCH  13  15
ENDBRANCH  12  13
ENDBRANCH   1  12
TORSDOF 3
