REMARK  3 active torsions:
REMARK  status: ('A' for Active; 'I' for Inactive)
REMARK    1  A    between atoms: N_2  and  S_1 
REMARK    2  A    between atoms: C_3  and  S_1 
REMARK    3  A    between atoms: C_8  and  N_2 
ROOT
ATOM      1  S   UNL d   1       1.108   0.028  -0.115  0.00  0.00     0.263 S 
ATOM      2  O   UNL d   1       0.492   0.789  -1.178  0.00  0.00    -0.200 OA
ATOM      3  O   UNL d   1       2.546  -0.053   0.025  0.00  0.00    -0.200 OA
ENDROOT
BRANCH   1   4
ATOM      4  N   UNL d   1       0.549  -1.571  -0.166  0.00  0.00    -0.281 N 
ATOM      5  H   UNL d   1       1.136  -2.197   0.382  0.00  0.00     0.179 HD
BRANCH   4   6
ATOM      6  C   UNL d   1      -0.853  -1.798  -0.173  0.00  0.00     0.045 A 
ATOM      7  C   UNL d   1      -1.505  -2.156   1.006  0.00  0.00     0.075 A 
ATOM      8  C   UNL d   1      -2.890  -2.294   0.999  0.00  0.00     0.157 A 
ATOM      9  F   UNL d   1      -3.520  -2.612   2.137  0.00  0.00    -0.203 F 
ATOM     10  C   UNL d   1      -3.618  -2.090  -0.170  0.00  0.00     0.154 A 
ATOM     11  C   UNL d   1      -2.969  -1.740  -1.349  0.00  0.00     0.048 A 
ATOM     12  F   UNL d   1      -4.951  -2.221  -0.165  0.00  0.00    -0.203 F 
ATOM     13  C   UNL d   1      -1.582  -1.584  -1.348  0.00  0.00     0.033 A 
ENDBRANCH   4   6
ENDBRANCH   1   4
BRANCH   1  14
ATOM     14  C   UNL d   1       0.460   0.622   1.436  0.00  0.00     0.080 A 
ATOM     15  C   UNL d   1       1.214   0.455   2.605  0.00  0.00     0.028 A 
ATOM     16  C   UNL d   1       0.712   0.928   3.818  0.00  0.00     0.044 A 
ATOM     17  C   UNL d   1      -0.525   1.565   3.849  0.00  0.00     0.116 A 
ATOM     18  C   UNL d   1      -1.271   1.747   2.688  0.00  0.00     0.044 A 
ATOM     19  F   UNL d   1      -1.003   2.016   5.016  0.00  0.00    -0.206 F 
ATOM     20  C   UNL d   1      -0.774   1.283   1.468  0.00  0.00     0.028 A 
ENDBRANCH   1  14
TORSDOF 3
