REMARK  8 active torsions:
REMARK  status: ('A' for Active; 'I' for Inactive)
REMARK    1  A    between atoms: O_8  and  C_1 
REMARK       I    between atoms: N_13  and  C_1 
REMARK    2  A    between atoms: C_2  and  C_3 
REMARK    3  A    between atoms: C_4  and  C_2 
REMARK    4  A    between atoms: N_14  and  C_3 
REMARK    5  A    between atoms: N_5  and  O_8 
REMARK    6  A    between atoms: C_15  and  N_13 
REMARK    7  A    between atoms: C_16  and  C_15 
REMARK    8  A    between atoms: C_17  and  C_16 
ROOT
ATOM      1  C   UNL d   1       0.475   0.637   3.533  0.00  0.00     0.080 C 
ATOM      2  N   UNL d   1       1.052   0.469   2.377  0.00  0.00    -0.249 N 
ATOM      3  HN  UNL d   1       0.569   0.398   1.481  1.00  0.00     0.196 HD
ENDROOT
BRANCH   2   4
ATOM      4  O   UNL d   1       2.461   0.401   2.560  0.00  0.00    -0.180 OA
BRANCH   4   5
ATOM      5  C   UNL d   1       3.143   0.090   1.404  0.00  0.00     0.382 C 
ATOM      6  O   UNL d   1       4.345  -0.156   1.417  0.00  0.00    -0.236 OA
ATOM      7  N   UNL d   1       2.369   0.074   0.275  0.00  0.00    -0.335 N 
ATOM      8  H   UNL d   1       1.384   0.223   0.467  0.00  0.00     0.164 HD
BRANCH   7   9
ATOM      9  C   UNL d   1       2.829  -0.439  -0.992  0.00  0.00     0.125 C 
BRANCH   9  10
ATOM     10  C   UNL d   1       2.571  -1.940  -1.131  0.00  0.00     0.019 C 
BRANCH  10  11
ATOM     11  C   UNL d   1       1.075  -2.269  -1.126  0.00  0.00    -0.003 C 
ATOM     12  C   UNL d   1       0.823  -3.759  -1.285  0.00  0.00     0.005 C 
ENDBRANCH  10  11
ENDBRANCH   9  10
ENDBRANCH   7   9
ENDBRANCH   4   5
ENDBRANCH   2   4
BRANCH   1  13
ATOM     13  C   UNL d   1      -1.048   0.715   3.582  0.00  0.00     0.117 C 
BRANCH  13  14
ATOM     14  C   UNL d   1      -1.621  -0.636   3.895  0.00  0.00    -0.011 A 
ATOM     15  S   UNL d   1      -1.851  -1.131   5.521  0.00  0.00    -0.106 SA
ATOM     16  C   UNL d   1      -2.526  -2.627   5.039  0.00  0.00     0.050 A 
ATOM     17  C   UNL d   1      -2.576  -2.753   3.669  0.00  0.00     0.008 A 
ATOM     18  C   UNL d   1      -2.050  -1.605   3.008  0.00  0.00     0.015 A 
ENDBRANCH  13  14
ENDBRANCH   1  13
BRANCH   1  19
ATOM     19  N   UNL d   1       1.156   0.738   4.726  0.00  0.00    -0.290 NA
ATOM     20  H   UNL d   1       0.675   0.381   5.546  0.00  0.00     0.125 HD
ATOM     21  H   UNL d   1       2.120   0.426   4.662  0.00  0.00     0.125 HD
ENDBRANCH   1  19
TORSDOF 8
