REMARK  4 active torsions:
REMARK  status: ('A' for Active; 'I' for Inactive)
REMARK       I    between atoms: N_3  and  C_1 
REMARK       I    between atoms: N_4  and  C_1 
REMARK    1  A    between atoms: C_11  and  N_3 
REMARK    2  A    between atoms: C_12  and  N_4 
REMARK    3  A    between atoms: C_6  and  C_7 
REMARK    4  A    between atoms: C_20  and  C_15 
ROOT
ATOM      1  N   UNL d   1      -6.454   0.514  -5.330  0.00  0.00    -0.197 NA
ATOM      2  C   UNL d   1      -6.526   0.669  -4.186  0.00  0.00     0.063 C 
ATOM      3  C   UNL d   1      -6.640   0.881  -2.730  0.00  0.00     0.162 C 
ENDROOT
BRANCH   3   4
ATOM      4  C   UNL d   1      -5.327   0.652  -2.026  0.00  0.00    -0.045 A 
ATOM      5  C   UNL d   1      -4.390   1.682  -1.865  0.00  0.00     0.010 A 
ATOM      6  C   UNL d   1      -3.121   1.420  -1.328  0.00  0.00     0.030 A 
ATOM      7  C   UNL d   1      -2.773   0.126  -0.934  0.00  0.00     0.036 A 
ATOM      8  C   UNL d   1      -3.734  -0.883  -1.052  0.00  0.00     0.030 A 
ATOM      9  C   UNL d   1      -4.993  -0.631  -1.594  0.00  0.00     0.010 A 
BRANCH   7  10
ATOM     10  N   UNL d   1      -1.462  -0.098  -0.443  0.00  0.00    -0.309 N 
ATOM     11  C   UNL d   1      -0.965  -1.327  -0.058  0.00  0.00     0.325 C 
ATOM     12  N   UNL d   1       0.318  -1.251   0.456  0.00  0.00    -0.309 N 
ATOM     13  O   UNL d   1      -1.599  -2.374  -0.125  0.00  0.00    -0.247 OA
ATOM     14  H   UNL d   1       0.687  -0.337   0.667  0.00  0.00     0.170 HD
ATOM     15  H   UNL d   1      -0.829   0.688  -0.449  0.00  0.00     0.170 HD
BRANCH  12  16
ATOM     16  C   UNL d   1       1.018  -2.364   0.977  0.00  0.00     0.036 A 
ATOM     17  C   UNL d   1       0.677  -3.688   0.688  0.00  0.00     0.030 A 
ATOM     18  C   UNL d   1       1.366  -4.757   1.261  0.00  0.00     0.010 A 
ATOM     19  C   UNL d   1       2.447  -4.542   2.122  0.00  0.00    -0.051 A 
ATOM     20  C   UNL d   1       2.781  -3.205   2.409  0.00  0.00     0.010 A 
ATOM     21  C   UNL d   1       2.088  -2.131   1.834  0.00  0.00     0.030 A 
BRANCH  19  22
ATOM     22  C   UNL d   1       3.228  -5.740   2.681  0.00  0.00    -0.024 C 
ATOM     23  C   UNL d   1       4.424  -5.304   3.551  0.00  0.00     0.019 C 
ATOM     24  C   UNL d   1       2.307  -6.633   3.538  0.00  0.00     0.019 C 
ATOM     25  C   UNL d   1       3.790  -6.592   1.519  0.00  0.00     0.019 C 
ENDBRANCH  19  22
ENDBRANCH  12  16
ENDBRANCH   7  10
ENDBRANCH   3   4
TORSDOF 4
