REMARK  2 active torsions:
REMARK  status: ('A' for Active; 'I' for Inactive)
REMARK       I    between atoms: N_2  and  C_1 
REMARK    1  A    between atoms: C_4  and  C_1 
REMARK    2  A    between atoms: C_7  and  N_3 
ROOT
ATOM      1  N   UNL d   1      -2.947 -10.291   0.425  0.00  0.00    -0.191 NA
ATOM      2  C   UNL d   1      -2.499  -9.230   0.279  0.00  0.00     0.099 C 
ATOM      3  C   UNL d   1      -0.834  -5.330  -0.241  0.00  0.00     0.030 A 
ATOM      4  C   UNL d   1      -1.533  -5.969  -1.274  0.00  0.00     0.031 A 
ATOM      5  C   UNL d   1      -0.723  -6.024   0.975  0.00  0.00     0.031 A 
ATOM      6  C   UNL d   1      -1.945  -7.919   0.105  0.00  0.00     0.044 A 
ATOM      7  C   UNL d   1      -1.268  -7.300   1.153  0.00  0.00     0.025 A 
ATOM      8  C   UNL d   1      -2.080  -7.250  -1.110  0.00  0.00     0.025 A 
ENDROOT
BRANCH   3   9
ATOM      9  N   UNL d   1      -0.301  -4.067  -0.378  0.00  0.00    -0.378 N 
ATOM     10  C   UNL d   1      -0.842  -3.055  -1.295  0.00  0.00     0.143 C 
ATOM     11  C   UNL d   1      -0.906  -1.679  -0.586  0.00  0.00     0.146 C 
ATOM     12  N   UNL d   1       0.352  -1.334   0.101  0.00  0.00    -0.343 N 
ATOM     13  C   UNL d   1       1.027  -0.113   0.039  0.00  0.00     0.277 C 
ATOM     14  C   UNL d   1       0.902  -2.400   0.950  0.00  0.00     0.146 C 
ATOM     15  O   UNL d   1       2.167  -0.017   0.500  0.00  0.00    -0.265 OA
ATOM     16  C   UNL d   1       1.015  -3.726   0.188  0.00  0.00     0.143 C 
BRANCH  13  17
ATOM     17  C   UNL d   1       0.395   1.036  -0.582  0.00  0.00     0.142 A 
ATOM     18  O   UNL d   1      -0.967   1.189  -0.594  0.00  0.00    -0.317 OA
ATOM     19  C   UNL d   1      -1.238   2.381  -1.186  0.00  0.00     0.143 A 
ATOM     20  C   UNL d   1      -0.075   3.019  -1.541  0.00  0.00     0.027 A 
ATOM     21  C   UNL d   1       0.977   2.163  -1.140  0.00  0.00     0.045 A 
ENDBRANCH  13  17
ENDBRANCH   3   9
TORSDOF 2
