REMARK  3 active torsions:
REMARK  status: ('A' for Active; 'I' for Inactive)
REMARK       I    between atoms: N_2  and  C_1 
REMARK    1  A    between atoms: C_4  and  C_1 
REMARK    2  A    between atoms: C_5  and  N_2 
REMARK    3  A    between atoms: C_7  and  C_5 
ROOT
ATOM      1  C   UNL d   1       1.188  -0.127   0.037  0.00  0.00     0.251 C 
ATOM      2  N   UNL d   1       0.332  -1.203  -0.068  0.00  0.00    -0.353 N 
ATOM      3  O   UNL d   1       2.400  -0.252   0.192  0.00  0.00    -0.268 OA
ATOM      4  H   UNL d   1      -0.665  -1.067  -0.134  0.00  0.00     0.163 HD
ENDROOT
BRANCH   2   5
ATOM      5  C   UNL d   1       0.823  -2.564   0.014  0.00  0.00     0.161 C 
BRANCH   5   6
ATOM      6  C   UNL d   1       1.014  -3.188  -1.347  0.00  0.00    -0.040 A 
ATOM      7  C   UNL d   1       1.965  -2.669  -2.241  0.00  0.00     0.010 A 
ATOM      8  C   UNL d   1       2.163  -3.255  -3.494  0.00  0.00     0.024 A 
ATOM      9  C   UNL d   1       1.418  -4.373  -3.857  0.00  0.00     0.034 A 
ATOM     10  C   UNL d   1       0.480  -4.910  -2.979  0.00  0.00     0.024 A 
ATOM     11 CL   UNL d   1       1.661  -5.098  -5.399  0.00  0.00    -0.084 Cl
ATOM     12  C   UNL d   1       0.278  -4.320  -1.728  0.00  0.00     0.010 A 
ENDBRANCH   5   6
ENDBRANCH   2   5
BRANCH   1  13
ATOM     13  C   UNL d   1       0.592   1.238  -0.009  0.00  0.00     0.032 A 
ATOM     14  C   UNL d   1       1.324   2.283   0.574  0.00  0.00     0.017 A 
ATOM     15  C   UNL d   1       0.836   3.590   0.551  0.00  0.00     0.001 A 
ATOM     16  C   UNL d   1      -0.385   3.864  -0.060  0.00  0.00     0.000 A 
ATOM     17  C   UNL d   1      -1.116   2.834  -0.651  0.00  0.00     0.001 A 
ATOM     18  C   UNL d   1      -0.631   1.521  -0.631  0.00  0.00     0.017 A 
ENDBRANCH   1  13
TORSDOF 3
