REMARK  4 active torsions:
REMARK  status: ('A' for Active; 'I' for Inactive)
REMARK    1  A    between atoms: C_6  and  N_1 
REMARK    2  A    between atoms: C_2  and  C_11 
REMARK    3  A    between atoms: C_14  and  C_5 
REMARK    4  A    between atoms: C_17  and  N_8 
ROOT
ATOM      1  C   UNL d   1      -2.216   2.581   4.072  0.00  0.00     0.086 A 
ATOM      2  O   UNL d   1      -2.656   1.898   5.176  0.00  0.00    -0.309 OA
ATOM      3  C   UNL d   1      -2.688   3.879   4.120  0.00  0.00     0.041 A 
ATOM      4  C   UNL d   1      -3.408   2.764   5.922  0.00  0.00     0.091 A 
ATOM      5  C   UNL d   1      -3.450   3.995   5.305  0.00  0.00     0.041 A 
ENDROOT
BRANCH   4   6
ATOM      6  C   UNL d   1      -3.996   2.296   7.146  0.00  0.00     0.125 C 
ATOM      7  N   UNL d   1      -4.638   3.124   7.904  0.00  0.00    -0.363 N 
ATOM      8  HN  UNL d   1      -4.732   4.100   7.622  1.00  0.00     0.165 HD
BRANCH   7   9
ATOM      9  C   UNL d   1      -5.208   2.691   9.112  0.00  0.00     0.032 A 
ATOM     10  C   UNL d   1      -4.648   1.711   9.940  0.00  0.00     0.036 A 
ATOM     11  C   UNL d   1      -5.235   1.367  11.172  0.00  0.00    -0.054 A 
ATOM     12  C   UNL d   1      -4.611   0.275  11.999  0.00  0.00     0.049 C 
ATOM     13  C   UNL d   1      -6.388   2.047  11.603  0.00  0.00    -0.056 A 
ATOM     14  C   UNL d   1      -6.946   3.034  10.778  0.00  0.00     0.009 A 
ATOM     15  C   UNL d   1      -7.011   1.768  12.945  0.00  0.00     0.049 C 
ATOM     16  C   UNL d   1      -6.361   3.344   9.548  0.00  0.00     0.030 A 
ENDBRANCH   7   9
ENDBRANCH   4   6
BRANCH   1  17
ATOM     17  C   UNL d   1      -1.405   1.837   3.109  0.00  0.00    -0.002 A 
ATOM     18  C   UNL d   1      -1.036   0.500   3.329  0.00  0.00     0.017 A 
ATOM     19  C   UNL d   1      -0.294  -0.211   2.375  0.00  0.00     0.037 A 
ATOM     20  C   UNL d   1       0.087   0.420   1.185  0.00  0.00     0.102 A 
ATOM     21  C   UNL d   1      -0.252   1.757   0.955  0.00  0.00     0.037 A 
ATOM     22  C   UNL d   1      -0.991   2.455   1.916  0.00  0.00     0.017 A 
BRANCH  20  23
ATOM     23  N   UNL d   1       0.835  -0.325   0.165  0.00  0.00    -0.116 N 
ATOM     24  O   UNL d   1       1.129   0.269  -0.882  0.00  0.00    -0.532 OA
ATOM     25  O   UNL d   1       1.123  -1.505   0.409  0.00  0.00    -0.532 OA
ENDBRANCH  20  23
ENDBRANCH   1  17
TORSDOF 4
