REMARK  4 active torsions:
REMARK  status: ('A' for Active; 'I' for Inactive)
REMARK    1  A    between atoms: C_8  and  C_2 
REMARK    2  A    between atoms: C_10  and  N_6 
REMARK    3  A    between atoms: O_14  and  C_8 
REMARK    4  A    between atoms: C_20  and  O_14 
ROOT
ATOM      1  C   UNL d   1      -1.323   0.833  -0.043  0.00  0.00     0.139 A 
ATOM      2  C   UNL d   1      -0.030   1.315   0.088  0.00  0.00     0.108 A 
ATOM      3  N   UNL d   1      -1.209  -0.528  -0.149  0.00  0.00    -0.284 N 
ATOM      4  N   UNL d   1       0.049  -0.975  -0.132  0.00  0.00    -0.302 N 
ATOM      5  HN  UNL d   1       0.375  -1.939  -0.199  1.00  0.00     0.186 HD
ATOM      6  N   UNL d   1      -2.543   1.416  -0.152  0.00  0.00    -0.339 N 
ATOM      7  C   UNL d   1       0.784   0.137  -0.007  0.00  0.00     0.042 A 
ATOM      8  C   UNL d   1       2.262  -0.011   0.036  0.00  0.00     0.071 C 
ATOM      9  H   UNL d   1      -1.962  -1.195  -0.266  0.00  0.00     0.188 HD
ATOM     10  H   UNL d   1      -2.624   2.358  -0.541  0.00  0.00     0.167 HD
ENDROOT
BRANCH   2  11
ATOM     11  C   UNL d   1       0.411   2.681   0.343  0.00  0.00     0.299 C 
ATOM     12  O   UNL d   1       1.594   3.003   0.400  0.00  0.00    -0.259 OA
BRANCH  11  13
ATOM     13  O   UNL d   1      -0.617   3.537   0.626  0.00  0.00    -0.318 OA
BRANCH  13  14
ATOM     14  C   UNL d   1      -0.264   4.719   1.363  0.00  0.00     0.174 C 
ATOM     15  C   UNL d   1      -0.327   5.958   0.492  0.00  0.00     0.034 C 
ENDBRANCH  13  14
ENDBRANCH  11  13
ENDBRANCH   2  11
BRANCH   6  16
ATOM     16  C   UNL d   1      -3.746   0.977   0.462  0.00  0.00     0.057 A 
ATOM     17  C   UNL d   1      -5.001   1.239  -0.137  0.00  0.00     0.082 A 
ATOM     18  C   UNL d   1      -6.181   0.781   0.471  0.00  0.00     0.058 A 
ATOM     19 CL   UNL d   1      -5.048   2.103  -1.644  0.00  0.00    -0.080 Cl
ATOM     20 CL   UNL d   1      -7.748   1.075  -0.204  0.00  0.00    -0.082 Cl
ATOM     21  C   UNL d   1      -6.126   0.058   1.663  0.00  0.00     0.026 A 
ATOM     22  C   UNL d   1      -4.895  -0.226   2.252  0.00  0.00     0.004 A 
ATOM     23  C   UNL d   1      -3.717   0.224   1.648  0.00  0.00     0.031 A 
ENDBRANCH   6  16
TORSDOF 4
