REMARK  1 active torsions:
REMARK  status: ('A' for Active; 'I' for Inactive)
REMARK    1  A    between atoms: C_8  and  C_3 
ROOT
ATOM      1  N   UNL d   1      -0.515   0.550   0.978  0.00  0.00    -0.329 N 
ATOM      2  HN  UNL d   1      -0.931   0.989   1.800  1.00  0.00     0.168 HD
ATOM      3  C   UNL d   1       0.261   1.122  -0.010  0.00  0.00     0.137 A 
ATOM      4  N   UNL d   1       0.655   0.255  -0.959  0.00  0.00    -0.243 N 
ATOM      5  HN  UNL d   1       1.230   0.439  -1.781  1.00  0.00     0.196 HD
ATOM      6  C   UNL d   1      -0.581  -0.698   0.591  0.00  0.00     0.261 A 
ATOM      7  O   UNL d   1       0.093  -0.955  -0.556  0.00  0.00    -0.231 OA
ENDROOT
BRANCH   3   8
ATOM      8  C   UNL d   1       0.605   2.541  -0.009  0.00  0.00     0.010 A 
ATOM      9  C   UNL d   1       0.150   3.380   1.021  0.00  0.00     0.017 A 
ATOM     10  C   UNL d   1       0.474   4.741   1.027  0.00  0.00     0.025 A 
ATOM     11  C   UNL d   1       1.254   5.272   0.003  0.00  0.00     0.034 A 
ATOM     12  C   UNL d   1       1.714   4.455  -1.027  0.00  0.00     0.025 A 
ATOM     13 CL   UNL d   1       1.653   6.945   0.009  0.00  0.00    -0.084 Cl
ATOM     14  C   UNL d   1       1.391   3.095  -1.032  0.00  0.00     0.017 A 
ENDBRANCH   3   8
TORSDOF 1
