REMARK  5 active torsions:
REMARK  status: ('A' for Active; 'I' for Inactive)
REMARK    1  A    between atoms: C_9  and  N_1 
REMARK    2  A    between atoms: C_12  and  N_2 
REMARK    3  A    between atoms: C_16  and  C_12 
REMARK    4  A    between atoms: O_20  and  C_15 
REMARK    5  A    between atoms: O_24  and  C_17 
ROOT
ATOM      1  N   UNL d   1       0.915  -1.374  -0.086  0.00  0.00    -0.244 N 
ATOM      2  N   UNL d   1       2.107   0.704  -0.129  0.00  0.00    -0.260 N 
ATOM      3  C   UNL d   1       2.147  -0.707  -0.184  0.00  0.00     0.338 A 
ATOM      4  C   UNL d   1      -0.263  -0.657  -0.083  0.00  0.00     0.150 A 
ATOM      5  C   UNL d   1      -0.241   0.706  -0.076  0.00  0.00     0.147 A 
ATOM      6  C   UNL d   1       0.948   1.479  -0.060  0.00  0.00     0.282 A 
ATOM      7  N   UNL d   1      -1.548  -1.119  -0.008  0.00  0.00    -0.336 N 
ATOM      8  HN  UNL d   1      -1.857  -2.090   0.026  1.00  0.00     0.168 HD
ATOM      9  N   UNL d   1      -1.544   1.104  -0.036  0.00  0.00    -0.345 N 
ATOM     10  C   UNL d   1      -2.301  -0.037   0.010  0.00  0.00     0.182 A 
ATOM     11  O   UNL d   1       3.221  -1.301  -0.321  0.00  0.00    -0.246 OA
ATOM     12  O   UNL d   1       0.923   2.702   0.040  0.00  0.00    -0.265 OA
ATOM     13  H   UNL d   1      -1.881   2.059  -0.017  0.00  0.00     0.167 HD
ENDROOT
BRANCH   2  14
ATOM     14  C   UNL d   1       3.384   1.403  -0.119  0.00  0.00     0.175 C 
BRANCH  14  15
ATOM     15  C   UNL d   1       3.803   1.867  -1.495  0.00  0.00    -0.040 A 
ATOM     16  C   UNL d   1       3.401   3.122  -1.972  0.00  0.00     0.011 A 
ATOM     17  C   UNL d   1       3.758   3.550  -3.254  0.00  0.00     0.037 A 
ATOM     18  C   UNL d   1       4.524   2.729  -4.079  0.00  0.00     0.068 A 
ATOM     19  C   UNL d   1       4.942   1.485  -3.604  0.00  0.00     0.037 A 
ATOM     20  C   UNL d   1       4.579   1.050  -2.326  0.00  0.00     0.011 A 
BRANCH  18  21
ATOM     21  O   UNL d   1       4.926   3.029  -5.352  0.00  0.00    -0.356 OA
ATOM     22  C   UNL d   1       4.371   4.203  -5.932  0.00  0.00     0.210 C 
ENDBRANCH  18  21
ENDBRANCH  14  15
ENDBRANCH   2  14
BRANCH   1  23
ATOM     23  C   UNL d   1       0.842  -2.786   0.038  0.00  0.00     0.079 A 
ATOM     24  C   UNL d   1       1.583  -3.496   1.004  0.00  0.00     0.095 A 
ATOM     25  C   UNL d   1       1.602  -4.897   0.974  0.00  0.00     0.039 A 
ATOM     26  C   UNL d   1       0.876  -5.600   0.013  0.00  0.00     0.003 A 
ATOM     27  C   UNL d   1       0.113  -4.908  -0.921  0.00  0.00     0.002 A 
ATOM     28  C   UNL d   1       0.087  -3.512  -0.902  0.00  0.00     0.033 A 
BRANCH  24  29
ATOM     29  O   UNL d   1       2.347  -2.948   2.004  0.00  0.00    -0.354 OA
ATOM     30  C   UNL d   1       1.709  -1.944   2.787  0.00  0.00     0.210 C 
ENDBRANCH  24  29
ENDBRANCH   1  23
TORSDOF 5
