REMARK  7 active torsions:
REMARK  status: ('A' for Active; 'I' for Inactive)
REMARK       I    between atoms: N_2  and  C_1 
REMARK       I    between atoms: N_3  and  C_1 
REMARK    1  A    between atoms: C_12  and  N_3 
REMARK    2  A    between atoms: C_4  and  C_8 
REMARK    3  A    between atoms: O_15  and  C_4 
REMARK    4  A    between atoms: O_13  and  C_14 
REMARK    5  A    between atoms: C_16  and  O_13 
REMARK    6  A    between atoms: C_22  and  O_15 
REMARK    7  A    between atoms: C_21  and  C_16 
ROOT
ATOM      1  C   UNL d   1       0.982   0.021  -0.161  0.00  0.00     0.322 C 
ATOM      2  N   UNL d   1       0.228   0.874  -0.963  0.00  0.00    -0.334 N 
ATOM      3  N   UNL d   1       0.337  -0.486   0.942  0.00  0.00    -0.309 N 
ATOM      4  O   UNL d   1       2.147  -0.246  -0.459  0.00  0.00    -0.247 OA
ATOM      5  C   UNL d   1      -1.200   1.175  -0.860  0.00  0.00     0.128 C 
ATOM      6  C   UNL d   1       0.925   1.596  -2.025  0.00  0.00     0.128 C 
ATOM      7  C   UNL d   1      -1.197   1.559  -3.393  0.00  0.00     0.088 C 
ATOM      8  C   UNL d   1      -1.914   0.931  -2.192  0.00  0.00     0.034 C 
ATOM      9  C   UNL d   1       0.305   1.300  -3.384  0.00  0.00     0.034 C 
ATOM     10  H   UNL d   1      -0.576  -0.124   1.149  0.00  0.00     0.170 HD
ENDROOT
BRANCH   3  11
ATOM     11  C   UNL d   1       0.814  -1.466   1.837  0.00  0.00     0.036 A 
ATOM     12  C   UNL d   1       2.096  -2.013   1.795  0.00  0.00     0.032 A 
ATOM     13  C   UNL d   1       2.446  -3.077   2.634  0.00  0.00     0.039 A 
ATOM     14  C   UNL d   1       1.505  -3.608   3.512  0.00  0.00     0.069 A 
ATOM     15  C   UNL d   1       0.260  -2.999   3.635  0.00  0.00     0.039 A 
ATOM     16  C   UNL d   1      -0.088  -1.936   2.798  0.00  0.00     0.032 A 
BRANCH  14  17
ATOM     17  O   UNL d   1       1.889  -4.734   4.190  0.00  0.00    -0.347 OA
BRANCH  17  18
ATOM     18  C   UNL d   1       0.808  -5.627   4.477  0.00  0.00     0.214 C 
BRANCH  18  19
ATOM     19  C   UNL d   1       1.311  -7.045   4.570  0.00  0.00    -0.034 A 
ATOM     20  C   UNL d   1       1.135  -7.785   5.746  0.00  0.00     0.009 A 
ATOM     21  C   UNL d   1       1.530  -9.122   5.803  0.00  0.00     0.001 A 
ATOM     22  C   UNL d   1       2.102  -9.730   4.688  0.00  0.00     0.000 A 
ATOM     23  C   UNL d   1       2.287  -9.001   3.514  0.00  0.00     0.001 A 
ATOM     24  C   UNL d   1       1.895  -7.664   3.455  0.00  0.00     0.009 A 
ENDBRANCH  18  19
ENDBRANCH  17  18
ENDBRANCH  14  17
ENDBRANCH   3  11
BRANCH   7  25
ATOM     25  C   UNL d   1      -1.511   3.038  -3.475  0.00  0.00     0.263 C 
ATOM     26  O   UNL d   1      -1.704   3.769  -2.512  0.00  0.00    -0.265 OA
BRANCH  25  27
ATOM     27  O   UNL d   1      -1.647   3.403  -4.779  0.00  0.00    -0.322 OA
BRANCH  27  28
ATOM     28  C   UNL d   1      -2.436   4.579  -5.000  0.00  0.00     0.174 C 
ATOM     29  C   UNL d   1      -3.895   4.156  -5.051  0.00  0.00     0.034 C 
ENDBRANCH  27  28
ENDBRANCH  25  27
ENDBRANCH   7  25
TORSDOF 7
