REMARK  6 active torsions:
REMARK  status: ('A' for Active; 'I' for Inactive)
REMARK    1  A    between atoms: O_7  and  C_2 
REMARK    2  A    between atoms: C_3  and  C_11 
REMARK    3  A    between atoms: C_4  and  C_12 
REMARK    4  A    between atoms: C_11  and  O_7 
REMARK    5  A    between atoms: O_10  and  C_8 
REMARK    6  A    between atoms: C_12  and  O_10 
ROOT
ATOM      1  C   UNL d   1       1.269  -0.820   0.072  0.00  0.00     0.112 A 
ATOM      2  C   UNL d   1       1.415   0.579   0.058  0.00  0.00     0.110 A 
ATOM      3  C   UNL d   1       2.404  -1.677   0.271  0.00  0.00     0.105 C 
ATOM      4  N   UNL d   1       3.345  -2.340   0.409  0.00  0.00    -0.191 NA
ATOM      5  C   UNL d   1      -0.005  -1.406  -0.082  0.00  0.00     0.092 A 
ATOM      6  C   UNL d   1       0.270   1.383  -0.013  0.00  0.00     0.046 A 
ATOM      7  C   UNL d   1      -1.134  -0.589  -0.156  0.00  0.00     0.040 A 
ATOM      8  C   UNL d   1      -0.996   0.801  -0.114  0.00  0.00     0.025 A 
ATOM      9 BR   UNL d   1       0.374   3.277   0.009  0.00  0.00    -0.048 Br
ENDROOT
BRANCH   2  10
ATOM     10  O   UNL d   1       2.638   1.203   0.182  0.00  0.00    -0.339 OA
BRANCH  10  11
ATOM     11  C   UNL d   1       3.554   0.893  -0.889  0.00  0.00     0.293 C 
BRANCH  11  12
ATOM     12  C   UNL d   1       4.313   2.121  -1.370  0.00  0.00     0.408 C 
ATOM     13  F   UNL d   1       3.498   3.180  -1.561  0.00  0.00    -0.169 F 
ATOM     14  F   UNL d   1       5.282   2.485  -0.502  0.00  0.00    -0.169 F 
ATOM     15  F   UNL d   1       4.912   1.859  -2.558  0.00  0.00    -0.169 F 
ENDBRANCH  11  12
ENDBRANCH  10  11
ENDBRANCH   2  10
BRANCH   5  16
ATOM     16  O   UNL d   1      -0.025  -2.772  -0.160  0.00  0.00    -0.341 OA
BRANCH  16  17
ATOM     17  C   UNL d   1      -1.264  -3.442  -0.415  0.00  0.00     0.293 C 
BRANCH  17  18
ATOM     18  C   UNL d   1      -1.005  -4.885  -0.832  0.00  0.00     0.408 C 
ATOM     19  F   UNL d   1      -0.126  -5.503  -0.017  0.00  0.00    -0.169 F 
ATOM     20  F   UNL d   1      -2.157  -5.597  -0.801  0.00  0.00    -0.169 F 
ATOM     21  F   UNL d   1      -0.527  -4.949  -2.095  0.00  0.00    -0.169 F 
ENDBRANCH  17  18
ENDBRANCH  16  17
ENDBRANCH   5  16
TORSDOF 6
