REMARK  6 active torsions:
REMARK  status: ('A' for Active; 'I' for Inactive)
REMARK    1  A    between atoms: C_2  and  C_1 
REMARK       I    between atoms: N_5  and  C_1 
REMARK    2  A    between atoms: C_4  and  C_3 
REMARK    3  A    between atoms: O_13  and  C_4 
REMARK    4  A    between atoms: C_9  and  N_5 
REMARK    5  A    between atoms: C_6  and  C_7 
REMARK    6  A    between atoms: O_14  and  C_6 
ROOT
ATOM      1  C   UNL d   1       0.916   0.272  -0.020  0.00  0.00     0.257 C 
ATOM      2  N   UNL d   1       0.135   0.542   1.092  0.00  0.00    -0.323 N 
ATOM      3  O   UNL d   1       2.147   0.268  -0.029  0.00  0.00    -0.267 OA
ATOM      4  H   UNL d   1      -0.862   0.354   1.062  0.00  0.00     0.169 HD
ENDROOT
BRANCH   1   5
ATOM      5  C   UNL d   1       0.228  -0.099  -1.288  0.00  0.00     0.049 A 
ATOM      6  C   UNL d   1      -0.946  -0.856  -1.397  0.00  0.00     0.053 A 
ATOM      7  C   UNL d   1      -1.496  -1.106  -2.669  0.00  0.00     0.019 A 
ATOM      8  C   UNL d   1      -0.863  -0.646  -3.824  0.00  0.00     0.001 A 
ATOM      9  C   UNL d   1       0.327   0.065  -3.722  0.00  0.00     0.001 A 
ATOM     10  C   UNL d   1       0.868   0.337  -2.465  0.00  0.00     0.018 A 
BRANCH   6  11
ATOM     11  C   UNL d   1      -1.699  -1.428  -0.262  0.00  0.00     0.177 C 
ATOM     12  O   UNL d   1      -2.915  -1.368  -0.200  0.00  0.00    -0.646 OA
BRANCH  11  13
ATOM     13  O   UNL d   1      -0.948  -2.002   0.695  0.00  0.00    -0.773 OA
ATOM     14  H   UNL d   1       0.011  -2.092   0.523  0.00  0.00     0.167 HD
ENDBRANCH  11  13
ENDBRANCH   6  11
ENDBRANCH   1   5
BRANCH   2  15
ATOM     15  C   UNL d   1       0.646   0.841   2.374  0.00  0.00     0.036 A 
ATOM     16  C   UNL d   1       1.913   1.395   2.567  0.00  0.00     0.048 A 
ATOM     17  C   UNL d   1       2.410   1.589   3.860  0.00  0.00     0.039 A 
ATOM     18  C   UNL d   1       1.614   1.277   4.966  0.00  0.00     0.018 A 
ATOM     19  C   UNL d   1       0.329   0.766   4.777  0.00  0.00     0.003 A 
ATOM     20  C   UNL d   1      -0.156   0.556   3.484  0.00  0.00     0.029 A 
BRANCH  17  21
ATOM     21  C   UNL d   1       3.762   2.153   4.094  0.00  0.00     0.176 C 
ATOM     22  O   UNL d   1       4.035   2.822   5.077  0.00  0.00    -0.646 OA
BRANCH  21  23
ATOM     23  O   UNL d   1       4.670   1.819   3.152  0.00  0.00    -0.773 OA
ATOM     24  H   UNL d   1       4.373   1.166   2.490  0.00  0.00     0.167 HD
ENDBRANCH  21  23
ENDBRANCH  17  21
ENDBRANCH   2  15
TORSDOF 6
