REMARK  8 active torsions:
REMARK  status: ('A' for Active; 'I' for Inactive)
REMARK    1  A    between atoms: C_2  and  S_1 
REMARK    2  A    between atoms: N_3  and  S_1 
REMARK    3  A    between atoms: C_10  and  N_3 
REMARK    4  A    between atoms: C_15  and  N_3 
REMARK    5  A    between atoms: O_17  and  C_8 
REMARK    6  A    between atoms: C_16  and  C_10 
REMARK    7  A    between atoms: O_18  and  C_11 
REMARK    8  A    between atoms: C_14  and  C_15 
ROOT
ATOM      1  N   UNL d   1       3.048  -4.662   2.880  0.00  0.00    -0.197 NA
ATOM      2  C   UNL d   1       2.827  -3.578   2.524  0.00  0.00     0.060 C 
ATOM      3  C   UNL d   1       2.502  -2.220   2.067  0.00  0.00     0.144 C 
ENDROOT
BRANCH   3   4
ATOM      4  C   UNL d   1       1.089  -2.205   1.488  0.00  0.00     0.149 C 
BRANCH   4   5
ATOM      5  N   UNL d   1       0.567  -0.834   1.179  0.00  0.00    -0.302 N 
BRANCH   5   6
ATOM      6  S   UNL d   1       1.199  -0.079  -0.231  0.00  0.00     0.261 S 
ATOM      7  O   UNL d   1       2.522  -0.620  -0.461  0.00  0.00    -0.200 OA
ATOM      8  O   UNL d   1       0.218  -0.065  -1.288  0.00  0.00    -0.200 OA
BRANCH   6   9
ATOM      9  C   UNL d   1       1.428   1.619   0.261  0.00  0.00     0.082 A 
ATOM     10  C   UNL d   1       0.313   2.432   0.492  0.00  0.00     0.065 A 
ATOM     11  C   UNL d   1       0.471   3.771   0.867  0.00  0.00     0.102 A 
ATOM     12  C   UNL d   1       1.765   4.321   0.892  0.00  0.00     0.101 A 
ATOM     13  C   UNL d   1       2.875   3.506   0.630  0.00  0.00     0.041 A 
ATOM     14  C   UNL d   1       2.713   2.156   0.321  0.00  0.00     0.028 A 
BRANCH  11  15
ATOM     15  O   UNL d   1      -0.581   4.576   1.214  0.00  0.00    -0.353 OA
ATOM     16  C   UNL d   1      -1.819   3.947   1.520  0.00  0.00     0.210 C 
ENDBRANCH  11  15
BRANCH  12  17
ATOM     17  O   UNL d   1       2.099   5.616   1.197  0.00  0.00    -0.353 OA
ATOM     18  C   UNL d   1       1.176   6.617   0.779  0.00  0.00     0.210 C 
ENDBRANCH  12  17
ENDBRANCH   6   9
ENDBRANCH   5   6
BRANCH   5  19
ATOM     19  C   UNL d   1      -0.910  -0.714   1.428  0.00  0.00     0.174 C 
BRANCH  19  20
ATOM     20  C   UNL d   1      -1.821  -1.384   0.418  0.00  0.00    -0.040 A 
ATOM     21  C   UNL d   1      -1.859  -2.779   0.278  0.00  0.00     0.009 A 
ATOM     22  C   UNL d   1      -2.589  -3.379  -0.750  0.00  0.00     0.001 A 
ATOM     23  C   UNL d   1      -3.328  -2.594  -1.629  0.00  0.00     0.000 A 
ATOM     24  C   UNL d   1      -3.358  -1.212  -1.464  0.00  0.00     0.001 A 
ATOM     25  C   UNL d   1      -2.616  -0.610  -0.445  0.00  0.00     0.009 A 
ENDBRANCH  19  20
ENDBRANCH   5  19
ENDBRANCH   4   5
ENDBRANCH   3   4
TORSDOF 8
