REMARK  5 active torsions:
REMARK  status: ('A' for Active; 'I' for Inactive)
REMARK    1  A    between atoms: C_2  and  C_1 
REMARK       I    between atoms: N_5  and  C_2 
REMARK    2  A    between atoms: C_9  and  N_5 
REMARK    3  A    between atoms: C_13  and  N_5 
REMARK    4  A    between atoms: C_16  and  C_9 
REMARK    5  A    between atoms: N_11  and  C_10 
ROOT
ATOM      1  C   UNL d   1       3.765  -0.204  -0.501  0.00  0.00     0.263 C 
ATOM      2  N   UNL d   1       4.679  -1.240  -0.151  0.00  0.00    -0.339 N 
ATOM      3  O   UNL d   1       2.574  -0.478  -0.657  0.00  0.00    -0.267 OA
ENDROOT
BRANCH   2   4
ATOM      4  C   UNL d   1       6.119  -1.025   0.030  0.00  0.00     0.165 C 
BRANCH   4   5
ATOM      5  C   UNL d   1       6.743  -1.451   1.336  0.00  0.00    -0.040 A 
ATOM      6  C   UNL d   1       8.047  -1.959   1.320  0.00  0.00     0.011 A 
ATOM      7  C   UNL d   1       8.703  -2.281   2.509  0.00  0.00     0.030 A 
ATOM      8  C   UNL d   1       8.094  -2.119   3.763  0.00  0.00     0.029 A 
ATOM      9  C   UNL d   1       6.801  -1.573   3.765  0.00  0.00     0.030 A 
ATOM     10  C   UNL d   1       6.135  -1.236   2.575  0.00  0.00     0.011 A 
BRANCH   8  11
ATOM     11  N   UNL d   1       8.807  -2.435   4.922  0.00  0.00    -0.390 N 
ATOM     12  C   UNL d   1       9.443  -3.752   4.966  0.00  0.00     0.149 C 
ATOM     13  C   UNL d   1       8.339  -1.946   6.215  0.00  0.00     0.149 C 
ENDBRANCH   8  11
ENDBRANCH   4   5
ENDBRANCH   2   4
BRANCH   2  14
ATOM     14  C   UNL d   1       4.146  -2.624  -0.280  0.00  0.00     0.079 C 
ATOM     15  C   UNL d   1       3.936  -2.998  -1.756  0.00  0.00     0.032 C 
ATOM     16  C   UNL d   1       4.953  -3.741   0.389  0.00  0.00     0.032 C 
ENDBRANCH   2  14
BRANCH   1  17
ATOM     17  C   UNL d   1       4.219   1.178  -0.629  0.00  0.00     0.096 C 
ATOM     18  S   UNL d   1       3.228   2.383   0.095  0.00  0.00    -0.082 SA
ATOM     19  C   UNL d   1       4.333   3.641  -0.278  0.00  0.00     0.017 A 
ATOM     20  C   UNL d   1       4.206   5.002   0.062  0.00  0.00     0.020 A 
ATOM     21  C   UNL d   1       5.437   3.156  -0.978  0.00  0.00     0.004 A 
ATOM     22  C   UNL d   1       5.265   5.867  -0.214  0.00  0.00     0.001 A 
ATOM     23  C   UNL d   1       6.415   5.397  -0.829  0.00  0.00     0.001 A 
ATOM     24  C   UNL d   1       6.499   4.062  -1.240  0.00  0.00     0.014 A 
ATOM     25  C   UNL d   1       5.244   1.773  -1.338  0.00  0.00     0.068 C 
ATOM     26 CL   UNL d   1       6.261   1.004  -2.500  0.00  0.00    -0.082 Cl
ENDBRANCH   1  17
TORSDOF 5
