REMARK  5 active torsions:
REMARK  status: ('A' for Active; 'I' for Inactive)
REMARK       I    between atoms: N_2  and  C_1 
REMARK       I    between atoms: N_4  and  C_1 
REMARK    1  A    between atoms: C_6  and  C_3 
REMARK    2  A    between atoms: C_8  and  N_4 
REMARK    3  A    between atoms: C_7  and  C_6 
REMARK       I    between atoms: N_11  and  C_7 
REMARK    4  A    between atoms: C_13  and  C_9 
REMARK    5  A    between atoms: C_16  and  N_11 
ROOT
ATOM      1  C   UNL d   1       1.133   0.215   0.327  0.00  0.00     0.323 C 
ATOM      2  N   UNL d   1       0.679   1.357  -0.358  0.00  0.00    -0.318 N 
ATOM      3  C   UNL d   1       1.170   1.708  -1.733  0.00  0.00     0.189 C 
ATOM      4  N   UNL d   1       0.583   0.046   1.581  0.00  0.00    -0.308 N 
ATOM      5  C   UNL d   1       1.361   3.246  -1.853  0.00  0.00     0.241 C 
ATOM      6  N   UNL d   1       0.425   4.044  -1.234  0.00  0.00    -0.358 N 
ATOM      7  O   UNL d   1       2.000  -0.524  -0.115  0.00  0.00    -0.247 OA
ATOM      8  O   UNL d   1       2.183   3.790  -2.592  0.00  0.00    -0.271 OA
ATOM      9  C   UNL d   1      -0.531   2.113   0.013  0.00  0.00     0.148 C 
ATOM     10  C   UNL d   1      -0.275   3.620  -0.045  0.00  0.00     0.142 C 
ATOM     11  H   UNL d   1       0.329   0.911   2.009  0.00  0.00     0.170 HD
ATOM     12  H   UNL d   1       0.607   5.033  -1.365  0.00  0.00     0.162 HD
ENDROOT
BRANCH   3  13
ATOM     13  C   UNL d   1       2.437   1.017  -2.275  0.00  0.00     0.138 C 
BRANCH  13  14
ATOM     14  C   UNL d   1       2.140  -0.354  -2.838  0.00  0.00     0.224 C 
ATOM     15  N   UNL d   1       3.101  -1.298  -3.045  0.00  0.00    -0.327 N 
ATOM     16  H   UNL d   1       2.660  -2.122  -3.439  0.00  0.00     0.169 HD
ATOM     17  O   UNL d   1       1.000  -0.642  -3.223  0.00  0.00    -0.273 OA
BRANCH  15  18
ATOM     18  C   UNL d   1       4.491  -1.395  -2.858  0.00  0.00     0.034 A 
ATOM     19  C   UNL d   1       5.325  -0.421  -2.307  0.00  0.00     0.032 A 
ATOM     20  C   UNL d   1       6.711  -0.620  -2.240  0.00  0.00     0.044 A 
ATOM     21  C   UNL d   1       7.269  -1.794  -2.725  0.00  0.00     0.116 A 
ATOM     22  C   UNL d   1       6.462  -2.791  -3.246  0.00  0.00     0.044 A 
ATOM     23  F   UNL d   1       8.597  -1.960  -2.694  0.00  0.00    -0.206 F 
ATOM     24  C   UNL d   1       5.080  -2.594  -3.304  0.00  0.00     0.032 A 
ENDBRANCH  15  18
ENDBRANCH  13  14
ENDBRANCH   3  13
BRANCH   4  25
ATOM     25  C   UNL d   1       0.916  -1.002   2.465  0.00  0.00     0.043 A 
ATOM     26  C   UNL d   1       1.184  -0.809   3.842  0.00  0.00    -0.024 A 
ATOM     27  C   UNL d   1       1.547  -1.975   4.575  0.00  0.00     0.010 A 
ATOM     28  C   UNL d   1       1.540  -3.258   4.027  0.00  0.00     0.001 A 
ATOM     29  C   UNL d   1       1.197  -3.436   2.702  0.00  0.00     0.002 A 
ATOM     30  C   UNL d   1       0.915  -2.312   1.926  0.00  0.00     0.030 A 
BRANCH  26  31
ATOM     31  C   UNL d   1       1.154   0.516   4.656  0.00  0.00    -0.022 C 
ATOM     32  C   UNL d   1       0.705   1.813   3.950  0.00  0.00     0.019 C 
ATOM     33  C   UNL d   1       0.163   0.340   5.838  0.00  0.00     0.019 C 
ATOM     34  C   UNL d   1       2.563   0.824   5.220  0.00  0.00     0.019 C 
ENDBRANCH  26  31
ENDBRANCH   4  25
TORSDOF 5
