REMARK  2 active torsions:
REMARK  status: ('A' for Active; 'I' for Inactive)
REMARK    1  A    between atoms: C_7  and  C_3 
REMARK    2  A    between atoms: C_14  and  C_7 
ROOT
ATOM      1  C   UNL d   1      -1.252  -0.277   0.044  0.00  0.00    -0.041 A 
ATOM      2  C   UNL d   1       0.102   1.782  -0.065  0.00  0.00    -0.041 A 
ATOM      3  C   UNL d   1      -1.153   1.131  -0.000  0.00  0.00     0.023 A 
ATOM      4  C   UNL d   1      -0.060  -1.048   0.057  0.00  0.00    -0.049 A 
ATOM      5  C   UNL d   1       1.296   1.009  -0.021  0.00  0.00    -0.049 A 
ATOM      6  C   UNL d   1       1.214  -0.406   0.058  0.00  0.00    -0.049 A 
ATOM      7  C   UNL d   1      -2.594  -0.970   0.067  0.00  0.00     0.050 C 
ATOM      8  C   UNL d   1       0.183   3.292  -0.147  0.00  0.00     0.050 C 
ATOM      9  C   UNL d   1      -0.116  -2.562   0.056  0.00  0.00     0.049 C 
ATOM     10  C   UNL d   1       2.622   1.740  -0.056  0.00  0.00     0.049 C 
ATOM     11  C   UNL d   1       2.453  -1.280   0.086  0.00  0.00     0.049 C 
ENDROOT
BRANCH   3  12
ATOM     12  C   UNL d   1      -2.402   1.949  -0.013  0.00  0.00     0.160 C 
ATOM     13  O   UNL d   1      -3.143   1.902  -0.992  0.00  0.00    -0.292 OA
BRANCH  12  14
ATOM     14  C   UNL d   1      -2.675   2.835   1.189  0.00  0.00     0.079 C 
ATOM     15  C   UNL d   1      -4.120   2.745   1.643  0.00  0.00     0.013 C 
ENDBRANCH  12  14
ENDBRANCH   3  12
TORSDOF 2
