REMARK  3 active torsions:
REMARK  status: ('A' for Active; 'I' for Inactive)
REMARK    1  A    between atoms: C_9  and  N_1 
REMARK    2  A    between atoms: C_11  and  C_5 
REMARK    3  A    between atoms: N_6  and  C_10 
ROOT
ATOM      1  N   UNL d   1       2.327  -0.673  -0.010  0.00  0.00    -0.220 N 
ATOM      2  N   UNL d   1       2.311   0.702   0.073  0.00  0.00    -0.289 N 
ATOM      3  HN  UNL d   1       3.191   1.215   0.142  1.00  0.00     0.188 HD
ATOM      4  C   UNL d   1       1.170  -1.453   0.060  0.00  0.00     0.278 C 
ATOM      5  C   UNL d   1       1.183   1.351   0.066  0.00  0.00     0.070 C 
ATOM      6  C   UNL d   1      -0.113  -0.727   0.021  0.00  0.00     0.046 A 
ATOM      7  C   UNL d   1      -0.125   0.660  -0.059  0.00  0.00     0.009 A 
ATOM      8  O   UNL d   1       1.120  -2.679   0.147  0.00  0.00    -0.265 OA
ATOM      9  C   UNL d   1      -1.316  -1.455  -0.005  0.00  0.00     0.018 A 
ATOM     10  C   UNL d   1      -1.349   1.311  -0.272  0.00  0.00     0.015 A 
ATOM     11  C   UNL d   1      -2.547   0.589  -0.294  0.00  0.00     0.001 A 
ATOM     12  C   UNL d   1      -2.532  -0.793  -0.142  0.00  0.00     0.001 A 
ENDROOT
BRANCH   1  13
ATOM     13  C   UNL d   1       3.640  -1.242  -0.134  0.00  0.00     0.060 A 
ATOM     14  C   UNL d   1       3.841  -2.525  -0.673  0.00  0.00     0.034 A 
ATOM     15  C   UNL d   1       5.123  -3.077  -0.792  0.00  0.00     0.038 A 
ATOM     16  C   UNL d   1       6.231  -2.345  -0.363  0.00  0.00     0.103 A 
ATOM     17  C   UNL d   1       6.064  -1.061   0.164  0.00  0.00     0.038 A 
ATOM     18  C   UNL d   1       4.777  -0.513   0.261  0.00  0.00     0.034 A 
BRANCH  16  19
ATOM     19  N   UNL d   1       7.573  -2.929  -0.465  0.00  0.00    -0.116 N 
ATOM     20  O   UNL d   1       8.522  -2.276  -0.008  0.00  0.00    -0.532 OA
ATOM     21  O   UNL d   1       7.679  -4.040  -1.003  0.00  0.00    -0.532 OA
ENDBRANCH  16  19
ENDBRANCH   1  13
BRANCH   5  22
ATOM     22  C   UNL d   1       1.277   2.844   0.179  0.00  0.00    -0.007 A 
ATOM     23  C   UNL d   1       2.315   3.500  -0.503  0.00  0.00     0.017 A 
ATOM     24  C   UNL d   1       2.423   4.892  -0.453  0.00  0.00     0.043 A 
ATOM     25  C   UNL d   1       1.496   5.625   0.276  0.00  0.00     0.116 A 
ATOM     26  C   UNL d   1       0.486   4.990   0.990  0.00  0.00     0.043 A 
ATOM     27  F   UNL d   1       1.579   6.961   0.299  0.00  0.00    -0.206 F 
ATOM     28  C   UNL d   1       0.393   3.596   0.966  0.00  0.00     0.017 A 
ENDBRANCH   5  22
TORSDOF 3
