REMARK  4 active torsions:
REMARK  status: ('A' for Active; 'I' for Inactive)
REMARK    1  A    between atoms: C_2  and  S_1 
REMARK    2  A    between atoms: C_8  and  S_1 
REMARK    3  A    between atoms: N_6  and  C_3 
REMARK    4  A    between atoms: N_4  and  C_11 
ROOT
ATOM      1  C   UNL d   1      -0.821   0.837   3.318  0.00  0.00     0.159 C 
ATOM      2  C   UNL d   1      -0.440   1.066   2.050  0.00  0.00     0.121 C 
ATOM      3  C   UNL d   1      -1.856   1.569   3.939  0.00  0.00     0.113 C 
ATOM      4  N   UNL d   1      -2.728   2.151   4.441  0.00  0.00    -0.191 NA
ENDROOT
BRANCH   1   5
ATOM      5  S   UNL d   1      -0.027  -0.398   4.226  0.00  0.00     0.218 S 
ATOM      6  O   UNL d   1       1.004   0.208   5.049  0.00  0.00    -0.216 OA
ATOM      7  O   UNL d   1       0.307  -1.516   3.361  0.00  0.00    -0.216 OA
BRANCH   5   8
ATOM      8  C   UNL d   1      -1.282  -0.998   5.351  0.00  0.00     0.065 A 
ATOM      9  C   UNL d   1      -2.039  -2.123   5.008  0.00  0.00     0.025 A 
ATOM     10  C   UNL d   1      -3.024  -2.578   5.888  0.00  0.00     0.025 A 
ATOM     11  C   UNL d   1      -3.240  -1.913   7.097  0.00  0.00     0.034 A 
ATOM     12  C   UNL d   1      -2.470  -0.802   7.444  0.00  0.00     0.025 A 
ATOM     13 CL   UNL d   1      -4.463  -2.471   8.170  0.00  0.00    -0.084 Cl
ATOM     14  C   UNL d   1      -1.477  -0.348   6.576  0.00  0.00     0.025 A 
ENDBRANCH   5   8
ENDBRANCH   1   5
BRANCH   2  15
ATOM     15  N   UNL d   1      -0.924   2.049   1.196  0.00  0.00    -0.388 N 
ATOM     16  C   UNL d   1      -0.758   3.482   1.491  0.00  0.00     0.124 C 
ATOM     17  C   UNL d   1      -2.083   4.187   1.236  0.00  0.00     0.045 C 
ATOM     18  C   UNL d   1      -2.548   3.974  -0.219  0.00  0.00     0.091 C 
ATOM     19  C   UNL d   1      -2.592   2.460  -0.519  0.00  0.00     0.045 C 
ATOM     20  C   UNL d   1      -1.262   1.767  -0.201  0.00  0.00     0.124 C 
BRANCH  18  21
ATOM     21  N   UNL d   1      -1.770   4.773  -1.173  0.00  0.00    -0.362 N 
ATOM     22  C   UNL d   1      -1.177   4.344  -2.333  0.00  0.00     0.091 A 
ATOM     23  C   UNL d   1      -0.507   5.405  -2.899  0.00  0.00     0.019 A 
ATOM     24  C   UNL d   1      -0.749   6.535  -2.092  0.00  0.00     0.019 A 
ATOM     25  C   UNL d   1      -1.562   6.129  -1.058  0.00  0.00     0.091 A 
ENDBRANCH  18  21
ENDBRANCH   2  15
TORSDOF 4
