REMARK  7 active torsions:
REMARK  status: ('A' for Active; 'I' for Inactive)
REMARK    1  A    between atoms: C_2  and  C_1 
REMARK       I    between atoms: N_4  and  C_1 
REMARK    2  A    between atoms: C_3  and  O_7 
REMARK    3  A    between atoms: C_9  and  N_4 
REMARK    4  A    between atoms: O_16  and  C_5 
REMARK    5  A    between atoms: O_7  and  C_13 
REMARK    6  A    between atoms: O_8  and  C_14 
REMARK    7  A    between atoms: C_15  and  O_8 
ROOT
ATOM      1  C   UNL d   1      -1.168  -0.629   1.086  0.00  0.00     0.035 A 
ATOM      2  C   UNL d   1      -3.969  -0.630   0.896  0.00  0.00     0.076 A 
ATOM      3  C   UNL d   1      -1.956  -0.573   2.238  0.00  0.00     0.032 A 
ATOM      4  C   UNL d   1      -1.794  -0.678  -0.164  0.00  0.00     0.032 A 
ATOM      5  C   UNL d   1      -3.188  -0.654  -0.262  0.00  0.00     0.039 A 
ATOM      6  C   UNL d   1      -3.350  -0.572   2.143  0.00  0.00     0.039 A 
ENDROOT
BRANCH   1   7
ATOM      7  N   UNL d   1       0.241  -0.590   1.102  0.00  0.00    -0.323 N 
ATOM      8  C   UNL d   1       1.055  -0.661   2.218  0.00  0.00     0.259 C 
ATOM      9  O   UNL d   1       0.706  -0.919   3.364  0.00  0.00    -0.267 OA
ATOM     10  H   UNL d   1       0.692  -0.572   0.197  0.00  0.00     0.169 HD
BRANCH   8  11
ATOM     11  C   UNL d   1       2.510  -0.468   1.973  0.00  0.00     0.065 A 
ATOM     12  C   UNL d   1       3.436  -1.126   2.795  0.00  0.00     0.081 A 
ATOM     13  C   UNL d   1       4.803  -0.985   2.578  0.00  0.00     0.037 A 
ATOM     14  C   UNL d   1       5.260  -0.158   1.551  0.00  0.00     0.003 A 
ATOM     15  C   UNL d   1       4.350   0.530   0.749  0.00  0.00     0.001 A 
ATOM     16  C   UNL d   1       2.976   0.380   0.957  0.00  0.00     0.020 A 
BRANCH  12  17
ATOM     17  O   UNL d   1       3.065  -1.929   3.842  0.00  0.00    -0.360 OA
ATOM     18  H   UNL d   1       2.111  -1.775   4.014  0.00  0.00     0.217 HD
ENDBRANCH  12  17
ENDBRANCH   8  11
ENDBRANCH   1   7
BRANCH   2  19
ATOM     19  O   UNL d   1      -5.342  -0.584   0.898  0.00  0.00    -0.311 OA
BRANCH  19  20
ATOM     20  C   UNL d   1      -6.049  -1.320  -0.024  0.00  0.00     0.076 A 
ATOM     21  C   UNL d   1      -5.630  -2.548  -0.539  0.00  0.00     0.040 A 
ATOM     22  C   UNL d   1      -6.421  -3.215  -1.475  0.00  0.00     0.040 A 
ATOM     23  C   UNL d   1      -7.664  -2.697  -1.850  0.00  0.00     0.078 A 
ATOM     24  C   UNL d   1      -8.084  -1.474  -1.330  0.00  0.00     0.040 A 
ATOM     25  C   UNL d   1      -7.285  -0.796  -0.405  0.00  0.00     0.040 A 
BRANCH  23  26
ATOM     26  O   UNL d   1      -8.332  -3.409  -2.796  0.00  0.00    -0.255 OA
BRANCH  26  27
ATOM     27  C   UNL d   1      -9.735  -3.592  -2.634  0.00  0.00     0.530 C 
ATOM     28  F   UNL d   1     -10.275  -2.901  -1.609  0.00  0.00    -0.144 F 
ATOM     29  F   UNL d   1     -10.353  -3.216  -3.775  0.00  0.00    -0.144 F 
ATOM     30  F   UNL d   1      -9.982  -4.905  -2.434  0.00  0.00    -0.144 F 
ENDBRANCH  26  27
ENDBRANCH  23  26
ENDBRANCH  19  20
ENDBRANCH   2  19
TORSDOF 7
