REMARK  3 active torsions:
REMARK  status: ('A' for Active; 'I' for Inactive)
REMARK    1  A    between atoms: C_7  and  C_1 
REMARK    2  A    between atoms: C_9  and  N_4 
REMARK    3  A    between atoms: S_11  and  C_5 
REMARK       I    between atoms: N_8  and  C_7 
ROOT
ATOM      1  C   UNL d   1      -0.230   1.144   0.147  0.00  0.00     0.084 A 
ATOM      2  N   UNL d   1       1.014  -0.771   0.352  0.00  0.00    -0.287 N 
ATOM      3  HN  UNL d   1       1.796  -1.413   0.485  1.00  0.00     0.188 HD
ATOM      4  N   UNL d   1      -0.273  -1.085   0.097  0.00  0.00    -0.266 N 
ATOM      5  C   UNL d   1       1.039   0.563   0.391  0.00  0.00     0.102 A 
ATOM      6  C   UNL d   1      -1.051   0.041  -0.018  0.00  0.00     0.136 A 
ENDROOT
BRANCH   1   7
ATOM      7  C   UNL d   1      -0.626   2.546   0.153  0.00  0.00     0.258 C 
ATOM      8  N   UNL d   1      -1.636   2.962  -0.706  0.00  0.00    -0.348 N 
ATOM      9  C   UNL d   1      -2.312   2.224  -1.757  0.00  0.00     0.126 C 
ATOM     10  C   UNL d   1      -2.102   4.336  -0.660  0.00  0.00     0.126 C 
ATOM     11  C   UNL d   1      -2.747   3.293  -2.742  0.00  0.00     0.021 C 
ATOM     12  C   UNL d   1      -3.014   4.512  -1.869  0.00  0.00     0.021 C 
ATOM     13  O   UNL d   1      -0.088   3.349   0.913  0.00  0.00    -0.267 OA
ENDBRANCH   1   7
BRANCH   5  14
ATOM     14  S   UNL d   1       2.534   1.424   0.688  0.00  0.00    -0.114 SA
ATOM     15  C   UNL d   1       3.768   0.126   0.462  0.00  0.00     0.097 C 
ENDBRANCH   5  14
BRANCH   4  16
ATOM     16  C   UNL d   1      -0.689  -2.443  -0.017  0.00  0.00     0.056 A 
ATOM     17  C   UNL d   1      -2.014  -2.770  -0.338  0.00  0.00     0.031 A 
ATOM     18  C   UNL d   1      -2.398  -4.114  -0.436  0.00  0.00     0.002 A 
ATOM     19  C   UNL d   1      -1.466  -5.124  -0.220  0.00  0.00     0.000 A 
ATOM     20  C   UNL d   1      -0.148  -4.805   0.099  0.00  0.00     0.002 A 
ATOM     21  C   UNL d   1       0.244  -3.467   0.194  0.00  0.00     0.031 A 
ENDBRANCH   4  16
TORSDOF 3
