REMARK  6 active torsions:
REMARK  status: ('A' for Active; 'I' for Inactive)
REMARK    1  A    between atoms: C_7  and  C_1 
REMARK    2  A    between atoms: C_10  and  C_2 
REMARK    3  A    between atoms: N_6  and  C_7 
REMARK    4  A    between atoms: C_8  and  C_12 
REMARK    5  A    between atoms: C_11  and  C_8 
REMARK    6  A    between atoms: O_29  and  C_23 
ROOT
ATOM      1  C   UNL d   1       2.219   1.679   0.159  0.00  0.00     0.315 C 
ENDROOT
BRANCH   1   2
ATOM      2  N   UNL d   1       3.524   0.969   0.112  0.00  0.00     0.092 N 
ATOM      3  C   UNL d   1       3.648   0.033   1.247  0.00  0.00     0.273 C 
ATOM      4  C   UNL d   1       4.921  -0.813   1.169  0.00  0.00     0.043 C 
ATOM      5  C   UNL d   1       4.988  -1.613  -0.129  0.00  0.00     0.064 C 
ATOM      6  C   UNL d   1       4.804  -0.659  -1.314  0.00  0.00     0.043 C 
ATOM      7  C   UNL d   1       3.578   0.244  -1.175  0.00  0.00     0.273 C 
BRANCH   5   8
ATOM      8  C   UNL d   1       3.948  -2.743  -0.119  0.00  0.00     0.163 C 
ATOM      9  O   UNL d   1       2.808  -2.582  -0.546  0.00  0.00    -0.292 OA
BRANCH   8  10
ATOM     10  C   UNL d   1       4.308  -4.093   0.428  0.00  0.00     0.010 A 
ATOM     11  C   UNL d   1       5.559  -4.393   0.981  0.00  0.00     0.018 A 
ATOM     12  C   UNL d   1       5.856  -5.702   1.374  0.00  0.00     0.043 A 
ATOM     13  C   UNL d   1       4.902  -6.704   1.232  0.00  0.00     0.116 A 
ATOM     14  C   UNL d   1       3.639  -6.415   0.734  0.00  0.00     0.043 A 
ATOM     15  F   UNL d   1       5.206  -7.960   1.577  0.00  0.00    -0.206 F 
ATOM     16  C   UNL d   1       3.340  -5.112   0.336  0.00  0.00     0.018 A 
ENDBRANCH   8  10
ENDBRANCH   5   8
ENDBRANCH   1   2
BRANCH   1  17
ATOM     17  C   UNL d   1       2.110   2.709   1.241  0.00  0.00     0.016 A 
ATOM     18  C   UNL d   1       0.968   3.536   1.558  0.00  0.00     0.067 A 
ATOM     19  N   UNL d   1       1.243   4.342   2.598  0.00  0.00    -0.300 N 
ATOM     20  N   UNL d   1       2.509   4.070   2.922  0.00  0.00    -0.311 N 
ATOM     21  HN  UNL d   1       0.619   5.016   3.043  1.00  0.00     0.187 HD
ATOM     22  C   UNL d   1       3.086   3.143   2.120  0.00  0.00     0.118 A 
ATOM     23  H   UNL d   1       2.922   4.568   3.702  0.00  0.00     0.186 HD
BRANCH  18  24
ATOM     24  C   UNL d   1      -0.346   3.630   0.900  0.00  0.00    -0.007 A 
ATOM     25  C   UNL d   1      -0.970   2.533   0.301  0.00  0.00     0.016 A 
ATOM     26  C   UNL d   1      -2.205   2.664  -0.350  0.00  0.00     0.037 A 
ATOM     27  C   UNL d   1      -2.852   3.898  -0.392  0.00  0.00     0.068 A 
ATOM     28  C   UNL d   1      -2.256   4.994   0.230  0.00  0.00     0.037 A 
ATOM     29  C   UNL d   1      -1.018   4.864   0.868  0.00  0.00     0.016 A 
BRANCH  27  30
ATOM     30  O   UNL d   1      -4.053   4.151  -0.994  0.00  0.00    -0.356 OA
ATOM     31  C   UNL d   1      -4.681   3.053  -1.645  0.00  0.00     0.210 C 
ENDBRANCH  27  30
ENDBRANCH  18  24
ENDBRANCH   1  17
TORSDOF 6
