REMARK  4 active torsions:
REMARK  status: ('A' for Active; 'I' for Inactive)
REMARK    1  A    between atoms: C_4  and  C_1 
REMARK    2  A    between atoms: C_10  and  C_4 
REMARK    3  A    between atoms: N_11  and  C_6 
REMARK    4  A    between atoms: C_17  and  N_11 
ROOT
ATOM      1  C   UNL d   1       0.896  -0.059  -0.039  0.00  0.00     0.110 C 
ATOM      2  C   UNL d   1       0.218   0.631  -0.975  0.00  0.00     0.115 C 
ATOM      3  C   UNL d   1       0.214  -0.829   0.940  0.00  0.00     0.105 C 
ATOM      4  N   UNL d   1      -0.370  -1.425   1.746  0.00  0.00    -0.191 NA
ENDROOT
BRANCH   1   5
ATOM      5  C   UNL d   1       2.389  -0.012  -0.076  0.00  0.00     0.204 C 
ATOM      6  O   UNL d   1       2.996   0.212  -1.120  0.00  0.00    -0.286 OA
BRANCH   5   7
ATOM      7  C   UNL d   1       3.173  -0.236   1.174  0.00  0.00     0.016 A 
ATOM      8  C   UNL d   1       4.433  -0.842   1.070  0.00  0.00     0.017 A 
ATOM      9  C   UNL d   1       5.218  -1.044   2.211  0.00  0.00     0.025 A 
ATOM     10  C   UNL d   1       4.748  -0.631   3.455  0.00  0.00     0.034 A 
ATOM     11  C   UNL d   1       3.506  -0.012   3.569  0.00  0.00     0.025 A 
ATOM     12 CL   UNL d   1       5.715  -0.866   4.859  0.00  0.00    -0.084 Cl
ATOM     13  C   UNL d   1       2.723   0.201   2.429  0.00  0.00     0.017 A 
ENDBRANCH   5   7
ENDBRANCH   1   5
BRANCH   2  14
ATOM     14  N   UNL d   1      -1.147   0.805  -1.082  0.00  0.00    -0.364 N 
ATOM     15  H   UNL d   1      -1.718   0.471  -0.310  0.00  0.00     0.165 HD
BRANCH  14  16
ATOM     16  C   UNL d   1      -1.863   1.445  -2.108  0.00  0.00     0.033 A 
ATOM     17  C   UNL d   1      -1.391   1.542  -3.420  0.00  0.00     0.047 A 
ATOM     18  C   UNL d   1      -2.145   2.259  -4.336  0.00  0.00     0.050 A 
ATOM     19  C   UNL d   1      -1.878   2.481  -5.750  0.00  0.00     0.294 A 
ATOM     20  C   UNL d   1      -3.318   2.902  -4.002  0.00  0.00    -0.018 A 
ATOM     21  O   UNL d   1      -2.889   3.274  -6.219  0.00  0.00    -0.313 OA
ATOM     22  O   UNL d   1      -0.943   2.043  -6.388  0.00  0.00    -0.259 OA
ATOM     23  C   UNL d   1      -3.839   3.611  -5.186  0.00  0.00     0.218 A 
ATOM     24  C   UNL d   1      -3.810   2.827  -2.715  0.00  0.00     0.012 A 
ATOM     25  C   UNL d   1      -3.077   2.093  -1.773  0.00  0.00     0.030 A 
ENDBRANCH  14  16
ENDBRANCH   2  14
TORSDOF 4
