REMARK  7 active torsions:
REMARK  status: ('A' for Active; 'I' for Inactive)
REMARK       I    between atoms: N_6  and  C_1 
REMARK    1  A    between atoms: C_7  and  C_1 
REMARK    2  A    between atoms: C_3  and  C_7 
REMARK    3  A    between atoms: C_8  and  C_3 
REMARK    4  A    between atoms: C_11  and  C_3 
REMARK    5  A    between atoms: C_5  and  C_8 
REMARK    6  A    between atoms: O_14  and  C_5 
REMARK    7  A    between atoms: C_13  and  N_6 
ROOT
ATOM      1  N   UNL d   1       7.614   4.171   1.039  0.00  0.00    -0.191 NA
ATOM      2  C   UNL d   1       6.738   3.429   0.851  0.00  0.00     0.099 C 
ATOM      3  C   UNL d   1       5.657   2.516   0.625  0.00  0.00     0.044 A 
ATOM      4  C   UNL d   1       3.522   0.733   0.199  0.00  0.00     0.034 A 
ATOM      5  C   UNL d   1       4.345   2.984   0.599  0.00  0.00     0.025 A 
ATOM      6  C   UNL d   1       5.908   1.155   0.431  0.00  0.00     0.025 A 
ATOM      7  C   UNL d   1       3.284   2.097   0.387  0.00  0.00     0.031 A 
ATOM      8  C   UNL d   1       4.845   0.269   0.216  0.00  0.00     0.031 A 
ENDROOT
BRANCH   4   9
ATOM      9  N   UNL d   1       2.497  -0.208  -0.028  0.00  0.00    -0.327 N 
ATOM     10  C   UNL d   1       1.130   0.027  -0.001  0.00  0.00     0.222 C 
ATOM     11  O   UNL d   1       0.573   1.067   0.334  0.00  0.00    -0.273 OA
ATOM     12  H   UNL d   1       2.797  -1.159  -0.213  0.00  0.00     0.169 HD
BRANCH  10  13
ATOM     13  C   UNL d   1       0.347  -1.213  -0.388  0.00  0.00     0.113 C 
BRANCH  13  14
ATOM     14  C   UNL d   1      -1.187  -1.022  -0.480  0.00  0.00     0.037 C 
BRANCH  14  15
ATOM     15  C   UNL d   1      -1.606   0.030  -1.531  0.00  0.00     0.119 C 
BRANCH  15  16
ATOM     16  C   UNL d   1      -1.193  -0.328  -2.935  0.00  0.00     0.140 C 
ATOM     17  O   UNL d   1      -0.071  -0.135  -3.380  0.00  0.00    -0.650 OA
BRANCH  16  18
ATOM     18  O   UNL d   1      -2.170  -0.905  -3.666  0.00  0.00    -0.776 OA
ATOM     19  H   UNL d   1      -2.992  -1.078  -3.168  0.00  0.00     0.167 HD
ENDBRANCH  16  18
ENDBRANCH  15  16
ENDBRANCH  14  15
BRANCH  14  20
ATOM     20  C   UNL d   1      -1.947  -2.343  -0.671  0.00  0.00    -0.053 A 
ATOM     21  C   UNL d   1      -1.294  -3.579  -0.818  0.00  0.00     0.007 A 
ATOM     22  C   UNL d   1      -2.011  -4.766  -0.980  0.00  0.00     0.001 A 
ATOM     23  C   UNL d   1      -3.400  -4.742  -1.016  0.00  0.00     0.000 A 
ATOM     24  C   UNL d   1      -4.072  -3.533  -0.867  0.00  0.00     0.001 A 
ATOM     25  C   UNL d   1      -3.354  -2.348  -0.677  0.00  0.00     0.007 A 
ENDBRANCH  14  20
ENDBRANCH  13  14
ENDBRANCH  10  13
ENDBRANCH   4   9
TORSDOF 7
