REMARK  4 active torsions:
REMARK  status: ('A' for Active; 'I' for Inactive)
REMARK    1  A    between atoms: C_12  and  N_6 
REMARK    2  A    between atoms: C_8  and  C_9 
REMARK    3  A    between atoms: O_15  and  C_8 
REMARK    4  A    between atoms: C_20  and  O_15 
ROOT
ATOM      1  C   UNL d   1      -1.969  -0.689  -1.110  0.00  0.00     0.146 C 
ATOM      2  N   UNL d   1      -2.368   0.317  -0.277  0.00  0.00    -0.356 N 
ATOM      3  S   UNL d   1      -0.602  -0.160  -2.090  0.00  0.00    -0.057 SA
ATOM      4  C   UNL d   1      -0.622   1.438  -1.395  0.00  0.00     0.005 C 
ATOM      5  C   UNL d   1      -1.827   1.659  -0.481  0.00  0.00     0.065 C 
ATOM      6  N   UNL d   1      -2.556  -1.845  -1.140  0.00  0.00    -0.337 N 
ATOM      7  HN  UNL d   1      -3.357  -2.019  -0.533  1.00  0.00     0.168 HD
ATOM      8  C   UNL d   1       0.355   2.310  -1.682  0.00  0.00     0.029 C 
ATOM      9  C   UNL d   1      -2.872   2.527  -1.215  0.00  0.00     0.036 C 
ATOM     10  C   UNL d   1      -1.430   2.251   0.888  0.00  0.00     0.036 C 
ATOM     11  C   UNL d   1      -4.039   2.953  -0.328  0.00  0.00     0.003 C 
ATOM     12  C   UNL d   1      -2.628   2.691   1.732  0.00  0.00     0.003 C 
ATOM     13  C   UNL d   1      -3.549   3.620   0.950  0.00  0.00     0.000 C 
ATOM     14  H   UNL d   1      -3.260   0.192   0.180  0.00  0.00     0.162 HD
ENDROOT
BRANCH   6  15
ATOM     15  C   UNL d   1      -2.103  -2.858  -1.996  0.00  0.00     0.034 A 
ATOM     16  C   UNL d   1      -0.819  -3.401  -1.866  0.00  0.00     0.030 A 
ATOM     17  C   UNL d   1      -0.368  -4.381  -2.748  0.00  0.00     0.020 A 
ATOM     18  C   UNL d   1      -1.222  -4.883  -3.738  0.00  0.00     0.039 A 
ATOM     19  C   UNL d   1      -2.531  -4.395  -3.829  0.00  0.00     0.020 A 
ATOM     20  C   UNL d   1      -2.963  -3.385  -2.961  0.00  0.00     0.030 A 
BRANCH  18  21
ATOM     21  C   UNL d   1      -0.794  -5.987  -4.635  0.00  0.00     0.293 C 
ATOM     22  O   UNL d   1      -1.560  -6.661  -5.304  0.00  0.00    -0.259 OA
BRANCH  21  23
ATOM     23  O   UNL d   1       0.544  -6.164  -4.516  0.00  0.00    -0.318 OA
BRANCH  23  24
ATOM     24  C   UNL d   1       1.057  -7.427  -4.954  0.00  0.00     0.174 C 
ATOM     25  C   UNL d   1       0.966  -8.396  -3.789  0.00  0.00     0.034 C 
ENDBRANCH  23  24
ENDBRANCH  21  23
ENDBRANCH  18  21
ENDBRANCH   6  15
TORSDOF 4
