REMARK  5 active torsions:
REMARK  status: ('A' for Active; 'I' for Inactive)
REMARK    1  A    between atoms: N_2  and  C_1 
REMARK    2  A    between atoms: N_9  and  C_1 
REMARK    3  A    between atoms: C_3  and  N_2 
REMARK    4  A    between atoms: N_5  and  N_9 
REMARK    5  A    between atoms: C_10  and  C_12 
ROOT
ATOM      1  N   UNL d   1       2.352   1.745   1.746  0.00  0.00    -0.276 N 
ATOM      2  H   UNL d   1       2.936   2.043   2.523  0.00  0.00     0.189 HD
ENDROOT
BRANCH   1   3
ATOM      3  N   UNL d   1       2.942   1.353   0.585  0.00  0.00    -0.309 N 
ATOM      4  C   UNL d   1       4.075   1.910   0.252  0.00  0.00     0.119 C 
ATOM      5  HN  UNL d   1       2.511   0.645  -0.009  1.00  0.00     0.186 HD
BRANCH   4   6
ATOM      6  C   UNL d   1       4.727   3.144   0.775  0.00  0.00    -0.008 A 
ATOM      7  C   UNL d   1       6.143   3.290   0.748  0.00  0.00    -0.014 A 
ATOM      8  C   UNL d   1       6.692   4.563   1.068  0.00  0.00    -0.025 A 
ATOM      9  C   UNL d   1       7.060   2.259   0.420  0.00  0.00     0.013 A 
ATOM     10  C   UNL d   1       8.077   4.773   1.015  0.00  0.00     0.012 A 
ATOM     11  C   UNL d   1       5.844   5.623   1.423  0.00  0.00     0.012 A 
ATOM     12  C   UNL d   1       8.949   3.744   0.667  0.00  0.00     0.001 A 
ATOM     13  C   UNL d   1       8.440   2.485   0.378  0.00  0.00     0.001 A 
ATOM     14  C   UNL d   1       4.463   5.458   1.452  0.00  0.00     0.002 A 
ATOM     15  C   UNL d   1       3.905   4.231   1.113  0.00  0.00     0.014 A 
ENDBRANCH   4   6
ENDBRANCH   1   3
BRANCH   1  16
ATOM     16  C   UNL d   1       0.993   1.658   1.965  0.00  0.00     0.191 C 
ATOM     17  S   UNL d   1       0.434   1.959   3.514  0.00  0.00    -0.039 SA
BRANCH  16  18
ATOM     18  N   UNL d   1       0.256   1.336   0.846  0.00  0.00    -0.332 N 
ATOM     19  H   UNL d   1       0.794   0.820   0.158  0.00  0.00     0.168 HD
BRANCH  18  20
ATOM     20  C   UNL d   1      -1.059   1.734   0.493  0.00  0.00     0.040 A 
ATOM     21  C   UNL d   1      -1.821   0.998  -0.449  0.00  0.00    -0.029 A 
ATOM     22  C   UNL d   1      -3.073   1.514  -0.882  0.00  0.00    -0.054 A 
ATOM     23  C   UNL d   1      -1.374  -0.352  -0.952  0.00  0.00     0.051 C 
ATOM     24  C   UNL d   1      -3.962   0.828  -1.888  0.00  0.00     0.049 C 
ATOM     25  C   UNL d   1      -3.555   2.721  -0.349  0.00  0.00     0.007 A 
ATOM     26  C   UNL d   1      -2.811   3.428   0.583  0.00  0.00     0.003 A 
ATOM     27  C   UNL d   1      -1.573   2.942   0.988  0.00  0.00     0.030 A 
ENDBRANCH  18  20
ENDBRANCH  16  18
ENDBRANCH   1  16
TORSDOF 5
