REMARK  6 active torsions:
REMARK  status: ('A' for Active; 'I' for Inactive)
REMARK    1  A    between atoms: N_2  and  S_1 
REMARK    2  A    between atoms: C_4  and  S_1 
REMARK    3  A    between atoms: C_3  and  N_2 
REMARK    4  A    between atoms: O_5  and  C_7 
REMARK    5  A    between atoms: C_6  and  O_5 
REMARK    6  A    between atoms: C_24  and  C_21 
ROOT
ATOM      1  C   UNL d   1       0.828  -2.025   1.780  0.00  0.00     0.076 A 
ATOM      2  C   UNL d   1       2.082  -2.647   1.667  0.00  0.00     0.103 A 
ATOM      3  C   UNL d   1      -0.238  -2.718   2.369  0.00  0.00     0.033 A 
ATOM      4  C   UNL d   1       2.276  -3.905   2.257  0.00  0.00     0.039 A 
ATOM      5  C   UNL d   1      -0.053  -4.006   2.873  0.00  0.00     0.002 A 
ATOM      6  C   UNL d   1       1.209  -4.590   2.840  0.00  0.00     0.003 A 
ENDROOT
BRANCH   1   7
ATOM      7  N   UNL d   1       0.614  -0.679   1.357  0.00  0.00    -0.278 N 
ATOM      8  H   UNL d   1       0.251  -0.019   2.043  0.00  0.00     0.179 HD
BRANCH   7   9
ATOM      9  S   UNL d   1       0.162  -0.322  -0.221  0.00  0.00     0.263 S 
ATOM     10  O   UNL d   1       1.122  -0.892  -1.143  0.00  0.00    -0.200 OA
ATOM     11  O   UNL d   1      -0.160   1.088  -0.242  0.00  0.00    -0.200 OA
BRANCH   9  12
ATOM     12  C   UNL d   1      -1.365  -1.214  -0.411  0.00  0.00     0.079 A 
ATOM     13  C   UNL d   1      -2.568  -0.632  -0.002  0.00  0.00     0.026 A 
ATOM     14  C   UNL d   1      -3.748  -1.375  -0.073  0.00  0.00     0.009 A 
ATOM     15  C   UNL d   1      -3.727  -2.691  -0.560  0.00  0.00    -0.058 A 
ATOM     16  C   UNL d   1      -2.521  -3.237  -1.022  0.00  0.00     0.009 A 
ATOM     17  C   UNL d   1      -1.342  -2.499  -0.957  0.00  0.00     0.026 A 
BRANCH  15  18
ATOM     18  C   UNL d   1      -4.971  -3.542  -0.516  0.00  0.00     0.034 C 
ATOM     19  C   UNL d   1      -5.083  -4.260   0.822  0.00  0.00     0.010 C 
ENDBRANCH  15  18
ENDBRANCH   9  12
ENDBRANCH   7   9
ENDBRANCH   1   7
BRANCH   2  20
ATOM     20  O   UNL d   1       3.102  -1.955   1.044  0.00  0.00    -0.307 OA
BRANCH  20  21
ATOM     21  C   UNL d   1       4.091  -2.679   0.406  0.00  0.00     0.098 A 
ATOM     22  C   UNL d   1       5.428  -2.310   0.600  0.00  0.00     0.069 A 
ATOM     23  C   UNL d   1       6.457  -3.052   0.014  0.00  0.00     0.050 A 
ATOM     24 CL   UNL d   1       5.854  -0.959   1.587  0.00  0.00    -0.081 Cl
ATOM     25  C   UNL d   1       6.146  -4.158  -0.774  0.00  0.00     0.035 A 
ATOM     26  C   UNL d   1       4.818  -4.507  -1.013  0.00  0.00     0.026 A 
ATOM     27 CL   UNL d   1       7.410  -5.105  -1.457  0.00  0.00    -0.084 Cl
ATOM     28  C   UNL d   1       3.790  -3.752  -0.445  0.00  0.00     0.041 A 
ENDBRANCH  20  21
ENDBRANCH   2  20
TORSDOF 6
