REMARK  5 active torsions:
REMARK  status: ('A' for Active; 'I' for Inactive)
REMARK    1  A    between atoms: C_2  and  N_1 
REMARK    2  A    between atoms: C_3  and  N_1 
REMARK    3  A    between atoms: C_4  and  N_1 
REMARK    4  A    between atoms: C_5  and  C_2 
REMARK    5  A    between atoms: C_6  and  C_3 
ROOT
ATOM      1  N   UNL d   1       1.066   0.068  -0.309  0.00  0.00    -0.372 N 
ENDROOT
BRANCH   1   2
ATOM      2  C   UNL d   1       0.499  -1.287  -0.228  0.00  0.00     0.162 C 
BRANCH   2   3
ATOM      3  C   UNL d   1       0.634  -1.986   1.118  0.00  0.00    -0.040 A 
ATOM      4  C   UNL d   1       1.334  -1.460   2.214  0.00  0.00     0.009 A 
ATOM      5  C   UNL d   1       1.495  -2.198   3.389  0.00  0.00     0.001 A 
ATOM      6  C   UNL d   1       0.942  -3.472   3.499  0.00  0.00     0.000 A 
ATOM      7  C   UNL d   1       0.220  -4.004   2.434  0.00  0.00     0.001 A 
ATOM      8  C   UNL d   1       0.069  -3.269   1.256  0.00  0.00     0.009 A 
ENDBRANCH   2   3
ENDBRANCH   1   2
BRANCH   1   9
ATOM      9  C   UNL d   1       0.152   1.170   0.028  0.00  0.00     0.162 C 
BRANCH   9  10
ATOM     10  C   UNL d   1      -0.455   1.927  -1.146  0.00  0.00    -0.040 A 
ATOM     11  C   UNL d   1      -0.096   1.726  -2.487  0.00  0.00     0.009 A 
ATOM     12  C   UNL d   1      -0.623   2.535  -3.500  0.00  0.00     0.001 A 
ATOM     13  C   UNL d   1      -1.539   3.538  -3.193  0.00  0.00     0.000 A 
ATOM     14  C   UNL d   1      -1.933   3.733  -1.873  0.00  0.00     0.001 A 
ATOM     15  C   UNL d   1      -1.394   2.937  -0.860  0.00  0.00     0.009 A 
ENDBRANCH   9  10
ENDBRANCH   1   9
BRANCH   1  16
ATOM     16  C   UNL d   1       2.421   0.283  -0.556  0.00  0.00     0.030 A 
ATOM     17  C   UNL d   1       3.375  -0.748  -0.467  0.00  0.00     0.029 A 
ATOM     18  C   UNL d   1       4.736  -0.539  -0.724  0.00  0.00     0.002 A 
ATOM     19  C   UNL d   1       5.187   0.714  -1.113  0.00  0.00     0.000 A 
ATOM     20  C   UNL d   1       4.278   1.756  -1.218  0.00  0.00     0.002 A 
ATOM     21  C   UNL d   1       2.924   1.544  -0.924  0.00  0.00     0.029 A 
ENDBRANCH   1  16
TORSDOF 5
