REMARK  3 active torsions:
REMARK  status: ('A' for Active; 'I' for Inactive)
REMARK    1  A    between atoms: C_9  and  C_1 
REMARK       I    between atoms: C_6  and  N_8 
REMARK       I    between atoms: N_7  and  C_6 
REMARK    2  A    between atoms: C_11  and  N_7 
REMARK    3  A    between atoms: N_8  and  C_9 
ROOT
ATOM      1  C   UNL d   1       5.465   1.577  -0.460  0.00  0.00     0.321 C 
ATOM      2  N   UNL d   1       5.927   2.833  -0.782  0.00  0.00    -0.309 N 
ATOM      3  N   UNL d   1       4.086   1.515  -0.390  0.00  0.00    -0.338 N 
ATOM      4  O   UNL d   1       6.154   0.578  -0.262  0.00  0.00    -0.247 OA
ATOM      5  H   UNL d   1       5.227   3.538  -0.949  0.00  0.00     0.170 HD
ATOM      6  H   UNL d   1       3.568   2.363  -0.222  0.00  0.00     0.164 HD
ENDROOT
BRANCH   3   7
ATOM      7  C   UNL d   1       3.500   0.265   0.043  0.00  0.00     0.171 C 
BRANCH   7   8
ATOM      8  C   UNL d   1       2.022   0.386   0.266  0.00  0.00     0.008 A 
ATOM      9  S   UNL d   1       1.454   0.802   1.826  0.00  0.00    -0.092 SA
ATOM     10  C   UNL d   1      -0.185   0.502   1.413  0.00  0.00     0.016 A 
ATOM     11  C   UNL d   1      -1.303   0.569   2.269  0.00  0.00     0.019 A 
ATOM     12  C   UNL d   1      -0.311   0.157   0.066  0.00  0.00    -0.012 A 
ATOM     13  C   UNL d   1      -2.569   0.272   1.760  0.00  0.00     0.001 A 
ATOM     14  C   UNL d   1      -2.726  -0.074   0.427  0.00  0.00     0.001 A 
ATOM     15  C   UNL d   1      -1.614  -0.130  -0.419  0.00  0.00     0.013 A 
ATOM     16  C   UNL d   1       0.975   0.127  -0.608  0.00  0.00    -0.036 A 
ATOM     17  C   UNL d   1       1.123  -0.226  -2.055  0.00  0.00     0.050 C 
ENDBRANCH   7   8
ENDBRANCH   3   7
BRANCH   2  18
ATOM     18  C   UNL d   1       7.279   3.243  -0.895  0.00  0.00     0.036 A 
ATOM     19  C   UNL d   1       8.372   2.389  -0.718  0.00  0.00     0.029 A 
ATOM     20  C   UNL d   1       9.683   2.876  -0.789  0.00  0.00     0.002 A 
ATOM     21  C   UNL d   1       9.916   4.223  -1.047  0.00  0.00     0.000 A 
ATOM     22  C   UNL d   1       8.839   5.080  -1.255  0.00  0.00     0.002 A 
ATOM     23  C   UNL d   1       7.529   4.591  -1.185  0.00  0.00     0.029 A 
ENDBRANCH   2  18
TORSDOF 3
