REMARK  5 active torsions:
REMARK  status: ('A' for Active; 'I' for Inactive)
REMARK    1  A    between atoms: C_3  and  S_1 
REMARK    2  A    between atoms: N_6  and  S_1 
REMARK    3  A    between atoms: S_4  and  C_2 
REMARK    4  A    between atoms: C_18  and  S_4 
REMARK    5  A    between atoms: C_8  and  N_10 
ROOT
ATOM      1  S   UNL d   1       0.893   0.022   0.061  0.00  0.00     0.250 S 
ATOM      2  O   UNL d   1       0.280   1.130  -0.633  0.00  0.00    -0.205 OA
ATOM      3  O   UNL d   1       0.612  -0.237   1.460  0.00  0.00    -0.205 OA
ENDROOT
BRANCH   1   4
ATOM      4  C   UNL d   1       2.666   0.320   0.045  0.00  0.00     0.116 A 
ATOM      5  C   UNL d   1       3.654  -0.069   0.931  0.00  0.00     0.056 A 
ATOM      6  C   UNL d   1       4.921   0.506   0.616  0.00  0.00     0.072 A 
ATOM      7  C   UNL d   1       4.888   1.212  -0.568  0.00  0.00     0.074 A 
ATOM      8  S   UNL d   1       3.314   1.241  -1.244  0.00  0.00    -0.087 SA
BRANCH   6   9
ATOM      9  S   UNL d   1       6.318   0.368   1.637  0.00  0.00     0.207 S 
ATOM     10  O   UNL d   1       6.194  -0.940   2.245  0.00  0.00    -0.217 OA
ATOM     11  O   UNL d   1       7.437   0.733   0.791  0.00  0.00    -0.217 OA
BRANCH   9  12
ATOM     12  C   UNL d   1       6.088   1.618   2.874  0.00  0.00     0.064 A 
ATOM     13  C   UNL d   1       5.414   1.299   4.058  0.00  0.00     0.024 A 
ATOM     14  C   UNL d   1       5.252   2.273   5.041  0.00  0.00     0.002 A 
ATOM     15  C   UNL d   1       5.773   3.553   4.850  0.00  0.00     0.000 A 
ATOM     16  C   UNL d   1       6.460   3.864   3.672  0.00  0.00     0.002 A 
ATOM     17  C   UNL d   1       6.623   2.894   2.681  0.00  0.00     0.024 A 
ENDBRANCH   9  12
ENDBRANCH   6   9
ENDBRANCH   1   4
BRANCH   1  18
ATOM     18  N   UNL d   1       0.593  -1.436  -0.816  0.00  0.00    -0.204 NA
ATOM     19  C   UNL d   1       0.731  -1.224  -2.290  0.00  0.00     0.127 C 
ATOM     20  C   UNL d   1       0.234  -2.378  -3.159  0.00  0.00     0.138 C 
ATOM     21  N   UNL d   1       0.984  -3.623  -2.913  0.00  0.00    -0.377 N 
ATOM     22  C   UNL d   1       0.402  -4.470  -1.865  0.00  0.00     0.124 C 
ATOM     23  C   UNL d   1       0.642  -3.934  -0.450  0.00  0.00     0.035 C 
ATOM     24  C   UNL d   1       1.370  -2.602  -0.302  0.00  0.00     0.109 C 
BRANCH  21  25
ATOM     25  C   UNL d   1       1.875  -4.182  -3.844  0.00  0.00     0.077 A 
ATOM     26  C   UNL d   1       3.058  -4.854  -3.425  0.00  0.00     0.077 A 
ATOM     27 CL   UNL d   1       3.530  -5.064  -1.771  0.00  0.00    -0.080 Cl
ATOM     28  C   UNL d   1       3.968  -5.350  -4.363  0.00  0.00     0.113 A 
ATOM     29  N   UNL d   1       3.830  -5.230  -5.696  0.00  0.00    -0.372 N 
ATOM     30  C   UNL d   1       2.704  -4.616  -6.104  0.00  0.00     0.113 A 
ATOM     31  HN  UNL d   1       4.530  -5.579  -6.351  1.00  0.00     0.164 HD
ATOM     32  C   UNL d   1       1.711  -4.116  -5.253  0.00  0.00     0.077 A 
ATOM     33 CL   UNL d   1       0.277  -3.575  -6.066  0.00  0.00    -0.080 Cl
ENDBRANCH  21  25
ENDBRANCH   1  18
TORSDOF 5
