REMARK  7 active torsions:
REMARK  status: ('A' for Active; 'I' for Inactive)
REMARK    1  A    between atoms: C_4  and  C_1 
REMARK    2  A    between atoms: N_2  and  C_3 
REMARK       I    between atoms: N_16  and  C_4 
REMARK    3  A    between atoms: O_20  and  C_5 
REMARK    4  A    between atoms: O_24  and  C_6 
REMARK    5  A    between atoms: O_23  and  C_7 
REMARK    6  A    between atoms: N_9  and  N_16 
REMARK    7  A    between atoms: C_17  and  C_19 
ROOT
ATOM      1  N   UNL d   1       2.478  -2.488  -0.118  0.00  0.00    -0.308 N 
ATOM      2  HN  UNL d   1       1.461  -2.450  -0.180  1.00  0.00     0.186 HD
ATOM      3  C   UNL d   1       3.119  -3.612  -0.106  0.00  0.00     0.118 C 
ENDROOT
BRANCH   1   4
ATOM      4  N   UNL d   1       3.240  -1.353  -0.042  0.00  0.00    -0.266 N 
ATOM      5  C   UNL d   1       2.606  -0.122  -0.090  0.00  0.00     0.272 C 
ATOM      6  O   UNL d   1       1.386   0.011  -0.215  0.00  0.00    -0.266 OA
ATOM      7  H   UNL d   1       4.248  -1.448   0.086  0.00  0.00     0.190 HD
BRANCH   5   8
ATOM      8  C   UNL d   1       3.411   1.128   0.060  0.00  0.00     0.067 A 
ATOM      9  C   UNL d   1       4.687   1.389  -0.449  0.00  0.00     0.118 A 
ATOM     10  C   UNL d   1       5.284   2.659  -0.336  0.00  0.00     0.037 A 
ATOM     11  C   UNL d   1       4.600   3.696   0.296  0.00  0.00     0.009 A 
ATOM     12  C   UNL d   1       3.324   3.473   0.819  0.00  0.00    -0.061 A 
ATOM     13  C   UNL d   1       2.744   2.199   0.696  0.00  0.00     0.026 A 
ATOM     14  C   UNL d   1       2.572   4.598   1.472  0.00  0.00     0.048 C 
BRANCH   9  15
ATOM     15  N   UNL d   1       5.456   0.380  -1.139  0.00  0.00    -0.115 N 
ATOM     16  O   UNL d   1       5.744  -0.641  -0.497  0.00  0.00    -0.532 OA
ATOM     17  O   UNL d   1       5.818   0.629  -2.295  0.00  0.00    -0.532 OA
ENDBRANCH   9  15
ENDBRANCH   5   8
ENDBRANCH   1   4
BRANCH   3  18
ATOM     18  C   UNL d   1       2.412  -4.914  -0.158  0.00  0.00    -0.014 A 
ATOM     19  C   UNL d   1       1.018  -4.980  -0.182  0.00  0.00     0.052 A 
ATOM     20  C   UNL d   1       0.380  -6.226  -0.200  0.00  0.00     0.105 A 
ATOM     21  C   UNL d   1       1.143  -7.423  -0.201  0.00  0.00     0.135 A 
ATOM     22  C   UNL d   1       2.550  -7.343  -0.194  0.00  0.00     0.105 A 
ATOM     23  C   UNL d   1       3.172  -6.085  -0.160  0.00  0.00     0.052 A 
BRANCH  20  24
ATOM     24  O   UNL d   1      -0.987  -6.387  -0.212  0.00  0.00    -0.353 OA
ATOM     25  C   UNL d   1      -1.796  -5.218  -0.197  0.00  0.00     0.210 C 
ENDBRANCH  20  24
BRANCH  21  26
ATOM     26  O   UNL d   1       0.377  -8.565  -0.211  0.00  0.00    -0.351 OA
ATOM     27  C   UNL d   1       0.996  -9.840  -0.250  0.00  0.00     0.210 C 
ENDBRANCH  21  26
BRANCH  22  28
ATOM     28  O   UNL d   1       3.290  -8.497  -0.136  0.00  0.00    -0.353 OA
ATOM     29  C   UNL d   1       4.546  -8.482  -0.806  0.00  0.00     0.210 C 
ENDBRANCH  22  28
ENDBRANCH   3  18
TORSDOF 7
