REMARK  6 active torsions:
REMARK  status: ('A' for Active; 'I' for Inactive)
REMARK    1  A    between atoms: C_10  and  C_1 
REMARK    2  A    between atoms: C_7  and  C_17 
REMARK    3  A    between atoms: O_11  and  C_7 
REMARK    4  A    between atoms: S_9  and  C_10 
REMARK    5  A    between atoms: C_17  and  S_9 
REMARK    6  A    between atoms: C_18  and  O_11 
ROOT
ATOM      1  C   UNL d   1      -1.165   1.044   0.032  0.00  0.00    -0.036 C 
ATOM      2  C   UNL d   1      -0.034  -1.148   0.004  0.00  0.00    -0.049 C 
ATOM      3  C   UNL d   1       1.291   0.932  -0.024  0.00  0.00    -0.049 C 
ATOM      4  C   UNL d   1       1.226  -0.488  -0.023  0.00  0.00    -0.049 C 
ATOM      5  C   UNL d   1       0.104   1.695   0.092  0.00  0.00    -0.048 C 
ATOM      6  C   UNL d   1      -1.227  -0.382  -0.042  0.00  0.00    -0.048 C 
ATOM      7  C   UNL d   1       2.653   1.592  -0.113  0.00  0.00     0.049 C 
ATOM      8  C   UNL d   1       2.525  -1.272  -0.042  0.00  0.00     0.049 C 
ATOM      9  C   UNL d   1      -2.588  -1.042  -0.134  0.00  0.00     0.049 C 
ATOM     10  C   UNL d   1       0.173   3.201   0.242  0.00  0.00     0.049 C 
ATOM     11  C   UNL d   1      -0.048  -2.660   0.069  0.00  0.00     0.049 C 
ENDROOT
BRANCH   1  12
ATOM     12  C   UNL d   1      -2.452   1.874   0.035  0.00  0.00     0.114 C 
BRANCH  12  13
ATOM     13  S   UNL d   1      -2.855   2.517  -1.629  0.00  0.00    -0.155 SA
BRANCH  13  14
ATOM     14  C   UNL d   1      -4.514   3.197  -1.324  0.00  0.00     0.185 C 
BRANCH  14  15
ATOM     15  C   UNL d   1      -4.518   4.368  -0.365  0.00  0.00     0.268 C 
ATOM     16  O   UNL d   1      -4.192   4.302   0.811  0.00  0.00    -0.264 OA
BRANCH  15  17
ATOM     17  O   UNL d   1      -5.037   5.476  -0.968  0.00  0.00    -0.321 OA
BRANCH  17  18
ATOM     18  C   UNL d   1      -5.355   6.570  -0.093  0.00  0.00     0.174 C 
ATOM     19  C   UNL d   1      -6.779   6.393   0.404  0.00  0.00     0.034 C 
ENDBRANCH  17  18
ENDBRANCH  15  17
ENDBRANCH  14  15
ENDBRANCH  13  14
ENDBRANCH  12  13
ENDBRANCH   1  12
TORSDOF 6
