REMARK  5 active torsions:
REMARK  status: ('A' for Active; 'I' for Inactive)
REMARK    1  A    between atoms: C_3  and  C_1 
REMARK    2  A    between atoms: O_9  and  C_2 
REMARK    3  A    between atoms: O_13  and  C_7 
REMARK    4  A    between atoms: C_15  and  O_9 
REMARK    5  A    between atoms: O_16  and  C_12 
ROOT
ATOM      1  C   UNL d   1      -0.326   1.152   0.072  0.00  0.00     0.096 A 
ATOM      2  C   UNL d   1       1.030   0.727   0.080  0.00  0.00     0.121 A 
ATOM      3  N   UNL d   1      -1.148   0.086   0.183  0.00  0.00    -0.297 N 
ATOM      4  HN  UNL d   1      -2.166   0.084   0.241  1.00  0.00     0.187 HD
ATOM      5  N   UNL d   1      -0.318  -0.974   0.200  0.00  0.00    -0.309 N 
ATOM      6  C   UNL d   1       1.002  -0.641   0.185  0.00  0.00     0.146 A 
ATOM      7  H   UNL d   1      -0.727  -1.902   0.243  0.00  0.00     0.186 HD
ENDROOT
BRANCH   1   8
ATOM      8  C   UNL d   1      -0.866   2.515  -0.018  0.00  0.00     0.028 A 
ATOM      9  C   UNL d   1      -2.107   2.853   0.551  0.00  0.00     0.081 A 
ATOM     10  C   UNL d   1      -2.608   4.151   0.472  0.00  0.00     0.074 A 
ATOM     11  C   UNL d   1      -1.878   5.124  -0.201  0.00  0.00     0.068 A 
ATOM     12  C   UNL d   1      -0.655   4.819  -0.787  0.00  0.00     0.037 A 
ATOM     13  C   UNL d   1      -0.151   3.517  -0.693  0.00  0.00     0.019 A 
BRANCH   9  14
ATOM     14  O   UNL d   1      -2.889   1.935   1.206  0.00  0.00    -0.360 OA
ATOM     15  H   UNL d   1      -2.492   1.055   1.018  0.00  0.00     0.217 HD
ENDBRANCH   9  14
BRANCH  11  16
ATOM     16  O   UNL d   1      -2.403   6.382  -0.275  0.00  0.00    -0.361 OA
ATOM     17  H   UNL d   1      -1.799   6.941  -0.791  0.00  0.00     0.217 HD
ENDBRANCH  11  16
ENDBRANCH   1   8
BRANCH   2  18
ATOM     18  O   UNL d   1       2.118   1.528   0.087  0.00  0.00    -0.307 OA
BRANCH  18  19
ATOM     19  C   UNL d   1       3.325   1.173  -0.459  0.00  0.00     0.076 A 
ATOM     20  C   UNL d   1       3.458   0.362  -1.588  0.00  0.00     0.037 A 
ATOM     21  C   UNL d   1       4.726   0.102  -2.111  0.00  0.00     0.003 A 
ATOM     22  C   UNL d   1       5.857   0.671  -1.526  0.00  0.00     0.000 A 
ATOM     23  C   UNL d   1       5.722   1.505  -0.417  0.00  0.00     0.003 A 
ATOM     24  C   UNL d   1       4.455   1.756   0.114  0.00  0.00     0.037 A 
ENDBRANCH  18  19
ENDBRANCH   2  18
TORSDOF 5
