REMARK  5 active torsions:
REMARK  status: ('A' for Active; 'I' for Inactive)
REMARK    1  A    between atoms: N_2  and  C_1 
REMARK    2  A    between atoms: N_7  and  C_1 
REMARK    3  A    between atoms: C_9  and  N_2 
REMARK    4  A    between atoms: N_3  and  N_7 
REMARK    5  A    between atoms: C_5  and  C_10 
ROOT
ATOM      1  N   UNL d   1       3.301   0.712   1.083  0.00  0.00    -0.309 N 
ATOM      2  HN  UNL d   1       2.777   1.150   1.841  1.00  0.00     0.186 HD
ATOM      3  C   UNL d   1       4.598   0.636   1.074  0.00  0.00     0.120 C 
ENDROOT
BRANCH   1   4
ATOM      4  N   UNL d   1       2.699   0.155  -0.010  0.00  0.00    -0.277 N 
ATOM      5  H   UNL d   1       3.254  -0.267  -0.750  0.00  0.00     0.189 HD
BRANCH   4   6
ATOM      6  C   UNL d   1       1.326   0.027  -0.109  0.00  0.00     0.187 C 
ATOM      7  S   UNL d   1       0.699  -0.746  -1.444  0.00  0.00    -0.040 SA
BRANCH   6   8
ATOM      8  N   UNL d   1       0.660   0.553   0.966  0.00  0.00    -0.358 N 
ATOM      9  H   UNL d   1       1.332   0.960   1.613  0.00  0.00     0.162 HD
BRANCH   8  10
ATOM     10  C   UNL d   1      -0.739   0.419   1.425  0.00  0.00     0.021 C 
ATOM     11  C   UNL d   1      -1.122  -1.062   1.589  0.00  0.00     0.037 C 
ATOM     12  C   UNL d   1      -0.843   1.091   2.810  0.00  0.00     0.037 C 
ATOM     13  C   UNL d   1      -1.728   1.128   0.488  0.00  0.00     0.037 C 
ENDBRANCH   8  10
ENDBRANCH   6   8
ENDBRANCH   4   6
ENDBRANCH   1   4
BRANCH   3  14
ATOM     14  C   UNL d   1       5.423   1.194   2.174  0.00  0.00     0.002 A 
ATOM     15  C   UNL d   1       6.822   1.117   2.159  0.00  0.00     0.045 A 
ATOM     16 CL   UNL d   1       7.711   0.380   0.874  0.00  0.00    -0.083 Cl
ATOM     17  C   UNL d   1       7.561   1.652   3.220  0.00  0.00     0.024 A 
ATOM     18  C   UNL d   1       6.914   2.268   4.294  0.00  0.00     0.002 A 
ATOM     19  C   UNL d   1       5.523   2.348   4.309  0.00  0.00     0.001 A 
ATOM     20  C   UNL d   1       4.780   1.815   3.254  0.00  0.00     0.014 A 
ENDBRANCH   3  14
TORSDOF 5
