REMARK  3 active torsions:
REMARK  status: ('A' for Active; 'I' for Inactive)
REMARK       I    between atoms: N_2  and  C_1 
REMARK       I    between atoms: N_6  and  C_1 
REMARK    1  A    between atoms: C_3  and  C_7 
REMARK    2  A    between atoms: C_4  and  N_5 
REMARK    3  A    between atoms: C_17  and  N_6 
ROOT
ATOM      1  C   UNL d   1       1.003   0.233  -0.199  0.00  0.00     0.323 C 
ATOM      2  N   UNL d   1       0.299   1.414   0.003  0.00  0.00    -0.331 N 
ATOM      3  N   UNL d   1      -0.876   3.981   0.471  0.00  0.00    -0.375 N 
ATOM      4  N   UNL d   1       0.744  -0.754   0.727  0.00  0.00    -0.309 N 
ATOM      5  O   UNL d   1       1.795   0.120  -1.133  0.00  0.00    -0.247 OA
ATOM      6  C   UNL d   1       0.527   2.519  -0.946  0.00  0.00     0.147 C 
ATOM      7  C   UNL d   1      -0.963   1.531   0.750  0.00  0.00     0.147 C 
ATOM      8  C   UNL d   1       0.406   3.893  -0.256  0.00  0.00     0.143 C 
ATOM      9  C   UNL d   1      -1.091   2.898   1.444  0.00  0.00     0.143 C 
ATOM     10  H   UNL d   1       0.408  -0.436   1.621  0.00  0.00     0.170 HD
ENDROOT
BRANCH   4  11
ATOM     11  C   UNL d   1       1.149  -2.102   0.672  0.00  0.00     0.037 A 
ATOM     12  C   UNL d   1       1.701  -2.697  -0.465  0.00  0.00     0.045 A 
ATOM     13  C   UNL d   1       2.051  -4.058  -0.471  0.00  0.00     0.050 A 
ATOM     14  C   UNL d   1       1.841  -4.822   0.686  0.00  0.00     0.016 A 
ATOM     15  C   UNL d   1       1.289  -4.237   1.824  0.00  0.00     0.003 A 
ATOM     16  C   UNL d   1       0.944  -2.881   1.815  0.00  0.00     0.029 A 
BRANCH  13  17
ATOM     17  C   UNL d   1       2.629  -4.700  -1.707  0.00  0.00     0.417 C 
ATOM     18  F   UNL d   1       2.800  -3.844  -2.752  0.00  0.00    -0.166 F 
ATOM     19  F   UNL d   1       3.850  -5.261  -1.479  0.00  0.00    -0.166 F 
ATOM     20  F   UNL d   1       1.842  -5.708  -2.179  0.00  0.00    -0.166 F 
ENDBRANCH  13  17
ENDBRANCH   4  11
BRANCH   3  21
ATOM     21  C   UNL d   1      -1.730   5.076   0.383  0.00  0.00     0.077 A 
ATOM     22  C   UNL d   1      -2.288   5.715   1.520  0.00  0.00     0.077 A 
ATOM     23 CL   UNL d   1      -1.820   5.366   3.154  0.00  0.00    -0.080 Cl
ATOM     24  C   UNL d   1      -3.220   6.744   1.365  0.00  0.00     0.113 A 
ATOM     25  N   UNL d   1      -3.626   7.234   0.177  0.00  0.00    -0.372 N 
ATOM     26  C   UNL d   1      -3.070   6.658  -0.908  0.00  0.00     0.113 A 
ATOM     27  HN  UNL d   1      -4.307   7.990   0.104  1.00  0.00     0.164 HD
ATOM     28  C   UNL d   1      -2.156   5.602  -0.864  0.00  0.00     0.077 A 
ATOM     29 CL   UNL d   1      -1.705   4.939  -2.400  0.00  0.00    -0.080 Cl
ENDBRANCH   3  21
TORSDOF 3
