REMARK  5 active torsions:
REMARK  status: ('A' for Active; 'I' for Inactive)
REMARK    1  A    between atoms: C_2  and  C_1 
REMARK    2  A    between atoms: O_8  and  C_2 
REMARK    3  A    between atoms: C_13  and  C_5 
REMARK    4  A    between atoms: C_10  and  O_8 
REMARK    5  A    between atoms: N_9  and  C_11 
ROOT
ATOM      1  C   UNL d   1       0.115  -4.254   1.231  0.00  0.00     0.303 C 
ATOM      2  O   UNL d   1       0.242  -5.455   1.064  0.00  0.00    -0.259 OA
ENDROOT
BRANCH   1   3
ATOM      3  C   UNL d   1       0.554  -3.531   2.409  0.00  0.00     0.100 A 
ATOM      4  C   UNL d   1       1.608  -3.765   3.364  0.00  0.00     0.084 A 
ATOM      5  N   UNL d   1       1.583  -2.803   4.308  0.00  0.00    -0.259 N 
ATOM      6  O   UNL d   1       0.523  -1.988   4.033  0.00  0.00    -0.241 OA
ATOM      7  HN  UNL d   1       2.237  -2.702   5.085  1.00  0.00     0.195 HD
ATOM      8  C   UNL d   1      -0.107  -2.428   2.924  0.00  0.00     0.091 A 
ATOM      9  C   UNL d   1      -1.345  -1.703   2.568  0.00  0.00     0.080 C 
BRANCH   4  10
ATOM     10  C   UNL d   1       2.652  -4.794   3.469  0.00  0.00    -0.006 A 
ATOM     11  C   UNL d   1       3.163  -5.124   4.744  0.00  0.00     0.014 A 
ATOM     12  C   UNL d   1       4.217  -6.029   4.897  0.00  0.00     0.001 A 
ATOM     13  C   UNL d   1       4.778  -6.626   3.776  0.00  0.00     0.000 A 
ATOM     14  C   UNL d   1       4.280  -6.321   2.508  0.00  0.00     0.001 A 
ATOM     15  C   UNL d   1       3.224  -5.412   2.353  0.00  0.00     0.014 A 
ENDBRANCH   4  10
ENDBRANCH   1   3
BRANCH   1  16
ATOM     16  O   UNL d   1      -0.498  -3.391   0.307  0.00  0.00    -0.272 OA
BRANCH  16  17
ATOM     17  C   UNL d   1      -1.736  -3.645  -0.368  0.00  0.00     0.106 A 
ATOM     18  C   UNL d   1      -2.070  -2.756  -1.425  0.00  0.00     0.064 A 
ATOM     19  C   UNL d   1      -3.382  -2.805  -1.910  0.00  0.00     0.032 A 
ATOM     20  C   UNL d   1      -4.309  -3.715  -1.388  0.00  0.00     0.002 A 
ATOM     21  C   UNL d   1      -3.941  -4.596  -0.371  0.00  0.00     0.003 A 
ATOM     22  C   UNL d   1      -2.650  -4.562   0.150  0.00  0.00     0.040 A 
BRANCH  18  23
ATOM     23  N   UNL d   1      -1.113  -1.878  -1.925  0.00  0.00    -0.375 N 
ATOM     24  C   UNL d   1      -1.466  -0.584  -2.536  0.00  0.00     0.149 C 
ATOM     25  C   UNL d   1      -0.193   0.295  -2.541  0.00  0.00     0.187 C 
ATOM     26  O   UNL d   1       0.907  -0.344  -3.219  0.00  0.00    -0.388 OA
ATOM     27  C   UNL d   1       1.197  -1.625  -2.627  0.00  0.00     0.187 C 
ATOM     28  C   UNL d   1      -0.031  -2.541  -2.683  0.00  0.00     0.149 C 
ENDBRANCH  18  23
ENDBRANCH  16  17
ENDBRANCH   1  16
TORSDOF 5
