REMARK  4 active torsions:
REMARK  status: ('A' for Active; 'I' for Inactive)
REMARK    1  A    between atoms: C_6  and  S_1 
REMARK    2  A    between atoms: C_10  and  S_1 
REMARK    3  A    between atoms: C_4  and  C_6 
REMARK    4  A    between atoms: C_9  and  C_5 
ROOT
ATOM      1  N   UNL d   1       0.439  -3.811  -0.925  0.00  0.00    -0.352 N 
ATOM      2  HN  UNL d   1      -0.029  -4.312  -0.170  1.00  0.00     0.166 HD
ATOM      3  C   UNL d   1       0.683  -2.518  -0.931  0.00  0.00     0.065 A 
ATOM      4  C   UNL d   1       0.908  -4.399  -2.091  0.00  0.00     0.049 A 
ATOM      5  S   UNL d   1       1.492  -1.935  -2.332  0.00  0.00    -0.085 SA
ATOM      6  C   UNL d   1       1.498  -3.522  -2.981  0.00  0.00     0.081 A 
ENDROOT
BRANCH   3   7
ATOM      7  C   UNL d   1       0.372  -1.616   0.205  0.00  0.00     0.210 C 
BRANCH   7   8
ATOM      8  S   UNL d   1      -1.241  -0.911   0.004  0.00  0.00     0.181 S 
ATOM      9  O   UNL d   1      -1.294  -0.177  -1.247  0.00  0.00    -0.222 OA
ATOM     10  O   UNL d   1      -1.565  -0.224   1.244  0.00  0.00    -0.222 OA
BRANCH   8  11
ATOM     11  C   UNL d   1      -2.388  -2.270  -0.129  0.00  0.00     0.059 A 
ATOM     12  C   UNL d   1      -3.000  -2.777   1.023  0.00  0.00     0.025 A 
ATOM     13  C   UNL d   1      -3.960  -3.785   0.904  0.00  0.00     0.025 A 
ATOM     14  C   UNL d   1      -4.306  -4.272  -0.358  0.00  0.00     0.034 A 
ATOM     15  C   UNL d   1      -3.704  -3.757  -1.506  0.00  0.00     0.025 A 
ATOM     16 CL   UNL d   1      -5.502  -5.500  -0.501  0.00  0.00    -0.084 Cl
ATOM     17  C   UNL d   1      -2.748  -2.745  -1.395  0.00  0.00     0.025 A 
ENDBRANCH   8  11
ENDBRANCH   7   8
ENDBRANCH   3   7
BRANCH   4  18
ATOM     18  C   UNL d   1       0.745  -5.828  -2.329  0.00  0.00    -0.006 A 
ATOM     19  C   UNL d   1      -0.351  -6.494  -1.761  0.00  0.00     0.053 A 
ATOM     20  C   UNL d   1      -0.532  -7.861  -1.968  0.00  0.00     0.103 A 
ATOM     21  O   UNL d   1      -1.627  -8.432  -1.373  0.00  0.00    -0.346 OA
ATOM     22  C   UNL d   1       0.370  -8.576  -2.759  0.00  0.00     0.102 A 
ATOM     23  C   UNL d   1      -1.530  -9.861  -1.360  0.00  0.00     0.202 C 
ATOM     24  C   UNL d   1      -1.079 -10.382  -2.715  0.00  0.00     0.202 C 
ATOM     25  O   UNL d   1       0.239  -9.914  -3.027  0.00  0.00    -0.346 OA
ATOM     26  C   UNL d   1       1.476  -7.933  -3.307  0.00  0.00     0.040 A 
ATOM     27  C   UNL d   1       1.663  -6.562  -3.095  0.00  0.00     0.017 A 
ENDBRANCH   4  18
TORSDOF 4
