REMARK  0 active torsions:
REMARK  status: ('A' for Active; 'I' for Inactive)
ROOT
ATOM      1  C   UNL d   1      -0.031   0.736  -1.525  0.00  0.00     0.026 C 
ATOM      2  C   UNL d   1       0.400  -0.760  -1.385  0.00  0.00     0.026 C 
ATOM      3  C   UNL d   1      -1.346   0.714  -0.623  0.00  0.00    -0.003 C 
ATOM      4  C   UNL d   1      -0.759  -1.494  -0.604  0.00  0.00    -0.003 C 
ATOM      5  C   UNL d   1      -0.745   0.530   0.840  0.00  0.00    -0.003 C 
ATOM      6  C   UNL d   1      -0.344  -1.079   0.894  0.00  0.00    -0.003 C 
ATOM      7  C   UNL d   1       1.085   1.454  -0.647  0.00  0.00     0.127 C 
ATOM      8  C   UNL d   1       1.743  -0.905  -0.640  0.00  0.00     0.127 C 
ATOM      9  O   UNL d   1       2.234   0.504  -0.575  0.00  0.00    -0.380 OA
ATOM     10  C   UNL d   1      -1.988  -0.643  -0.923  0.00  0.00     0.011 C 
ATOM     11  C   UNL d   1       0.435   1.557   0.783  0.00  0.00     0.037 C 
ATOM     12  C   UNL d   1       1.243  -1.399   0.837  0.00  0.00     0.037 C 
ENDROOT
TORSDOF 0
