REMARK  8 active torsions:
REMARK  status: ('A' for Active; 'I' for Inactive)
REMARK    1  A    between atoms: C_11  and  C_1 
REMARK    2  A    between atoms: N_7  and  C_2 
REMARK    3  A    between atoms: O_19  and  C_6 
REMARK    4  A    between atoms: C_13  and  N_7 
REMARK    5  A    between atoms: O_20  and  C_11 
REMARK    6  A    between atoms: C_12  and  C_13 
REMARK    7  A    between atoms: O_21  and  C_14 
REMARK    8  A    between atoms: C_23  and  O_20 
ROOT
ATOM      1  N   UNL d   1      -2.545   1.473   0.179  0.00  0.00    -0.349 N 
ATOM      2  HN  UNL d   1      -3.280   0.963   0.668  1.00  0.00     0.166 HD
ENDROOT
BRANCH   1   3
ATOM      3  C   UNL d   1      -1.308   0.938   0.034  0.00  0.00     0.138 A 
ATOM      4  C   UNL d   1       0.005   1.349   0.212  0.00  0.00     0.108 A 
ATOM      5  C   UNL d   1       0.788   0.174  -0.028  0.00  0.00     0.042 A 
ATOM      6  N   UNL d   1       0.026  -0.875  -0.350  0.00  0.00    -0.302 N 
ATOM      7  C   UNL d   1       2.261  -0.000   0.058  0.00  0.00     0.071 C 
ATOM      8  N   UNL d   1      -1.222  -0.392  -0.287  0.00  0.00    -0.284 N 
ATOM      9  HN  UNL d   1       0.324  -1.821  -0.588  1.00  0.00     0.186 HD
ATOM     10  H   UNL d   1      -1.998  -1.014  -0.465  0.00  0.00     0.188 HD
BRANCH   4  11
ATOM     11  C   UNL d   1       0.462   2.688   0.551  0.00  0.00     0.299 C 
ATOM     12  O   UNL d   1      -0.289   3.633   0.786  0.00  0.00    -0.259 OA
BRANCH  11  13
ATOM     13  O   UNL d   1       1.814   2.808   0.466  0.00  0.00    -0.318 OA
BRANCH  13  14
ATOM     14  C   UNL d   1       2.301   4.139   0.242  0.00  0.00     0.174 C 
ATOM     15  C   UNL d   1       2.392   4.344  -1.259  0.00  0.00     0.034 C 
ENDBRANCH  13  14
ENDBRANCH  11  13
ENDBRANCH   4  11
ENDBRANCH   1   3
BRANCH   1  16
ATOM     16  C   UNL d   1      -2.774   2.651  -0.318  0.00  0.00     0.103 C 
BRANCH  16  17
ATOM     17  C   UNL d   1      -4.090   3.308  -0.110  0.00  0.00     0.004 A 
ATOM     18  C   UNL d   1      -4.529   4.410  -0.873  0.00  0.00     0.081 A 
ATOM     19  C   UNL d   1      -5.802   4.989  -0.618  0.00  0.00     0.124 A 
ATOM     20 CL   UNL d   1      -3.533   4.936  -2.197  0.00  0.00    -0.080 Cl
ATOM     21  C   UNL d   1      -6.612   4.433   0.400  0.00  0.00     0.103 A 
ATOM     22  C   UNL d   1      -6.155   3.329   1.133  0.00  0.00     0.040 A 
ATOM     23  C   UNL d   1      -4.911   2.770   0.884  0.00  0.00     0.017 A 
BRANCH  19  24
ATOM     24  O   UNL d   1      -6.385   5.964  -1.390  0.00  0.00    -0.351 OA
ATOM     25  C   UNL d   1      -5.614   7.096  -1.776  0.00  0.00     0.210 C 
ENDBRANCH  19  24
BRANCH  21  26
ATOM     26  O   UNL d   1      -7.863   4.800   0.820  0.00  0.00    -0.353 OA
ATOM     27  C   UNL d   1      -8.506   5.921   0.240  0.00  0.00     0.210 C 
ENDBRANCH  21  26
ENDBRANCH  16  17
ENDBRANCH   1  16
TORSDOF 8
