REMARK  1 active torsions:
REMARK  status: ('A' for Active; 'I' for Inactive)
REMARK    1  A    between atoms: S_9  and  C_1 
ROOT
ATOM      1  C   UNL d   1      -0.610   1.120   0.004  0.00  0.00     0.142 A 
ATOM      2  N   UNL d   1      -1.337  -0.002   0.007  0.00  0.00    -0.340 N 
ATOM      3  HN  UNL d   1      -2.357   0.020   0.009  1.00  0.00     0.167 HD
ATOM      4  N   UNL d   1       0.727   1.169  -0.001  0.00  0.00    -0.340 N 
ATOM      5  HN  UNL d   1       1.222   2.061  -0.003  1.00  0.00     0.167 HD
ATOM      6  C   UNL d   1       0.743  -1.234   0.004  0.00  0.00    -0.018 A 
ATOM      7  C   UNL d   1      -0.653  -1.166   0.006  0.00  0.00     0.015 A 
ATOM      8  C   UNL d   1       1.399  -0.005  -0.002  0.00  0.00     0.015 A 
ATOM      9  C   UNL d   1       1.431  -2.565   0.006  0.00  0.00     0.052 C 
ATOM     10  C   UNL d   1      -1.498  -2.411   0.008  0.00  0.00     0.069 C 
ATOM     11  C   UNL d   1       2.888   0.169  -0.009  0.00  0.00     0.069 C 
ENDROOT
BRANCH   1  12
ATOM     12  S   UNL d   1      -1.488   2.653   0.006  0.00  0.00    -0.107 SA
ATOM     13  H   UNL d   1      -2.691   2.067   0.005  0.00  0.00     0.110 HD
ENDBRANCH   1  12
TORSDOF 1
