REMARK  4 active torsions:
REMARK  status: ('A' for Active; 'I' for Inactive)
REMARK    1  A    between atoms: O_6  and  C_4 
REMARK    2  A    between atoms: O_11  and  C_5 
REMARK    3  A    between atoms: C_7  and  O_6 
REMARK    4  A    between atoms: C_9  and  C_7 
ROOT
ATOM      1  C   UNL d   1      -0.600  -0.075   0.010  0.00  0.00     0.111 A 
ATOM      2  C   UNL d   1      -2.022  -0.139   0.129  0.00  0.00     0.105 C 
ATOM      3  N   UNL d   1      -3.185  -0.165   0.202  0.00  0.00    -0.191 NA
ATOM      4  C   UNL d   1       0.091   1.164  -0.006  0.00  0.00     0.092 A 
ATOM      5  C   UNL d   1       0.133  -1.282  -0.024  0.00  0.00     0.091 A 
ATOM      6  C   UNL d   1       2.214  -0.033   0.000  0.00  0.00     0.006 A 
ATOM      7  C   UNL d   1       1.496   1.160  -0.009  0.00  0.00     0.038 A 
ATOM      8  C   UNL d   1       1.533  -1.244  -0.010  0.00  0.00     0.038 A 
ENDROOT
BRANCH   4   9
ATOM      9  O   UNL d   1      -0.402   2.454  -0.001  0.00  0.00    -0.345 OA
BRANCH   9  10
ATOM     10  C   UNL d   1      -1.813   2.644  -0.050  0.00  0.00     0.214 C 
BRANCH  10  11
ATOM     11  C   UNL d   1      -2.249   4.087  -0.139  0.00  0.00    -0.034 A 
ATOM     12  C   UNL d   1      -3.485   4.365  -0.753  0.00  0.00     0.011 A 
ATOM     13  C   UNL d   1      -3.998   5.660  -0.770  0.00  0.00     0.024 A 
ATOM     14  C   UNL d   1      -3.284   6.687  -0.163  0.00  0.00     0.034 A 
ATOM     15  C   UNL d   1      -2.062   6.427   0.460  0.00  0.00     0.024 A 
ATOM     16 CL   UNL d   1      -3.925   8.283  -0.165  0.00  0.00    -0.084 Cl
ATOM     17  C   UNL d   1      -1.546   5.128   0.476  0.00  0.00     0.011 A 
ENDBRANCH  10  11
ENDBRANCH   9  10
ENDBRANCH   4   9
BRANCH   5  18
ATOM     18  O   UNL d   1      -0.359  -2.564   0.032  0.00  0.00    -0.354 OA
ATOM     19  C   UNL d   1      -1.551  -2.874  -0.684  0.00  0.00     0.210 C 
ENDBRANCH   5  18
TORSDOF 4
