REMARK  4 active torsions:
REMARK  status: ('A' for Active; 'I' for Inactive)
REMARK    1  A    between atoms: N_2  and  C_1 
REMARK    2  A    between atoms: C_7  and  N_2 
REMARK    3  A    between atoms: C_11  and  N_4 
REMARK    4  A    between atoms: C_9  and  C_11 
ROOT
ATOM      1  C   UNL d   1       1.048   0.157   0.044  0.00  0.00     0.172 C 
ATOM      2  S   UNL d   1       0.525   1.740  -0.065  0.00  0.00    -0.041 SA
ATOM      3  N   UNL d   1       2.386  -0.016   0.247  0.00  0.00    -0.361 N 
ATOM      4  H   UNL d   1       2.927   0.840   0.153  0.00  0.00     0.162 HD
ENDROOT
BRANCH   1   5
ATOM      5  N   UNL d   1       0.302  -0.996  -0.003  0.00  0.00    -0.333 N 
ATOM      6  H   UNL d   1       0.679  -1.752   0.550  0.00  0.00     0.168 HD
BRANCH   5   7
ATOM      7  C   UNL d   1      -1.015  -1.196  -0.480  0.00  0.00     0.037 A 
ATOM      8  C   UNL d   1      -1.615  -0.398  -1.456  0.00  0.00     0.071 A 
ATOM      9  C   UNL d   1      -2.919  -0.661  -1.868  0.00  0.00     0.118 A 
ATOM     10  F   UNL d   1      -3.485   0.117  -2.800  0.00  0.00    -0.206 F 
ATOM     11  C   UNL d   1      -3.641  -1.723  -1.341  0.00  0.00     0.042 A 
ATOM     12  C   UNL d   1      -3.039  -2.552  -0.398  0.00  0.00     0.005 A 
ATOM     13  C   UNL d   1      -1.728  -2.296   0.019  0.00  0.00     0.029 A 
ENDBRANCH   5   7
ENDBRANCH   1   5
BRANCH   3  14
ATOM     14  C   UNL d   1       3.188  -1.230   0.224  0.00  0.00     0.179 C 
BRANCH  14  15
ATOM     15  C   UNL d   1       4.646  -0.914  -0.041  0.00  0.00     0.026 A 
ATOM     16  N   UNL d   1       4.909   0.129  -0.872  0.00  0.00    -0.368 N 
ATOM     17  C   UNL d   1       6.202   0.404  -1.146  0.00  0.00     0.088 A 
ATOM     18  HN  UNL d   1       4.155   0.685  -1.275  1.00  0.00     0.165 HD
ATOM     19  C   UNL d   1       7.264  -0.309  -0.622  0.00  0.00     0.017 A 
ATOM     20  C   UNL d   1       6.984  -1.371   0.231  0.00  0.00     0.003 A 
ATOM     21  C   UNL d   1       5.659  -1.686   0.523  0.00  0.00     0.027 A 
ENDBRANCH  14  15
ENDBRANCH   3  14
TORSDOF 4
