REMARK  4 active torsions:
REMARK  status: ('A' for Active; 'I' for Inactive)
REMARK    1  A    between atoms: C_17  and  N_11 
REMARK    2  A    between atoms: C_14  and  C_12 
REMARK    3  A    between atoms: C_21  and  C_17 
REMARK    4  A    between atoms: C_22  and  C_21 
ROOT
ATOM      1  N   UNL d   1       1.229  -0.580  -0.006  0.00  0.00    -0.203 N 
ATOM      2  C   UNL d   1      -1.190  -0.640  -0.011  0.00  0.00     0.062 A 
ATOM      3  C   UNL d   1       1.204   0.811   0.004  0.00  0.00     0.133 A 
ATOM      4  C   UNL d   1      -1.127   0.693   0.003  0.00  0.00     0.116 A 
ATOM      5  C   UNL d   1       0.073  -1.406  -0.016  0.00  0.00     0.278 A 
ATOM      6  N   UNL d   1       2.503  -1.056  -0.006  0.00  0.00    -0.293 N 
ATOM      7  HN  UNL d   1       2.805  -2.031  -0.011  1.00  0.00     0.187 HD
ATOM      8  N   UNL d   1       0.011   1.445   0.006  0.00  0.00    -0.336 N 
ATOM      9  C   UNL d   1      -2.514   1.189   0.021  0.00  0.00     0.271 A 
ATOM     10  C   UNL d   1       2.501   1.235   0.011  0.00  0.00     0.077 A 
ATOM     11  N   UNL d   1      -3.324   0.067   0.038  0.00  0.00    -0.342 N 
ATOM     12  C   UNL d   1       3.277   0.044   0.003  0.00  0.00     0.037 A 
ATOM     13  C   UNL d   1      -2.566  -1.173  -0.006  0.00  0.00     0.173 A 
ATOM     14  O   UNL d   1       0.129  -2.630  -0.025  0.00  0.00    -0.265 OA
ATOM     15  O   UNL d   1      -2.827   2.365   0.020  0.00  0.00    -0.266 OA
ATOM     16  H   UNL d   1      -0.118   2.457   0.017  0.00  0.00     0.168 HD
ENDROOT
BRANCH  11  17
ATOM     17  C   UNL d   1      -4.773   0.129   0.016  0.00  0.00     0.126 C 
BRANCH  17  18
ATOM     18  C   UNL d   1      -5.436  -0.566   1.203  0.00  0.00     0.020 C 
BRANCH  18  19
ATOM     19  C   UNL d   1      -5.037   0.034   2.553  0.00  0.00    -0.003 C 
ATOM     20  C   UNL d   1      -5.726  -0.697   3.695  0.00  0.00     0.005 C 
ENDBRANCH  18  19
ENDBRANCH  17  18
ENDBRANCH  11  17
BRANCH  12  21
ATOM     21  C   UNL d   1       4.798  -0.036   0.003  0.00  0.00    -0.007 C 
ATOM     22  C   UNL d   1       5.310  -1.490  -0.017  0.00  0.00     0.021 C 
ATOM     23  C   UNL d   1       5.358   0.688  -1.240  0.00  0.00     0.021 C 
ATOM     24  C   UNL d   1       5.361   0.652   1.264  0.00  0.00     0.021 C 
ENDBRANCH  12  21
TORSDOF 4
