REMARK  3 active torsions:
REMARK  status: ('A' for Active; 'I' for Inactive)
REMARK    1  A    between atoms: C_2  and  C_1 
REMARK       I    between atoms: N_3  and  C_1 
REMARK    2  A    between atoms: C_12  and  N_3 
REMARK    3  A    between atoms: C_11  and  C_12 
ROOT
ATOM      1  C   UNL d   1       3.032   0.105   1.241  0.00  0.00     0.252 C 
ATOM      2  N   UNL d   1       3.135  -0.495   0.001  0.00  0.00    -0.353 N 
ATOM      3  O   UNL d   1       2.598  -0.416   2.250  0.00  0.00    -0.268 OA
ATOM      4  H   UNL d   1       3.433   0.056  -0.789  0.00  0.00     0.163 HD
ENDROOT
BRANCH   2   5
ATOM      5  C   UNL d   1       2.994  -1.917  -0.171  0.00  0.00     0.161 C 
BRANCH   5   6
ATOM      6  C   UNL d   1       1.630  -2.378  -0.627  0.00  0.00    -0.040 A 
ATOM      7  C   UNL d   1       0.463  -1.720  -0.210  0.00  0.00     0.018 A 
ATOM      8  C   UNL d   1      -0.733  -2.397  -0.311  0.00  0.00    -0.022 A 
ATOM      9  C   UNL d   1      -2.073  -2.045   0.213  0.00  0.00     0.068 C 
ATOM     10  C   UNL d   1      -0.792  -3.674  -0.855  0.00  0.00     0.075 A 
ATOM     11  C   UNL d   1      -2.549  -3.479   0.433  0.00  0.00     0.180 C 
ATOM     12  O   UNL d   1      -2.011  -4.279  -0.654  0.00  0.00    -0.350 OA
ATOM     13  C   UNL d   1       0.306  -4.289  -1.408  0.00  0.00     0.038 A 
ATOM     14  C   UNL d   1       1.532  -3.635  -1.278  0.00  0.00     0.011 A 
ENDBRANCH   5   6
ENDBRANCH   2   5
BRANCH   1  15
ATOM     15  C   UNL d   1       3.515   1.502   1.258  0.00  0.00     0.037 A 
ATOM     16  C   UNL d   1       4.871   1.804   1.037  0.00  0.00    -0.046 A 
ATOM     17  C   UNL d   1       5.943   0.757   0.911  0.00  0.00     0.049 C 
ATOM     18  C   UNL d   1       5.249   3.154   0.986  0.00  0.00     0.007 A 
ATOM     19  C   UNL d   1       4.307   4.168   1.176  0.00  0.00     0.001 A 
ATOM     20  C   UNL d   1       2.974   3.849   1.433  0.00  0.00     0.001 A 
ATOM     21  C   UNL d   1       2.575   2.514   1.478  0.00  0.00     0.017 A 
ENDBRANCH   1  15
TORSDOF 3
