REMARK  6 active torsions:
REMARK  status: ('A' for Active; 'I' for Inactive)
REMARK    1  A    between atoms: C_7  and  C_1 
REMARK       I    between atoms: N_14  and  C_7 
REMARK    2  A    between atoms: N_12  and  N_14 
REMARK    3  A    between atoms: C_20  and  C_16 
REMARK    4  A    between atoms: O_17  and  C_18 
REMARK    5  A    between atoms: C_21  and  O_17 
REMARK    6  A    between atoms: C_26  and  C_21 
ROOT
ATOM      1  N   UNL d   1       4.431   1.843  -0.226  0.00  0.00    -0.308 N 
ATOM      2  HN  UNL d   1       4.150   0.893  -0.469  1.00  0.00     0.186 HD
ATOM      3  C   UNL d   1       5.676   2.126  -0.001  0.00  0.00     0.118 C 
ENDROOT
BRANCH   1   4
ATOM      4  N   UNL d   1       3.496   2.850  -0.131  0.00  0.00    -0.265 N 
ATOM      5  C   UNL d   1       2.150   2.538  -0.362  0.00  0.00     0.289 C 
ATOM      6  O   UNL d   1       1.835   1.407  -0.728  0.00  0.00    -0.264 OA
ATOM      7  H   UNL d   1       3.790   3.760   0.189  0.00  0.00     0.190 HD
BRANCH   5   8
ATOM      8  C   UNL d   1       1.149   3.580  -0.145  0.00  0.00     0.132 A 
ATOM      9  N   UNL d   1      -0.232   3.387  -0.336  0.00  0.00    -0.302 N 
ATOM     10  C   UNL d   1      -0.861   4.589  -0.029  0.00  0.00     0.113 A 
ATOM     11  C   UNL d   1      -0.972   2.265  -0.745  0.00  0.00     0.099 A 
ATOM     12  C   UNL d   1      -2.276   4.664  -0.139  0.00  0.00     0.056 A 
ATOM     13  N   UNL d   1       0.002   5.508   0.332  0.00  0.00    -0.344 N 
ATOM     14  C   UNL d   1      -2.993   3.591  -0.533  0.00  0.00    -0.057 A 
ATOM     15  C   UNL d   1      -2.314   2.339  -0.849  0.00  0.00     0.024 A 
ATOM     16  C   UNL d   1      -4.488   3.654  -0.655  0.00  0.00     0.048 C 
ATOM     17  C   UNL d   1       1.236   4.910   0.269  0.00  0.00     0.040 A 
ATOM     18  HN  UNL d   1      -0.203   6.469   0.605  1.00  0.00     0.167 HD
ATOM     19  C   UNL d   1       2.392   5.758   0.646  0.00  0.00     0.071 C 
ENDBRANCH   5   8
ENDBRANCH   1   4
BRANCH   3  20
ATOM     20  C   UNL d   1       6.714   1.054   0.010  0.00  0.00    -0.019 A 
ATOM     21  C   UNL d   1       6.369  -0.269  -0.286  0.00  0.00     0.015 A 
ATOM     22  C   UNL d   1       7.309  -1.305  -0.152  0.00  0.00     0.037 A 
ATOM     23  C   UNL d   1       8.605  -1.028   0.280  0.00  0.00     0.069 A 
ATOM     24  C   UNL d   1       8.957   0.301   0.544  0.00  0.00     0.037 A 
ATOM     25  C   UNL d   1       8.024   1.343   0.400  0.00  0.00     0.015 A 
BRANCH  23  26
ATOM     26  O   UNL d   1       9.584  -1.952   0.539  0.00  0.00    -0.347 OA
BRANCH  26  27
ATOM     27  C   UNL d   1       9.468  -3.230  -0.090  0.00  0.00     0.214 C 
BRANCH  27  28
ATOM     28  C   UNL d   1      10.589  -4.133   0.387  0.00  0.00    -0.034 A 
ATOM     29  C   UNL d   1      10.371  -5.059   1.419  0.00  0.00     0.009 A 
ATOM     30  C   UNL d   1      11.403  -5.897   1.857  0.00  0.00     0.001 A 
ATOM     31  C   UNL d   1      12.665  -5.813   1.273  0.00  0.00     0.000 A 
ATOM     32  C   UNL d   1      12.897  -4.893   0.253  0.00  0.00     0.001 A 
ATOM     33  C   UNL d   1      11.866  -4.054  -0.187  0.00  0.00     0.009 A 
ENDBRANCH  27  28
ENDBRANCH  26  27
ENDBRANCH  23  26
ENDBRANCH   3  20
TORSDOF 6
