REMARK  5 active torsions:
REMARK  status: ('A' for Active; 'I' for Inactive)
REMARK    1  A    between atoms: N_9  and  C_3 
REMARK    2  A    between atoms: C_7  and  C_4 
REMARK    3  A    between atoms: C_10  and  C_14 
REMARK    4  A    between atoms: O_22  and  C_10 
REMARK    5  A    between atoms: C_26  and  O_22 
ROOT
ATOM      1  N   UNL d   1       0.551   1.410   0.587  0.00  0.00    -0.350 N 
ATOM      2  HN  UNL d   1      -0.229   2.027   0.812  1.00  0.00     0.166 HD
ATOM      3  C   UNL d   1       2.682  -0.319  -0.013  0.00  0.00     0.045 A 
ATOM      4  C   UNL d   1       1.144   0.692   1.564  0.00  0.00     0.119 A 
ATOM      5  C   UNL d   1       0.986   1.314  -0.685  0.00  0.00     0.067 A 
ATOM      6  C   UNL d   1       2.070   0.469  -1.039  0.00  0.00     0.019 A 
ATOM      7  C   UNL d   1       2.180  -0.192   1.290  0.00  0.00     0.064 A 
ATOM      8  C   UNL d   1       0.383   2.083  -1.694  0.00  0.00     0.061 A 
ATOM      9 CL   UNL d   1      -0.928   3.162  -1.325  0.00  0.00    -0.082 Cl
ATOM     10  C   UNL d   1       2.512   0.497  -2.389  0.00  0.00     0.016 A 
ATOM     11  C   UNL d   1       1.878   1.248  -3.376  0.00  0.00     0.003 A 
ATOM     12  C   UNL d   1       0.804   2.045  -3.028  0.00  0.00     0.026 A 
ENDROOT
BRANCH   3  13
ATOM     13  N   UNL d   1       3.797  -1.134  -0.262  0.00  0.00    -0.380 N 
ATOM     14  C   UNL d   1       4.750  -1.423   0.817  0.00  0.00     0.124 C 
ATOM     15  C   UNL d   1       6.141  -1.576   0.196  0.00  0.00     0.034 C 
ATOM     16  C   UNL d   1       6.168  -2.618  -0.936  0.00  0.00     0.088 C 
ATOM     17  C   UNL d   1       5.028  -2.367  -1.939  0.00  0.00     0.034 C 
ATOM     18  C   UNL d   1       3.672  -2.234  -1.230  0.00  0.00     0.124 C 
BRANCH  16  19
ATOM     19  C   UNL d   1       6.084  -4.032  -0.390  0.00  0.00     0.263 C 
ATOM     20  O   UNL d   1       5.281  -4.876  -0.764  0.00  0.00    -0.265 OA
BRANCH  19  21
ATOM     21  O   UNL d   1       7.023  -4.229   0.575  0.00  0.00    -0.322 OA
BRANCH  21  22
ATOM     22  C   UNL d   1       6.886  -5.443   1.326  0.00  0.00     0.174 C 
ATOM     23  C   UNL d   1       5.948  -5.185   2.491  0.00  0.00     0.034 C 
ENDBRANCH  21  22
ENDBRANCH  19  21
ENDBRANCH  16  19
ENDBRANCH   3  13
BRANCH   4  24
ATOM     24  C   UNL d   1       0.698   0.869   3.008  0.00  0.00     0.432 C 
ATOM     25  F   UNL d   1      -0.204   1.871   3.205  0.00  0.00    -0.165 F 
ATOM     26  F   UNL d   1       0.124  -0.259   3.522  0.00  0.00    -0.165 F 
ATOM     27  F   UNL d   1       1.746   1.150   3.841  0.00  0.00    -0.165 F 
ENDBRANCH   4  24
TORSDOF 5
