REMARK  4 active torsions:
REMARK  status: ('A' for Active; 'I' for Inactive)
REMARK    1  A    between atoms: N_2  and  S_1 
REMARK    2  A    between atoms: C_3  and  S_1 
REMARK    3  A    between atoms: C_4  and  N_2 
REMARK       I    between atoms: C_9  and  N_10 
REMARK    4  A    between atoms: N_10  and  C_16 
ROOT
ATOM      1  S   UNL d   1       1.081  -0.003  -0.012  0.00  0.00     0.241 S 
ATOM      2  O   UNL d   1       0.138  -0.457   1.006  0.00  0.00    -0.206 OA
ATOM      3  O   UNL d   1       2.500  -0.172   0.166  0.00  0.00    -0.206 OA
ENDROOT
BRANCH   1   4
ATOM      4  N   UNL d   1       0.756   1.636  -0.267  0.00  0.00    -0.210 NA
ATOM      5  H   UNL d   1       0.249   2.011   0.535  0.00  0.00     0.140 HD
BRANCH   4   6
ATOM      6  C   UNL d   1       1.867   2.440  -0.788  0.00  0.00     0.080 C 
ATOM      7  C   UNL d   1       2.086   2.283  -2.321  0.00  0.00     0.059 C 
ATOM      8  C   UNL d   1       2.689   3.629  -2.672  0.00  0.00    -0.050 C 
ATOM      9  C   UNL d   1       3.514   3.877  -3.750  0.00  0.00     0.007 C 
ATOM     10  C   UNL d   1       2.760   4.376  -1.495  0.00  0.00    -0.050 C 
ATOM     11  C   UNL d   1       4.672   4.600  -3.485  0.00  0.00     0.001 C 
ATOM     12  C   UNL d   1       4.936   5.054  -2.182  0.00  0.00     0.001 C 
ATOM     13  C   UNL d   1       3.952   4.995  -1.190  0.00  0.00     0.007 C 
ATOM     14  C   UNL d   1       1.660   3.939  -0.579  0.00  0.00     0.059 C 
ENDBRANCH   4   6
ENDBRANCH   1   4
BRANCH   1  15
ATOM     15  C   UNL d   1       0.603  -0.744  -1.546  0.00  0.00     0.074 A 
ATOM     16  C   UNL d   1       1.559  -1.366  -2.351  0.00  0.00     0.027 A 
ATOM     17  C   UNL d   1       1.157  -1.979  -3.541  0.00  0.00     0.031 A 
ATOM     18  C   UNL d   1      -0.191  -1.977  -3.929  0.00  0.00     0.034 A 
ATOM     19  C   UNL d   1      -1.135  -1.362  -3.103  0.00  0.00     0.031 A 
ATOM     20  C   UNL d   1      -0.742  -0.748  -1.911  0.00  0.00     0.027 A 
BRANCH  18  21
ATOM     21  N   UNL d   1      -0.509  -2.615  -5.149  0.00  0.00    -0.328 N 
ATOM     22  C   UNL d   1      -1.762  -2.704  -5.746  0.00  0.00     0.218 C 
ATOM     23  O   UNL d   1      -2.814  -2.267  -5.306  0.00  0.00    -0.274 OA
ATOM     24  C   UNL d   1      -1.731  -3.438  -7.060  0.00  0.00     0.117 C 
ATOM     25  H   UNL d   1       0.266  -3.032  -5.641  0.00  0.00     0.169 HD
ENDBRANCH  18  21
ENDBRANCH   1  15
TORSDOF 4
