REMARK  3 active torsions:
REMARK  status: ('A' for Active; 'I' for Inactive)
REMARK    1  A    between atoms: C_2  and  S_1 
REMARK    2  A    between atoms: N_3  and  S_1 
REMARK    3  A    between atoms: C_9  and  N_3 
ROOT
ATOM      1  S   UNL d   1       0.923   0.070   0.057  0.00  0.00     0.260 S 
ATOM      2  O   UNL d   1       0.135   1.242   0.370  0.00  0.00    -0.200 OA
ATOM      3  O   UNL d   1       2.371   0.126   0.068  0.00  0.00    -0.200 OA
ENDROOT
BRANCH   1   4
ATOM      4  C   UNL d   1       0.433  -0.546  -1.536  0.00  0.00     0.096 A 
ATOM      5  C   UNL d   1       0.916  -1.744  -2.079  0.00  0.00     0.029 A 
ATOM      6  I   UNL d   1       2.132  -3.149  -1.093  0.00  0.00    -0.043 I 
ATOM      7  C   UNL d   1       0.560  -2.093  -3.392  0.00  0.00     0.020 A 
ATOM      8  C   UNL d   1      -0.270  -1.267  -4.152  0.00  0.00     0.001 A 
ATOM      9  C   UNL d   1      -0.773  -0.093  -3.601  0.00  0.00     0.002 A 
ATOM     10  C   UNL d   1      -0.425   0.267  -2.299  0.00  0.00     0.027 A 
ENDBRANCH   1   4
BRANCH   1  11
ATOM     11  N   UNL d   1       0.480  -1.147   1.117  0.00  0.00    -0.311 N 
ATOM     12  H   UNL d   1       1.295  -1.522   1.605  0.00  0.00     0.172 HD
BRANCH  11  13
ATOM     13  C   UNL d   1      -0.794  -1.109   1.849  0.00  0.00     0.085 C 
ATOM     14  C   UNL d   1      -1.982  -1.240   0.905  0.00  0.00     0.032 C 
ATOM     15  C   UNL d   1      -0.787  -2.277   2.836  0.00  0.00     0.032 C 
ENDBRANCH  11  13
ENDBRANCH   1  11
TORSDOF 3
