REMARK  3 active torsions:
REMARK  status: ('A' for Active; 'I' for Inactive)
REMARK    1  A    between atoms: C_7  and  N_1 
REMARK    2  A    between atoms: C_6  and  C_8 
REMARK       I    between atoms: N_15  and  C_6 
REMARK    3  A    between atoms: C_13  and  C_7 
ROOT
ATOM      1  C   UNL d   1       2.096  -2.336  -0.011  0.00  0.00     0.173 C 
ENDROOT
BRANCH   1   2
ATOM      2  N   UNL d   1       1.662  -0.965  -0.060  0.00  0.00    -0.286 N 
ATOM      3  C   UNL d   1       1.235  -0.217   1.018  0.00  0.00     0.373 A 
ATOM      4  O   UNL d   1       0.849   1.071   0.619  0.00  0.00    -0.259 OA
ATOM      5  O   UNL d   1       1.184  -0.593   2.182  0.00  0.00    -0.237 OA
ATOM      6  C   UNL d   1       1.073   1.039  -0.748  0.00  0.00     0.107 A 
ATOM      7  C   UNL d   1       1.571  -0.173  -1.181  0.00  0.00     0.074 A 
ATOM      8  C   UNL d   1       0.834   2.079  -1.618  0.00  0.00     0.040 A 
ATOM      9  C   UNL d   1       1.867  -0.415  -2.507  0.00  0.00     0.039 A 
ATOM     10  C   UNL d   1       1.642   0.627  -3.420  0.00  0.00    -0.060 A 
ATOM     11  C   UNL d   1       1.122   1.865  -2.970  0.00  0.00     0.009 A 
ATOM     12  C   UNL d   1       1.954   0.445  -4.877  0.00  0.00     0.048 C 
ENDBRANCH   1   2
BRANCH   1  13
ATOM     13  C   UNL d   1       3.597  -2.489   0.083  0.00  0.00    -0.039 A 
ATOM     14  C   UNL d   1       4.317  -3.141  -0.931  0.00  0.00     0.026 A 
ATOM     15  C   UNL d   1       5.704  -3.320  -0.824  0.00  0.00     0.032 A 
ATOM     16  C   UNL d   1       6.378  -2.861   0.313  0.00  0.00     0.017 A 
ATOM     17  C   UNL d   1       5.671  -2.209   1.323  0.00  0.00     0.002 A 
ATOM     18  C   UNL d   1       4.292  -2.025   1.209  0.00  0.00     0.009 A 
BRANCH  15  19
ATOM     19  C   UNL d   1       6.413  -4.032  -1.919  0.00  0.00     0.249 C 
ATOM     20  O   UNL d   1       5.826  -4.798  -2.673  0.00  0.00    -0.268 OA
ATOM     21  N   UNL d   1       7.746  -3.770  -2.080  0.00  0.00    -0.366 N 
ATOM     22  H   UNL d   1       8.203  -2.983  -1.645  0.00  0.00     0.159 HD
ATOM     23  H   UNL d   1       8.193  -4.189  -2.886  0.00  0.00     0.159 HD
ENDBRANCH  15  19
ENDBRANCH   1  13
TORSDOF 3
