REMARK  5 active torsions:
REMARK  status: ('A' for Active; 'I' for Inactive)
REMARK    1  A    between atoms: C_2  and  C_1 
REMARK       I    between atoms: N_5  and  C_2 
REMARK    2  A    between atoms: C_4  and  C_3 
REMARK    3  A    between atoms: O_12  and  C_4 
REMARK    4  A    between atoms: C_11  and  N_5 
REMARK    5  A    between atoms: C_18  and  C_13 
ROOT
ATOM      1  N   UNL d   1      10.273   0.465   1.121  0.00  0.00    -0.197 NA
ATOM      2  C   UNL d   1       9.799  -0.229   0.323  0.00  0.00     0.063 C 
ATOM      3  C   UNL d   1       9.219  -1.110  -0.709  0.00  0.00     0.162 C 
ENDROOT
BRANCH   3   4
ATOM      4  C   UNL d   1       7.727  -0.920  -0.867  0.00  0.00    -0.045 A 
ATOM      5  C   UNL d   1       7.195   0.299  -1.307  0.00  0.00     0.010 A 
ATOM      6  C   UNL d   1       5.809   0.500  -1.345  0.00  0.00     0.030 A 
ATOM      7  C   UNL d   1       4.929  -0.508  -0.934  0.00  0.00     0.035 A 
ATOM      8  C   UNL d   1       5.458  -1.749  -0.579  0.00  0.00     0.030 A 
ATOM      9  C   UNL d   1       6.842  -1.956  -0.545  0.00  0.00     0.010 A 
BRANCH   7  10
ATOM     10  N   UNL d   1       3.557  -0.181  -0.840  0.00  0.00    -0.323 N 
ATOM     11  C   UNL d   1       2.572  -0.937  -0.242  0.00  0.00     0.252 C 
ATOM     12  O   UNL d   1       2.660  -2.106   0.123  0.00  0.00    -0.268 OA
ATOM     13  H   UNL d   1       3.299   0.741  -1.163  0.00  0.00     0.169 HD
BRANCH  11  14
ATOM     14  C   UNL d   1       1.263  -0.228  -0.010  0.00  0.00     0.020 C 
ATOM     15  C   UNL d   1       0.060  -1.151   0.074  0.00  0.00     0.121 C 
ATOM     16  C   UNL d   1      -1.268  -0.447   0.404  0.00  0.00     0.020 C 
ATOM     17  C   UNL d   1      -1.082   0.792   1.272  0.00  0.00     0.005 C 
ATOM     18  C   UNL d   1      -0.099   1.767   0.630  0.00  0.00     0.028 C 
ATOM     19  C   UNL d   1       1.184   1.094   0.239  0.00  0.00    -0.013 C 
BRANCH  15  20
ATOM     20  C   UNL d   1      -0.117  -1.883  -1.256  0.00  0.00     0.148 C 
ATOM     21  O   UNL d   1       0.192  -1.432  -2.350  0.00  0.00    -0.649 OA
BRANCH  20  22
ATOM     22  O   UNL d   1      -0.758  -3.071  -1.129  0.00  0.00    -0.776 OA
ATOM     23  H   UNL d   1      -0.930  -3.334  -0.205  0.00  0.00     0.167 HD
ENDBRANCH  20  22
ENDBRANCH  15  20
ENDBRANCH  11  14
ENDBRANCH   7  10
ENDBRANCH   3   4
TORSDOF 5
