REMARK  7 active torsions:
REMARK  status: ('A' for Active; 'I' for Inactive)
REMARK    1  A    between atoms: C_6  and  N_1 
REMARK    2  A    between atoms: C_7  and  C_6 
REMARK    3  A    between atoms: C_8  and  C_7 
REMARK    4  A    between atoms: O_10  and  C_7 
REMARK    5  A    between atoms: N_9  and  C_8 
REMARK    6  A    between atoms: C_15  and  N_9 
REMARK    7  A    between atoms: C_16  and  N_9 
ROOT
ATOM      1  N   UNL d   1       0.168  -1.479  -0.177  0.00  0.00    -0.343 N 
ATOM      2  C   UNL d   1       0.480  -0.964  -1.425  0.00  0.00     0.046 A 
ATOM      3  C   UNL d   1       0.300  -0.499   0.789  0.00  0.00     0.046 A 
ATOM      4  C   UNL d   1       1.038   0.300  -1.212  0.00  0.00     0.003 A 
ATOM      5  C   UNL d   1       0.919   0.597   0.178  0.00  0.00     0.003 A 
ATOM      6  C   UNL d   1       0.314  -1.482  -2.720  0.00  0.00     0.030 A 
ATOM      7  C   UNL d   1      -0.067  -0.473   2.147  0.00  0.00     0.030 A 
ATOM      8  C   UNL d   1       1.220   1.732   0.958  0.00  0.00     0.014 A 
ATOM      9  C   UNL d   1       1.513   1.038  -2.319  0.00  0.00     0.014 A 
ATOM     10  C   UNL d   1       0.857   1.764   2.308  0.00  0.00     0.001 A 
ATOM     11  C   UNL d   1       0.740  -0.705  -3.806  0.00  0.00     0.002 A 
ATOM     12  C   UNL d   1       0.208   0.678   2.888  0.00  0.00     0.002 A 
ATOM     13  C   UNL d   1       1.352   0.531  -3.610  0.00  0.00     0.001 A 
ENDROOT
BRANCH   1  14
ATOM     14  C   UNL d   1      -0.313  -2.826   0.086  0.00  0.00     0.163 C 
BRANCH  14  15
ATOM     15  C   UNL d   1       0.781  -3.849   0.429  0.00  0.00     0.164 C 
BRANCH  15  16
ATOM     16  C   UNL d   1       1.452  -3.656   1.815  0.00  0.00     0.305 C 
BRANCH  16  17
ATOM     17  N   UNL d   1       2.350  -4.793   2.187  0.00  0.00     0.090 N 
BRANCH  17  18
ATOM     18  C   UNL d   1       3.475  -4.974   1.249  0.00  0.00     0.268 C 
ATOM     19  C   UNL d   1       4.384  -3.766   1.042  0.00  0.00     0.037 C 
ENDBRANCH  17  18
BRANCH  17  20
ATOM     20  C   UNL d   1       2.794  -4.646   3.593  0.00  0.00     0.268 C 
ATOM     21  C   UNL d   1       3.695  -5.769   4.110  0.00  0.00     0.037 C 
ENDBRANCH  17  20
ENDBRANCH  16  17
ENDBRANCH  15  16
BRANCH  15  22
ATOM     22  O   UNL d   1       0.181  -5.160   0.415  0.00  0.00    -0.392 OA
ATOM     23  H   UNL d   1       0.762  -5.709   0.983  0.00  0.00     0.210 HD
ENDBRANCH  15  22
ENDBRANCH  14  15
ENDBRANCH   1  14
TORSDOF 7
