REMARK  3 active torsions:
REMARK  status: ('A' for Active; 'I' for Inactive)
REMARK    1  A    between atoms: C_12  and  N_9 
REMARK    2  A    between atoms: C_11  and  C_12 
REMARK       I    between atoms: N_16  and  C_11 
REMARK    3  A    between atoms: N_19  and  N_16 
ROOT
ATOM      1  C   UNL d   1       0.244  -0.670   0.022  0.00  0.00     0.145 A 
ATOM      2  C   UNL d   1       0.264   0.693   0.039  0.00  0.00     0.149 A 
ATOM      3  N   UNL d   1      -0.934  -1.376   0.008  0.00  0.00    -0.287 N 
ATOM      4  N   UNL d   1      -2.090   0.721   0.021  0.00  0.00    -0.269 N 
ATOM      5  C   UNL d   1      -2.152  -0.688   0.004  0.00  0.00     0.332 A 
ATOM      6  C   UNL d   1      -0.917   1.484   0.058  0.00  0.00     0.282 A 
ATOM      7  N   UNL d   1       1.499  -1.194   0.018  0.00  0.00    -0.336 N 
ATOM      8  HN  UNL d   1       1.764  -2.179   0.006  1.00  0.00     0.168 HD
ATOM      9  N   UNL d   1       1.589   1.029   0.040  0.00  0.00    -0.327 N 
ATOM     10  C   UNL d   1       2.298  -0.144   0.033  0.00  0.00     0.185 A 
ATOM     11  O   UNL d   1      -3.227  -1.292  -0.012  0.00  0.00    -0.246 OA
ATOM     12  O   UNL d   1      -0.886   2.709   0.115  0.00  0.00    -0.265 OA
ATOM     13  C   UNL d   1      -0.957  -2.825  -0.002  0.00  0.00     0.163 C 
ATOM     14  C   UNL d   1      -3.338   1.458   0.021  0.00  0.00     0.164 C 
ENDROOT
BRANCH   9  15
ATOM     15  C   UNL d   1       2.166   2.357  -0.012  0.00  0.00     0.234 C 
BRANCH  15  16
ATOM     16  C   UNL d   1       2.432   2.901   1.370  0.00  0.00     0.249 C 
ATOM     17  O   UNL d   1       3.473   2.660   1.985  0.00  0.00    -0.270 OA
ATOM     18  N   UNL d   1       1.409   3.683   1.893  0.00  0.00    -0.293 N 
ATOM     19  H   UNL d   1       0.573   3.899   1.342  0.00  0.00     0.183 HD
BRANCH  18  20
ATOM     20  N   UNL d   1       1.587   4.302   3.150  0.00  0.00    -0.247 NA
ATOM     21  H   UNL d   1       2.573   4.168   3.420  0.00  0.00     0.143 HD
ATOM     22  H   UNL d   1       1.067   3.765   3.849  0.00  0.00     0.143 HD
ENDBRANCH  18  20
ENDBRANCH  15  16
ENDBRANCH   9  15
TORSDOF 3
