REMARK  6 active torsions:
REMARK  status: ('A' for Active; 'I' for Inactive)
REMARK    1  A    between atoms: N_6  and  C_1 
REMARK    2  A    between atoms: C_7  and  C_4 
REMARK    3  A    between atoms: C_10  and  C_5 
REMARK    4  A    between atoms: O_16  and  C_10 
REMARK    5  A    between atoms: C_15  and  C_25 
REMARK    6  A    between atoms: C_25  and  O_16 
ROOT
ATOM      1  C   UNL d   1       0.130   1.286   0.108  0.00  0.00     0.680 A 
ATOM      2  N   UNL d   1       1.227   0.523   0.079  0.00  0.00    -0.185 N 
ATOM      3  HN  UNL d   1       2.146   0.960   0.013  1.00  0.00     0.184 HD
ATOM      4  C   UNL d   1       1.125  -0.843   0.136  0.00  0.00     0.150 A 
ATOM      5  C   UNL d   1      -0.107  -1.475   0.206  0.00  0.00     0.087 A 
ATOM      6  N   UNL d   1      -1.088   0.744   0.222  0.00  0.00    -0.201 N 
ATOM      7  HN  UNL d   1      -1.920   1.330   0.284  1.00  0.00     0.183 HD
ATOM      8  C   UNL d   1      -1.183  -0.614   0.252  0.00  0.00     0.126 A 
ENDROOT
BRANCH   1   9
ATOM      9  N   UNL d   1       0.267   2.650  -0.093  0.00  0.00    -0.213 N 
ATOM     10  C   UNL d   1      -0.670   3.522   0.627  0.00  0.00     0.172 C 
ATOM     11  C   UNL d   1      -0.590   4.958   0.045  0.00  0.00     0.136 C 
ATOM     12  C   UNL d   1      -1.420   5.939   0.860  0.00  0.00     0.041 C 
ATOM     13  O   UNL d   1       0.765   5.455   0.036  0.00  0.00    -0.378 OA
ATOM     14  C   UNL d   1       1.612   4.592  -0.746  0.00  0.00     0.136 C 
ATOM     15  C   UNL d   1       1.642   3.175  -0.137  0.00  0.00     0.172 C 
ATOM     16  C   UNL d   1       3.004   5.210  -0.792  0.00  0.00     0.041 C 
ENDBRANCH   1   9
BRANCH   4  17
ATOM     17  C   UNL d   1       2.441  -1.601   0.087  0.00  0.00     0.434 C 
ATOM     18  F   UNL d   1       3.526  -0.765   0.067  0.00  0.00    -0.165 F 
ATOM     19  F   UNL d   1       2.645  -2.399   1.171  0.00  0.00    -0.165 F 
ATOM     20  F   UNL d   1       2.583  -2.372  -1.027  0.00  0.00    -0.165 F 
ENDBRANCH   4  17
BRANCH   5  21
ATOM     21  C   UNL d   1      -0.265  -2.948   0.158  0.00  0.00     0.297 C 
ATOM     22  O   UNL d   1       0.694  -3.702   0.106  0.00  0.00    -0.259 OA
BRANCH  21  23
ATOM     23  O   UNL d   1      -1.564  -3.338   0.071  0.00  0.00    -0.317 OA
BRANCH  23  24
ATOM     24  C   UNL d   1      -1.758  -4.649  -0.506  0.00  0.00     0.183 C 
BRANCH  24  25
ATOM     25  C   UNL d   1      -2.324  -5.639   0.467  0.00  0.00     0.010 A 
ATOM     26  C   UNL d   1      -1.578  -6.185   1.660  0.00  0.00     0.007 A 
ATOM     27  C   UNL d   1      -1.760  -7.045   0.444  0.00  0.00     0.007 A 
ENDBRANCH  24  25
ENDBRANCH  23  24
ENDBRANCH  21  23
ENDBRANCH   5  21
TORSDOF 6
