REMARK  1 active torsions:
REMARK  status: ('A' for Active; 'I' for Inactive)
REMARK    1  A    between atoms: S_10  and  C_2 
ROOT
ATOM      1  C   UNL d   1      -0.718   1.261  -0.001  0.00  0.00     0.083 A 
ATOM      2  C   UNL d   1      -1.366   0.022  -0.004  0.00  0.00     0.088 A 
ATOM      3  N   UNL d   1      -0.688  -1.156  -0.003  0.00  0.00    -0.353 N 
ATOM      4  HN  UNL d   1      -1.190  -2.044  -0.005  1.00  0.00     0.166 HD
ATOM      5  C   UNL d   1       0.690   1.280   0.000  0.00  0.00    -0.037 A 
ATOM      6  C   UNL d   1      -1.467   2.479   0.000  0.00  0.00     0.103 C 
ATOM      7  N   UNL d   1      -2.088   3.459   0.001  0.00  0.00    -0.191 NA
ATOM      8  C   UNL d   1       0.663  -1.129  -0.002  0.00  0.00     0.006 A 
ATOM      9  C   UNL d   1       1.378   0.059  -0.000  0.00  0.00     0.033 A 
ATOM     10  C   UNL d   1       1.510   2.542   0.004  0.00  0.00     0.050 C 
ATOM     11  C   UNL d   1       1.368  -2.452   0.002  0.00  0.00     0.068 C 
ENDROOT
BRANCH   2  12
ATOM     12  S   UNL d   1      -3.140  -0.195  -0.006  0.00  0.00    -0.124 SA
ATOM     13  H   UNL d   1      -3.510   1.093  -0.011  0.00  0.00     0.108 HD
ENDBRANCH   2  12
TORSDOF 1
