REMARK  5 active torsions:
REMARK  status: ('A' for Active; 'I' for Inactive)
REMARK    1  A    between atoms: S_5  and  C_1 
REMARK    2  A    between atoms: C_4  and  S_5 
REMARK    3  A    between atoms: C_9  and  C_4 
REMARK    4  A    between atoms: C_10  and  C_4 
REMARK    5  A    between atoms: C_11  and  C_6 
ROOT
ATOM      1  C   UNL d   1       0.175   1.311   0.027  0.00  0.00     0.145 A 
ATOM      2  N   UNL d   1       1.286   0.565   0.104  0.00  0.00    -0.336 N 
ATOM      3  HN  UNL d   1       2.197   0.988   0.283  1.00  0.00     0.168 HD
ATOM      4  C   UNL d   1       1.151  -0.773  -0.065  0.00  0.00     0.047 A 
ATOM      5  N   UNL d   1      -1.060   0.829  -0.172  0.00  0.00    -0.347 N 
ATOM      6  HN  UNL d   1      -1.874   1.441  -0.222  1.00  0.00     0.167 HD
ATOM      7  C   UNL d   1      -0.092  -1.352  -0.256  0.00  0.00     0.047 A 
ATOM      8  C   UNL d   1      -1.168  -0.500  -0.303  0.00  0.00     0.092 A 
ENDROOT
BRANCH   1   9
ATOM      9  S   UNL d   1       0.279   3.063   0.268  0.00  0.00    -0.074 SA
BRANCH   9  10
ATOM     10  C   UNL d   1       2.003   3.396  -0.235  0.00  0.00     0.193 C 
BRANCH  10  11
ATOM     11  C   UNL d   1       2.260   3.021  -1.683  0.00  0.00     0.144 C 
ATOM     12  O   UNL d   1       3.149   2.211  -1.972  0.00  0.00    -0.297 OA
ATOM     13  C   UNL d   1       1.493   3.705  -2.788  0.00  0.00     0.092 C 
ENDBRANCH  10  11
BRANCH  10  14
ATOM     14  C   UNL d   1       2.290   4.858   0.056  0.00  0.00     0.144 C 
ATOM     15  O   UNL d   1       2.180   5.742  -0.797  0.00  0.00    -0.297 OA
ATOM     16  C   UNL d   1       2.721   5.219   1.456  0.00  0.00     0.092 C 
ENDBRANCH  10  14
ENDBRANCH   9  10
ENDBRANCH   1   9
BRANCH   4  17
ATOM     17  C   UNL d   1       2.395  -1.567  -0.017  0.00  0.00     0.006 A 
ATOM     18  C   UNL d   1       3.520  -1.123   0.679  0.00  0.00     0.101 A 
ATOM     19  N   UNL d   1       4.690  -1.806   0.796  0.00  0.00    -0.374 N 
ATOM     20  C   UNL d   1       4.766  -2.995   0.166  0.00  0.00     0.087 A 
ATOM     21  HN  UNL d   1       5.473  -1.436   1.336  1.00  0.00     0.164 HD
ATOM     22  C   UNL d   1       3.726  -3.532  -0.568  0.00  0.00     0.018 A 
ATOM     23  C   UNL d   1       2.535  -2.809  -0.658  0.00  0.00     0.016 A 
ENDBRANCH   4  17
TORSDOF 5
