REMARK  7 active torsions:
REMARK  status: ('A' for Active; 'I' for Inactive)
REMARK    1  A    between atoms: N_9  and  C_3 
REMARK    2  A    between atoms: C_4  and  N_8 
REMARK    3  A    between atoms: N_14  and  C_4 
REMARK    4  A    between atoms: C_10  and  C_5 
REMARK    5  A    between atoms: N_8  and  N_9 
REMARK    6  A    between atoms: C_20  and  N_14 
REMARK    7  A    between atoms: C_15  and  C_20 
ROOT
ATOM      1  N   UNL d   1       1.148   0.609  -0.112  0.00  0.00    -0.331 N 
ATOM      2  HN  UNL d   1       2.070   1.043  -0.167  1.00  0.00     0.168 HD
ATOM      3  C   UNL d   1       0.033   1.355  -0.126  0.00  0.00     0.176 A 
ATOM      4  C   UNL d   1       1.017  -0.734  -0.022  0.00  0.00     0.047 A 
ATOM      5  N   UNL d   1      -1.204   0.857   0.019  0.00  0.00    -0.341 N 
ATOM      6  HN  UNL d   1      -2.023   1.461   0.078  1.00  0.00     0.167 HD
ATOM      7  C   UNL d   1      -0.226  -1.329   0.059  0.00  0.00     0.047 A 
ATOM      8  C   UNL d   1      -1.308  -0.482   0.082  0.00  0.00     0.093 A 
ENDROOT
BRANCH   3   9
ATOM      9  N   UNL d   1       0.217   2.727  -0.342  0.00  0.00    -0.173 NA
ATOM     10  H   UNL d   1       1.210   2.915  -0.232  0.00  0.00     0.156 HD
BRANCH   9  11
ATOM     11  N   UNL d   1      -0.600   3.575   0.427  0.00  0.00    -0.291 N 
ATOM     12  H   UNL d   1      -1.272   3.089   1.021  0.00  0.00     0.183 HD
BRANCH  11  13
ATOM     13  C   UNL d   1      -1.048   4.758  -0.123  0.00  0.00     0.182 C 
ATOM     14  S   UNL d   1      -0.944   5.225  -1.724  0.00  0.00    -0.040 SA
BRANCH  13  15
ATOM     15  N   UNL d   1      -1.587   5.642   0.778  0.00  0.00    -0.363 N 
ATOM     16  H   UNL d   1      -1.912   6.495   0.337  0.00  0.00     0.162 HD
BRANCH  15  17
ATOM     17  C   UNL d   1      -1.064   5.816   2.118  0.00  0.00     0.148 C 
BRANCH  17  18
ATOM     18  C   UNL d   1      -2.212   5.873   3.066  0.00  0.00    -0.018 C 
ATOM     19  C   UNL d   1      -2.432   6.873   3.929  0.00  0.00     0.008 C 
ENDBRANCH  17  18
ENDBRANCH  15  17
ENDBRANCH  13  15
ENDBRANCH  11  13
ENDBRANCH   9  11
ENDBRANCH   3   9
BRANCH   4  20
ATOM     20  C   UNL d   1       2.275  -1.500  -0.005  0.00  0.00     0.006 A 
ATOM     21  C   UNL d   1       3.428  -1.000   0.597  0.00  0.00     0.101 A 
ATOM     22  N   UNL d   1       4.614  -1.652   0.684  0.00  0.00    -0.374 N 
ATOM     23  C   UNL d   1       4.673  -2.877   0.122  0.00  0.00     0.087 A 
ATOM     24  HN  UNL d   1       5.421  -1.237   1.151  1.00  0.00     0.164 HD
ATOM     25  C   UNL d   1       3.606  -3.469  -0.521  0.00  0.00     0.018 A 
ATOM     26  C   UNL d   1       2.396  -2.774  -0.584  0.00  0.00     0.016 A 
ENDBRANCH   4  20
TORSDOF 7
