REMARK  5 active torsions:
REMARK  status: ('A' for Active; 'I' for Inactive)
REMARK    1  A    between atoms: C_9  and  N_1 
REMARK    2  A    between atoms: C_16  and  C_5 
REMARK    3  A    between atoms: N_6  and  C_10 
REMARK    4  A    between atoms: N_11  and  N_7 
REMARK    5  A    between atoms: C_19  and  C_18 
ROOT
ATOM      1  N   UNL d   1      -0.347   1.093   0.033  0.00  0.00    -0.287 N 
ATOM      2  C   UNL d   1       0.968   0.664   0.030  0.00  0.00     0.165 C 
ATOM      3  C   UNL d   1      -1.281   0.070   0.097  0.00  0.00     0.245 C 
ATOM      4  S   UNL d   1       1.092  -1.080   0.134  0.00  0.00    -0.073 SA
ATOM      5  C   UNL d   1      -0.669  -1.298  -0.122  0.00  0.00     0.180 C 
ATOM      6  N   UNL d   1       1.981   1.469  -0.049  0.00  0.00    -0.280 N 
ATOM      7  HN  UNL d   1       1.875   2.483  -0.078  1.00  0.00     0.189 HD
ATOM      8  O   UNL d   1      -2.487   0.193   0.288  0.00  0.00    -0.271 OA
ENDROOT
BRANCH   1   9
ATOM      9  C   UNL d   1      -0.716   2.551  -0.040  0.00  0.00     0.031 C 
ATOM     10  C   UNL d   1      -0.198   3.162  -1.364  0.00  0.00     0.038 C 
ATOM     11  C   UNL d   1      -2.240   2.828  -0.023  0.00  0.00     0.038 C 
ATOM     12  C   UNL d   1      -0.128   3.333   1.155  0.00  0.00     0.038 C 
ENDBRANCH   1   9
BRANCH   6  13
ATOM     13  N   UNL d   1       3.222   0.846  -0.092  0.00  0.00    -0.309 N 
ATOM     14  C   UNL d   1       4.189   1.698  -0.198  0.00  0.00     0.118 C 
ATOM     15  HN  UNL d   1       3.355  -0.165  -0.045  1.00  0.00     0.186 HD
BRANCH  14  16
ATOM     16  C   UNL d   1       5.589   1.246  -0.305  0.00  0.00    -0.017 A 
ATOM     17  C   UNL d   1       6.606   2.199  -0.400  0.00  0.00     0.048 A 
ATOM     18  C   UNL d   1       7.933   1.761  -0.528  0.00  0.00     0.103 A 
ATOM     19  C   UNL d   1       8.241   0.394  -0.558  0.00  0.00     0.036 A 
ATOM     20  C   UNL d   1       7.215  -0.546  -0.459  0.00  0.00     0.003 A 
ATOM     21  C   UNL d   1       5.892  -0.121  -0.332  0.00  0.00     0.013 A 
BRANCH  18  22
ATOM     22  N   UNL d   1       9.014   2.749  -0.636  0.00  0.00    -0.116 N 
ATOM     23  O   UNL d   1       8.700   3.947  -0.606  0.00  0.00    -0.532 OA
ATOM     24  O   UNL d   1      10.173   2.328  -0.753  0.00  0.00    -0.532 OA
ENDBRANCH  18  22
ENDBRANCH  14  16
ENDBRANCH   6  13
BRANCH   5  25
ATOM     25  C   UNL d   1      -1.015  -1.869  -1.484  0.00  0.00    -0.035 A 
ATOM     26  C   UNL d   1      -0.635  -1.228  -2.679  0.00  0.00     0.009 A 
ATOM     27  C   UNL d   1      -0.991  -1.757  -3.919  0.00  0.00     0.001 A 
ATOM     28  C   UNL d   1      -1.736  -2.930  -3.989  0.00  0.00     0.000 A 
ATOM     29  C   UNL d   1      -2.125  -3.576  -2.817  0.00  0.00     0.001 A 
ATOM     30  C   UNL d   1      -1.768  -3.050  -1.574  0.00  0.00     0.009 A 
ENDBRANCH   5  25
TORSDOF 5
