REMARK  5 active torsions:
REMARK  status: ('A' for Active; 'I' for Inactive)
REMARK    1  A    between atoms: C_8  and  N_1 
REMARK    2  A    between atoms: S_9  and  C_2 
REMARK    3  A    between atoms: O_10  and  C_3 
REMARK    4  A    between atoms: C_11  and  C_8 
REMARK    5  A    between atoms: C_12  and  C_11 
ROOT
ATOM      1  N   UNL d   1      -0.128  -1.238  -0.098  0.00  0.00    -0.291 N 
ATOM      2  C   UNL d   1       0.619  -0.456  -0.940  0.00  0.00     0.161 C 
ATOM      3  C   UNL d   1      -0.714  -0.347   0.763  0.00  0.00     0.240 C 
ATOM      4  N   UNL d   1       0.601   0.790  -0.529  0.00  0.00    -0.277 N 
ATOM      5  HN  UNL d   1       1.109   1.569  -0.947  1.00  0.00     0.189 HD
ATOM      6  N   UNL d   1      -0.231   0.856   0.569  0.00  0.00    -0.263 N 
ATOM      7  HN  UNL d   1      -0.433   1.686   1.126  1.00  0.00     0.190 HD
ENDROOT
BRANCH   1   8
ATOM      8  C   UNL d   1      -0.322  -2.670  -0.123  0.00  0.00     0.139 C 
BRANCH   8   9
ATOM      9  C   UNL d   1       0.922  -3.535   0.172  0.00  0.00    -0.000 C 
ATOM     10  C   UNL d   1       0.540  -5.017   0.075  0.00  0.00     0.011 C 
BRANCH   9  11
ATOM     11  C   UNL d   1       1.636  -3.222   1.503  0.00  0.00     0.001 C 
ATOM     12  C   UNL d   1       0.813  -3.433   2.765  0.00  0.00     0.005 C 
ENDBRANCH   9  11
ENDBRANCH   8   9
ENDBRANCH   1   8
BRANCH   2  13
ATOM     13  S   UNL d   1       1.401  -1.021  -2.369  0.00  0.00    -0.105 SA
ATOM     14  H   UNL d   1       2.512  -1.502  -1.796  0.00  0.00     0.110 HD
ENDBRANCH   2  13
BRANCH   3  15
ATOM     15  O   UNL d   1      -1.652  -0.629   1.657  0.00  0.00    -0.331 OA
ATOM     16  H   UNL d   1      -2.265  -1.262   1.252  0.00  0.00     0.221 HD
ENDBRANCH   3  15
TORSDOF 5
