REMARK  5 active torsions:
REMARK  status: ('A' for Active; 'I' for Inactive)
REMARK    1  A    between atoms: C_3  and  C_15 
REMARK       I    between atoms: N_4  and  C_3 
REMARK    2  A    between atoms: C_8  and  N_4 
REMARK    3  A    between atoms: S_6  and  C_20 
REMARK    4  A    between atoms: C_15  and  S_6 
REMARK    5  A    between atoms: C_20  and  C_9 
ROOT
ATOM      1  N   UNL d   1      -0.475  -3.994  -4.138  0.00  0.00    -0.191 NA
ATOM      2  C   UNL d   1       0.331  -3.381  -3.575  0.00  0.00     0.099 C 
ATOM      3  C   UNL d   1       1.332  -2.626  -2.872  0.00  0.00     0.044 A 
ATOM      4  C   UNL d   1       3.319  -1.205  -1.461  0.00  0.00    -0.049 A 
ATOM      5  C   UNL d   1       1.043  -2.057  -1.629  0.00  0.00     0.023 A 
ATOM      6  C   UNL d   1       2.609  -2.470  -3.418  0.00  0.00     0.023 A 
ATOM      7  C   UNL d   1       3.594  -1.760  -2.720  0.00  0.00     0.009 A 
ATOM      8  C   UNL d   1       2.028  -1.346  -0.930  0.00  0.00     0.009 A 
ENDROOT
BRANCH   4   9
ATOM      9  C   UNL d   1       4.414  -0.547  -0.656  0.00  0.00     0.112 C 
BRANCH   9  10
ATOM     10  S   UNL d   1       4.590   1.252  -0.908  0.00  0.00    -0.155 SA
BRANCH  10  11
ATOM     11  C   UNL d   1       6.040   1.460   0.164  0.00  0.00     0.177 C 
BRANCH  11  12
ATOM     12  C   UNL d   1       6.628   2.854   0.319  0.00  0.00     0.231 C 
ATOM     13  N   UNL d   1       6.030   3.887  -0.371  0.00  0.00    -0.327 N 
ATOM     14  H   UNL d   1       5.144   3.674  -0.819  0.00  0.00     0.169 HD
ATOM     15  O   UNL d   1       7.606   2.974   1.062  0.00  0.00    -0.272 OA
BRANCH  13  16
ATOM     16  C   UNL d   1       6.514   5.215  -0.477  0.00  0.00     0.034 A 
ATOM     17  C   UNL d   1       7.793   5.605  -0.070  0.00  0.00     0.030 A 
ATOM     18  C   UNL d   1       8.242   6.918  -0.252  0.00  0.00     0.009 A 
ATOM     19  C   UNL d   1       7.418   7.876  -0.845  0.00  0.00    -0.062 A 
ATOM     20  C   UNL d   1       6.127   7.502  -1.231  0.00  0.00     0.009 A 
ATOM     21  C   UNL d   1       7.934   9.269  -1.060  0.00  0.00     0.048 C 
ATOM     22  C   UNL d   1       5.683   6.181  -1.058  0.00  0.00     0.030 A 
ENDBRANCH  13  16
ENDBRANCH  11  12
ENDBRANCH  10  11
ENDBRANCH   9  10
ENDBRANCH   4   9
TORSDOF 5
