REMARK  1 active torsions:
REMARK  status: ('A' for Active; 'I' for Inactive)
REMARK    1  A    between atoms: C_7  and  C_1 
ROOT
ATOM      1  C   UNL d   1      -2.526  -0.947  -0.448  0.00  0.00     0.029 A 
ATOM      2  C   UNL d   1      -2.709   0.412  -0.151  0.00  0.00     0.027 A 
ATOM      3  C   UNL d   1      -1.238  -1.504  -0.361  0.00  0.00     0.056 A 
ATOM      4  C   UNL d   1      -1.611   1.204   0.209  0.00  0.00     0.059 A 
ATOM      5  C   UNL d   1      -0.148  -0.703  -0.020  0.00  0.00     0.103 A 
ATOM      6  C   UNL d   1      -0.331   0.652   0.253  0.00  0.00     0.103 A 
ATOM      7  O   UNL d   1       1.054  -1.338   0.130  0.00  0.00    -0.348 OA
ATOM      8  O   UNL d   1       0.681   1.476   0.661  0.00  0.00    -0.348 OA
ATOM      9 BR   UNL d   1      -4.408   1.263  -0.127  0.00  0.00    -0.050 Br
ATOM     10  C   UNL d   1       2.684   0.444  -0.290  0.00  0.00     0.053 C 
ATOM     11  C   UNL d   1       2.043  -0.847  -0.776  0.00  0.00     0.178 C 
ATOM     12  C   UNL d   1       1.700   1.602  -0.334  0.00  0.00     0.178 C 
ENDROOT
BRANCH   1  13
ATOM     13  C   UNL d   1      -3.638  -1.825  -0.899  0.00  0.00     0.157 C 
ATOM     14  O   UNL d   1      -4.447  -1.416  -1.728  0.00  0.00    -0.293 OA
ATOM     15  C   UNL d   1      -3.718  -3.235  -0.371  0.00  0.00     0.097 C 
ENDBRANCH   1  13
TORSDOF 1
