REMARK  7 active torsions:
REMARK  status: ('A' for Active; 'I' for Inactive)
REMARK    1  A    between atoms: C_2  and  C_1 
REMARK       I    between atoms: N_5  and  C_1 
REMARK    2  A    between atoms: S_4  and  C_3 
REMARK    3  A    between atoms: C_6  and  S_4 
REMARK    4  A    between atoms: C_13  and  N_5 
REMARK    5  A    between atoms: C_10  and  C_7 
REMARK    6  A    between atoms: C_8  and  O_11 
REMARK    7  A    between atoms: O_11  and  C_10 
ROOT
ATOM      1  C   UNL d   1       0.583  -0.456  -1.294  0.00  0.00     0.049 A 
ATOM      2  C   UNL d   1       1.191  -1.719  -1.461  0.00  0.00     0.021 A 
ATOM      3  C   UNL d   1      -0.578  -0.142  -2.030  0.00  0.00     0.018 A 
ATOM      4  C   UNL d   1       0.625  -2.620  -2.385  0.00  0.00     0.020 A 
ATOM      5  C   UNL d   1      -1.131  -1.054  -2.926  0.00  0.00     0.001 A 
ATOM      6  C   UNL d   1      -0.528  -2.293  -3.105  0.00  0.00     0.001 A 
ENDROOT
BRANCH   2   7
ATOM      7  S   UNL d   1       2.611  -2.314  -0.523  0.00  0.00    -0.089 SA
BRANCH   7   8
ATOM      8  C   UNL d   1       1.841  -3.281   0.788  0.00  0.00     0.014 A 
ATOM      9  C   UNL d   1       2.415  -4.467   1.299  0.00  0.00    -0.017 A 
ATOM     10  C   UNL d   1       1.718  -5.184   2.299  0.00  0.00     0.011 A 
ATOM     11  C   UNL d   1       0.510  -4.724   2.811  0.00  0.00     0.001 A 
ATOM     12  C   UNL d   1      -0.023  -3.532   2.348  0.00  0.00     0.001 A 
ATOM     13  C   UNL d   1       0.640  -2.818   1.351  0.00  0.00     0.019 A 
BRANCH   9  14
ATOM     14  C   UNL d   1       3.760  -5.012   0.878  0.00  0.00     0.218 C 
BRANCH  14  15
ATOM     15  O   UNL d   1       3.780  -5.399  -0.498  0.00  0.00    -0.317 OA
BRANCH  15  16
ATOM     16  C   UNL d   1       3.394  -6.679  -0.755  0.00  0.00     0.255 C 
ATOM     17  O   UNL d   1       3.014  -7.495   0.071  0.00  0.00    -0.266 OA
ATOM     18  C   UNL d   1       3.502  -6.943  -2.227  0.00  0.00     0.126 C 
ENDBRANCH  15  16
ENDBRANCH  14  15
ENDBRANCH   9  14
ENDBRANCH   7   8
ENDBRANCH   2   7
BRANCH   1  19
ATOM     19  C   UNL d   1       0.998   0.580  -0.297  0.00  0.00     0.257 C 
ATOM     20  N   UNL d   1       2.353   0.727  -0.088  0.00  0.00    -0.323 N 
ATOM     21  H   UNL d   1       2.962   0.111  -0.613  0.00  0.00     0.169 HD
ATOM     22  O   UNL d   1       0.108   1.233   0.239  0.00  0.00    -0.267 OA
BRANCH  20  23
ATOM     23  C   UNL d   1       2.989   1.587   0.833  0.00  0.00     0.035 A 
ATOM     24  C   UNL d   1       2.314   2.465   1.684  0.00  0.00     0.029 A 
ATOM     25  C   UNL d   1       3.021   3.270   2.583  0.00  0.00     0.002 A 
ATOM     26  C   UNL d   1       4.410   3.208   2.638  0.00  0.00     0.000 A 
ATOM     27  C   UNL d   1       5.095   2.340   1.791  0.00  0.00     0.002 A 
ATOM     28  C   UNL d   1       4.388   1.534   0.894  0.00  0.00     0.029 A 
ENDBRANCH  20  23
ENDBRANCH   1  19
TORSDOF 7
