REMARK  3 active torsions:
REMARK  status: ('A' for Active; 'I' for Inactive)
REMARK    1  A    between atoms: C_3  and  S_1 
REMARK    2  A    between atoms: C_6  and  S_1 
REMARK    3  A    between atoms: C_4  and  C_2 
REMARK       I    between atoms: N_8  and  C_4 
ROOT
ATOM      1  C   UNL d   1       0.776  -0.416   2.469  0.00  0.00     0.051 A 
ATOM      2  C   UNL d   1       0.496  -0.890   1.175  0.00  0.00     0.052 A 
ATOM      3  C   UNL d   1       0.331  -1.151   3.585  0.00  0.00     0.018 A 
ATOM      4  C   UNL d   1      -0.196  -2.110   1.035  0.00  0.00     0.022 A 
ATOM      5  C   UNL d   1      -0.365  -2.349   3.428  0.00  0.00     0.001 A 
ATOM      6  C   UNL d   1      -0.627  -2.829   2.151  0.00  0.00     0.002 A 
ENDROOT
BRANCH   2   7
ATOM      7  S   UNL d   1       0.991  -0.004  -0.329  0.00  0.00     0.086 S 
ATOM      8  O   UNL d   1       1.268  -1.075  -1.345  0.00  0.00    -0.247 OA
BRANCH   7   9
ATOM      9  C   UNL d   1      -0.661   0.630  -0.714  0.00  0.00     0.036 A 
ATOM     10  C   UNL d   1      -1.235   1.619   0.093  0.00  0.00     0.021 A 
ATOM     11  C   UNL d   1      -2.470   2.175  -0.241  0.00  0.00     0.001 A 
ATOM     12  C   UNL d   1      -3.138   1.754  -1.393  0.00  0.00     0.000 A 
ATOM     13  C   UNL d   1      -2.572   0.773  -2.204  0.00  0.00     0.001 A 
ATOM     14  C   UNL d   1      -1.338   0.213  -1.869  0.00  0.00     0.021 A 
ENDBRANCH   7   9
ENDBRANCH   2   7
BRANCH   1  15
ATOM     15  C   UNL d   1       1.460   0.866   2.790  0.00  0.00     0.252 C 
ATOM     16  O   UNL d   1       1.058   1.532   3.743  0.00  0.00    -0.268 OA
ATOM     17  N   UNL d   1       2.555   1.230   2.038  0.00  0.00    -0.361 N 
ATOM     18  C   UNL d   1       3.334   2.392   2.397  0.00  0.00     0.149 C 
ATOM     19  H   UNL d   1       2.993   0.546   1.432  0.00  0.00     0.162 HD
ENDBRANCH   1  15
TORSDOF 3
