REMARK  4 active torsions:
REMARK  status: ('A' for Active; 'I' for Inactive)
REMARK    1  A    between atoms: O_5  and  C_1 
REMARK       I    between atoms: N_6  and  C_1 
REMARK    2  A    between atoms: N_2  and  C_3 
REMARK    3  A    between atoms: C_4  and  O_5 
REMARK    4  A    between atoms: C_7  and  N_6 
ROOT
ATOM      1  O   UNL d   1       0.312  -0.340   0.776  0.00  0.00    -0.259 OA
ENDROOT
BRANCH   1   2
ATOM      2  C   UNL d   1      -0.919  -0.935   0.393  0.00  0.00     0.107 A 
ATOM      3  C   UNL d   1      -1.344  -0.805  -0.950  0.00  0.00     0.064 A 
ATOM      4  C   UNL d   1      -2.654  -1.236  -1.225  0.00  0.00     0.032 A 
ATOM      5  C   UNL d   1      -3.489  -1.765  -0.232  0.00  0.00     0.002 A 
ATOM      6  C   UNL d   1      -3.037  -1.877   1.077  0.00  0.00     0.003 A 
ATOM      7  C   UNL d   1      -1.752  -1.452   1.395  0.00  0.00     0.040 A 
BRANCH   3   8
ATOM      8  N   UNL d   1      -0.551  -0.244  -1.939  0.00  0.00    -0.379 N 
ATOM      9  C   UNL d   1       0.822  -0.707  -2.139  0.00  0.00     0.123 C 
ATOM     10  C   UNL d   1       1.719   0.521  -2.283  0.00  0.00     0.020 C 
ATOM     11  C   UNL d   1       1.224   1.450  -3.393  0.00  0.00     0.003 C 
ATOM     12  C   UNL d   1      -0.267   1.769  -3.253  0.00  0.00     0.020 C 
ATOM     13  C   UNL d   1      -1.113   0.508  -3.059  0.00  0.00     0.123 C 
ENDBRANCH   3   8
ENDBRANCH   1   2
BRANCH   1  14
ATOM     14  C   UNL d   1       1.160  -1.025   1.633  0.00  0.00     0.370 C 
ATOM     15  N   UNL d   1       2.230  -0.312   2.114  0.00  0.00    -0.302 N 
ATOM     16  H   UNL d   1       2.823  -0.905   2.679  0.00  0.00     0.171 HD
ATOM     17  O   UNL d   1       1.028  -2.200   1.966  0.00  0.00    -0.238 OA
BRANCH  15  18
ATOM     18  C   UNL d   1       2.659   1.013   1.919  0.00  0.00     0.037 A 
ATOM     19  C   UNL d   1       1.940   1.995   1.240  0.00  0.00     0.036 A 
ATOM     20  C   UNL d   1       2.486   3.272   1.028  0.00  0.00    -0.059 A 
ATOM     21  C   UNL d   1       1.727   4.313   0.259  0.00  0.00     0.048 C 
ATOM     22  C   UNL d   1       3.753   3.572   1.540  0.00  0.00     0.013 A 
ATOM     23  C   UNL d   1       4.477   2.610   2.251  0.00  0.00    -0.059 A 
ATOM     24  C   UNL d   1       3.916   1.342   2.445  0.00  0.00     0.036 A 
ATOM     25  C   UNL d   1       5.830   2.947   2.801  0.00  0.00     0.048 C 
ENDBRANCH  15  18
ENDBRANCH   1  14
TORSDOF 4
