REMARK  8 active torsions:
REMARK  status: ('A' for Active; 'I' for Inactive)
REMARK    1  A    between atoms: C_13  and  N_1 
REMARK    2  A    between atoms: C_5  and  C_11 
REMARK    3  A    between atoms: C_8  and  C_12 
REMARK    4  A    between atoms: C_11  and  O_19 
REMARK    5  A    between atoms: C_18  and  C_13 
REMARK    6  A    between atoms: O_19  and  N_14 
REMARK    7  A    between atoms: C_16  and  C_18 
REMARK    8  A    between atoms: N_28  and  C_16 
ROOT
ATOM      1  N   UNL d   1       3.217  -4.878  -0.382  0.00  0.00    -0.245 N 
ATOM      2  HN  UNL d   1       3.536  -5.805  -0.661  1.00  0.00     0.196 HD
ATOM      3  C   UNL d   1       4.013  -3.881  -0.131  0.00  0.00     0.097 C 
ENDROOT
BRANCH   1   4
ATOM      4  O   UNL d   1       1.844  -4.523  -0.221  0.00  0.00    -0.193 OA
BRANCH   4   5
ATOM      5  C   UNL d   1       1.052  -5.596  -0.522  0.00  0.00     0.317 C 
ATOM      6  O   UNL d   1       1.430  -6.680  -0.933  0.00  0.00    -0.257 OA
BRANCH   5   7
ATOM      7  C   UNL d   1      -0.393  -5.379  -0.230  0.00  0.00     0.063 A 
ATOM      8  C   UNL d   1      -1.073  -4.167  -0.321  0.00  0.00     0.022 A 
ATOM      9  N   UNL d   1      -2.412  -4.061  -0.065  0.00  0.00    -0.355 N 
ATOM     10  C   UNL d   1      -0.432  -2.899  -0.797  0.00  0.00     0.069 C 
ATOM     11  C   UNL d   1      -3.133  -5.177   0.255  0.00  0.00     0.117 A 
ATOM     12  HN  UNL d   1      -2.872  -3.151  -0.114  1.00  0.00     0.166 HD
ATOM     13  C   UNL d   1      -2.526  -6.425   0.334  0.00  0.00     0.035 A 
ATOM     14  C   UNL d   1      -1.155  -6.520   0.084  0.00  0.00     0.022 A 
BRANCH  11  15
ATOM     15  C   UNL d   1      -4.639  -5.062   0.487  0.00  0.00     0.432 C 
ATOM     16  F   UNL d   1      -5.128  -3.796   0.362  0.00  0.00    -0.165 F 
ATOM     17  F   UNL d   1      -5.360  -5.825  -0.387  0.00  0.00    -0.165 F 
ATOM     18  F   UNL d   1      -5.015  -5.484   1.731  0.00  0.00    -0.165 F 
ENDBRANCH  11  15
ENDBRANCH   5   7
ENDBRANCH   4   5
ENDBRANCH   1   4
BRANCH   3  19
ATOM     19  C   UNL d   1       5.531  -4.103  -0.139  0.00  0.00     0.098 C 
BRANCH  19  20
ATOM     20  C   UNL d   1       6.009  -5.164  -1.131  0.00  0.00     0.142 C 
BRANCH  20  21
ATOM     21  N   UNL d   1       7.450  -5.363  -1.110  0.00  0.00    -0.290 N 
ATOM     22  C   UNL d   1       8.396  -4.742  -1.906  0.00  0.00     0.372 A 
ATOM     23  O   UNL d   1       9.687  -5.220  -1.625  0.00  0.00    -0.259 OA
ATOM     24  O   UNL d   1       8.183  -3.881  -2.750  0.00  0.00    -0.237 OA
ATOM     25  C   UNL d   1       9.453  -6.149  -0.626  0.00  0.00     0.107 A 
ATOM     26  C   UNL d   1       8.117  -6.255  -0.298  0.00  0.00     0.073 A 
ATOM     27  C   UNL d   1      10.417  -6.907   0.003  0.00  0.00     0.040 A 
ATOM     28  C   UNL d   1       7.664  -7.126   0.670  0.00  0.00     0.039 A 
ATOM     29  C   UNL d   1       8.619  -7.917   1.328  0.00  0.00    -0.060 A 
ATOM     30  C   UNL d   1       9.989  -7.800   0.990  0.00  0.00     0.009 A 
ATOM     31  C   UNL d   1       8.208  -8.898   2.388  0.00  0.00     0.048 C 
ENDBRANCH  20  21
ENDBRANCH  19  20
ENDBRANCH   3  19
BRANCH   3  32
ATOM     32  N   UNL d   1       3.583  -2.623   0.206  0.00  0.00    -0.387 N 
ATOM     33  H   UNL d   1       2.627  -2.425  -0.062  0.00  0.00     0.157 HD
ATOM     34  H   UNL d   1       4.222  -1.851   0.053  0.00  0.00     0.157 HD
ENDBRANCH   3  32
TORSDOF 8
