REMARK  4 active torsions:
REMARK  status: ('A' for Active; 'I' for Inactive)
REMARK    1  A    between atoms: N_3  and  C_1 
REMARK    2  A    between atoms: C_2  and  S_6 
REMARK    3  A    between atoms: S_6  and  C_5 
REMARK    4  A    between atoms: S_17  and  C_9 
ROOT
ATOM      1  C   UNL d   1       2.309   1.307  -0.112  0.00  0.00     0.138 A 
ATOM      2  C   UNL d   1       3.102   0.181   0.087  0.00  0.00     0.110 A 
ATOM      3  N   UNL d   1       2.526  -1.045   0.235  0.00  0.00    -0.357 N 
ATOM      4  HN  UNL d   1       3.100  -1.878   0.366  1.00  0.00     0.166 HD
ATOM      5  C   UNL d   1       0.912   1.212  -0.125  0.00  0.00     0.059 A 
ATOM      6  C   UNL d   1       0.337  -0.039   0.036  0.00  0.00     0.028 A 
ATOM      7  C   UNL d   1       1.171  -1.131   0.205  0.00  0.00     0.108 A 
ATOM      8 BR   UNL d   1      -1.535  -0.251   0.007  0.00  0.00    -0.050 Br
ENDROOT
BRANCH   2   9
ATOM      9  S   UNL d   1       4.883   0.185   0.136  0.00  0.00    -0.043 SA
BRANCH   9  10
ATOM     10  C   UNL d   1       5.082  -0.502   1.731  0.00  0.00     0.135 A 
ATOM     11  S   UNL d   1       5.197  -2.184   2.044  0.00  0.00    -0.037 SA
ATOM     12  C   UNL d   1       5.353  -1.782   3.703  0.00  0.00     0.128 A 
ATOM     13  N   UNL d   1       5.356  -0.489   3.950  0.00  0.00    -0.287 N 
ATOM     14  N   UNL d   1       5.198   0.260   2.797  0.00  0.00    -0.286 N 
ATOM     15  HN  UNL d   1       5.461  -0.087   4.881  1.00  0.00     0.188 HD
ATOM     16  HN  UNL d   1       5.175   1.279   2.777  1.00  0.00     0.188 HD
BRANCH  12  17
ATOM     17  S   UNL d   1       5.488  -2.993   4.957  0.00  0.00    -0.108 SA
ATOM     18  C   UNL d   1       5.563  -1.951   6.431  0.00  0.00     0.097 C 
ENDBRANCH  12  17
ENDBRANCH   9  10
ENDBRANCH   2   9
BRANCH   1  19
ATOM     19  N   UNL d   1       2.897   2.601  -0.343  0.00  0.00    -0.113 N 
ATOM     20  O   UNL d   1       3.587   2.737  -1.359  0.00  0.00    -0.532 OA
ATOM     21  O   UNL d   1       2.601   3.498   0.457  0.00  0.00    -0.532 OA
ENDBRANCH   1  19
TORSDOF 4
