REMARK  3 active torsions:
REMARK  status: ('A' for Active; 'I' for Inactive)
REMARK    1  A    between atoms: C_2  and  C_1 
REMARK       I    between atoms: N_5  and  C_2 
REMARK    2  A    between atoms: N_8  and  N_5 
REMARK    3  A    between atoms: C_9  and  N_8 
ROOT
ATOM      1  C   UNL d   1       0.827   1.356  -0.989  0.00  0.00     0.291 C 
ATOM      2  N   UNL d   1       0.683   2.731  -1.096  0.00  0.00    -0.281 N 
ATOM      3  O   UNL d   1       1.029   0.807   0.096  0.00  0.00    -0.264 OA
ATOM      4  H   UNL d   1       0.326   3.165  -1.944  0.00  0.00     0.184 HD
ENDROOT
BRANCH   2   5
ATOM      5  N   UNL d   1       0.613   3.503   0.084  0.00  0.00    -0.203 NA
ATOM      6  H   UNL d   1       1.016   2.974   0.870  0.00  0.00     0.153 HD
BRANCH   5   7
ATOM      7  C   UNL d   1       1.292   4.751  -0.013  0.00  0.00     0.033 A 
ATOM      8  C   UNL d   1       0.930   5.810   0.844  0.00  0.00    -0.039 A 
ATOM      9  C   UNL d   1       1.622   7.035   0.769  0.00  0.00     0.015 A 
ATOM     10  C   UNL d   1      -0.212   5.718   1.821  0.00  0.00     0.050 C 
ATOM     11  C   UNL d   1       2.697   7.212  -0.108  0.00  0.00    -0.061 A 
ATOM     12  C   UNL d   1       3.088   6.144  -0.914  0.00  0.00     0.008 A 
ATOM     13  C   UNL d   1       3.419   8.525  -0.157  0.00  0.00     0.048 C 
ATOM     14  C   UNL d   1       2.401   4.928  -0.859  0.00  0.00     0.026 A 
ENDBRANCH   5   7
ENDBRANCH   2   5
BRANCH   1  15
ATOM     15  C   UNL d   1       0.733   0.639  -2.236  0.00  0.00     0.168 A 
ATOM     16  O   UNL d   1       0.616   1.336  -3.404  0.00  0.00    -0.233 OA
ATOM     17  N   UNL d   1       0.573   0.454  -4.471  0.00  0.00    -0.272 N 
ATOM     18  C   UNL d   1       0.662  -0.762  -3.928  0.00  0.00     0.117 A 
ATOM     19  HN  UNL d   1       0.491   0.684  -5.461  1.00  0.00     0.194 HD
ATOM     20  C   UNL d   1       0.759  -0.707  -2.528  0.00  0.00     0.064 A 
ENDBRANCH   1  15
TORSDOF 3
