REMARK  0 active torsions:
REMARK  status: ('A' for Active; 'I' for Inactive)
ROOT
ATOM      1  C   UNL d   1      -1.053  -0.914   0.004  0.00  0.00     0.134 A 
ATOM      2  C   UNL d   1      -0.475   0.316   0.003  0.00  0.00     0.113 A 
ATOM      3  N   UNL d   1      -2.461  -0.962   0.068  0.00  0.00    -0.288 N 
ATOM      4  C   UNL d   1       1.774  -0.686   0.042  0.00  0.00     0.138 A 
ATOM      5  N   UNL d   1      -0.206  -2.079  -0.055  0.00  0.00    -0.302 N 
ATOM      6  N   UNL d   1      -2.640   1.402  -0.032  0.00  0.00    -0.270 N 
ATOM      7  C   UNL d   1      -3.273   0.180  -0.030  0.00  0.00     0.332 C 
ATOM      8  C   UNL d   1       0.939   0.402   0.007  0.00  0.00     0.129 A 
ATOM      9  C   UNL d   1      -1.276   1.560   0.026  0.00  0.00     0.268 C 
ATOM     10  C   UNL d   1       1.226  -2.016   0.039  0.00  0.00     0.278 A 
ATOM     11  N   UNL d   1       3.095  -0.308   0.050  0.00  0.00    -0.334 N 
ATOM     12  HN  UNL d   1       3.925  -0.901   0.076  1.00  0.00     0.168 HD
ATOM     13  O   UNL d   1       1.755   1.506  -0.012  0.00  0.00    -0.294 OA
ATOM     14  C   UNL d   1       3.028   1.006   0.017  0.00  0.00     0.121 A 
ATOM     15  O   UNL d   1      -4.504   0.100  -0.094  0.00  0.00    -0.246 OA
ATOM     16  O   UNL d   1      -0.745   2.668   0.084  0.00  0.00    -0.267 OA
ATOM     17  O   UNL d   1       1.942  -3.013   0.093  0.00  0.00    -0.265 OA
ATOM     18  C   UNL d   1      -3.239  -2.175   0.267  0.00  0.00     0.163 C 
ATOM     19  C   UNL d   1      -3.439   2.617  -0.037  0.00  0.00     0.164 C 
ATOM     20  C   UNL d   1      -0.665  -3.441  -0.247  0.00  0.00     0.161 C 
ATOM     21  C   UNL d   1       4.133   1.984   0.003  0.00  0.00     0.098 C 
ENDROOT
TORSDOF 0
