REMARK  3 active torsions:
REMARK  status: ('A' for Active; 'I' for Inactive)
REMARK    1  A    between atoms: C_2  and  S_1 
REMARK    2  A    between atoms: N_9  and  S_1 
REMARK    3  A    between atoms: C_19  and  N_9 
ROOT
ATOM      1  S   UNL d   1       1.015   0.142   0.002  0.00  0.00     0.265 S 
ATOM      2  O   UNL d   1       0.225  -0.758  -0.810  0.00  0.00    -0.200 OA
ATOM      3  O   UNL d   1       2.452   0.210  -0.158  0.00  0.00    -0.200 OA
ENDROOT
BRANCH   1   4
ATOM      4  C   UNL d   1       0.684  -0.244   1.676  0.00  0.00     0.110 A 
ATOM      5  C   UNL d   1      -0.609  -0.253   2.223  0.00  0.00     0.108 A 
ATOM      6  C   UNL d   1      -0.840  -0.617   3.619  0.00  0.00     0.086 A 
ATOM      7  N   UNL d   1      -1.798   0.044   1.678  0.00  0.00    -0.238 N 
ATOM      8  N   UNL d   1      -2.152  -0.541   3.866  0.00  0.00    -0.239 N 
ATOM      9  C   UNL d   1       0.205  -0.974   4.494  0.00  0.00     0.034 A 
ATOM     10  O   UNL d   1      -2.737  -0.145   2.678  0.00  0.00    -0.156 OA
ATOM     11  HN  UNL d   1      -2.624  -0.736   4.749  1.00  0.00     0.197 HD
ATOM     12  C   UNL d   1       1.489  -0.957   3.919  0.00  0.00     0.004 A 
ATOM     13  C   UNL d   1       1.722  -0.608   2.563  0.00  0.00     0.028 A 
ATOM     14  HN  UNL d   1      -1.974   0.348   0.721  1.00  0.00     0.197 HD
ENDBRANCH   1   4
BRANCH   1  15
ATOM     15  N   UNL d   1       0.393   1.676  -0.217  0.00  0.00    -0.281 N 
ATOM     16  H   UNL d   1      -0.460   1.752  -0.770  0.00  0.00     0.179 HD
BRANCH  15  17
ATOM     17  C   UNL d   1       0.948   2.812   0.414  0.00  0.00     0.043 A 
ATOM     18  C   UNL d   1       0.304   3.358   1.521  0.00  0.00     0.048 A 
ATOM     19  C   UNL d   1       0.828   4.529   2.042  0.00  0.00     0.050 A 
ATOM     20  C   UNL d   1       0.350   5.300   3.179  0.00  0.00     0.294 A 
ATOM     21  C   UNL d   1       1.929   5.165   1.501  0.00  0.00    -0.018 A 
ATOM     22  O   UNL d   1       1.170   6.389   3.285  0.00  0.00    -0.313 OA
ATOM     23  O   UNL d   1      -0.589   5.021   3.893  0.00  0.00    -0.259 OA
ATOM     24  C   UNL d   1       2.189   6.405   2.260  0.00  0.00     0.218 A 
ATOM     25  C   UNL d   1       2.576   4.628   0.405  0.00  0.00     0.012 A 
ATOM     26  C   UNL d   1       2.079   3.437  -0.140  0.00  0.00     0.031 A 
ENDBRANCH  15  17
ENDBRANCH   1  15
TORSDOF 3
