REMARK  3 active torsions:
REMARK  status: ('A' for Active; 'I' for Inactive)
REMARK    1  A    between atoms: C_3  and  C_1 
REMARK    2  A    between atoms: C_9  and  C_2 
REMARK    3  A    between atoms: C_16  and  N_15 
ROOT
ATOM      1  C   UNL d   1       0.459  -2.671  -0.065  0.00  0.00     0.056 A 
ATOM      2  N   UNL d   1      -0.309  -3.551  -0.778  0.00  0.00    -0.335 N 
ATOM      3  HN  UNL d   1      -1.144  -3.284  -1.300  1.00  0.00     0.168 HD
ATOM      4  C   UNL d   1       0.153  -4.778  -0.713  0.00  0.00     0.149 A 
ATOM      5  S   UNL d   1       1.589  -4.923   0.237  0.00  0.00    -0.064 SA
ATOM      6  C   UNL d   1       1.563  -3.233   0.538  0.00  0.00     0.083 A 
ATOM      7  N   UNL d   1      -0.377  -5.866  -1.317  0.00  0.00    -0.335 N 
ATOM      8  H   UNL d   1       0.163  -6.726  -1.275  0.00  0.00     0.168 HD
ENDROOT
BRANCH   1   9
ATOM      9  C   UNL d   1       0.030  -1.278  -0.012  0.00  0.00     0.052 A 
ATOM     10  C   UNL d   1      -1.317  -0.777   0.015  0.00  0.00     0.081 A 
ATOM     11  N   UNL d   1      -1.284   0.566   0.097  0.00  0.00    -0.259 N 
ATOM     12  O   UNL d   1       0.036   0.943   0.073  0.00  0.00    -0.241 OA
ATOM     13  HN  UNL d   1      -2.090   1.188   0.164  1.00  0.00     0.195 HD
ATOM     14  C   UNL d   1       0.827  -0.157   0.022  0.00  0.00     0.087 A 
ATOM     15  C   UNL d   1       2.280   0.094   0.008  0.00  0.00     0.080 C 
BRANCH  10  16
ATOM     16  C   UNL d   1      -2.610  -1.485   0.070  0.00  0.00     0.015 A 
ATOM     17  C   UNL d   1      -3.775  -1.028  -0.583  0.00  0.00     0.048 A 
ATOM     18  C   UNL d   1      -4.996  -1.705  -0.433  0.00  0.00     0.048 A 
ATOM     19 CL   UNL d   1      -3.805   0.345  -1.640  0.00  0.00    -0.083 Cl
ATOM     20  C   UNL d   1      -5.064  -2.861   0.337  0.00  0.00     0.035 A 
ATOM     21  C   UNL d   1      -3.927  -3.345   0.969  0.00  0.00     0.025 A 
ATOM     22 CL   UNL d   1      -6.558  -3.694   0.507  0.00  0.00    -0.084 Cl
ATOM     23  C   UNL d   1      -2.719  -2.650   0.854  0.00  0.00     0.017 A 
ENDBRANCH  10  16
ENDBRANCH   1   9
BRANCH   7  24
ATOM     24  C   UNL d   1      -1.313  -5.853  -2.379  0.00  0.00     0.056 A 
ATOM     25  C   UNL d   1      -1.342  -6.913  -3.309  0.00  0.00     0.062 A 
ATOM     26  C   UNL d   1      -2.168  -6.875  -4.435  0.00  0.00     0.050 A 
ATOM     27 CL   UNL d   1      -0.318  -8.294  -3.095  0.00  0.00    -0.082 Cl
ATOM     28  C   UNL d   1      -2.996  -5.776  -4.641  0.00  0.00     0.035 A 
ATOM     29  C   UNL d   1      -3.032  -4.740  -3.713  0.00  0.00     0.026 A 
ATOM     30 CL   UNL d   1      -3.971  -5.687  -6.054  0.00  0.00    -0.084 Cl
ATOM     31  C   UNL d   1      -2.204  -4.789  -2.591  0.00  0.00     0.033 A 
ENDBRANCH   7  24
TORSDOF 3
