REMARK  7 active torsions:
REMARK  status: ('A' for Active; 'I' for Inactive)
REMARK    1  A    between atoms: N_3  and  C_1 
REMARK    2  A    between atoms: N_5  and  C_1 
REMARK       I    between atoms: C_2  and  N_4 
REMARK    3  A    between atoms: O_13  and  C_2 
REMARK    4  A    between atoms: N_4  and  N_3 
REMARK    5  A    between atoms: C_12  and  N_5 
REMARK    6  A    between atoms: C_7  and  C_8 
REMARK    7  A    between atoms: C_19  and  O_13 
ROOT
ATOM      1  N   UNL d   1       0.286   0.287   0.860  0.00  0.00    -0.332 N 
ATOM      2  H   UNL d   1       0.706   1.163   1.139  0.00  0.00     0.168 HD
ENDROOT
BRANCH   1   3
ATOM      3  C   UNL d   1       1.201  -0.721   0.655  0.00  0.00     0.191 C 
ATOM      4  S   UNL d   1       1.122  -2.302   1.198  0.00  0.00    -0.039 SA
BRANCH   3   5
ATOM      5  N   UNL d   1       2.328  -0.337  -0.034  0.00  0.00    -0.272 N 
ATOM      6  H   UNL d   1       3.035  -1.047  -0.222  0.00  0.00     0.189 HD
BRANCH   5   7
ATOM      7  N   UNL d   1       2.306   0.745  -0.915  0.00  0.00    -0.243 N 
ATOM      8  C   UNL d   1       3.465   1.085  -1.564  0.00  0.00     0.379 C 
ATOM      9  O   UNL d   1       4.543   0.533  -1.389  0.00  0.00    -0.237 OA
ATOM     10  H   UNL d   1       1.422   1.159  -1.188  0.00  0.00     0.192 HD
BRANCH   8  11
ATOM     11  O   UNL d   1       3.246   2.152  -2.372  0.00  0.00    -0.303 OA
BRANCH  11  12
ATOM     12  C   UNL d   1       4.434   2.848  -2.775  0.00  0.00     0.176 C 
ATOM     13  C   UNL d   1       4.768   3.866  -1.699  0.00  0.00     0.034 C 
ENDBRANCH  11  12
ENDBRANCH   8  11
ENDBRANCH   5   7
ENDBRANCH   3   5
ENDBRANCH   1   3
BRANCH   1  14
ATOM     14  C   UNL d   1      -1.101   0.150   1.058  0.00  0.00     0.034 A 
ATOM     15  C   UNL d   1      -1.783   1.090   1.835  0.00  0.00     0.030 A 
ATOM     16  C   UNL d   1      -3.180   1.015   1.971  0.00  0.00     0.010 A 
ATOM     17  C   UNL d   1      -3.933   0.034   1.302  0.00  0.00    -0.051 A 
ATOM     18  C   UNL d   1      -3.222  -0.899   0.530  0.00  0.00     0.010 A 
ATOM     19  C   UNL d   1      -1.830  -0.837   0.409  0.00  0.00     0.030 A 
BRANCH  17  20
ATOM     20  C   UNL d   1      -5.472   0.018   1.383  0.00  0.00    -0.024 C 
ATOM     21  C   UNL d   1      -6.121  -1.060   0.482  0.00  0.00     0.019 C 
ATOM     22  C   UNL d   1      -5.926  -0.256   2.830  0.00  0.00     0.019 C 
ATOM     23  C   UNL d   1      -6.031   1.382   0.925  0.00  0.00     0.019 C 
ENDBRANCH  17  20
ENDBRANCH   1  14
TORSDOF 7
