REMARK  3 active torsions:
REMARK  status: ('A' for Active; 'I' for Inactive)
REMARK    1  A    between atoms: C_8  and  N_3 
REMARK    2  A    between atoms: C_9  and  C_4 
REMARK    3  A    between atoms: S_10  and  C_7 
ROOT
ATOM      1  N   UNL d   1      -0.180  -1.143  -0.030  0.00  0.00    -0.320 N 
ATOM      2  HN  UNL d   1      -0.484  -2.104  -0.185  1.00  0.00     0.169 HD
ATOM      3  N   UNL d   1       0.998   0.715   0.104  0.00  0.00    -0.237 N 
ATOM      4  C   UNL d   1       1.056  -0.677   0.043  0.00  0.00     0.140 C 
ATOM      5  N   UNL d   1      -0.287   1.103   0.317  0.00  0.00    -0.271 N 
ATOM      6  HN  UNL d   1      -0.649   2.029   0.547  1.00  0.00     0.189 HD
ATOM      7  C   UNL d   1      -0.949  -0.037   0.149  0.00  0.00     0.158 C 
ENDROOT
BRANCH   3   8
ATOM      8  C   UNL d   1       2.023   1.686  -0.044  0.00  0.00     0.058 A 
ATOM      9  C   UNL d   1       3.160   1.428  -0.822  0.00  0.00     0.031 A 
ATOM     10  C   UNL d   1       4.173   2.384  -0.916  0.00  0.00     0.002 A 
ATOM     11  C   UNL d   1       4.055   3.597  -0.239  0.00  0.00     0.000 A 
ATOM     12  C   UNL d   1       2.911   3.871   0.509  0.00  0.00     0.002 A 
ATOM     13  C   UNL d   1       1.885   2.928   0.592  0.00  0.00     0.031 A 
ENDBRANCH   3   8
BRANCH   4  14
ATOM     14  C   UNL d   1       2.253  -1.521   0.137  0.00  0.00     0.010 A 
ATOM     15  C   UNL d   1       3.314  -1.208   1.001  0.00  0.00     0.015 A 
ATOM     16  C   UNL d   1       4.447  -2.022   1.067  0.00  0.00     0.001 A 
ATOM     17  C   UNL d   1       4.517  -3.178   0.295  0.00  0.00     0.000 A 
ATOM     18  C   UNL d   1       3.453  -3.526  -0.535  0.00  0.00     0.001 A 
ATOM     19  C   UNL d   1       2.325  -2.704  -0.610  0.00  0.00     0.015 A 
ENDBRANCH   4  14
BRANCH   7  20
ATOM     20  S   UNL d   1      -2.684  -0.083   0.183  0.00  0.00    -0.106 SA
ATOM     21  H   UNL d   1      -2.850   1.238   0.322  0.00  0.00     0.110 HD
ENDBRANCH   7  20
TORSDOF 3
