REMARK  3 active torsions:
REMARK  status: ('A' for Active; 'I' for Inactive)
REMARK    1  A    between atoms: C_4  and  C_1 
REMARK    2  A    between atoms: C_6  and  N_3 
REMARK    3  A    between atoms: C_8  and  C_6 
ROOT
ATOM      1  C   UNL d   1      -1.020  -0.169  -0.831  0.00  0.00     0.115 C 
ATOM      2  C   UNL d   1       0.318   0.395  -1.147  0.00  0.00     0.262 C 
ATOM      3  N   UNL d   1       1.174   0.590  -0.057  0.00  0.00    -0.320 N 
ATOM      4  C   UNL d   1      -1.266  -0.611   0.417  0.00  0.00     0.023 C 
ATOM      5  C   UNL d   1       0.884   0.101   1.206  0.00  0.00     0.094 C 
ATOM      6  O   UNL d   1       0.635   0.680  -2.297  0.00  0.00    -0.267 OA
ATOM      7  C   UNL d   1      -0.273  -0.519   1.454  0.00  0.00     0.018 C 
ENDROOT
BRANCH   3   8
ATOM      8  C   UNL d   1       2.439   1.291  -0.282  0.00  0.00     0.170 C 
BRANCH   8   9
ATOM      9  C   UNL d   1       3.625   0.356  -0.333  0.00  0.00    -0.037 A 
ATOM     10  C   UNL d   1       3.758  -0.571  -1.374  0.00  0.00     0.032 A 
ATOM     11  C   UNL d   1       4.837  -1.455  -1.398  0.00  0.00     0.036 A 
ATOM     12 CL   UNL d   1       4.972  -2.603  -2.671  0.00  0.00    -0.084 Cl
ATOM     13  C   UNL d   1       5.802  -1.422  -0.395  0.00  0.00     0.047 A 
ATOM     14  C   UNL d   1       5.684  -0.490   0.632  0.00  0.00     0.036 A 
ATOM     15  C   UNL d   1       4.606   0.398   0.670  0.00  0.00     0.032 A 
ATOM     16 CL   UNL d   1       6.872  -0.434   1.876  0.00  0.00    -0.084 Cl
ENDBRANCH   8   9
ENDBRANCH   3   8
BRANCH   1  17
ATOM     17  C   UNL d   1      -2.052  -0.160  -1.899  0.00  0.00     0.422 C 
ATOM     18  F   UNL d   1      -1.697   0.393  -3.083  0.00  0.00    -0.166 F 
ATOM     19  F   UNL d   1      -2.488  -1.419  -2.174  0.00  0.00    -0.166 F 
ATOM     20  F   UNL d   1      -3.155   0.529  -1.484  0.00  0.00    -0.166 F 
ENDBRANCH   1  17
TORSDOF 3
