REMARK  5 active torsions:
REMARK  status: ('A' for Active; 'I' for Inactive)
REMARK    1  A    between atoms: C_9  and  N_1 
REMARK    2  A    between atoms: C_12  and  N_2 
REMARK    3  A    between atoms: C_16  and  C_12 
REMARK    4  A    between atoms: S_17  and  C_15 
REMARK    5  A    between atoms: O_24  and  C_18 
ROOT
ATOM      1  N   UNL d   1       0.888  -1.382  -0.011  0.00  0.00    -0.245 N 
ATOM      2  N   UNL d   1       2.090   0.683  -0.200  0.00  0.00    -0.260 N 
ATOM      3  C   UNL d   1       2.123  -0.728  -0.137  0.00  0.00     0.338 A 
ATOM      4  C   UNL d   1      -0.287  -0.659  -0.055  0.00  0.00     0.150 A 
ATOM      5  C   UNL d   1      -0.257   0.700  -0.149  0.00  0.00     0.147 A 
ATOM      6  C   UNL d   1       0.937   1.466  -0.220  0.00  0.00     0.282 A 
ATOM      7  N   UNL d   1      -1.571  -1.112   0.056  0.00  0.00    -0.336 N 
ATOM      8  HN  UNL d   1      -1.882  -2.079   0.148  1.00  0.00     0.168 HD
ATOM      9  N   UNL d   1      -1.561   1.105  -0.110  0.00  0.00    -0.345 N 
ATOM     10  C   UNL d   1      -2.321  -0.028   0.019  0.00  0.00     0.182 A 
ATOM     11  O   UNL d   1       3.192  -1.340  -0.206  0.00  0.00    -0.246 OA
ATOM     12  O   UNL d   1       0.915   2.692  -0.272  0.00  0.00    -0.265 OA
ATOM     13  H   UNL d   1      -1.894   2.059  -0.140  0.00  0.00     0.167 HD
ENDROOT
BRANCH   2  14
ATOM     14  C   UNL d   1       3.378   1.370  -0.157  0.00  0.00     0.175 C 
BRANCH  14  15
ATOM     15  C   UNL d   1       4.233   1.155  -1.386  0.00  0.00    -0.040 A 
ATOM     16  C   UNL d   1       3.772   1.492  -2.664  0.00  0.00     0.011 A 
ATOM     17  C   UNL d   1       4.554   1.222  -3.794  0.00  0.00     0.037 A 
ATOM     18  C   UNL d   1       5.805   0.619  -3.655  0.00  0.00     0.068 A 
ATOM     19  C   UNL d   1       6.296   0.339  -2.383  0.00  0.00     0.037 A 
ATOM     20  C   UNL d   1       5.515   0.597  -1.256  0.00  0.00     0.011 A 
BRANCH  18  21
ATOM     21  O   UNL d   1       6.636   0.308  -4.697  0.00  0.00    -0.356 OA
ATOM     22  C   UNL d   1       5.968  -0.163  -5.863  0.00  0.00     0.210 C 
ENDBRANCH  18  21
ENDBRANCH  14  15
ENDBRANCH   2  14
BRANCH   1  23
ATOM     23  C   UNL d   1       0.810  -2.797   0.112  0.00  0.00     0.062 A 
ATOM     24  C   UNL d   1       1.526  -3.519   1.095  0.00  0.00     0.027 A 
ATOM     25  C   UNL d   1       1.544  -4.926   1.016  0.00  0.00     0.021 A 
ATOM     26  C   UNL d   1       0.866  -5.608   0.004  0.00  0.00     0.002 A 
ATOM     27  C   UNL d   1       0.133  -4.899  -0.937  0.00  0.00     0.002 A 
ATOM     28  C   UNL d   1       0.095  -3.505  -0.877  0.00  0.00     0.031 A 
BRANCH  24  29
ATOM     29  S   UNL d   1       2.452  -2.858   2.496  0.00  0.00    -0.132 SA
ATOM     30  C   UNL d   1       1.387  -1.528   3.111  0.00  0.00     0.095 C 
ENDBRANCH  24  29
ENDBRANCH   1  23
TORSDOF 5
