REMARK  8 active torsions:
REMARK  status: ('A' for Active; 'I' for Inactive)
REMARK    1  A    between atoms: N_3  and  C_1 
REMARK    2  A    between atoms: N_10  and  C_1 
REMARK    3  A    between atoms: C_2  and  N_3 
REMARK    4  A    between atoms: N_5  and  N_10 
REMARK    5  A    between atoms: C_8  and  C_12 
REMARK    6  A    between atoms: O_18  and  C_11 
REMARK    7  A    between atoms: C_21  and  O_18 
REMARK    8  A    between atoms: C_22  and  C_21 
ROOT
ATOM      1  N   UNL d   1       4.093  -0.682   1.156  0.00  0.00    -0.276 N 
ATOM      2  H   UNL d   1       3.248  -0.175   0.907  0.00  0.00     0.189 HD
ENDROOT
BRANCH   1   3
ATOM      3  N   UNL d   1       4.902  -1.180   0.192  0.00  0.00    -0.309 N 
ATOM      4  C   UNL d   1       4.629  -0.870  -1.045  0.00  0.00     0.121 C 
ATOM      5  HN  UNL d   1       5.697  -1.777   0.424  1.00  0.00     0.186 HD
BRANCH   4   6
ATOM      6  C   UNL d   1       5.453  -1.455  -2.136  0.00  0.00     0.014 A 
ATOM      7  C   UNL d   1       5.189  -1.288  -3.509  0.00  0.00     0.080 A 
ATOM      8  C   UNL d   1       6.001  -2.001  -4.417  0.00  0.00     0.037 A 
ATOM      9  C   UNL d   1       7.045  -2.823  -3.986  0.00  0.00     0.003 A 
ATOM     10  C   UNL d   1       7.319  -2.950  -2.635  0.00  0.00     0.001 A 
ATOM     11  C   UNL d   1       6.528  -2.273  -1.719  0.00  0.00     0.015 A 
BRANCH   7  12
ATOM     12  O   UNL d   1       4.162  -0.455  -3.926  0.00  0.00    -0.350 OA
BRANCH  12  13
ATOM     13  C   UNL d   1       4.034  -0.330  -5.357  0.00  0.00     0.175 C 
BRANCH  13  14
ATOM     14  C   UNL d   1       2.982   0.682  -5.809  0.00  0.00     0.022 C 
ATOM     15  C   UNL d   1       1.566   0.296  -5.425  0.00  0.00     0.007 C 
ENDBRANCH  13  14
ENDBRANCH  12  13
ENDBRANCH   7  12
ENDBRANCH   4   6
ENDBRANCH   1   3
BRANCH   1  16
ATOM     16  C   UNL d   1       4.350  -0.886   2.502  0.00  0.00     0.191 C 
ATOM     17  S   UNL d   1       3.224  -0.316   3.603  0.00  0.00    -0.039 SA
BRANCH  16  18
ATOM     18  N   UNL d   1       5.513  -1.589   2.759  0.00  0.00    -0.331 N 
ATOM     19  H   UNL d   1       5.746  -2.239   2.010  0.00  0.00     0.168 HD
BRANCH  18  20
ATOM     20  C   UNL d   1       6.207  -1.720   3.995  0.00  0.00     0.057 A 
ATOM     21  C   UNL d   1       6.299  -0.647   4.882  0.00  0.00     0.055 A 
ATOM     22  C   UNL d   1       6.971  -0.779   6.102  0.00  0.00     0.036 A 
ATOM     23 CL   UNL d   1       7.073   0.566   7.169  0.00  0.00    -0.084 Cl
ATOM     24  C   UNL d   1       7.574  -1.984   6.447  0.00  0.00     0.026 A 
ATOM     25  C   UNL d   1       7.535  -3.052   5.548  0.00  0.00     0.028 A 
ATOM     26  C   UNL d   1       6.878  -2.914   4.317  0.00  0.00     0.060 A 
ATOM     27 CL   UNL d   1       6.882  -4.268   3.243  0.00  0.00    -0.082 Cl
ENDBRANCH  18  20
ENDBRANCH  16  18
ENDBRANCH   1  16
TORSDOF 8
