REMARK  4 active torsions:
REMARK  status: ('A' for Active; 'I' for Inactive)
REMARK    1  A    between atoms: C_8  and  C_3 
REMARK    2  A    between atoms: C_7  and  C_6 
REMARK    3  A    between atoms: C_10  and  C_7 
REMARK    4  A    between atoms: O_20  and  C_10 
ROOT
ATOM      1  N   UNL d   1       1.091  -0.169   0.490  0.00  0.00    -0.320 N 
ATOM      2  HN  UNL d   1       1.981  -0.080   0.982  1.00  0.00     0.169 HD
ATOM      3  C   UNL d   1       0.648  -1.286   0.017  0.00  0.00     0.083 A 
ATOM      4  C   UNL d   1       0.240   0.890   0.264  0.00  0.00     0.237 A 
ATOM      5  S   UNL d   1      -0.924  -1.253  -0.737  0.00  0.00    -0.096 SA
ATOM      6  C   UNL d   1      -1.017   0.551  -0.524  0.00  0.00     0.156 A 
ATOM      7  O   UNL d   1       0.456   2.025   0.678  0.00  0.00    -0.272 OA
ENDROOT
BRANCH   3   8
ATOM      8  C   UNL d   1       1.379  -2.564   0.116  0.00  0.00     0.000 A 
ATOM      9  C   UNL d   1       1.246  -3.553  -0.868  0.00  0.00     0.054 A 
ATOM     10  C   UNL d   1       1.968  -4.716  -0.712  0.00  0.00     0.105 A 
ATOM     11  O   UNL d   1       1.964  -5.766  -1.576  0.00  0.00    -0.323 OA
ATOM     12  C   UNL d   1       2.792  -4.924   0.367  0.00  0.00     0.105 A 
ATOM     13  C   UNL d   1       2.904  -6.651  -0.930  0.00  0.00     0.352 A 
ATOM     14  O   UNL d   1       3.406  -6.136   0.321  0.00  0.00    -0.323 OA
ATOM     15  C   UNL d   1       2.949  -3.974   1.353  0.00  0.00     0.040 A 
ATOM     16  C   UNL d   1       2.240  -2.773   1.219  0.00  0.00     0.017 A 
ENDBRANCH   3   8
BRANCH   6  17
ATOM     17  C   UNL d   1      -2.247   0.984   0.261  0.00  0.00     0.135 C 
BRANCH  17  18
ATOM     18  C   UNL d   1      -3.519   0.704  -0.491  0.00  0.00     0.141 C 
ATOM     19  O   UNL d   1      -3.614   0.687  -1.707  0.00  0.00    -0.650 OA
BRANCH  18  20
ATOM     20  O   UNL d   1      -4.584   0.517   0.320  0.00  0.00    -0.776 OA
ATOM     21  H   UNL d   1      -4.392   0.582   1.275  0.00  0.00     0.167 HD
ENDBRANCH  18  20
ENDBRANCH  17  18
ENDBRANCH   6  17
TORSDOF 4
