REMARK  5 active torsions:
REMARK  status: ('A' for Active; 'I' for Inactive)
REMARK    1  A    between atoms: C_3  and  C_1 
REMARK    2  A    between atoms: N_4  and  C_2 
REMARK    3  A    between atoms: S_9  and  C_2 
REMARK    4  A    between atoms: C_8  and  C_3 
REMARK    5  A    between atoms: C_5  and  N_4 
ROOT
ATOM      1  C   UNL d   1       0.824   0.216  -0.026  0.00  0.00     0.086 C 
ATOM      2  C   UNL d   1       0.361   1.077  -0.955  0.00  0.00     0.053 C 
ENDROOT
BRANCH   2   3
ATOM      3  N   UNL d   1       1.135   1.362  -2.082  0.00  0.00    -0.253 NA
ATOM      4  H   UNL d   1       0.503   1.504  -2.876  0.00  0.00     0.134 HD
BRANCH   3   5
ATOM      5  C   UNL d   1       2.059   2.455  -2.131  0.00  0.00     0.035 A 
ATOM      6  C   UNL d   1       2.371   3.057  -3.369  0.00  0.00     0.055 A 
ATOM      7 CL   UNL d   1       1.549   2.574  -4.814  0.00  0.00    -0.082 Cl
ATOM      8  C   UNL d   1       3.320   4.079  -3.462  0.00  0.00     0.026 A 
ATOM      9  C   UNL d   1       3.993   4.505  -2.319  0.00  0.00     0.002 A 
ATOM     10  C   UNL d   1       3.718   3.907  -1.091  0.00  0.00     0.002 A 
ATOM     11  C   UNL d   1       2.768   2.884  -0.999  0.00  0.00     0.025 A 
ENDBRANCH   3   5
ENDBRANCH   2   3
BRANCH   2  12
ATOM     12  S   UNL d   1      -1.208   1.847  -0.795  0.00  0.00    -0.122 SA
ATOM     13  C   UNL d   1      -2.269   0.595  -1.554  0.00  0.00     0.097 C 
ENDBRANCH   2  12
BRANCH   1  14
ATOM     14  C   UNL d   1       0.117  -0.303   1.181  0.00  0.00     0.184 C 
ATOM     15  O   UNL d   1      -1.094  -0.464   1.233  0.00  0.00    -0.288 OA
BRANCH  14  16
ATOM     16  C   UNL d   1       0.970  -0.788   2.300  0.00  0.00     0.014 A 
ATOM     17  C   UNL d   1       2.162  -0.147   2.657  0.00  0.00     0.015 A 
ATOM     18  C   UNL d   1       2.941  -0.658   3.699  0.00  0.00     0.001 A 
ATOM     19  C   UNL d   1       2.531  -1.801   4.386  0.00  0.00     0.000 A 
ATOM     20  C   UNL d   1       1.331  -2.427   4.050  0.00  0.00     0.001 A 
ATOM     21  C   UNL d   1       0.546  -1.917   3.014  0.00  0.00     0.015 A 
ENDBRANCH  14  16
ENDBRANCH   1  14
TORSDOF 5
