REMARK  5 active torsions:
REMARK  status: ('A' for Active; 'I' for Inactive)
REMARK    1  A    between atoms: S_9  and  C_1 
REMARK    2  A    between atoms: C_3  and  S_9 
REMARK    3  A    between atoms: C_11  and  C_3 
REMARK    4  A    between atoms: S_13  and  C_6 
REMARK    5  A    between atoms: O_14  and  C_10 
ROOT
ATOM      1  C   UNL d   1       4.468   4.483  -0.168  0.00  0.00     0.134 A 
ATOM      2  S   UNL d   1       4.881   5.025  -1.734  0.00  0.00    -0.037 SA
ATOM      3  N   UNL d   1       5.481   4.018   0.537  0.00  0.00    -0.286 N 
ATOM      4  HN  UNL d   1       5.403   3.688   1.499  1.00  0.00     0.188 HD
ATOM      5  C   UNL d   1       6.488   4.529  -1.388  0.00  0.00     0.128 A 
ATOM      6  N   UNL d   1       6.654   4.031  -0.180  0.00  0.00    -0.287 N 
ATOM      7  HN  UNL d   1       7.547   3.694   0.180  1.00  0.00     0.188 HD
ENDROOT
BRANCH   1   8
ATOM      8  S   UNL d   1       2.877   4.513   0.545  0.00  0.00    -0.058 SA
BRANCH   8   9
ATOM      9  C   UNL d   1       2.313   2.933   0.089  0.00  0.00     0.081 C 
ATOM     10  C   UNL d   1       2.956   1.752   0.241  0.00  0.00     0.060 C 
ATOM     11  C   UNL d   1       2.438   0.416  -0.224  0.00  0.00     0.077 C 
BRANCH  10  12
ATOM     12  O   UNL d   1       4.194   1.607   0.846  0.00  0.00    -0.364 OA
ATOM     13  H   UNL d   1       4.573   2.469   1.106  0.00  0.00     0.217 HD
ENDBRANCH  10  12
BRANCH   9  14
ATOM     14  C   UNL d   1       0.910   2.957  -0.440  0.00  0.00     0.165 C 
ATOM     15  O   UNL d   1       0.638   3.580  -1.466  0.00  0.00    -0.292 OA
ATOM     16  C   UNL d   1      -0.164   2.269   0.371  0.00  0.00     0.097 C 
ENDBRANCH   9  14
ENDBRANCH   8   9
ENDBRANCH   1   8
BRANCH   5  17
ATOM     17  S   UNL d   1       7.808   4.669  -2.526  0.00  0.00    -0.108 SA
ATOM     18  C   UNL d   1       9.014   3.553  -1.768  0.00  0.00     0.097 C 
ENDBRANCH   5  17
TORSDOF 5
