REMARK  3 active torsions:
REMARK  status: ('A' for Active; 'I' for Inactive)
REMARK       I    between atoms: C_2  and  N_3 
REMARK    1  A    between atoms: C_8  and  C_2 
REMARK    2  A    between atoms: N_4  and  C_5 
REMARK    3  A    between atoms: C_11  and  C_12 
ROOT
ATOM      1  C   UNL d   1       2.012  -6.847   0.933  0.00  0.00     0.253 C 
ATOM      2  N   UNL d   1       1.922  -5.555   0.427  0.00  0.00    -0.345 N 
ATOM      3  N   UNL d   1       1.300  -2.787   0.119  0.00  0.00    -0.377 N 
ATOM      4  C   UNL d   1       1.099  -5.085  -0.711  0.00  0.00     0.146 C 
ATOM      5  C   UNL d   1       2.756  -4.513   1.047  0.00  0.00     0.146 C 
ATOM      6  C   UNL d   1       0.355  -3.761  -0.428  0.00  0.00     0.143 C 
ATOM      7  C   UNL d   1       1.938  -3.255   1.367  0.00  0.00     0.143 C 
ATOM      8  O   UNL d   1       2.661  -7.116   1.943  0.00  0.00    -0.267 OA
ENDROOT
BRANCH   1   9
ATOM      9  C   UNL d   1       1.263  -7.960   0.298  0.00  0.00     0.032 A 
ATOM     10  C   UNL d   1       1.177  -8.123  -1.083  0.00  0.00     0.017 A 
ATOM     11  C   UNL d   1       0.348  -9.110  -1.619  0.00  0.00     0.009 A 
ATOM     12  C   UNL d   1      -0.346 -10.015  -0.793  0.00  0.00    -0.051 A 
ATOM     13  C   UNL d   1      -0.144  -9.911   0.593  0.00  0.00     0.009 A 
ATOM     14  C   UNL d   1       0.645  -8.892   1.133  0.00  0.00     0.017 A 
BRANCH  12  15
ATOM     15  C   UNL d   1      -1.292 -11.054  -1.416  0.00  0.00    -0.024 C 
ATOM     16  C   UNL d   1      -1.901 -12.029  -0.384  0.00  0.00     0.019 C 
ATOM     17  C   UNL d   1      -2.464 -10.322  -2.107  0.00  0.00     0.019 C 
ATOM     18  C   UNL d   1      -0.541 -11.902  -2.462  0.00  0.00     0.019 C 
ENDBRANCH  12  15
ENDBRANCH   1   9
BRANCH   3  19
ATOM     19  C   UNL d   1       1.040  -1.413   0.063  0.00  0.00     0.043 A 
ATOM     20  C   UNL d   1      -0.232  -0.776  -0.028  0.00  0.00     0.018 A 
ATOM     21  C   UNL d   1      -0.292   0.621  -0.076  0.00  0.00     0.044 A 
ATOM     22  C   UNL d   1      -1.591  -1.224  -0.058  0.00  0.00     0.033 A 
ATOM     23  N   UNL d   1      -1.617   0.987  -0.137  0.00  0.00    -0.365 N 
ATOM     24  C   UNL d   1       0.840   1.445  -0.060  0.00  0.00     0.030 A 
ATOM     25  C   UNL d   1      -2.412  -0.125  -0.133  0.00  0.00     0.089 A 
ATOM     26  H   UNL d   1      -1.946   1.938  -0.179  0.00  0.00     0.165 HD
ATOM     27  C   UNL d   1       2.080   0.825  -0.002  0.00  0.00     0.005 A 
ATOM     28  C   UNL d   1       2.173  -0.561   0.052  0.00  0.00     0.030 A 
ENDBRANCH   3  19
TORSDOF 3
