REMARK  5 active torsions:
REMARK  status: ('A' for Active; 'I' for Inactive)
REMARK    1  A    between atoms: N_11  and  C_1 
REMARK    2  A    between atoms: N_7  and  C_2 
REMARK    3  A    between atoms: C_10  and  N_3 
REMARK    4  A    between atoms: C_9  and  C_6 
REMARK    5  A    between atoms: O_12  and  N_7 
ROOT
ATOM      1  C   UNL d   1      -0.287  -1.302   0.101  0.00  0.00     0.152 C 
ATOM      2  C   UNL d   1       0.995  -0.783   0.124  0.00  0.00     0.128 C 
ATOM      3  N   UNL d   1      -1.122  -0.188  -0.038  0.00  0.00    -0.238 N 
ATOM      4  N   UNL d   1      -0.412   0.952  -0.268  0.00  0.00    -0.289 N 
ATOM      5  HN  UNL d   1      -0.776   1.860  -0.554  1.00  0.00     0.188 HD
ATOM      6  C   UNL d   1       0.871   0.623  -0.038  0.00  0.00     0.091 C 
ENDROOT
BRANCH   6   7
ATOM      7  C   UNL d   1       1.910   1.662  -0.010  0.00  0.00    -0.005 A 
ATOM      8  C   UNL d   1       1.787   2.811  -0.808  0.00  0.00     0.015 A 
ATOM      9  C   UNL d   1       2.758   3.818  -0.767  0.00  0.00     0.024 A 
ATOM     10  C   UNL d   1       3.859   3.686   0.077  0.00  0.00     0.034 A 
ATOM     11  C   UNL d   1       3.994   2.559   0.881  0.00  0.00     0.024 A 
ATOM     12 CL   UNL d   1       5.050   4.925   0.135  0.00  0.00    -0.084 Cl
ATOM     13  C   UNL d   1       3.021   1.555   0.843  0.00  0.00     0.015 A 
ENDBRANCH   6   7
BRANCH   2  14
ATOM     14  N   UNL d   1       2.204  -1.486   0.234  0.00  0.00    -0.263 N 
ATOM     15  HN  UNL d   1       3.106  -1.011   0.231  1.00  0.00     0.194 HD
BRANCH  14  16
ATOM     16  O   UNL d   1       2.114  -2.715   0.335  0.00  0.00    -0.289 OA
ATOM     17  HO  UNL d   1       2.932  -3.191   0.409  1.00  0.00     0.244 HD
ENDBRANCH  14  16
ENDBRANCH   2  14
BRANCH   1  18
ATOM     18  N   UNL d   1      -0.724  -2.597   0.147  0.00  0.00    -0.382 N 
ATOM     19  H   UNL d   1      -0.018  -3.334   0.067  0.00  0.00     0.157 HD
ATOM     20  H   UNL d   1      -1.596  -2.857  -0.312  0.00  0.00     0.157 HD
ENDBRANCH   1  18
BRANCH   3  21
ATOM     21  C   UNL d   1      -2.544  -0.127   0.033  0.00  0.00     0.058 A 
ATOM     22  C   UNL d   1      -3.272  -1.063   0.781  0.00  0.00     0.031 A 
ATOM     23  C   UNL d   1      -4.666  -0.986   0.835  0.00  0.00     0.002 A 
ATOM     24  C   UNL d   1      -5.339   0.017   0.140  0.00  0.00     0.000 A 
ATOM     25  C   UNL d   1      -4.619   0.962  -0.591  0.00  0.00     0.002 A 
ATOM     26  C   UNL d   1      -3.224   0.903  -0.632  0.00  0.00     0.031 A 
ENDBRANCH   3  21
TORSDOF 5
