REMARK  7 active torsions:
REMARK  status: ('A' for Active; 'I' for Inactive)
REMARK       I    between atoms: N_4  and  C_1 
REMARK       I    between atoms: C_2  and  N_3 
REMARK    1  A    between atoms: N_3  and  C_7 
REMARK    2  A    between atoms: C_8  and  N_4 
REMARK    3  A    between atoms: O_20  and  C_9 
REMARK    4  A    between atoms: C_10  and  O_19 
REMARK    5  A    between atoms: O_19  and  C_23 
REMARK    6  A    between atoms: C_24  and  O_20 
REMARK    7  A    between atoms: C_23  and  C_24 
ROOT
ATOM      1  C   UNL d   1       4.466   3.485   7.131  0.00  0.00     0.202 C 
ENDROOT
BRANCH   1   2
ATOM      2  O   UNL d   1       5.620   4.326   7.023  0.00  0.00    -0.349 OA
BRANCH   2   3
ATOM      3  C   UNL d   1       6.825   3.708   6.840  0.00  0.00     0.069 A 
ATOM      4  C   UNL d   1       7.775   4.431   6.117  0.00  0.00     0.039 A 
ATOM      5  C   UNL d   1       9.058   3.907   5.903  0.00  0.00     0.032 A 
ATOM      6  C   UNL d   1       9.412   2.657   6.426  0.00  0.00     0.034 A 
ATOM      7  C   UNL d   1       8.458   1.948   7.154  0.00  0.00     0.032 A 
ATOM      8  C   UNL d   1       7.178   2.471   7.366  0.00  0.00     0.039 A 
BRANCH   6   9
ATOM      9  N   UNL d   1      10.727   2.196   6.200  0.00  0.00    -0.328 N 
ATOM     10  C   UNL d   1      11.279   1.007   6.646  0.00  0.00     0.218 C 
ATOM     11  O   UNL d   1      10.717   0.130   7.293  0.00  0.00    -0.274 OA
ATOM     12  C   UNL d   1      12.729   0.841   6.265  0.00  0.00     0.117 C 
ATOM     13  H   UNL d   1      11.325   2.812   5.667  0.00  0.00     0.169 HD
ENDBRANCH   6   9
ENDBRANCH   2   3
ENDBRANCH   1   2
BRANCH   1  14
ATOM     14  C   UNL d   1       3.916   3.157   5.747  0.00  0.00     0.202 C 
BRANCH  14  15
ATOM     15  O   UNL d   1       2.819   2.245   5.873  0.00  0.00    -0.349 OA
BRANCH  15  16
ATOM     16  C   UNL d   1       2.272   1.844   4.683  0.00  0.00     0.069 A 
ATOM     17  C   UNL d   1       1.720   0.564   4.655  0.00  0.00     0.039 A 
ATOM     18  C   UNL d   1       1.139   0.070   3.480  0.00  0.00     0.032 A 
ATOM     19  C   UNL d   1       1.088   0.856   2.323  0.00  0.00     0.034 A 
ATOM     20  C   UNL d   1       1.613   2.146   2.370  0.00  0.00     0.032 A 
ATOM     21  C   UNL d   1       2.199   2.638   3.542  0.00  0.00     0.039 A 
BRANCH  19  22
ATOM     22  N   UNL d   1       0.498   0.298   1.168  0.00  0.00    -0.328 N 
ATOM     23  C   UNL d   1       0.376   0.891  -0.076  0.00  0.00     0.218 C 
ATOM     24  O   UNL d   1       0.771   2.007  -0.403  0.00  0.00    -0.274 OA
ATOM     25  C   UNL d   1      -0.315   0.015  -1.090  0.00  0.00     0.117 C 
ATOM     26  H   UNL d   1       0.145  -0.645   1.266  0.00  0.00     0.169 HD
ENDBRANCH  19  22
ENDBRANCH  15  16
ENDBRANCH  14  15
ENDBRANCH   1  14
TORSDOF 7
