REMARK  2 active torsions:
REMARK  status: ('A' for Active; 'I' for Inactive)
REMARK    1  A    between atoms: C_7  and  C_1 
REMARK    2  A    between atoms: O_15  and  C_7 
ROOT
ATOM      1  C   UNL d   1       1.243   1.496   0.016  0.00  0.00     0.055 A 
ATOM      2  C   UNL d   1      -0.050   0.752   0.030  0.00  0.00     0.011 A 
ATOM      3  C   UNL d   1      -0.022  -0.656   0.018  0.00  0.00     0.068 A 
ATOM      4  N   UNL d   1       1.215  -1.316   0.010  0.00  0.00    -0.321 N 
ATOM      5  C   UNL d   1       2.417  -0.682  -0.011  0.00  0.00     0.246 A 
ATOM      6  C   UNL d   1       2.389   0.794  -0.041  0.00  0.00     0.093 A 
ATOM      7  C   UNL d   1      -1.211  -1.406   0.012  0.00  0.00     0.063 A 
ATOM      8  C   UNL d   1      -2.446  -0.768   0.012  0.00  0.00     0.050 A 
ATOM      9  C   UNL d   1      -1.308   1.375   0.044  0.00  0.00     0.038 A 
ATOM     10  C   UNL d   1      -2.487   0.621   0.027  0.00  0.00     0.036 A 
ATOM     11  O   UNL d   1       3.485  -1.280  -0.010  0.00  0.00    -0.268 OA
ATOM     12 CL   UNL d   1      -1.176  -3.134  -0.002  0.00  0.00    -0.082 Cl
ATOM     13 CL   UNL d   1      -4.011   1.420   0.021  0.00  0.00    -0.084 Cl
ATOM     14  H   UNL d   1       1.238  -2.330   0.009  0.00  0.00     0.169 HD
ENDROOT
BRANCH   1  15
ATOM     15  C   UNL d   1       1.330   2.983  -0.063  0.00  0.00     0.177 C 
ATOM     16  O   UNL d   1       0.448   3.685  -0.540  0.00  0.00    -0.646 OA
BRANCH  15  17
ATOM     17  O   UNL d   1       2.456   3.532   0.438  0.00  0.00    -0.773 OA
ATOM     18  H   UNL d   1       3.054   2.949   0.939  0.00  0.00     0.167 HD
ENDBRANCH  15  17
ENDBRANCH   1  15
TORSDOF 2
