REMARK  5 active torsions:
REMARK  status: ('A' for Active; 'I' for Inactive)
REMARK    1  A    between atoms: C_6  and  C_1 
REMARK    2  A    between atoms: C_11  and  C_6 
REMARK    3  A    between atoms: C_15  and  C_11 
REMARK    4  A    between atoms: S_12  and  C_15 
REMARK    5  A    between atoms: C_17  and  S_12 
ROOT
ATOM      1  C   UNL d   1       2.518   0.014  -0.009  0.00  0.00     0.058 A 
ATOM      2  S   UNL d   1       1.670   1.383   0.568  0.00  0.00    -0.085 SA
ATOM      3  C   UNL d   1       1.643  -1.006  -0.372  0.00  0.00    -0.030 A 
ATOM      4  C   UNL d   1       0.253  -0.610  -0.213  0.00  0.00    -0.010 A 
ATOM      5  C   UNL d   1       0.136   0.687   0.286  0.00  0.00     0.016 A 
ATOM      6  C   UNL d   1      -0.947  -1.320  -0.485  0.00  0.00     0.037 A 
ATOM      7  C   UNL d   1      -1.116   1.293   0.511  0.00  0.00     0.021 A 
ATOM      8  C   UNL d   1      -2.190  -0.722  -0.260  0.00  0.00     0.035 A 
ATOM      9  C   UNL d   1       2.025  -2.360  -0.897  0.00  0.00     0.050 C 
ATOM     10  C   UNL d   1      -2.277   0.571   0.231  0.00  0.00     0.025 A 
ATOM     11 CL   UNL d   1      -3.629  -1.603  -0.600  0.00  0.00    -0.084 Cl
ENDROOT
BRANCH   1  12
ATOM     12  C   UNL d   1       3.985   0.021  -0.040  0.00  0.00     0.167 C 
ATOM     13  O   UNL d   1       4.649  -1.017  -0.084  0.00  0.00    -0.292 OA
BRANCH  12  14
ATOM     14  C   UNL d   1       4.707   1.364   0.001  0.00  0.00     0.095 C 
BRANCH  14  15
ATOM     15  C   UNL d   1       6.069   1.265  -0.675  0.00  0.00     0.087 C 
BRANCH  15  16
ATOM     16  S   UNL d   1       6.892   2.894  -0.594  0.00  0.00    -0.130 SA
BRANCH  16  17
ATOM     17  C   UNL d   1       8.378   2.617  -1.547  0.00  0.00     0.000 A 
ATOM     18  C   UNL d   1       8.914   3.708  -2.244  0.00  0.00     0.018 A 
ATOM     19  C   UNL d   1      10.089   3.573  -2.986  0.00  0.00     0.001 A 
ATOM     20  C   UNL d   1      10.745   2.345  -3.035  0.00  0.00     0.000 A 
ATOM     21  C   UNL d   1      10.229   1.257  -2.335  0.00  0.00     0.001 A 
ATOM     22  C   UNL d   1       9.054   1.394  -1.591  0.00  0.00     0.018 A 
ENDBRANCH  16  17
ENDBRANCH  15  16
ENDBRANCH  14  15
ENDBRANCH  12  14
ENDBRANCH   1  12
TORSDOF 5
