REMARK  3 active torsions:
REMARK  status: ('A' for Active; 'I' for Inactive)
REMARK    1  A    between atoms: N_6  and  N_1 
REMARK    2  A    between atoms: S_14  and  C_2 
REMARK       I    between atoms: C_8  and  N_6 
REMARK    3  A    between atoms: C_10  and  C_8 
ROOT
ATOM      1  N   UNL d   1       2.327  -0.664  -0.439  0.00  0.00    -0.194 N 
ATOM      2  C   UNL d   1       2.172   0.695  -0.660  0.00  0.00     0.167 A 
ATOM      3  C   UNL d   1       1.244  -1.500  -0.182  0.00  0.00     0.281 A 
ATOM      4  N   UNL d   1       1.038   1.313  -0.595  0.00  0.00    -0.335 N 
ATOM      5  HN  UNL d   1       0.975   2.315  -0.775  1.00  0.00     0.168 HD
ATOM      6  C   UNL d   1      -0.060  -0.817  -0.056  0.00  0.00     0.061 A 
ATOM      7  C   UNL d   1      -0.099   0.563  -0.272  0.00  0.00     0.050 A 
ATOM      8  O   UNL d   1       1.317  -2.725  -0.108  0.00  0.00    -0.265 OA
ATOM      9  C   UNL d   1      -1.225  -1.533   0.247  0.00  0.00     0.019 A 
ATOM     10  C   UNL d   1      -1.328   1.223  -0.185  0.00  0.00     0.030 A 
ATOM     11  C   UNL d   1      -2.444  -0.861   0.330  0.00  0.00     0.001 A 
ATOM     12  C   UNL d   1      -2.496   0.516   0.112  0.00  0.00     0.002 A 
ENDROOT
BRANCH   1  13
ATOM     13  N   UNL d   1       3.596  -1.262  -0.515  0.00  0.00    -0.252 N 
ATOM     14  C   UNL d   1       4.247  -1.623   0.656  0.00  0.00     0.294 C 
ATOM     15  O   UNL d   1       3.809  -1.375   1.774  0.00  0.00    -0.264 OA
ATOM     16  H   UNL d   1       3.848  -1.729  -1.379  0.00  0.00     0.191 HD
BRANCH  14  17
ATOM     17  C   UNL d   1       5.510  -2.287   0.411  0.00  0.00     0.144 A 
ATOM     18  O   UNL d   1       6.058  -2.223  -0.846  0.00  0.00    -0.317 OA
ATOM     19  C   UNL d   1       7.264  -2.843  -0.790  0.00  0.00     0.143 A 
ATOM     20  C   UNL d   1       7.491  -3.342   0.470  0.00  0.00     0.027 A 
ATOM     21  C   UNL d   1       6.362  -2.984   1.247  0.00  0.00     0.045 A 
ENDBRANCH  14  17
ENDBRANCH   1  13
BRANCH   2  22
ATOM     22  S   UNL d   1       3.582   1.631  -1.108  0.00  0.00    -0.105 SA
ATOM     23  H   UNL d   1       4.347   0.587  -1.442  0.00  0.00     0.110 HD
ENDBRANCH   2  22
TORSDOF 3
