REMARK  5 active torsions:
REMARK  status: ('A' for Active; 'I' for Inactive)
REMARK    1  A    between atoms: C_6  and  N_1 
REMARK    2  A    between atoms: C_12  and  C_6 
REMARK    3  A    between atoms: N_9  and  C_13 
REMARK    4  A    between atoms: C_13  and  C_12 
REMARK    5  A    between atoms: O_20  and  C_12 
ROOT
ATOM      1  N   UNL d   1       0.236  -1.789  -0.496  0.00  0.00    -0.343 N 
ATOM      2  C   UNL d   1       0.342   0.388  -0.032  0.00  0.00     0.005 A 
ATOM      3  C   UNL d   1       1.006   0.150  -1.278  0.00  0.00     0.005 A 
ATOM      4  C   UNL d   1      -0.200  -0.826   0.396  0.00  0.00     0.046 A 
ATOM      5  C   UNL d   1       0.875  -1.208  -1.575  0.00  0.00     0.046 A 
ATOM      6  C   UNL d   1      -0.950  -0.935   1.579  0.00  0.00     0.032 A 
ATOM      7  C   UNL d   1       1.404  -1.770  -2.749  0.00  0.00     0.032 A 
ATOM      8  C   UNL d   1       0.178   1.527   0.780  0.00  0.00     0.033 A 
ATOM      9  C   UNL d   1       1.733   0.974  -2.163  0.00  0.00     0.033 A 
ATOM     10  C   UNL d   1      -0.523   1.413   1.984  0.00  0.00     0.011 A 
ATOM     11  C   UNL d   1       2.291   0.412  -3.314  0.00  0.00     0.011 A 
ATOM     12  C   UNL d   1       2.118  -0.935  -3.614  0.00  0.00     0.021 A 
ATOM     13  C   UNL d   1      -1.096   0.208   2.370  0.00  0.00     0.021 A 
ATOM     14 BR   UNL d   1       3.325   1.499  -4.467  0.00  0.00    -0.051 Br
ATOM     15 BR   UNL d   1      -0.666   2.920   3.121  0.00  0.00    -0.051 Br
ENDROOT
BRANCH   1  16
ATOM     16  C   UNL d   1       0.238  -3.216  -0.222  0.00  0.00     0.163 C 
BRANCH  16  17
ATOM     17  C   UNL d   1       1.598  -3.745   0.287  0.00  0.00     0.164 C 
BRANCH  17  18
ATOM     18  C   UNL d   1       2.125  -2.982   1.543  0.00  0.00     0.305 C 
BRANCH  18  19
ATOM     19  N   UNL d   1       3.445  -3.355   2.095  0.00  0.00     0.090 N 
ATOM     20  C   UNL d   1       3.504  -4.684   2.686  0.00  0.00     0.272 C 
ATOM     21  C   UNL d   1       4.392  -4.699   3.936  0.00  0.00     0.030 C 
ATOM     22  C   UNL d   1       5.894  -4.738   3.682  0.00  0.00     0.002 C 
ATOM     23  C   UNL d   1       6.431  -3.586   2.842  0.00  0.00     0.002 C 
ATOM     24  C   UNL d   1       5.914  -3.625   1.411  0.00  0.00     0.030 C 
ATOM     25  C   UNL d   1       4.545  -2.969   1.207  0.00  0.00     0.272 C 
ENDBRANCH  18  19
ENDBRANCH  17  18
BRANCH  17  26
ATOM     26  O   UNL d   1       1.440  -5.145   0.555  0.00  0.00    -0.392 OA
ATOM     27  H   UNL d   1       0.981  -5.234   1.409  0.00  0.00     0.210 HD
ENDBRANCH  17  26
ENDBRANCH  16  17
ENDBRANCH   1  16
TORSDOF 5
