REMARK  7 active torsions:
REMARK  status: ('A' for Active; 'I' for Inactive)
REMARK    1  A    between atoms: C_1  and  S_7 
REMARK    2  A    between atoms: C_2  and  O_8 
REMARK    3  A    between atoms: C_3  and  O_9 
REMARK    4  A    between atoms: C_5  and  O_10 
REMARK    5  A    between atoms: C_6  and  C_12 
REMARK    6  A    between atoms: C_11  and  S_7 
REMARK    7  A    between atoms: O_13  and  C_12 
ROOT
ATOM      1  C   UNL d   1      -0.116   1.706   0.072  0.00  0.00     0.219 C 
ATOM      2  C   UNL d   1       0.915   0.577   0.318  0.00  0.00     0.188 C 
ATOM      3  C   UNL d   1       0.582  -0.650  -0.550  0.00  0.00     0.181 C 
ATOM      4  O   UNL d   1      -1.462   1.218   0.179  0.00  0.00    -0.362 OA
ATOM      5  C   UNL d   1      -0.885  -1.045  -0.413  0.00  0.00     0.180 C 
ATOM      6  C   UNL d   1      -1.748   0.178  -0.762  0.00  0.00     0.178 C 
ENDROOT
BRANCH   1   7
ATOM      7  S   UNL d   1       0.125   3.075   1.281  0.00  0.00    -0.095 SA
BRANCH   7   8
ATOM      8  C   UNL d   1      -0.972   4.304   0.578  0.00  0.00     0.003 A 
ATOM      9  C   UNL d   1      -2.356   4.114   0.559  0.00  0.00     0.018 A 
ATOM     10  C   UNL d   1      -3.198   5.079   0.001  0.00  0.00     0.001 A 
ATOM     11  C   UNL d   1      -2.657   6.246  -0.527  0.00  0.00     0.000 A 
ATOM     12  C   UNL d   1      -1.279   6.456  -0.488  0.00  0.00     0.001 A 
ATOM     13  C   UNL d   1      -0.439   5.485   0.065  0.00  0.00     0.018 A 
ENDBRANCH   7   8
ENDBRANCH   1   7
BRANCH   2  14
ATOM     14  O   UNL d   1       2.251   0.990  -0.019  0.00  0.00    -0.389 OA
ATOM     15  H   UNL d   1       2.791   0.176   0.021  0.00  0.00     0.210 HD
ENDBRANCH   2  14
BRANCH   3  16
ATOM     16  O   UNL d   1       1.426  -1.741  -0.152  0.00  0.00    -0.390 OA
ATOM     17  H   UNL d   1       0.954  -2.167   0.596  0.00  0.00     0.210 HD
ENDBRANCH   3  16
BRANCH   6  18
ATOM     18  C   UNL d   1      -3.252  -0.100  -0.691  0.00  0.00     0.198 C 
BRANCH  18  19
ATOM     19  O   UNL d   1      -3.633  -0.447   0.637  0.00  0.00    -0.398 OA
ATOM     20  H   UNL d   1      -3.558   0.379   1.156  0.00  0.00     0.209 HD
ENDBRANCH  18  19
ENDBRANCH   6  18
BRANCH   5  21
ATOM     21  O   UNL d   1      -1.058  -1.491   0.944  0.00  0.00    -0.390 OA
ATOM     22  H   UNL d   1      -1.895  -1.096   1.276  0.00  0.00     0.210 HD
ENDBRANCH   5  21
TORSDOF 7
