REMARK  5 active torsions:
REMARK  status: ('A' for Active; 'I' for Inactive)
REMARK    1  A    between atoms: C_3  and  C_1 
REMARK    2  A    between atoms: S_14  and  C_6 
REMARK    3  A    between atoms: C_13  and  C_16 
REMARK    4  A    between atoms: C_18  and  S_14 
REMARK    5  A    between atoms: C_16  and  C_18 
ROOT
ATOM      1  C   UNL d   1      -0.023   1.102   0.022  0.00  0.00     0.153 A 
ATOM      2  N   UNL d   1       0.855   0.045   0.093  0.00  0.00    -0.314 N 
ATOM      3  N   UNL d   1      -1.249   0.654   0.232  0.00  0.00    -0.281 N 
ATOM      4  HN  UNL d   1      -2.096   1.222   0.254  1.00  0.00     0.188 HD
ATOM      5  C   UNL d   1       0.078  -1.052   0.369  0.00  0.00     0.163 A 
ATOM      6  N   UNL d   1      -1.187  -0.706   0.417  0.00  0.00    -0.278 N 
ATOM      7  HN  UNL d   1      -1.979  -1.332   0.564  1.00  0.00     0.189 HD
ATOM      8  C   UNL d   1       2.293   0.096   0.099  0.00  0.00     0.160 C 
ENDROOT
BRANCH   5   9
ATOM      9  S   UNL d   1       0.713  -2.626   0.699  0.00  0.00    -0.085 SA
BRANCH   9  10
ATOM     10  C   UNL d   1      -0.701  -3.384   1.568  0.00  0.00     0.166 C 
BRANCH  10  11
ATOM     11  C   UNL d   1      -0.381  -4.793   2.060  0.00  0.00     0.170 C 
ATOM     12  O   UNL d   1       0.661  -5.381   1.788  0.00  0.00    -0.291 OA
BRANCH  11  13
ATOM     13  C   UNL d   1      -1.428  -5.509   2.868  0.00  0.00     0.032 A 
ATOM     14  C   UNL d   1      -1.095  -6.484   3.826  0.00  0.00     0.048 A 
ATOM     15 CL   UNL d   1       0.521  -6.814   4.344  0.00  0.00    -0.083 Cl
ATOM     16  C   UNL d   1      -2.109  -7.215   4.468  0.00  0.00     0.025 A 
ATOM     17  C   UNL d   1      -3.450  -6.970   4.184  0.00  0.00     0.002 A 
ATOM     18  C   UNL d   1      -3.789  -5.984   3.270  0.00  0.00     0.001 A 
ATOM     19  C   UNL d   1      -2.789  -5.257   2.611  0.00  0.00     0.017 A 
ENDBRANCH  11  13
ENDBRANCH  10  11
ENDBRANCH   9  10
ENDBRANCH   5   9
BRANCH   1  20
ATOM     20  C   UNL d   1       0.292   2.546  -0.186  0.00  0.00     0.102 A 
ATOM     21  N   UNL d   1       1.429   2.986  -0.739  0.00  0.00    -0.257 N 
ATOM     22  O   UNL d   1       1.343   4.367  -0.730  0.00  0.00    -0.242 OA
ATOM     23  HN  UNL d   1       2.199   2.420  -1.094  1.00  0.00     0.195 HD
ATOM     24  C   UNL d   1       0.173   4.745  -0.150  0.00  0.00     0.074 A 
ATOM     25  C   UNL d   1      -0.541   3.623   0.194  0.00  0.00     0.070 A 
ATOM     26  C   UNL d   1      -0.051   6.194  -0.015  0.00  0.00     0.079 C 
ENDBRANCH   1  20
TORSDOF 5
