REMARK  7 active torsions:
REMARK  status: ('A' for Active; 'I' for Inactive)
REMARK    1  A    between atoms: C_4  and  C_1 
REMARK    2  A    between atoms: O_7  and  C_1 
REMARK    3  A    between atoms: S_2  and  C_4 
REMARK    4  A    between atoms: C_5  and  S_2 
REMARK    5  A    between atoms: O_12  and  C_6 
REMARK    6  A    between atoms: C_13  and  O_12 
REMARK    7  A    between atoms: C_14  and  C_13 
ROOT
ATOM      1  C   UNL d   1      -2.462  -2.511   0.081  0.00  0.00     0.001 A 
ATOM      2  C   UNL d   1      -3.895  -4.929   0.146  0.00  0.00     0.068 A 
ATOM      3  C   UNL d   1      -1.804  -3.727  -0.128  0.00  0.00     0.021 A 
ATOM      4  C   UNL d   1      -3.828  -2.521   0.377  0.00  0.00     0.021 A 
ATOM      5  C   UNL d   1      -4.538  -3.722   0.416  0.00  0.00     0.038 A 
ATOM      6  C   UNL d   1      -2.520  -4.931  -0.091  0.00  0.00     0.038 A 
ENDROOT
BRANCH   1   7
ATOM      7  S   UNL d   1      -1.621  -0.937   0.052  0.00  0.00    -0.119 SA
BRANCH   7   8
ATOM      8  C   UNL d   1      -0.875  -0.954  -1.616  0.00  0.00     0.189 C 
BRANCH   8   9
ATOM      9  C   UNL d   1      -1.899  -0.944  -2.734  0.00  0.00     0.149 C 
ATOM     10  O   UNL d   1      -1.656  -1.347  -3.862  0.00  0.00    -0.649 OA
BRANCH   9  11
ATOM     11  O   UNL d   1      -3.079  -0.362  -2.421  0.00  0.00    -0.776 OA
ATOM     12  H   UNL d   1      -3.112  -0.108  -1.478  0.00  0.00     0.167 HD
ENDBRANCH   9  11
ENDBRANCH   8   9
ENDBRANCH   7   8
ENDBRANCH   1   7
BRANCH   2  13
ATOM     13  O   UNL d   1      -4.519  -6.149   0.097  0.00  0.00    -0.351 OA
BRANCH  13  14
ATOM     14  C   UNL d   1      -5.911  -6.086  -0.231  0.00  0.00     0.175 C 
BRANCH  14  15
ATOM     15  C   UNL d   1      -6.363  -7.430  -0.790  0.00  0.00     0.022 C 
ATOM     16  C   UNL d   1      -7.807  -7.357  -1.262  0.00  0.00     0.007 C 
ENDBRANCH  14  15
ENDBRANCH  13  14
ENDBRANCH   2  13
TORSDOF 7
