REMARK  4 active torsions:
REMARK  status: ('A' for Active; 'I' for Inactive)
REMARK    1  A    between atoms: C_4  and  N_1 
REMARK    2  A    between atoms: C_2  and  C_4 
REMARK    3  A    between atoms: C_3  and  C_6 
REMARK    4  A    between atoms: O_13  and  C_7 
ROOT
ATOM      1  N   UNL d   1       1.303  -0.146   0.613  0.00  0.00     0.092 N 
ATOM      2  C   UNL d   1      -1.532   0.081  -0.350  0.00  0.00     0.025 C 
ATOM      3  C   UNL d   1      -0.803   1.279   0.279  0.00  0.00     0.040 C 
ATOM      4  C   UNL d   1      -0.958  -1.196   0.264  0.00  0.00     0.040 C 
ATOM      5  C   UNL d   1       0.726   1.176   0.323  0.00  0.00     0.273 C 
ATOM      6  C   UNL d   1       0.552  -1.285   0.066  0.00  0.00     0.273 C 
ENDROOT
BRANCH   1   7
ATOM      7  C   UNL d   1       2.720  -0.161   0.164  0.00  0.00     0.311 C 
BRANCH   7   8
ATOM      8  C   UNL d   1       3.421  -1.507   0.278  0.00  0.00    -0.019 A 
ATOM      9  C   UNL d   1       3.824  -2.059   1.522  0.00  0.00    -0.018 A 
ATOM     10  C   UNL d   1       4.342  -3.378   1.544  0.00  0.00    -0.025 A 
ATOM     11  C   UNL d   1       3.728  -1.367   2.749  0.00  0.00     0.013 A 
ATOM     12  C   UNL d   1       4.715  -3.963   2.764  0.00  0.00     0.012 A 
ATOM     13  C   UNL d   1       4.475  -4.102   0.348  0.00  0.00     0.012 A 
ATOM     14  C   UNL d   1       4.610  -3.255   3.959  0.00  0.00     0.001 A 
ATOM     15  C   UNL d   1       4.127  -1.955   3.952  0.00  0.00     0.001 A 
ATOM     16  C   UNL d   1       4.117  -3.540  -0.872  0.00  0.00     0.002 A 
ATOM     17  C   UNL d   1       3.595  -2.253  -0.907  0.00  0.00     0.010 A 
ENDBRANCH   7   8
ENDBRANCH   1   7
BRANCH   2  18
ATOM     18  C   UNL d   1      -1.592   0.004  -1.881  0.00  0.00    -0.021 A 
ATOM     19  C   UNL d   1      -2.757  -0.460  -2.533  0.00  0.00     0.074 A 
ATOM     20  C   UNL d   1      -2.772  -0.630  -3.926  0.00  0.00     0.037 A 
ATOM     21  C   UNL d   1      -1.653  -0.315  -4.694  0.00  0.00     0.003 A 
ATOM     22  C   UNL d   1      -0.510   0.165  -4.074  0.00  0.00     0.001 A 
ATOM     23  C   UNL d   1      -0.482   0.318  -2.687  0.00  0.00     0.010 A 
BRANCH  19  24
ATOM     24  O   UNL d   1      -3.835  -0.769  -1.739  0.00  0.00    -0.355 OA
ATOM     25  C   UNL d   1      -5.111  -0.708  -2.371  0.00  0.00     0.210 C 
ENDBRANCH  19  24
ENDBRANCH   2  18
TORSDOF 4
