REMARK  6 active torsions:
REMARK  status: ('A' for Active; 'I' for Inactive)
REMARK    1  A    between atoms: C_2  and  S_1 
REMARK    2  A    between atoms: N_7  and  S_1 
REMARK       I    between atoms: C_3  and  N_4 
REMARK    3  A    between atoms: C_10  and  C_3 
REMARK    4  A    between atoms: N_4  and  C_5 
REMARK    5  A    between atoms: C_23  and  C_19 
REMARK    6  A    between atoms: C_24  and  C_23 
ROOT
ATOM      1  C   UNL d   1       0.453   0.583  -1.608  0.00  0.00     0.081 C 
ATOM      2  C   UNL d   1       0.399   2.422  -3.205  0.00  0.00     0.042 C 
ATOM      3  C   UNL d   1       0.635   1.937  -1.913  0.00  0.00     0.055 C 
ATOM      4  C   UNL d   1       0.082   1.502  -4.227  0.00  0.00    -0.035 C 
ATOM      5  C   UNL d   1      -0.001  -0.301  -2.582  0.00  0.00     0.026 C 
ATOM      6  C   UNL d   1      -0.181   0.159  -3.886  0.00  0.00     0.010 C 
ATOM      7  C   UNL d   1      -0.005   1.882  -5.681  0.00  0.00     0.050 C 
ENDROOT
BRANCH   2   8
ATOM      8  N   UNL d   1       0.499   3.805  -3.504  0.00  0.00    -0.322 N 
ATOM      9  C   UNL d   1       0.490   4.842  -2.579  0.00  0.00     0.256 C 
ATOM     10  O   UNL d   1       0.369   4.729  -1.363  0.00  0.00    -0.267 OA
ATOM     11  H   UNL d   1       0.513   4.056  -4.481  0.00  0.00     0.169 HD
BRANCH   9  12
ATOM     12  C   UNL d   1       0.636   6.217  -3.135  0.00  0.00     0.032 A 
ATOM     13  C   UNL d   1       0.103   6.589  -4.373  0.00  0.00     0.017 A 
ATOM     14  C   UNL d   1       0.317   7.881  -4.867  0.00  0.00     0.008 A 
ATOM     15  C   UNL d   1       1.059   8.815  -4.130  0.00  0.00    -0.058 A 
ATOM     16  C   UNL d   1       1.526   8.458  -2.859  0.00  0.00     0.008 A 
ATOM     17  C   UNL d   1       1.319   7.168  -2.366  0.00  0.00     0.017 A 
BRANCH  15  18
ATOM     18  C   UNL d   1       1.354  10.181  -4.707  0.00  0.00     0.038 C 
BRANCH  18  19
ATOM     19  C   UNL d   1       2.851  10.493  -4.833  0.00  0.00     0.000 C 
ATOM     20  C   UNL d   1       3.593   9.535  -5.755  0.00  0.00     0.005 C 
ENDBRANCH  18  19
ENDBRANCH  15  18
ENDBRANCH   9  12
ENDBRANCH   2   8
BRANCH   1  21
ATOM     21  S   UNL d   1       1.031  -0.036  -0.036  0.00  0.00     0.260 S 
ATOM     22  O   UNL d   1       2.114   0.820   0.391  0.00  0.00    -0.200 OA
ATOM     23  O   UNL d   1       1.242  -1.464  -0.199  0.00  0.00    -0.200 OA
BRANCH  21  24
ATOM     24  N   UNL d   1      -0.273   0.180   1.023  0.00  0.00    -0.315 N 
ATOM     25  C   UNL d   1      -0.653   1.565   1.346  0.00  0.00     0.162 C 
ATOM     26  C   UNL d   1      -1.401  -0.752   0.908  0.00  0.00     0.162 C 
ENDBRANCH  21  24
ENDBRANCH   1  21
TORSDOF 6
