REMARK  4 active torsions:
REMARK  status: ('A' for Active; 'I' for Inactive)
REMARK    1  A    between atoms: N_2  and  C_1 
REMARK    2  A    between atoms: N_3  and  C_1 
REMARK    3  A    between atoms: C_4  and  N_3 
REMARK    4  A    between atoms: C_19  and  C_14 
ROOT
ATOM      1  C   UNL d   1       1.009   0.000  -0.187  0.00  0.00     0.174 C 
ATOM      2  S   UNL d   1       2.693   0.029  -0.073  0.00  0.00    -0.041 SA
ENDROOT
BRANCH   1   3
ATOM      3  N   UNL d   1       0.313  -1.111  -0.701  0.00  0.00    -0.353 N 
ATOM      4  C   UNL d   1       0.603  -2.431  -0.105  0.00  0.00     0.130 C 
ATOM      5  C   UNL d   1       0.493  -3.582  -1.107  0.00  0.00     0.003 C 
ATOM      6  C   UNL d   1      -0.901  -3.560  -1.740  0.00  0.00     0.008 C 
ATOM      7  C   UNL d   1      -1.160  -2.210  -2.388  0.00  0.00     0.025 C 
ATOM      8  C   UNL d   1      -0.986  -1.015  -1.422  0.00  0.00     0.082 C 
ATOM      9  C   UNL d   1      -1.163   0.241  -2.290  0.00  0.00     0.032 C 
BRANCH   5  10
ATOM     10  C   UNL d   1       0.746  -4.964  -0.477  0.00  0.00     0.002 C 
ATOM     11  C   UNL d   1       2.138  -5.129   0.117  0.00  0.00     0.005 C 
ENDBRANCH   5  10
ENDBRANCH   1   3
BRANCH   1  12
ATOM     12  N   UNL d   1       0.192   1.016   0.278  0.00  0.00    -0.333 N 
ATOM     13  H   UNL d   1      -0.614   0.700   0.799  0.00  0.00     0.168 HD
BRANCH  12  14
ATOM     14  C   UNL d   1       0.451   2.409   0.267  0.00  0.00     0.040 A 
ATOM     15  C   UNL d   1      -0.120   3.265   1.233  0.00  0.00    -0.034 A 
ATOM     16  C   UNL d   1       0.011   4.664   1.072  0.00  0.00     0.028 A 
ATOM     17  C   UNL d   1      -0.808   2.787   2.482  0.00  0.00     0.050 C 
ATOM     18  C   UNL d   1       0.705   5.195  -0.011  0.00  0.00     0.011 A 
ATOM     19  C   UNL d   1       1.302   4.355  -0.939  0.00  0.00     0.021 A 
ATOM     20 BR   UNL d   1       0.827   7.068  -0.224  0.00  0.00    -0.051 Br
ATOM     21  C   UNL d   1       1.169   2.972  -0.799  0.00  0.00     0.031 A 
ENDBRANCH  12  14
ENDBRANCH   1  12
TORSDOF 4
