REMARK  3 active torsions:
REMARK  status: ('A' for Active; 'I' for Inactive)
REMARK    1  A    between atoms: N_2  and  C_4 
REMARK    2  A    between atoms: C_8  and  CA_5 
REMARK    3  A    between atoms: OXT_12  and  C_8 
ROOT
ATOM      1  N   UNL d   1      -1.620   0.976  -0.081  0.00  0.00    -0.348 N 
ATOM      2  C   UNL d   1      -0.286   0.629  -0.038  0.00  0.00     0.076 A 
ATOM      3  C   UNL d   1       0.879   1.424  -0.033  0.00  0.00     0.130 A 
ATOM      4  CA  UNL d   1      -2.427  -0.140  -0.030  0.00  0.00     0.108 A 
ATOM      5  C   UNL d   1      -1.578  -1.235  -0.008  0.00  0.00     0.050 A 
ATOM      6  C   UNL d   1      -0.235  -0.763  -0.009  0.00  0.00    -0.004 A 
ATOM      7  C   UNL d   1       2.121   0.763  -0.009  0.00  0.00     0.038 A 
ATOM      8  C   UNL d   1       1.020  -1.401   0.008  0.00  0.00     0.014 A 
ATOM      9  C   UNL d   1       2.188  -0.630   0.007  0.00  0.00     0.003 A 
ATOM     10  H   UNL d   1      -1.966   1.930  -0.127  0.00  0.00     0.166 HD
ENDROOT
BRANCH   4  11
ATOM     11  C   UNL d   1      -3.865  -0.024  -0.048  0.00  0.00     0.193 C 
ATOM     12  O   UNL d   1      -4.474   0.977  -0.391  0.00  0.00    -0.645 OA
BRANCH  11  13
ATOM     13  OXT UNL d   1      -4.485  -1.139   0.398  0.00  0.00    -0.772 OA
ATOM     14  HXT UNL d   1      -3.873  -1.800   0.765  0.00  0.00     0.167 HD
ENDBRANCH  11  13
ENDBRANCH   4  11
BRANCH   3  15
ATOM     15  N   UNL d   1       0.849   2.891  -0.046  0.00  0.00    -0.113 N 
ATOM     16  O   UNL d   1      -0.266   3.435  -0.042  0.00  0.00    -0.532 OA
ATOM     17  O   UNL d   1       1.929   3.498  -0.056  0.00  0.00    -0.532 OA
ENDBRANCH   3  15
TORSDOF 3
