REMARK  8 active torsions:
REMARK  status: ('A' for Active; 'I' for Inactive)
REMARK    1  A    between atoms: C_2  and  N_1 
REMARK    2  A    between atoms: C_14  and  C_2 
REMARK    3  A    between atoms: C_15  and  C_2 
REMARK    4  A    between atoms: C_3  and  C_17 
REMARK       I    between atoms: N_9  and  C_3 
REMARK    5  A    between atoms: S_10  and  C_6 
REMARK    6  A    between atoms: N_7  and  N_9 
REMARK    7  A    between atoms: C_17  and  S_10 
REMARK    8  A    between atoms: C_18  and  C_16 
ROOT
ATOM      1  N   UNL d   1       0.301   0.922  -0.203  0.00  0.00     0.104 N 
ATOM      2  C   UNL d   1      -1.019   0.302   0.094  0.00  0.00     0.290 C 
ATOM      3  C   UNL d   1       0.935  -0.336   0.307  0.00  0.00     0.290 C 
ATOM      4  C   UNL d   1      -0.357  -1.087  -0.128  0.00  0.00     0.104 C 
ENDROOT
BRANCH   4   5
ATOM      5  S   UNL d   1      -0.204  -1.628  -1.908  0.00  0.00    -0.151 SA
BRANCH   5   6
ATOM      6  C   UNL d   1      -1.779  -2.508  -2.074  0.00  0.00     0.178 C 
BRANCH   6   7
ATOM      7  C   UNL d   1      -1.987  -3.196  -3.425  0.00  0.00     0.245 C 
ATOM      8  N   UNL d   1      -0.940  -3.146  -4.336  0.00  0.00    -0.270 N 
ATOM      9  H   UNL d   1      -0.085  -2.650  -4.101  0.00  0.00     0.190 HD
ATOM     10  O   UNL d   1      -3.055  -3.776  -3.643  0.00  0.00    -0.271 OA
BRANCH   8  11
ATOM     11  N   UNL d   1      -1.061  -3.822  -5.516  0.00  0.00    -0.308 N 
ATOM     12  C   UNL d   1      -0.095  -3.745  -6.369  0.00  0.00     0.120 C 
ATOM     13  HN  UNL d   1      -1.894  -4.375  -5.718  1.00  0.00     0.186 HD
BRANCH  12  14
ATOM     14  C   UNL d   1      -0.176  -4.504  -7.642  0.00  0.00    -0.004 A 
ATOM     15  C   UNL d   1       0.841  -4.431  -8.583  0.00  0.00     0.100 A 
ATOM     16  N   UNL d   1       0.841  -5.133  -9.748  0.00  0.00    -0.374 N 
ATOM     17  C   UNL d   1      -0.222  -5.937  -9.976  0.00  0.00     0.087 A 
ATOM     18  HN  UNL d   1       1.607  -5.056 -10.418  1.00  0.00     0.164 HD
ATOM     19  C   UNL d   1      -1.288  -6.067  -9.103  0.00  0.00     0.018 A 
ATOM     20  C   UNL d   1      -1.264  -5.334  -7.918  0.00  0.00     0.015 A 
ENDBRANCH  12  14
ENDBRANCH   8  11
ENDBRANCH   6   7
ENDBRANCH   5   6
ENDBRANCH   4   5
BRANCH   1  21
ATOM     21  C   UNL d   1       0.658   2.077   0.653  0.00  0.00     0.289 C 
BRANCH  21  22
ATOM     22  C   UNL d   1       2.026   2.634   0.227  0.00  0.00    -0.021 A 
ATOM     23  C   UNL d   1       2.239   3.093  -1.087  0.00  0.00     0.010 A 
ATOM     24  C   UNL d   1       3.447   3.686  -1.456  0.00  0.00     0.001 A 
ATOM     25  C   UNL d   1       4.471   3.815  -0.522  0.00  0.00     0.000 A 
ATOM     26  C   UNL d   1       4.293   3.333   0.774  0.00  0.00     0.001 A 
ATOM     27  C   UNL d   1       3.080   2.746   1.149  0.00  0.00     0.010 A 
ENDBRANCH  21  22
BRANCH  21  28
ATOM     28  C   UNL d   1      -0.378   3.212   0.668  0.00  0.00    -0.021 A 
ATOM     29  C   UNL d   1      -0.493   4.026   1.812  0.00  0.00     0.010 A 
ATOM     30  C   UNL d   1      -1.406   5.082   1.853  0.00  0.00     0.001 A 
ATOM     31  C   UNL d   1      -2.214   5.348   0.750  0.00  0.00     0.000 A 
ATOM     32  C   UNL d   1      -2.097   4.570  -0.399  0.00  0.00     0.001 A 
ATOM     33  C   UNL d   1      -1.180   3.518  -0.443  0.00  0.00     0.010 A 
ENDBRANCH  21  28
ENDBRANCH   1  21
TORSDOF 8
