REMARK  6 active torsions:
REMARK  status: ('A' for Active; 'I' for Inactive)
REMARK    1  A    between atoms: C_2  and  S_1 
REMARK    2  A    between atoms: N_7  and  S_1 
REMARK    3  A    between atoms: C_5  and  C_13 
REMARK    4  A    between atoms: C_13  and  N_7 
REMARK    5  A    between atoms: S_15  and  C_9 
REMARK    6  A    between atoms: C_21  and  S_15 
ROOT
ATOM      1  N   UNL d   1       2.002   1.815   0.326  0.00  0.00    -0.211 NA
ATOM      2  H   UNL d   1       1.385   1.682  -0.477  0.00  0.00     0.140 HD
ENDROOT
BRANCH   1   3
ATOM      3  S   UNL d   1       2.697   0.311   0.710  0.00  0.00     0.248 S 
ATOM      4  O   UNL d   1       2.165  -0.135   1.977  0.00  0.00    -0.205 OA
ATOM      5  O   UNL d   1       2.580  -0.495  -0.487  0.00  0.00    -0.205 OA
BRANCH   3   6
ATOM      6  C   UNL d   1       4.448   0.430   0.985  0.00  0.00     0.116 A 
ATOM      7  S   UNL d   1       5.171   1.959   0.806  0.00  0.00    -0.074 SA
ATOM      8  C   UNL d   1       6.714   1.388   1.287  0.00  0.00     0.042 A 
ATOM      9  C   UNL d   1       7.837   2.268   1.458  0.00  0.00     0.117 A 
ATOM     10  C   UNL d   1       6.693   0.021   1.494  0.00  0.00     0.024 A 
ATOM     11  O   UNL d   1       9.058   1.828   1.905  0.00  0.00    -0.237 OA
ATOM     12  C   UNL d   1       7.934   3.634   1.270  0.00  0.00     0.059 A 
ATOM     13  N   UNL d   1       9.936   2.893   2.030  0.00  0.00    -0.272 N 
ATOM     14  C   UNL d   1       9.243   3.966   1.651  0.00  0.00     0.117 A 
ATOM     15  HN  UNL d   1      10.906   2.861   2.344  1.00  0.00     0.194 HD
ATOM     16  C   UNL d   1       5.385  -0.529   1.323  0.00  0.00     0.034 A 
ENDBRANCH   3   6
ENDBRANCH   1   3
BRANCH   1  17
ATOM     17  C   UNL d   1       1.348   2.493   1.460  0.00  0.00     0.146 C 
BRANCH  17  18
ATOM     18  C   UNL d   1       0.732   3.842   1.124  0.00  0.00    -0.005 A 
ATOM     19  C   UNL d   1      -0.655   3.989   0.870  0.00  0.00     0.014 A 
ATOM     20  C   UNL d   1      -1.226   5.274   0.808  0.00  0.00     0.019 A 
ATOM     21  C   UNL d   1      -0.439   6.415   0.923  0.00  0.00     0.003 A 
ATOM     22  C   UNL d   1       0.935   6.283   1.076  0.00  0.00     0.024 A 
ATOM     23  C   UNL d   1       1.516   5.013   1.171  0.00  0.00     0.043 A 
ATOM     24 CL   UNL d   1       3.230   4.974   1.393  0.00  0.00    -0.084 Cl
BRANCH  19  25
ATOM     25  S   UNL d   1      -1.776   2.597   0.756  0.00  0.00    -0.090 SA
BRANCH  25  26
ATOM     26  C   UNL d   1      -2.288   2.481  -0.953  0.00  0.00     0.005 A 
ATOM     27  C   UNL d   1      -3.146   1.415  -1.270  0.00  0.00     0.020 A 
ATOM     28  C   UNL d   1      -3.618   1.225  -2.573  0.00  0.00     0.025 A 
ATOM     29  C   UNL d   1      -3.235   2.107  -3.577  0.00  0.00     0.034 A 
ATOM     30  C   UNL d   1      -2.385   3.171  -3.284  0.00  0.00     0.025 A 
ATOM     31 CL   UNL d   1      -3.815   1.885  -5.181  0.00  0.00    -0.084 Cl
ATOM     32  C   UNL d   1      -1.909   3.354  -1.978  0.00  0.00     0.020 A 
ENDBRANCH  25  26
ENDBRANCH  19  25
ENDBRANCH  17  18
ENDBRANCH   1  17
TORSDOF 6
