REMARK  4 active torsions:
REMARK  status: ('A' for Active; 'I' for Inactive)
REMARK    1  A    between atoms: C_2  and  C_1 
REMARK    2  A    between atoms: C_4  and  C_1 
REMARK    3  A    between atoms: S_3  and  C_4 
REMARK    4  A    between atoms: C_8  and  S_3 
ROOT
ATOM      1  C   UNL d   1       0.939  -0.017  -0.010  0.00  0.00     0.169 C 
ATOM      2  O   UNL d   1       1.431   0.392   1.046  0.00  0.00    -0.291 OA
ENDROOT
BRANCH   1   3
ATOM      3  C   UNL d   1       1.132  -1.453  -0.388  0.00  0.00     0.011 A 
ATOM      4  C   UNL d   1       0.614  -2.010  -1.567  0.00  0.00     0.018 A 
ATOM      5  C   UNL d   1       0.806  -3.369  -1.843  0.00  0.00     0.043 A 
ATOM      6  C   UNL d   1       1.512  -4.164  -0.949  0.00  0.00     0.116 A 
ATOM      7  C   UNL d   1       2.046  -3.628   0.215  0.00  0.00     0.043 A 
ATOM      8  F   UNL d   1       1.673  -5.468  -1.210  0.00  0.00    -0.206 F 
ATOM      9  C   UNL d   1       1.859  -2.272   0.493  0.00  0.00     0.018 A 
ENDBRANCH   1   3
BRANCH   1  10
ATOM     10  C   UNL d   1       0.166   0.917  -0.914  0.00  0.00     0.163 C 
BRANCH  10  11
ATOM     11  S   UNL d   1      -1.615   0.820  -0.547  0.00  0.00    -0.122 SA
BRANCH  11  12
ATOM     12  C   UNL d   1      -2.220   1.988  -1.752  0.00  0.00     0.001 A 
ATOM     13  C   UNL d   1      -3.184   1.579  -2.677  0.00  0.00     0.019 A 
ATOM     14  C   UNL d   1      -3.625   2.458  -3.672  0.00  0.00     0.008 A 
ATOM     15  C   UNL d   1      -3.114   3.759  -3.749  0.00  0.00    -0.062 A 
ATOM     16  C   UNL d   1      -2.183   4.179  -2.794  0.00  0.00     0.008 A 
ATOM     17  C   UNL d   1      -3.566   4.679  -4.843  0.00  0.00     0.048 C 
ATOM     18  C   UNL d   1      -1.746   3.302  -1.798  0.00  0.00     0.019 A 
ENDBRANCH  11  12
ENDBRANCH  10  11
ENDBRANCH   1  10
TORSDOF 4
