REMARK  7 active torsions:
REMARK  status: ('A' for Active; 'I' for Inactive)
REMARK    1  A    between atoms: S_13  and  C_2 
REMARK    2  A    between atoms: C_7  and  C_3 
REMARK    3  A    between atoms: C_6  and  C_12 
REMARK    4  A    between atoms: C_23  and  S_13 
REMARK    5  A    between atoms: C_24  and  C_14 
REMARK    6  A    between atoms: C_15  and  C_23 
REMARK       I    between atoms: N_16  and  C_15 
REMARK    7  A    between atoms: C_18  and  N_16 
ROOT
ATOM      1  C   UNL d   1      -0.334  -4.934   0.889  0.00  0.00     0.088 A 
ATOM      2  C   UNL d   1      -1.587  -5.568   0.987  0.00  0.00     0.092 A 
ATOM      3  C   UNL d   1      -0.271  -3.606   0.419  0.00  0.00    -0.004 A 
ATOM      4  N   UNL d   1      -2.754  -4.939   0.709  0.00  0.00    -0.352 N 
ATOM      5  HN  UNL d   1      -3.652  -5.420   0.767  1.00  0.00     0.166 HD
ATOM      6  C   UNL d   1      -1.473  -2.947   0.216  0.00  0.00    -0.024 A 
ATOM      7  C   UNL d   1      -2.663  -3.650   0.353  0.00  0.00     0.017 A 
ATOM      8  C   UNL d   1       0.848  -5.562   1.402  0.00  0.00     0.103 C 
ATOM      9  N   UNL d   1       1.801  -6.024   1.879  0.00  0.00    -0.191 NA
ATOM     10  C   UNL d   1      -1.750  -1.502  -0.065  0.00  0.00     0.042 C 
ATOM     11  C   UNL d   1      -3.850  -2.748   0.156  0.00  0.00     0.058 C 
ATOM     12  C   UNL d   1      -3.199  -1.391   0.442  0.00  0.00     0.011 C 
ENDROOT
BRANCH   2  13
ATOM     13  S   UNL d   1      -1.775  -7.212   1.684  0.00  0.00    -0.101 SA
BRANCH  13  14
ATOM     14  C   UNL d   1      -3.439  -7.701   1.102  0.00  0.00     0.184 C 
BRANCH  14  15
ATOM     15  C   UNL d   1      -4.630  -7.032   1.786  0.00  0.00     0.231 C 
ATOM     16  N   UNL d   1      -4.325  -6.211   2.855  0.00  0.00    -0.327 N 
ATOM     17  H   UNL d   1      -3.388  -5.836   2.829  0.00  0.00     0.169 HD
ATOM     18  O   UNL d   1      -5.772  -7.253   1.379  0.00  0.00    -0.272 OA
BRANCH  16  19
ATOM     19  C   UNL d   1      -5.263  -5.534   3.649  0.00  0.00     0.035 A 
ATOM     20  C   UNL d   1      -4.915  -4.260   4.097  0.00  0.00     0.045 A 
ATOM     21  C   UNL d   1      -5.807  -3.510   4.882  0.00  0.00     0.050 A 
ATOM     22  C   UNL d   1      -7.026  -4.088   5.264  0.00  0.00     0.016 A 
ATOM     23  C   UNL d   1      -7.360  -5.376   4.838  0.00  0.00     0.003 A 
ATOM     24  C   UNL d   1      -6.488  -6.089   4.013  0.00  0.00     0.029 A 
BRANCH  21  25
ATOM     25  C   UNL d   1      -5.470  -2.099   5.292  0.00  0.00     0.417 C 
ATOM     26  F   UNL d   1      -4.307  -1.641   4.745  0.00  0.00    -0.166 F 
ATOM     27  F   UNL d   1      -6.428  -1.206   4.923  0.00  0.00    -0.166 F 
ATOM     28  F   UNL d   1      -5.327  -1.967   6.638  0.00  0.00    -0.166 F 
ENDBRANCH  21  25
ENDBRANCH  16  19
ENDBRANCH  14  15
ENDBRANCH  13  14
ENDBRANCH   2  13
BRANCH   3  29
ATOM     29  C   UNL d   1       1.001  -2.899   0.207  0.00  0.00     0.014 C 
ATOM     30  C   UNL d   1       1.734  -2.941  -0.915  0.00  0.00     0.012 C 
BRANCH  30  31
ATOM     31  C   UNL d   1       1.408  -3.690  -2.138  0.00  0.00    -0.036 A 
ATOM     32  C   UNL d   1       0.752  -3.047  -3.194  0.00  0.00     0.011 A 
ATOM     33  C   UNL d   1       0.429  -3.751  -4.357  0.00  0.00     0.001 A 
ATOM     34  C   UNL d   1       0.763  -5.100  -4.472  0.00  0.00     0.000 A 
ATOM     35  C   UNL d   1       1.434  -5.741  -3.432  0.00  0.00     0.001 A 
ATOM     36  C   UNL d   1       1.761  -5.038  -2.269  0.00  0.00     0.011 A 
ENDBRANCH  30  31
ENDBRANCH   3  29
TORSDOF 7
