REMARK  6 active torsions:
REMARK  status: ('A' for Active; 'I' for Inactive)
REMARK    1  A    between atoms: C_2  and  S_1 
REMARK    2  A    between atoms: C_5  and  S_1 
REMARK    3  A    between atoms: C_8  and  C_2 
REMARK    4  A    between atoms: C_11  and  N_3 
REMARK    5  A    between atoms: N_4  and  C_8 
REMARK    6  A    between atoms: C_20  and  C_11 
ROOT
ATOM      1  N   UNL d   1       0.890  -5.205  -0.971  0.00  0.00     0.096 N 
ATOM      2  N   UNL d   1       0.390  -2.712  -2.650  0.00  0.00     0.092 N 
ATOM      3  C   UNL d   1       1.822  -4.761  -2.027  0.00  0.00     0.303 C 
ATOM      4  C   UNL d   1       0.175  -4.012  -0.465  0.00  0.00     0.303 C 
ATOM      5  C   UNL d   1       1.204  -3.856  -3.122  0.00  0.00     0.302 C 
ATOM      6  C   UNL d   1      -0.510  -3.164  -1.567  0.00  0.00     0.302 C 
ENDROOT
BRANCH   2   7
ATOM      7  C   UNL d   1       1.179  -1.533  -2.233  0.00  0.00     0.287 C 
BRANCH   7   8
ATOM      8  C   UNL d   1       1.862  -0.868  -3.423  0.00  0.00     0.176 C 
BRANCH   8   9
ATOM      9  S   UNL d   1       2.706   0.628  -2.956  0.00  0.00     0.177 S 
ATOM     10  O   UNL d   1       3.708   0.303  -1.955  0.00  0.00    -0.223 OA
ATOM     11  O   UNL d   1       1.734   1.674  -2.730  0.00  0.00    -0.223 OA
BRANCH   9  12
ATOM     12  C   UNL d   1       3.585   1.023  -4.459  0.00  0.00     0.059 A 
ATOM     13  C   UNL d   1       2.978   1.835  -5.423  0.00  0.00     0.025 A 
ATOM     14  C   UNL d   1       3.644   2.081  -6.627  0.00  0.00     0.025 A 
ATOM     15  C   UNL d   1       4.907   1.528  -6.850  0.00  0.00     0.034 A 
ATOM     16  C   UNL d   1       5.520   0.740  -5.876  0.00  0.00     0.025 A 
ATOM     17 CL   UNL d   1       5.712   1.815  -8.344  0.00  0.00    -0.084 Cl
ATOM     18  C   UNL d   1       4.861   0.489  -4.670  0.00  0.00     0.025 A 
ENDBRANCH   9  12
ENDBRANCH   8   9
ENDBRANCH   7   8
ENDBRANCH   2   7
BRANCH   1  19
ATOM     19  C   UNL d   1      -0.078  -6.221  -1.430  0.00  0.00     0.311 C 
BRANCH  19  20
ATOM     20  C   UNL d   1       0.532  -7.520  -1.914  0.00  0.00    -0.030 A 
ATOM     21  C   UNL d   1       1.351  -8.295  -1.081  0.00  0.00     0.009 A 
ATOM     22  C   UNL d   1       1.889  -9.500  -1.541  0.00  0.00     0.001 A 
ATOM     23  C   UNL d   1       1.609  -9.945  -2.832  0.00  0.00     0.000 A 
ATOM     24  C   UNL d   1       0.784  -9.192  -3.663  0.00  0.00     0.001 A 
ATOM     25  C   UNL d   1       0.246  -7.989  -3.207  0.00  0.00     0.009 A 
ENDBRANCH  19  20
ENDBRANCH   1  19
TORSDOF 6
