REMARK  2 active torsions:
REMARK  status: ('A' for Active; 'I' for Inactive)
REMARK    1  A    between atoms: C_2  and  S_1 
REMARK    2  A    between atoms: C_8  and  S_1 
ROOT
ATOM      1  C   UNL d   1       2.674  -0.089  -0.058  0.00  0.00     0.121 A 
ATOM      2  C   UNL d   1       3.487   0.420   0.931  0.00  0.00     0.137 A 
ATOM      3  N   UNL d   1       4.834  -0.465  -0.677  0.00  0.00    -0.309 N 
ATOM      4  HN  UNL d   1       5.665  -0.772  -1.183  1.00  0.00     0.186 HD
ATOM      5  N   UNL d   1       4.767   0.170   0.509  0.00  0.00    -0.285 N 
ATOM      6  C   UNL d   1       3.552  -0.597  -1.031  0.00  0.00     0.134 A 
ATOM      7  N   UNL d   1       3.229   1.048   2.099  0.00  0.00    -0.383 N 
ATOM      8  H   UNL d   1       5.632   0.404   0.981  0.00  0.00     0.188 HD
ATOM      9  H   UNL d   1       2.296   1.456   2.221  0.00  0.00     0.157 HD
ATOM     10  H   UNL d   1       3.938   1.600   2.578  0.00  0.00     0.157 HD
ENDROOT
BRANCH   1  11
ATOM     11  S   UNL d   1       0.965  -0.105  -0.154  0.00  0.00     0.188 S 
ATOM     12  O   UNL d   1       0.692  -0.192  -1.576  0.00  0.00    -0.222 OA
ATOM     13  O   UNL d   1       0.549   1.046   0.624  0.00  0.00    -0.222 OA
BRANCH  11  14
ATOM     14  C   UNL d   1       0.405  -1.629   0.666  0.00  0.00     0.058 C 
ATOM     15  C   UNL d   1       0.864  -1.664   2.130  0.00  0.00     0.031 C 
ATOM     16  C   UNL d   1      -1.134  -1.639   0.629  0.00  0.00     0.031 C 
ATOM     17  C   UNL d   1       0.928  -2.868  -0.072  0.00  0.00     0.031 C 
ENDBRANCH  11  14
ENDBRANCH   1  11
TORSDOF 2
