REMARK  10 active torsions:
REMARK  status: ('A' for Active; 'I' for Inactive)
REMARK    1  A    between atoms: C_2  and  N_1 
REMARK    2  A    between atoms: C_15  and  C_2 
REMARK    3  A    between atoms: C_16  and  C_2 
REMARK    4  A    between atoms: C_3  and  C_17 
REMARK       I    between atoms: N_10  and  C_3 
REMARK    5  A    between atoms: S_12  and  C_6 
REMARK    6  A    between atoms: N_7  and  N_10 
REMARK    7  A    between atoms: O_22  and  C_9 
REMARK    8  A    between atoms: O_23  and  C_11 
REMARK    9  A    between atoms: C_17  and  S_12 
REMARK   10  A    between atoms: C_20  and  C_19 
ROOT
ATOM      1  S   UNL d   1      -0.418  -1.345  -1.947  0.00  0.00    -0.151 SA
ENDROOT
BRANCH   1   2
ATOM      2  C   UNL d   1      -0.432  -0.990  -0.116  0.00  0.00     0.104 C 
ATOM      3  C   UNL d   1       0.890  -0.269   0.293  0.00  0.00     0.290 C 
ATOM      4  N   UNL d   1       0.236   1.007  -0.145  0.00  0.00     0.104 N 
ATOM      5  C   UNL d   1      -1.062   0.386   0.247  0.00  0.00     0.290 C 
BRANCH   4   6
ATOM      6  C   UNL d   1       0.635   2.145   0.702  0.00  0.00     0.289 C 
BRANCH   6   7
ATOM      7  C   UNL d   1       1.986   2.704   0.237  0.00  0.00    -0.021 A 
ATOM      8  C   UNL d   1       2.163   3.179  -1.077  0.00  0.00     0.010 A 
ATOM      9  C   UNL d   1       3.358   3.782  -1.469  0.00  0.00     0.001 A 
ATOM     10  C   UNL d   1       4.404   3.906  -0.561  0.00  0.00     0.000 A 
ATOM     11  C   UNL d   1       4.263   3.405   0.734  0.00  0.00     0.001 A 
ATOM     12  C   UNL d   1       3.063   2.807   1.131  0.00  0.00     0.010 A 
ENDBRANCH   6   7
BRANCH   6  13
ATOM     13  C   UNL d   1      -0.408   3.274   0.743  0.00  0.00    -0.021 A 
ATOM     14  C   UNL d   1      -0.505   4.074   1.894  0.00  0.00     0.010 A 
ATOM     15  C   UNL d   1      -1.437   5.111   1.965  0.00  0.00     0.001 A 
ATOM     16  C   UNL d   1      -2.281   5.367   0.886  0.00  0.00     0.000 A 
ATOM     17  C   UNL d   1      -2.183   4.600  -0.271  0.00  0.00     0.001 A 
ATOM     18  C   UNL d   1      -1.245   3.569  -0.347  0.00  0.00     0.010 A 
ENDBRANCH   6  13
ENDBRANCH   4   6
ENDBRANCH   1   2
BRANCH   1  19
ATOM     19  C   UNL d   1      -1.894  -2.375  -2.067  0.00  0.00     0.178 C 
BRANCH  19  20
ATOM     20  C   UNL d   1      -3.214  -1.649  -1.918  0.00  0.00     0.245 C 
ATOM     21  N   UNL d   1      -3.243  -0.319  -2.318  0.00  0.00    -0.270 N 
ATOM     22  H   UNL d   1      -2.389   0.168  -2.568  0.00  0.00     0.190 HD
ATOM     23  O   UNL d   1      -4.204  -2.270  -1.522  0.00  0.00    -0.271 OA
BRANCH  21  24
ATOM     24  N   UNL d   1      -4.433   0.331  -2.248  0.00  0.00    -0.308 N 
ATOM     25  C   UNL d   1      -4.482   1.604  -2.460  0.00  0.00     0.118 C 
ATOM     26  HN  UNL d   1      -5.285  -0.185  -2.028  1.00  0.00     0.186 HD
BRANCH  25  27
ATOM     27  C   UNL d   1      -5.807   2.283  -2.419  0.00  0.00    -0.017 A 
ATOM     28  C   UNL d   1      -5.928   3.655  -2.670  0.00  0.00     0.052 A 
ATOM     29  C   UNL d   1      -7.194   4.271  -2.644  0.00  0.00     0.102 A 
ATOM     30  C   UNL d   1      -8.338   3.486  -2.387  0.00  0.00     0.101 A 
ATOM     31  C   UNL d   1      -8.198   2.123  -2.115  0.00  0.00     0.040 A 
ATOM     32  C   UNL d   1      -6.945   1.522  -2.133  0.00  0.00     0.016 A 
BRANCH  29  33
ATOM     33  O   UNL d   1      -7.398   5.614  -2.823  0.00  0.00    -0.353 OA
ATOM     34  C   UNL d   1      -6.276   6.453  -3.046  0.00  0.00     0.210 C 
ENDBRANCH  29  33
BRANCH  30  35
ATOM     35  O   UNL d   1      -9.638   3.915  -2.302  0.00  0.00    -0.353 OA
ATOM     36  C   UNL d   1     -10.031   4.965  -3.178  0.00  0.00     0.210 C 
ENDBRANCH  30  35
ENDBRANCH  25  27
ENDBRANCH  21  24
ENDBRANCH  19  20
ENDBRANCH   1  19
TORSDOF 10
