REMARK  6 active torsions:
REMARK  status: ('A' for Active; 'I' for Inactive)
REMARK    1  A    between atoms: C_4  and  C_2 
REMARK    2  A    between atoms: C_11  and  C_3 
REMARK    3  A    between atoms: O_10  and  C_4 
REMARK    4  A    between atoms: N_5  and  O_10 
REMARK    5  A    between atoms: C_12  and  C_9 
REMARK    6  A    between atoms: N_16  and  C_9 
ROOT
ATOM      1  N   UNL d   1      -3.280   0.022   0.028  0.00  0.00    -0.246 N 
ATOM      2  HN  UNL d   1      -3.063  -0.973  -0.021  1.00  0.00     0.196 HD
ATOM      3  C   UNL d   1      -4.491   0.488   0.059  0.00  0.00     0.109 C 
ENDROOT
BRANCH   1   4
ATOM      4  O   UNL d   1      -2.283   1.038   0.070  0.00  0.00    -0.193 OA
BRANCH   4   5
ATOM      5  C   UNL d   1      -1.037   0.436   0.014  0.00  0.00     0.322 C 
ATOM      6  O   UNL d   1      -0.851  -0.781  -0.023  0.00  0.00    -0.257 OA
BRANCH   5   7
ATOM      7  C   UNL d   1       0.070   1.390   0.016  0.00  0.00     0.082 A 
ATOM      8  S   UNL d   1      -0.087   3.093   0.036  0.00  0.00    -0.088 SA
ATOM      9  C   UNL d   1       1.629   3.356   0.015  0.00  0.00    -0.009 A 
ATOM     10  C   UNL d   1       2.289   2.139  -0.000  0.00  0.00     0.017 A 
ATOM     11  C   UNL d   1       1.405   1.028  -0.004  0.00  0.00     0.026 A 
BRANCH   9  12
ATOM     12  C   UNL d   1       2.246   4.768   0.015  0.00  0.00    -0.018 C 
ATOM     13  C   UNL d   1       1.861   5.531   1.296  0.00  0.00     0.020 C 
ATOM     14  C   UNL d   1       3.793   4.703  -0.031  0.00  0.00     0.020 C 
ATOM     15  C   UNL d   1       1.791   5.565  -1.222  0.00  0.00     0.020 C 
ENDBRANCH   9  12
ENDBRANCH   5   7
ENDBRANCH   4   5
ENDBRANCH   1   4
BRANCH   3  16
ATOM     16  C   UNL d   1      -5.624  -0.500  -0.010  0.00  0.00     0.004 A 
ATOM     17  C   UNL d   1      -5.444  -1.814   0.443  0.00  0.00     0.016 A 
ATOM     18  C   UNL d   1      -6.503  -2.729   0.397  0.00  0.00     0.024 A 
ATOM     19  C   UNL d   1      -7.738  -2.334  -0.112  0.00  0.00     0.034 A 
ATOM     20  C   UNL d   1      -7.925  -1.034  -0.580  0.00  0.00     0.024 A 
ATOM     21 CL   UNL d   1      -9.042  -3.456  -0.168  0.00  0.00    -0.084 Cl
ATOM     22  C   UNL d   1      -6.870  -0.116  -0.529  0.00  0.00     0.016 A 
ENDBRANCH   3  16
BRANCH   3  23
ATOM     23  N   UNL d   1      -4.794   1.825   0.165  0.00  0.00    -0.286 NA
ATOM     24  H   UNL d   1      -3.998   2.379   0.465  0.00  0.00     0.125 HD
ATOM     25  H   UNL d   1      -5.630   2.041   0.696  0.00  0.00     0.125 HD
ENDBRANCH   3  23
TORSDOF 6
