REMARK  6 active torsions:
REMARK  status: ('A' for Active; 'I' for Inactive)
REMARK    1  A    between atoms: C_7  and  N_2 
REMARK    2  A    between atoms: C_8  and  N_3 
REMARK    3  A    between atoms: N_12  and  C_4 
REMARK    4  A    between atoms: C_14  and  C_8 
REMARK    5  A    between atoms: S_15  and  C_13 
REMARK    6  A    between atoms: O_22  and  C_16 
ROOT
ATOM      1  C   UNL d   1      -0.747   1.134  -0.275  0.00  0.00     0.338 C 
ATOM      2  N   UNL d   1      -1.405  -0.102  -0.087  0.00  0.00    -0.254 N 
ATOM      3  N   UNL d   1       0.634   1.129  -0.078  0.00  0.00    -0.262 N 
ATOM      4  C   UNL d   1      -0.710  -1.291   0.133  0.00  0.00     0.094 C 
ATOM      5  C   UNL d   1       1.376  -0.013   0.091  0.00  0.00     0.254 C 
ATOM      6  C   UNL d   1       0.627  -1.266   0.189  0.00  0.00     0.117 C 
ATOM      7  O   UNL d   1      -1.340   2.175  -0.576  0.00  0.00    -0.246 OA
ATOM      8  O   UNL d   1       2.604  -0.059   0.147  0.00  0.00    -0.268 OA
ENDROOT
BRANCH   3   9
ATOM      9  C   UNL d   1       1.343   2.406  -0.090  0.00  0.00     0.175 C 
BRANCH   9  10
ATOM     10  C   UNL d   1       1.368   3.062   1.278  0.00  0.00    -0.040 A 
ATOM     11  C   UNL d   1       2.393   2.787   2.194  0.00  0.00     0.011 A 
ATOM     12  C   UNL d   1       2.386   3.357   3.476  0.00  0.00     0.037 A 
ATOM     13  C   UNL d   1       1.349   4.206   3.863  0.00  0.00     0.068 A 
ATOM     14  C   UNL d   1       0.339   4.503   2.944  0.00  0.00     0.037 A 
ATOM     15  C   UNL d   1       0.344   3.937   1.666  0.00  0.00     0.011 A 
BRANCH  13  16
ATOM     16  O   UNL d   1       1.204   4.801   5.084  0.00  0.00    -0.356 OA
ATOM     17  C   UNL d   1       2.137   4.437   6.095  0.00  0.00     0.210 C 
ENDBRANCH  13  16
ENDBRANCH   9  10
ENDBRANCH   3   9
BRANCH   2  18
ATOM     18  C   UNL d   1      -2.843  -0.068  -0.067  0.00  0.00     0.046 A 
ATOM     19  C   UNL d   1      -3.567   0.377  -1.185  0.00  0.00     0.048 A 
ATOM     20  C   UNL d   1      -4.968   0.393  -1.169  0.00  0.00     0.002 A 
ATOM     21  C   UNL d   1      -5.638  -0.025  -0.011  0.00  0.00     0.018 A 
ATOM     22  C   UNL d   1      -4.927  -0.462   1.107  0.00  0.00     0.004 A 
ATOM     23  C   UNL d   1      -3.534  -0.497   1.074  0.00  0.00     0.030 A 
BRANCH  20  24
ATOM     24  S   UNL d   1      -5.977   0.838  -2.577  0.00  0.00    -0.134 SA
ATOM     25  C   UNL d   1      -4.947   2.064  -3.425  0.00  0.00     0.095 C 
ENDBRANCH  20  24
ENDBRANCH   2  18
BRANCH   4  26
ATOM     26  N   UNL d   1      -1.353  -2.517   0.235  0.00  0.00    -0.288 NA
ATOM     27  H   UNL d   1      -2.245  -2.531  -0.256  0.00  0.00     0.125 HD
ATOM     28  H   UNL d   1      -0.775  -3.318  -0.009  0.00  0.00     0.125 HD
ENDBRANCH   4  26
TORSDOF 6
