REMARK  2 active torsions:
REMARK  status: ('A' for Active; 'I' for Inactive)
REMARK    1  A    between atoms: N_4  and  C_2 
REMARK    2  A    between atoms: C_11  and  N_4 
ROOT
ATOM      1  C   UNL d   1      -3.034  -0.065   0.357  0.00  0.00     0.017 A 
ATOM      2  C   UNL d   1      -2.327  -1.208  -0.095  0.00  0.00     0.046 A 
ATOM      3  C   UNL d   1      -2.535   1.204  -0.018  0.00  0.00     0.046 A 
ATOM      4  C   UNL d   1      -3.214   2.345   0.385  0.00  0.00     0.054 A 
ATOM      5  C   UNL d   1      -4.195  -0.131   1.164  0.00  0.00     0.018 A 
ATOM      6  N   UNL d   1      -1.430   1.360  -0.758  0.00  0.00    -0.365 N 
ATOM      7  HN  UNL d   1      -1.090   2.290  -1.001  1.00  0.00     0.165 HD
ATOM      8  C   UNL d   1      -4.367   2.265   1.162  0.00  0.00     0.036 A 
ATOM      9  C   UNL d   1      -1.191  -1.029  -0.889  0.00  0.00     0.047 A 
ATOM     10  C   UNL d   1      -4.857   1.030   1.565  0.00  0.00     0.025 A 
ATOM     11  C   UNL d   1      -0.780   0.257  -1.172  0.00  0.00     0.090 A 
ATOM     12 CL   UNL d   1      -5.189   3.704   1.624  0.00  0.00    -0.084 Cl
ENDROOT
BRANCH   2  13
ATOM     13  N   UNL d   1      -2.843  -2.514   0.139  0.00  0.00    -0.355 N 
ATOM     14  H   UNL d   1      -3.661  -2.658  -0.451  0.00  0.00     0.166 HD
BRANCH  13  15
ATOM     15  C   UNL d   1      -2.113  -3.712   0.326  0.00  0.00     0.035 A 
ATOM     16  C   UNL d   1      -0.859  -3.723   0.945  0.00  0.00     0.072 A 
ATOM     17  C   UNL d   1      -0.221  -4.929   1.227  0.00  0.00     0.124 A 
ATOM     18  F   UNL d   1       0.981  -4.899   1.821  0.00  0.00    -0.205 F 
ATOM     19  C   UNL d   1      -0.815  -6.155   0.931  0.00  0.00    -0.023 A 
ATOM     20  C   UNL d   1      -2.064  -6.155   0.303  0.00  0.00     0.012 A 
ATOM     21  C   UNL d   1      -0.130  -7.430   1.317  0.00  0.00     0.051 C 
ATOM     22  C   UNL d   1      -2.709  -4.945   0.016  0.00  0.00     0.030 A 
ENDBRANCH  13  15
ENDBRANCH   2  13
TORSDOF 2
