REMARK  4 active torsions:
REMARK  status: ('A' for Active; 'I' for Inactive)
REMARK    1  A    between atoms: C_10  and  C_2 
REMARK    2  A    between atoms: N_15  and  C_7 
REMARK    3  A    between atoms: C_11  and  C_16 
REMARK    4  A    between atoms: N_12  and  N_15 
ROOT
ATOM      1  C   UNL d   1       0.469  -0.359  -0.087  0.00  0.00     0.141 C 
ATOM      2  C   UNL d   1      -0.348  -1.423  -0.037  0.00  0.00     0.085 C 
ATOM      3  N   UNL d   1      -1.549   0.957  -0.160  0.00  0.00    -0.153 N 
ATOM      4  C   UNL d   1      -0.185   0.963  -0.093  0.00  0.00     0.282 C 
ATOM      5  N   UNL d   1      -1.718  -1.345   0.037  0.00  0.00    -0.188 N 
ATOM      6  HN  UNL d   1      -2.279  -2.191   0.137  1.00  0.00     0.184 HD
ATOM      7  C   UNL d   1      -2.289  -0.182  -0.021  0.00  0.00     0.700 C 
ATOM      8  C   UNL d   1       1.885  -0.432  -0.100  0.00  0.00     0.107 C 
ATOM      9  N   UNL d   1       3.040  -0.520  -0.103  0.00  0.00    -0.191 NA
ATOM     10  O   UNL d   1       0.435   2.018  -0.015  0.00  0.00    -0.266 OA
ATOM     11  H   UNL d   1      -1.993   1.860  -0.093  0.00  0.00     0.187 HD
ENDROOT
BRANCH   2  12
ATOM     12  C   UNL d   1       0.188  -2.801  -0.017  0.00  0.00    -0.007 A 
ATOM     13  C   UNL d   1       0.430  -3.446   1.204  0.00  0.00     0.015 A 
ATOM     14  C   UNL d   1       0.908  -4.759   1.224  0.00  0.00     0.024 A 
ATOM     15  C   UNL d   1       1.140  -5.430   0.024  0.00  0.00     0.034 A 
ATOM     16  C   UNL d   1       0.901  -4.800  -1.196  0.00  0.00     0.024 A 
ATOM     17 CL   UNL d   1       1.711  -7.053   0.049  0.00  0.00    -0.084 Cl
ATOM     18  C   UNL d   1       0.423  -3.486  -1.217  0.00  0.00     0.015 A 
ENDBRANCH   2  12
BRANCH   7  19
ATOM     19  N   UNL d   1      -3.649   0.003   0.100  0.00  0.00    -0.132 N 
ATOM     20  H   UNL d   1      -4.047   0.787  -0.409  0.00  0.00     0.205 HD
BRANCH  19  21
ATOM     21  N   UNL d   1      -4.574  -0.881   0.594  0.00  0.00    -0.296 N 
ATOM     22  C   UNL d   1      -4.172  -1.617   1.587  0.00  0.00     0.126 C 
ATOM     23  HN  UNL d   1      -5.515  -0.956   0.207  1.00  0.00     0.186 HD
BRANCH  22  24
ATOM     24  C   UNL d   1      -5.055  -2.555   2.226  0.00  0.00     0.021 A 
ATOM     25  S   UNL d   1      -4.485  -3.443   3.572  0.00  0.00    -0.101 SA
ATOM     26  C   UNL d   1      -6.004  -4.197   3.791  0.00  0.00     0.050 A 
ATOM     27  C   UNL d   1      -6.920  -3.797   2.843  0.00  0.00     0.008 A 
ATOM     28  C   UNL d   1      -6.368  -2.853   1.932  0.00  0.00     0.021 A 
ENDBRANCH  22  24
ENDBRANCH  19  21
ENDBRANCH   7  19
TORSDOF 4
