REMARK  2 active torsions:
REMARK  status: ('A' for Active; 'I' for Inactive)
REMARK    1  A    between atoms: C_5  and  C_1 
REMARK    2  A    between atoms: C_8  and  C_7 
ROOT
ATOM      1  C   UNL d   1      -0.011  -1.040   0.409  0.00  0.00     0.134 A 
ATOM      2  C   UNL d   1      -0.912  -0.025   0.639  0.00  0.00     0.067 A 
ATOM      3  N   UNL d   1       0.830   0.833  -0.534  0.00  0.00    -0.300 N 
ATOM      4  HN  UNL d   1       1.448   1.459  -1.051  1.00  0.00     0.187 HD
ATOM      5  N   UNL d   1       1.012  -0.471  -0.284  0.00  0.00    -0.296 N 
ATOM      6  C   UNL d   1      -0.344   1.135   0.044  0.00  0.00     0.060 A 
ATOM      7  H   UNL d   1       1.865  -0.910  -0.622  0.00  0.00     0.187 HD
ENDROOT
BRANCH   6   8
ATOM      8  C   UNL d   1      -0.890   2.494   0.018  0.00  0.00    -0.008 A 
ATOM      9  C   UNL d   1      -1.749   2.941   1.032  0.00  0.00     0.015 A 
ATOM     10  C   UNL d   1      -2.261   4.243   1.009  0.00  0.00     0.020 A 
ATOM     11  C   UNL d   1      -1.918   5.103  -0.032  0.00  0.00     0.011 A 
ATOM     12  C   UNL d   1      -1.068   4.675  -1.049  0.00  0.00     0.020 A 
ATOM     13 BR   UNL d   1      -2.607   6.862  -0.061  0.00  0.00    -0.051 Br
ATOM     14  C   UNL d   1      -0.553   3.375  -1.020  0.00  0.00     0.015 A 
ENDBRANCH   6   8
BRANCH   1  15
ATOM     15  C   UNL d   1       0.016  -2.465   0.758  0.00  0.00     0.434 C 
ATOM     16  F   UNL d   1      -1.097  -2.856   1.423  0.00  0.00    -0.165 F 
ATOM     17  F   UNL d   1       0.119  -3.243  -0.347  0.00  0.00    -0.165 F 
ATOM     18  F   UNL d   1       1.080  -2.762   1.544  0.00  0.00    -0.165 F 
ENDBRANCH   1  15
TORSDOF 2
