REMARK  3 active torsions:
REMARK  status: ('A' for Active; 'I' for Inactive)
REMARK    1  A    between atoms: C_2  and  C_1 
REMARK       I    between atoms: N_7  and  C_2 
REMARK    2  A    between atoms: N_4  and  C_3 
REMARK       I    between atoms: C_5  and  N_4 
REMARK    3  A    between atoms: N_9  and  N_7 
ROOT
ATOM      1  C   UNL d   1       1.457  -0.219   0.161  0.00  0.00     0.060 A 
ATOM      2  C   UNL d   1       0.616  -1.350   0.220  0.00  0.00     0.050 A 
ATOM      3  C   UNL d   1       0.902   1.069   0.045  0.00  0.00     0.019 A 
ATOM      4  C   UNL d   1      -0.770  -1.157   0.186  0.00  0.00     0.030 A 
ATOM      5  C   UNL d   1      -0.481   1.238   0.014  0.00  0.00     0.001 A 
ATOM      6  C   UNL d   1      -1.317   0.126   0.089  0.00  0.00     0.002 A 
ENDROOT
BRANCH   1   7
ATOM      7  C   UNL d   1       2.937  -0.376   0.251  0.00  0.00     0.268 C 
ATOM      8  O   UNL d   1       3.489  -1.378  -0.200  0.00  0.00    -0.266 OA
ATOM      9  N   UNL d   1       3.619   0.630   0.927  0.00  0.00    -0.290 N 
ATOM     10  H   UNL d   1       3.118   1.357   1.433  0.00  0.00     0.183 HD
BRANCH   9  11
ATOM     11  N   UNL d   1       5.013   0.525   1.110  0.00  0.00    -0.247 NA
ATOM     12  H   UNL d   1       5.408   0.190   0.223  0.00  0.00     0.143 HD
ATOM     13  H   UNL d   1       5.182  -0.256   1.752  0.00  0.00     0.143 HD
ENDBRANCH   9  11
ENDBRANCH   1   7
BRANCH   2  14
ATOM     14  N   UNL d   1       1.181  -2.649   0.277  0.00  0.00    -0.327 N 
ATOM     15  C   UNL d   1       0.548  -3.807   0.675  0.00  0.00     0.218 C 
ATOM     16  O   UNL d   1      -0.568  -3.885   1.183  0.00  0.00    -0.274 OA
ATOM     17  C   UNL d   1       1.355  -5.053   0.419  0.00  0.00     0.117 C 
ATOM     18  H   UNL d   1       2.185  -2.695   0.086  0.00  0.00     0.169 HD
ENDBRANCH   2  14
TORSDOF 3
