REMARK  3 active torsions:
REMARK  status: ('A' for Active; 'I' for Inactive)
REMARK    1  A    between atoms: C_4  and  C_1 
REMARK    2  A    between atoms: N_2  and  C_3 
REMARK    3  A    between atoms: C_5  and  C_9 
REMARK       I    between atoms: N_18  and  C_5 
ROOT
ATOM      1  N   UNL d   1       0.949   4.718   1.396  0.00  0.00    -0.367 N 
ATOM      2  C   UNL d   1       1.209   7.548   1.785  0.00  0.00     0.081 C 
ATOM      3  C   UNL d   1       0.637   5.570   0.257  0.00  0.00     0.125 C 
ATOM      4  C   UNL d   1       1.988   5.201   2.299  0.00  0.00     0.125 C 
ATOM      5  C   UNL d   1       1.540   6.534   2.889  0.00  0.00     0.034 C 
ATOM      6  C   UNL d   1       0.214   6.951   0.776  0.00  0.00     0.034 C 
ENDROOT
BRANCH   1   7
ATOM      7  C   UNL d   1       0.598   3.392   1.495  0.00  0.00     0.103 A 
ATOM      8  C   UNL d   1       0.289   2.606   0.389  0.00  0.00     0.064 A 
ATOM      9  C   UNL d   1      -0.049   1.252   0.554  0.00  0.00     0.052 A 
ATOM     10  C   UNL d   1      -0.110   0.730   1.844  0.00  0.00     0.033 A 
ATOM     11  C   UNL d   1       0.192   1.568   2.894  0.00  0.00     0.090 A 
ATOM     12  N   UNL d   1       0.550   2.858   2.737  0.00  0.00    -0.352 N 
ATOM     13  HN  UNL d   1       0.784   3.428   3.550  1.00  0.00     0.166 HD
BRANCH   9  14
ATOM     14  C   UNL d   1      -0.311   0.363  -0.629  0.00  0.00     0.417 C 
ATOM     15  F   UNL d   1      -0.219   0.999  -1.828  0.00  0.00    -0.166 F 
ATOM     16  F   UNL d   1      -1.551  -0.198  -0.595  0.00  0.00    -0.166 F 
ATOM     17  F   UNL d   1       0.566  -0.679  -0.692  0.00  0.00    -0.166 F 
ENDBRANCH   9  14
ENDBRANCH   1   7
BRANCH   2  18
ATOM     18  C   UNL d   1       2.467   8.056   1.091  0.00  0.00     0.219 C 
ATOM     19  O   UNL d   1       2.687   7.953  -0.109  0.00  0.00    -0.273 OA
ATOM     20  N   UNL d   1       3.373   8.675   1.904  0.00  0.00    -0.370 N 
ATOM     21  H   UNL d   1       3.161   8.945   2.853  0.00  0.00     0.159 HD
ATOM     22  H   UNL d   1       4.187   9.080   1.460  0.00  0.00     0.159 HD
ENDBRANCH   2  18
TORSDOF 3
