REMARK  4 active torsions:
REMARK  status: ('A' for Active; 'I' for Inactive)
REMARK    1  A    between atoms: C_2  and  C_1 
REMARK       I    between atoms: N_6  and  C_2 
REMARK       I    between atoms: C_5  and  N_7 
REMARK    2  A    between atoms: C_10  and  C_5 
REMARK    3  A    between atoms: N_7  and  N_6 
REMARK    4  A    between atoms: C_11  and  C_12 
ROOT
ATOM      1  C   UNL d   1       0.955   5.155  -0.122  0.00  0.00     0.270 C 
ATOM      2  N   UNL d   1       0.777   4.162   0.820  0.00  0.00    -0.263 N 
ATOM      3  O   UNL d   1       1.682   5.000  -1.102  0.00  0.00    -0.266 OA
ATOM      4  H   UNL d   1       0.351   4.298   1.732  0.00  0.00     0.190 HD
ENDROOT
BRANCH   1   5
ATOM      5  C   UNL d   1       0.204   6.432   0.072  0.00  0.00     0.033 A 
ATOM      6  C   UNL d   1      -0.866   6.565   0.961  0.00  0.00     0.017 A 
ATOM      7  C   UNL d   1      -1.604   7.758   1.006  0.00  0.00     0.009 A 
ATOM      8  C   UNL d   1      -1.306   8.847   0.164  0.00  0.00    -0.051 A 
ATOM      9  C   UNL d   1      -0.204   8.707  -0.694  0.00  0.00     0.009 A 
ATOM     10  C   UNL d   1       0.538   7.519  -0.741  0.00  0.00     0.017 A 
BRANCH   8  11
ATOM     11  C   UNL d   1      -2.194  10.107   0.173  0.00  0.00    -0.024 C 
ATOM     12  C   UNL d   1      -1.740  11.193  -0.830  0.00  0.00     0.019 C 
ATOM     13  C   UNL d   1      -3.642   9.723  -0.204  0.00  0.00     0.019 C 
ATOM     14  C   UNL d   1      -2.195  10.751   1.576  0.00  0.00     0.019 C 
ENDBRANCH   8  11
ENDBRANCH   1   5
BRANCH   2  15
ATOM     15  N   UNL d   1       1.426   2.938   0.616  0.00  0.00    -0.263 N 
ATOM     16  C   UNL d   1       1.569   2.060   1.675  0.00  0.00     0.277 C 
ATOM     17  O   UNL d   1       1.101   2.334   2.781  0.00  0.00    -0.265 OA
ATOM     18  H   UNL d   1       1.857   2.782  -0.294  0.00  0.00     0.190 HD
BRANCH  16  19
ATOM     19  C   UNL d   1       2.295   0.827   1.401  0.00  0.00     0.074 A 
ATOM     20  S   UNL d   1       2.855   0.413  -0.165  0.00  0.00    -0.096 SA
ATOM     21  C   UNL d   1       3.544  -1.048   0.391  0.00  0.00     0.057 A 
ATOM     22  C   UNL d   1       3.362  -1.244   1.746  0.00  0.00    -0.054 A 
ATOM     23  C   UNL d   1       2.620  -0.158   2.315  0.00  0.00     0.031 A 
ATOM     24  C   UNL d   1       3.873  -2.419   2.509  0.00  0.00     0.048 C 
ENDBRANCH  16  19
ENDBRANCH   2  15
TORSDOF 4
