REMARK  7 active torsions:
REMARK  status: ('A' for Active; 'I' for Inactive)
REMARK    1  A    between atoms: N_2  and  S_1 
REMARK    2  A    between atoms: C_3  and  S_1 
REMARK    3  A    between atoms: C_5  and  N_2 
REMARK    4  A    between atoms: C_15  and  N_2 
REMARK    5  A    between atoms: C_9  and  C_5 
REMARK    6  A    between atoms: O_20  and  C_10 
REMARK    7  A    between atoms: O_21  and  C_13 
ROOT
ATOM      1  N   UNL d   1       3.237   1.271   2.987  0.00  0.00    -0.196 NA
ATOM      2  C   UNL d   1       2.133   1.157   2.642  0.00  0.00     0.074 C 
ATOM      3  C   UNL d   1       0.703   1.034   2.287  0.00  0.00     0.231 C 
ENDROOT
BRANCH   3   4
ATOM      4  N   UNL d   1       0.381   1.170   0.807  0.00  0.00    -0.187 NA
BRANCH   4   5
ATOM      5  S   UNL d   1       0.997  -0.210  -0.035  0.00  0.00     0.244 S 
ATOM      6  O   UNL d   1       0.231  -1.348   0.422  0.00  0.00    -0.206 OA
ATOM      7  O   UNL d   1       2.438  -0.194   0.096  0.00  0.00    -0.206 OA
BRANCH   5   8
ATOM      8  C   UNL d   1       0.631   0.006  -1.767  0.00  0.00     0.077 A 
ATOM      9  C   UNL d   1       1.673   0.237  -2.678  0.00  0.00     0.064 A 
ATOM     10  C   UNL d   1       1.438   0.191  -4.065  0.00  0.00     0.102 A 
ATOM     11  C   UNL d   1       0.131  -0.049  -4.529  0.00  0.00     0.101 A 
ATOM     12  C   UNL d   1      -0.902  -0.263  -3.604  0.00  0.00     0.041 A 
ATOM     13  C   UNL d   1      -0.652  -0.276  -2.234  0.00  0.00     0.028 A 
BRANCH  10  14
ATOM     14  O   UNL d   1       2.427   0.374  -4.995  0.00  0.00    -0.353 OA
ATOM     15  C   UNL d   1       3.779   0.374  -4.554  0.00  0.00     0.210 C 
ENDBRANCH  10  14
BRANCH  11  16
ATOM     16  O   UNL d   1      -0.324  -0.116  -5.820  0.00  0.00    -0.353 OA
ATOM     17  C   UNL d   1       0.619  -0.256  -6.873  0.00  0.00     0.210 C 
ENDBRANCH  11  16
ENDBRANCH   5   8
ENDBRANCH   4   5
BRANCH   4  18
ATOM     18  C   UNL d   1      -1.091   1.359   0.602  0.00  0.00     0.173 C 
BRANCH  18  19
ATOM     19  C   UNL d   1      -1.651   2.500   1.381  0.00  0.00     0.066 A 
ATOM     20  O   UNL d   1      -2.599   2.179   2.311  0.00  0.00    -0.326 OA
ATOM     21  C   UNL d   1      -3.003   3.338   2.887  0.00  0.00     0.142 A 
ATOM     22  C   UNL d   1      -2.316   4.403   2.354  0.00  0.00     0.027 A 
ATOM     23  C   UNL d   1      -1.440   3.864   1.380  0.00  0.00     0.036 A 
ENDBRANCH  18  19
ENDBRANCH   4  18
ENDBRANCH   3   4
TORSDOF 7
