REMARK  8 active torsions:
REMARK  status: ('A' for Active; 'I' for Inactive)
REMARK    1  A    between atoms: C_2  and  C_1 
REMARK    2  A    between atoms: N_22  and  C_1 
REMARK    3  A    between atoms: O_9  and  N_3 
REMARK    4  A    between atoms: C_5  and  C_16 
REMARK    5  A    between atoms: C_6  and  O_9 
REMARK    6  A    between atoms: C_11  and  C_6 
REMARK    7  A    between atoms: O_15  and  C_10 
REMARK    8  A    between atoms: C_16  and  O_15 
ROOT
ATOM      1  C   UNL d   1       0.975  -0.007   0.103  0.00  0.00     0.110 C 
ATOM      2  N   UNL d   1       0.386  -0.927   0.805  0.00  0.00    -0.246 N 
ATOM      3  HN  UNL d   1       0.880  -1.686   1.274  1.00  0.00     0.196 HD
ENDROOT
BRANCH   1   4
ATOM      4  C   UNL d   1       2.466  -0.040   0.021  0.00  0.00     0.019 A 
ATOM      5  C   UNL d   1       3.168  -1.228   0.163  0.00  0.00     0.105 A 
ATOM      6  N   UNL d   1       4.523  -1.319   0.089  0.00  0.00    -0.346 N 
ATOM      7  C   UNL d   1       5.220  -0.181  -0.107  0.00  0.00     0.142 A 
ATOM      8  HN  UNL d   1       4.997  -2.218   0.180  1.00  0.00     0.167 HD
ATOM      9  C   UNL d   1       4.603   1.055  -0.237  0.00  0.00     0.057 A 
ATOM     10  C   UNL d   1       3.207   1.125  -0.180  0.00  0.00     0.020 A 
BRANCH   7  11
ATOM     11  O   UNL d   1       6.574  -0.365  -0.079  0.00  0.00    -0.327 OA
BRANCH  11  12
ATOM     12  C   UNL d   1       7.342   0.493  -0.927  0.00  0.00     0.294 C 
BRANCH  12  13
ATOM     13  C   UNL d   1       8.822   0.110  -0.920  0.00  0.00     0.408 C 
ATOM     14  F   UNL d   1       9.086  -1.003  -0.208  0.00  0.00    -0.169 F 
ATOM     15  F   UNL d   1       9.270  -0.096  -2.182  0.00  0.00    -0.169 F 
ATOM     16  F   UNL d   1       9.568   1.114  -0.396  0.00  0.00    -0.169 F 
ENDBRANCH  12  13
ENDBRANCH  11  12
ENDBRANCH   7  11
ENDBRANCH   1   4
BRANCH   1  17
ATOM     17  N   UNL d   1       0.302   0.985  -0.574  0.00  0.00    -0.286 NA
ATOM     18  H   UNL d   1       0.721   1.274  -1.451  0.00  0.00     0.125 HD
ATOM     19  H   UNL d   1      -0.684   0.773  -0.679  0.00  0.00     0.125 HD
ENDBRANCH   1  17
BRANCH   2  20
ATOM     20  O   UNL d   1      -1.019  -0.758   0.847  0.00  0.00    -0.193 OA
BRANCH  20  21
ATOM     21  C   UNL d   1      -1.567  -1.731   1.640  0.00  0.00     0.315 C 
ATOM     22  O   UNL d   1      -0.979  -2.661   2.179  0.00  0.00    -0.257 OA
BRANCH  21  23
ATOM     23  C   UNL d   1      -3.038  -1.542   1.802  0.00  0.00     0.041 A 
ATOM     24  C   UNL d   1      -3.724  -2.453   2.624  0.00  0.00     0.019 A 
ATOM     25  C   UNL d   1      -5.101  -2.336   2.833  0.00  0.00     0.025 A 
ATOM     26  C   UNL d   1      -5.804  -1.304   2.219  0.00  0.00     0.034 A 
ATOM     27  C   UNL d   1      -5.141  -0.393   1.395  0.00  0.00     0.025 A 
ATOM     28 CL   UNL d   1      -7.498  -1.151   2.478  0.00  0.00    -0.084 Cl
ATOM     29  C   UNL d   1      -3.758  -0.508   1.186  0.00  0.00     0.019 A 
ENDBRANCH  21  23
ENDBRANCH  20  21
ENDBRANCH   2  20
TORSDOF 8
