REMARK  0 active torsions:
REMARK  status: ('A' for Active; 'I' for Inactive)
ROOT
ATOM      1  N   UNL d   1       0.016  -1.415  -0.014  0.00  0.00    -0.356 N 
ATOM      2  HN  UNL d   1       0.005  -2.435  -0.029  1.00  0.00     0.166 HD
ATOM      3  C   UNL d   1       1.182  -0.736  -0.014  0.00  0.00     0.066 A 
ATOM      4  C   UNL d   1       1.171   0.677   0.008  0.00  0.00     0.061 A 
ATOM      5  N   UNL d   1       0.022   1.383   0.016  0.00  0.00    -0.356 N 
ATOM      6  HN  UNL d   1       0.025   2.403   0.034  1.00  0.00     0.166 HD
ATOM      7  C   UNL d   1       2.411  -1.423  -0.035  0.00  0.00    -0.026 A 
ATOM      8  C   UNL d   1       3.639  -0.714  -0.031  0.00  0.00    -0.036 A 
ATOM      9  C   UNL d   1       2.372   1.364   0.020  0.00  0.00     0.051 A 
ATOM     10  C   UNL d   1       3.593   0.689   0.003  0.00  0.00     0.019 A 
ATOM     11  C   UNL d   1      -1.137  -0.709   0.006  0.00  0.00     0.032 A 
ATOM     12  C   UNL d   1      -1.136   0.681   0.001  0.00  0.00     0.032 A 
ATOM     13 BR   UNL d   1       5.168   1.756   0.025  0.00  0.00    -0.050 Br
ATOM     14  C   UNL d   1       2.398  -2.935  -0.066  0.00  0.00     0.051 C 
ATOM     15  C   UNL d   1       4.966  -1.430  -0.063  0.00  0.00     0.050 C 
ATOM     16  C   UNL d   1      -2.409  -1.506  -0.040  0.00  0.00     0.059 C 
ATOM     17  C   UNL d   1      -2.416   1.470   0.043  0.00  0.00     0.059 C 
ATOM     18  C   UNL d   1      -3.636  -0.695   0.366  0.00  0.00     0.006 C 
ATOM     19  C   UNL d   1      -3.640   0.647  -0.358  0.00  0.00     0.006 C 
ENDROOT
TORSDOF 0
