REMARK  1 active torsions:
REMARK  status: ('A' for Active; 'I' for Inactive)
REMARK    1  A    between atoms: C_15  and  C_5 
ROOT
ATOM      1  C   UNL d   1      -1.283  -0.615  -0.020  0.00  0.00     0.023 C 
ATOM      2  C   UNL d   1       1.253  -0.609  -0.069  0.00  0.00     0.023 C 
ATOM      3  C   UNL d   1      -1.233   0.723   0.178  0.00  0.00     0.021 C 
ATOM      4  C   UNL d   1       1.212   0.722   0.167  0.00  0.00     0.021 C 
ATOM      5  C   UNL d   1      -0.017  -1.430  -0.283  0.00  0.00     0.096 C 
ATOM      6  N   UNL d   1      -0.010   1.369   0.243  0.00  0.00    -0.362 N 
ATOM      7  C   UNL d   1      -2.617  -1.287  -0.039  0.00  0.00     0.159 C 
ATOM      8  C   UNL d   1       2.581  -1.279  -0.158  0.00  0.00     0.159 C 
ATOM      9  C   UNL d   1      -2.466   1.598   0.305  0.00  0.00     0.067 C 
ATOM     10  C   UNL d   1       2.449   1.582   0.345  0.00  0.00     0.067 C 
ATOM     11  C   UNL d   1      -3.779   0.909  -0.133  0.00  0.00    -0.036 C 
ATOM     12  C   UNL d   1       3.776   0.901  -0.065  0.00  0.00    -0.036 C 
ATOM     13  C   UNL d   1       3.761  -0.547   0.440  0.00  0.00     0.092 C 
ATOM     14  C   UNL d   1      -3.800  -0.497   0.476  0.00  0.00     0.092 C 
ATOM     15  O   UNL d   1       2.722  -2.368  -0.707  0.00  0.00    -0.293 OA
ATOM     16  O   UNL d   1      -2.767  -2.429  -0.464  0.00  0.00    -0.293 OA
ATOM     17  C   UNL d   1      -3.881   0.823  -1.673  0.00  0.00     0.015 C 
ATOM     18  C   UNL d   1      -4.986   1.714   0.374  0.00  0.00     0.015 C 
ATOM     19  C   UNL d   1       3.958   0.927  -1.598  0.00  0.00     0.015 C 
ATOM     20  C   UNL d   1       4.960   1.652   0.567  0.00  0.00     0.015 C 
ATOM     21  H   UNL d   1      -0.008   2.373   0.402  0.00  0.00     0.165 HD
ENDROOT
BRANCH   5  22
ATOM     22  C   UNL d   1       0.009  -2.751   0.483  0.00  0.00    -0.045 A 
ATOM     23  C   UNL d   1       0.102  -2.812   1.878  0.00  0.00     0.009 A 
ATOM     24  C   UNL d   1       0.129  -4.050   2.527  0.00  0.00     0.007 A 
ATOM     25  C   UNL d   1       0.057  -5.242   1.796  0.00  0.00    -0.062 A 
ATOM     26  C   UNL d   1      -0.036  -5.183   0.404  0.00  0.00     0.007 A 
ATOM     27  C   UNL d   1       0.081  -6.565   2.499  0.00  0.00     0.048 C 
ATOM     28  C   UNL d   1      -0.058  -3.952  -0.243  0.00  0.00     0.009 A 
ENDBRANCH   5  22
TORSDOF 1
