REMARK  4 active torsions:
REMARK  status: ('A' for Active; 'I' for Inactive)
REMARK    1  A    between atoms: N_2  and  C_1 
REMARK       I    between atoms: C_3  and  N_2 
REMARK    2  A    between atoms: C_7  and  N_2 
REMARK       I    between atoms: N_9  and  C_3 
REMARK    3  A    between atoms: C_8  and  C_10 
REMARK    4  A    between atoms: C_18  and  N_9 
ROOT
ATOM      1  N   UNL d   1       2.941   0.583   0.250  0.00  0.00    -0.244 N 
ATOM      2  C   UNL d   1       4.143  -0.170   0.507  0.00  0.00     0.333 C 
ATOM      3  N   UNL d   1       4.067  -1.501   0.129  0.00  0.00    -0.308 N 
ATOM      4  O   UNL d   1       5.152   0.319   1.016  0.00  0.00    -0.246 OA
ATOM      5  H   UNL d   1       3.135  -1.846  -0.052  0.00  0.00     0.170 HD
ENDROOT
BRANCH   1   6
ATOM      6  C   UNL d   1       1.639   0.057   0.085  0.00  0.00     0.152 C 
ATOM      7  N   UNL d   1       0.668   0.682  -0.504  0.00  0.00    -0.369 N 
ATOM      8  C   UNL d   1      -0.581  -0.104  -0.454  0.00  0.00     0.142 C 
ATOM      9  HN  UNL d   1       0.756   1.598  -0.945  1.00  0.00     0.161 HD
ATOM     10  C   UNL d   1      -0.248  -1.593  -0.387  0.00  0.00     0.024 C 
ATOM     11  S   UNL d   1       1.242  -1.560   0.650  0.00  0.00    -0.083 SA
ATOM     12  C   UNL d   1       0.080  -2.157  -1.773  0.00  0.00     0.029 C 
ATOM     13  C   UNL d   1      -1.337  -2.414   0.293  0.00  0.00     0.029 C 
ENDBRANCH   1   6
BRANCH   1  14
ATOM     14  C   UNL d   1       3.070   2.045   0.224  0.00  0.00     0.047 A 
ATOM     15  C   UNL d   1       4.250   2.681  -0.211  0.00  0.00     0.046 A 
ATOM     16  C   UNL d   1       4.361   4.088  -0.262  0.00  0.00     0.050 A 
ATOM     17  C   UNL d   1       3.269   4.877   0.118  0.00  0.00     0.016 A 
ATOM     18  C   UNL d   1       2.099   4.275   0.566  0.00  0.00     0.003 A 
ATOM     19  C   UNL d   1       2.012   2.881   0.626  0.00  0.00     0.030 A 
BRANCH  16  20
ATOM     20  C   UNL d   1       5.632   4.758  -0.728  0.00  0.00     0.417 C 
ATOM     21  F   UNL d   1       6.623   3.892  -1.066  0.00  0.00    -0.166 F 
ATOM     22  F   UNL d   1       5.430   5.538  -1.828  0.00  0.00    -0.166 F 
ATOM     23  F   UNL d   1       6.160   5.585   0.219  0.00  0.00    -0.166 F 
ENDBRANCH  16  20
ENDBRANCH   1  14
BRANCH   3  24
ATOM     24  C   UNL d   1       5.057  -2.502   0.153  0.00  0.00     0.036 A 
ATOM     25  C   UNL d   1       6.413  -2.270   0.370  0.00  0.00     0.029 A 
ATOM     26  C   UNL d   1       7.325  -3.331   0.316  0.00  0.00     0.002 A 
ATOM     27  C   UNL d   1       6.886  -4.629   0.053  0.00  0.00     0.000 A 
ATOM     28  C   UNL d   1       5.532  -4.874  -0.145  0.00  0.00     0.002 A 
ATOM     29  C   UNL d   1       4.624  -3.815  -0.096  0.00  0.00     0.029 A 
ENDBRANCH   3  24
TORSDOF 4
