REMARK  10 active torsions:
REMARK  status: ('A' for Active; 'I' for Inactive)
REMARK    1  A    between atoms: C_2  and  S_1 
REMARK    2  A    between atoms: N_5  and  S_1 
REMARK    3  A    between atoms: O_9  and  C_3 
REMARK    4  A    between atoms: C_19  and  N_5 
REMARK    5  A    between atoms: C_6  and  C_16 
REMARK    6  A    between atoms: C_7  and  C_18 
REMARK    7  A    between atoms: C_16  and  O_9 
REMARK    8  A    between atoms: O_15  and  C_14 
REMARK    9  A    between atoms: C_18  and  O_15 
REMARK   10  A    between atoms: O_31  and  C_26 
ROOT
ATOM      1  C   UNL d   1       0.331  -0.978  -1.240  0.00  0.00     0.109 A 
ATOM      2  C   UNL d   1      -0.329  -0.525  -2.398  0.00  0.00     0.115 A 
ATOM      3  C   UNL d   1      -0.706  -1.487  -3.366  0.00  0.00     0.112 A 
ATOM      4  C   UNL d   1      -1.473  -1.133  -4.526  0.00  0.00     0.105 C 
ATOM      5  N   UNL d   1      -2.065  -0.817  -5.476  0.00  0.00    -0.191 NA
ATOM      6  C   UNL d   1       0.702  -2.324  -1.104  0.00  0.00     0.030 A 
ATOM      7  C   UNL d   1      -0.369  -2.852  -3.197  0.00  0.00     0.092 A 
ATOM      8  C   UNL d   1       0.367  -3.251  -2.083  0.00  0.00     0.040 A 
ENDROOT
BRANCH   2   9
ATOM      9  O   UNL d   1      -0.666   0.807  -2.448  0.00  0.00    -0.339 OA
BRANCH   9  10
ATOM     10  C   UNL d   1      -0.448   1.510  -3.688  0.00  0.00     0.293 C 
BRANCH  10  11
ATOM     11  C   UNL d   1      -0.052   2.979  -3.508  0.00  0.00     0.408 C 
ATOM     12  F   UNL d   1       0.266   3.307  -2.243  0.00  0.00    -0.169 F 
ATOM     13  F   UNL d   1       1.015   3.278  -4.290  0.00  0.00    -0.169 F 
ATOM     14  F   UNL d   1      -1.062   3.798  -3.892  0.00  0.00    -0.169 F 
ENDBRANCH  10  11
ENDBRANCH   9  10
ENDBRANCH   2   9
BRANCH   7  15
ATOM     15  O   UNL d   1      -0.807  -3.729  -4.160  0.00  0.00    -0.341 OA
BRANCH  15  16
ATOM     16  C   UNL d   1      -0.734  -5.132  -3.858  0.00  0.00     0.293 C 
BRANCH  16  17
ATOM     17  C   UNL d   1      -1.568  -5.973  -4.819  0.00  0.00     0.408 C 
ATOM     18  F   UNL d   1      -1.817  -5.348  -5.987  0.00  0.00    -0.169 F 
ATOM     19  F   UNL d   1      -0.927  -7.131  -5.106  0.00  0.00    -0.169 F 
ATOM     20  F   UNL d   1      -2.756  -6.302  -4.260  0.00  0.00    -0.169 F 
ENDBRANCH  16  17
ENDBRANCH  15  16
ENDBRANCH   7  15
BRANCH   1  21
ATOM     21  S   UNL d   1       0.874   0.131   0.042  0.00  0.00     0.248 S 
ATOM     22  O   UNL d   1       1.249   1.390  -0.553  0.00  0.00    -0.205 OA
ATOM     23  O   UNL d   1       1.852  -0.597   0.835  0.00  0.00    -0.205 OA
BRANCH  21  24
ATOM     24  N   UNL d   1      -0.407   0.378   1.125  0.00  0.00    -0.181 NA
ATOM     25  H   UNL d   1      -0.034   0.171   2.054  0.00  0.00     0.146 HD
BRANCH  24  26
ATOM     26  C   UNL d   1      -1.661  -0.263   0.910  0.00  0.00     0.023 A 
ATOM     27  C   UNL d   1      -1.903  -1.548   1.401  0.00  0.00     0.027 A 
ATOM     28  C   UNL d   1      -3.163  -2.136   1.229  0.00  0.00     0.038 A 
ATOM     29  C   UNL d   1      -4.172  -1.440   0.561  0.00  0.00     0.068 A 
ATOM     30  C   UNL d   1      -3.916  -0.157   0.071  0.00  0.00     0.038 A 
ATOM     31  C   UNL d   1      -2.658   0.426   0.229  0.00  0.00     0.027 A 
BRANCH  29  32
ATOM     32  O   UNL d   1      -5.453  -1.881   0.382  0.00  0.00    -0.356 OA
ATOM     33  C   UNL d   1      -5.620  -3.290   0.276  0.00  0.00     0.210 C 
ENDBRANCH  29  32
ENDBRANCH  24  26
ENDBRANCH  21  24
ENDBRANCH   1  21
TORSDOF 10
