REMARK  6 active torsions:
REMARK  status: ('A' for Active; 'I' for Inactive)
REMARK    1  A    between atoms: C_3  and  C_1 
REMARK    2  A    between atoms: C_11  and  N_2 
REMARK    3  A    between atoms: C_6  and  C_10 
REMARK    4  A    between atoms: S_9  and  C_6 
REMARK    5  A    between atoms: C_19  and  S_9 
REMARK    6  A    between atoms: C_15  and  C_11 
ROOT
ATOM      1  C   UNL d   1      -3.651   3.481  -1.104  0.00  0.00     0.022 A 
ATOM      2  C   UNL d   1      -3.140   2.176  -1.224  0.00  0.00     0.024 A 
ATOM      3  C   UNL d   1      -3.333   1.231  -0.203  0.00  0.00    -0.039 A 
ATOM      4  C   UNL d   1      -4.336   3.846   0.062  0.00  0.00     0.016 A 
ATOM      5  C   UNL d   1      -4.546   2.907   1.072  0.00  0.00     0.002 A 
ATOM      6  C   UNL d   1      -4.055   1.609   0.937  0.00  0.00     0.009 A 
ENDROOT
BRANCH   3   7
ATOM      7  C   UNL d   1      -2.747  -0.159  -0.304  0.00  0.00     0.170 C 
BRANCH   7   8
ATOM      8  N   UNL d   1      -1.458  -0.278   0.381  0.00  0.00    -0.320 N 
ATOM      9  C   UNL d   1      -0.286  -0.015  -0.316  0.00  0.00     0.110 A 
ATOM     10  C   UNL d   1       0.927  -0.157   0.250  0.00  0.00     0.063 A 
ATOM     11  C   UNL d   1       1.001  -0.570   1.639  0.00  0.00     0.023 A 
ATOM     12  C   UNL d   1      -0.110  -0.817   2.345  0.00  0.00     0.075 A 
ATOM     13  C   UNL d   1      -1.450  -0.685   1.716  0.00  0.00     0.247 A 
ATOM     14  O   UNL d   1      -2.449  -0.944   2.380  0.00  0.00    -0.268 OA
BRANCH  10  15
ATOM     15  C   UNL d   1       2.196   0.062  -0.527  0.00  0.00     0.418 C 
ATOM     16  F   UNL d   1       3.309  -0.293   0.165  0.00  0.00    -0.166 F 
ATOM     17  F   UNL d   1       2.206  -0.662  -1.676  0.00  0.00    -0.166 F 
ATOM     18  F   UNL d   1       2.351   1.363  -0.881  0.00  0.00    -0.166 F 
ENDBRANCH  10  15
ENDBRANCH   7   8
ENDBRANCH   3   7
BRANCH   1  19
ATOM     19  C   UNL d   1      -3.420   4.431  -2.230  0.00  0.00     0.224 C 
ATOM     20  O   UNL d   1      -2.469   4.272  -2.984  0.00  0.00    -0.279 OA
BRANCH  19  21
ATOM     21  S   UNL d   1      -4.659   5.643  -2.528  0.00  0.00    -0.048 SA
BRANCH  21  22
ATOM     22  C   UNL d   1      -3.809   7.213  -2.541  0.00  0.00     0.008 A 
ATOM     23  C   UNL d   1      -2.476   7.392  -2.918  0.00  0.00     0.019 A 
ATOM     24  C   UNL d   1      -1.909   8.672  -2.955  0.00  0.00     0.001 A 
ATOM     25  C   UNL d   1      -2.672   9.789  -2.624  0.00  0.00     0.000 A 
ATOM     26  C   UNL d   1      -4.002   9.628  -2.251  0.00  0.00     0.001 A 
ATOM     27  C   UNL d   1      -4.566   8.349  -2.210  0.00  0.00     0.019 A 
ENDBRANCH  21  22
ENDBRANCH  19  21
ENDBRANCH   1  19
TORSDOF 6
