REMARK  4 active torsions:
REMARK  status: ('A' for Active; 'I' for Inactive)
REMARK       I    between atoms: N_2  and  C_1 
REMARK    1  A    between atoms: C_5  and  C_1 
REMARK    2  A    between atoms: C_6  and  N_2 
REMARK    3  A    between atoms: S_3  and  C_5 
REMARK    4  A    between atoms: C_7  and  S_3 
ROOT
ATOM      1  C   UNL d   1       1.188   0.015   0.226  0.00  0.00     0.231 C 
ATOM      2  N   UNL d   1       0.475   1.156   0.551  0.00  0.00    -0.327 N 
ATOM      3  O   UNL d   1       0.698  -1.079  -0.050  0.00  0.00    -0.272 OA
ATOM      4  H   UNL d   1       1.021   2.001   0.684  0.00  0.00     0.169 HD
ENDROOT
BRANCH   1   5
ATOM      5  C   UNL d   1       2.693   0.217   0.098  0.00  0.00     0.182 C 
BRANCH   5   6
ATOM      6  S   UNL d   1       3.368   1.219   1.465  0.00  0.00    -0.121 SA
BRANCH   6   7
ATOM      7  C   UNL d   1       5.119   1.053   1.158  0.00  0.00     0.001 A 
ATOM      8  C   UNL d   1       5.688   1.377  -0.079  0.00  0.00     0.020 A 
ATOM      9  C   UNL d   1       7.073   1.299  -0.264  0.00  0.00     0.025 A 
ATOM     10  C   UNL d   1       7.893   0.902   0.790  0.00  0.00     0.034 A 
ATOM     11  C   UNL d   1       7.339   0.573   2.025  0.00  0.00     0.025 A 
ATOM     12 CL   UNL d   1       9.597   0.838   0.571  0.00  0.00    -0.084 Cl
ATOM     13  C   UNL d   1       5.954   0.652   2.208  0.00  0.00     0.020 A 
ENDBRANCH   6   7
ENDBRANCH   5   6
ENDBRANCH   1   5
BRANCH   2  14
ATOM     14  C   UNL d   1      -0.917   1.266   0.765  0.00  0.00     0.034 A 
ATOM     15  C   UNL d   1      -1.787   0.171   0.790  0.00  0.00     0.032 A 
ATOM     16  C   UNL d   1      -3.153   0.349   1.034  0.00  0.00     0.044 A 
ATOM     17  C   UNL d   1      -3.651   1.626   1.247  0.00  0.00     0.116 A 
ATOM     18  C   UNL d   1      -2.809   2.729   1.224  0.00  0.00     0.044 A 
ATOM     19  F   UNL d   1      -4.960   1.796   1.480  0.00  0.00    -0.206 F 
ATOM     20  C   UNL d   1      -1.441   2.549   0.989  0.00  0.00     0.032 A 
ENDBRANCH   2  14
TORSDOF 4
