REMARK  6 active torsions:
REMARK  status: ('A' for Active; 'I' for Inactive)
REMARK    1  A    between atoms: C_2  and  S_1 
REMARK    2  A    between atoms: C_3  and  S_1 
REMARK    3  A    between atoms: C_8  and  C_6 
REMARK    4  A    between atoms: C_9  and  C_7 
REMARK       I    between atoms: N_15  and  C_8 
REMARK    5  A    between atoms: O_16  and  C_9 
REMARK    6  A    between atoms: O_34  and  C_32 
ROOT
ATOM      1  C   UNL d   2       3.724   1.827  -0.448  0.00  0.00     0.135 C 
ATOM      2  O   UNL d   2       3.155   2.169  -1.473  0.00  0.00    -0.650 OA
ATOM      3  C   UNL d   2       5.046   1.145  -0.385  0.00  0.00     0.125 C 
ENDROOT
BRANCH   1   4
ATOM      4  O   UNL d   2       3.198   1.987   0.776  0.00  0.00    -0.777 OA
ATOM      5  H   UNL d   2       2.213   2.018   0.695  0.00  0.00     0.167 HD
ENDBRANCH   1   4
TORSDOF 6
