REMARK  6 active torsions:
REMARK  status: ('A' for Active; 'I' for Inactive)
REMARK    1  A    between atoms: C_3  and  S_1 
REMARK    2  A    between atoms: C_4  and  S_1 
REMARK    3  A    between atoms: C_5  and  C_2 
REMARK       I    between atoms: N_13  and  C_5 
REMARK    4  A    between atoms: C_10  and  C_6 
REMARK    5  A    between atoms: C_8  and  O_11 
REMARK    6  A    between atoms: O_11  and  C_10 
ROOT
ATOM      1  S   UNL d   1       0.675   0.002  -0.223  0.00  0.00     0.086 S 
ATOM      2  O   UNL d   1       0.081   1.291   0.278  0.00  0.00    -0.247 OA
ENDROOT
BRANCH   1   3
ATOM      3  C   UNL d   1       2.443   0.376  -0.435  0.00  0.00     0.052 A 
ATOM      4  C   UNL d   1       2.861   1.601  -1.001  0.00  0.00     0.051 A 
ATOM      5  C   UNL d   1       4.232   1.920  -1.058  0.00  0.00     0.018 A 
ATOM      6  C   UNL d   1       5.198   1.019  -0.617  0.00  0.00     0.001 A 
ATOM      7  C   UNL d   1       4.805  -0.230  -0.174  0.00  0.00     0.002 A 
ATOM      8  C   UNL d   1       3.447  -0.536  -0.081  0.00  0.00     0.022 A 
BRANCH   4   9
ATOM      9  C   UNL d   1       1.900   2.551  -1.648  0.00  0.00     0.252 C 
ATOM     10  O   UNL d   1       1.015   2.146  -2.385  0.00  0.00    -0.268 OA
ATOM     11  N   UNL d   1       2.153   3.890  -1.405  0.00  0.00    -0.361 N 
ATOM     12  C   UNL d   1       1.267   4.925  -1.871  0.00  0.00     0.149 C 
ATOM     13  H   UNL d   1       2.934   4.162  -0.828  0.00  0.00     0.162 HD
ENDBRANCH   4   9
ENDBRANCH   1   3
BRANCH   1  14
ATOM     14  C   UNL d   1       0.680  -1.101   1.244  0.00  0.00     0.045 A 
ATOM     15  C   UNL d   1       0.909  -2.499   1.210  0.00  0.00    -0.015 A 
ATOM     16  C   UNL d   1       0.671  -3.249   2.388  0.00  0.00     0.011 A 
ATOM     17  C   UNL d   1       0.204  -2.656   3.560  0.00  0.00     0.001 A 
ATOM     18  C   UNL d   1      -0.017  -1.290   3.594  0.00  0.00     0.001 A 
ATOM     19  C   UNL d   1       0.217  -0.526   2.450  0.00  0.00     0.022 A 
BRANCH  15  20
ATOM     20  C   UNL d   1       1.460  -3.307   0.046  0.00  0.00     0.218 C 
BRANCH  20  21
ATOM     21  O   UNL d   1       1.290  -2.702  -1.234  0.00  0.00    -0.317 OA
BRANCH  21  22
ATOM     22  C   UNL d   1       0.137  -3.034  -1.873  0.00  0.00     0.255 C 
ATOM     23  O   UNL d   1      -0.679  -3.846  -1.469  0.00  0.00    -0.266 OA
ATOM     24  C   UNL d   1      -0.003  -2.255  -3.145  0.00  0.00     0.126 C 
ENDBRANCH  21  22
ENDBRANCH  20  21
ENDBRANCH  15  20
ENDBRANCH   1  14
TORSDOF 6
