REMARK  1 active torsions:
REMARK  status: ('A' for Active; 'I' for Inactive)
REMARK    1  A    between atoms: C_10  and  C_1 
ROOT
ATOM      1  C   UNL d   1      -2.397   0.662  -0.402  0.00  0.00     0.275 C 
ATOM      2  C   UNL d   1      -2.401  -0.764   0.215  0.00  0.00     0.275 C 
ATOM      3  C   UNL d   1      -1.190   1.425   0.140  0.00  0.00     0.215 C 
ATOM      4  C   UNL d   1       0.056  -0.724   0.187  0.00  0.00     0.072 A 
ATOM      5  N   UNL d   1      -1.178  -1.388   0.299  0.00  0.00    -0.321 N 
ATOM      6  C   UNL d   1       0.088   0.674   0.204  0.00  0.00     0.043 A 
ATOM      7  C   UNL d   1       1.258  -1.446   0.103  0.00  0.00     0.083 A 
ATOM      8  C   UNL d   1       1.306   1.360   0.199  0.00  0.00     0.019 A 
ATOM      9  C   UNL d   1       2.478  -0.755   0.054  0.00  0.00     0.058 A 
ATOM     10  O   UNL d   1      -3.420  -1.388   0.515  0.00  0.00    -0.269 OA
ATOM     11  O   UNL d   1      -1.184   2.623   0.424  0.00  0.00    -0.288 OA
ATOM     12  F   UNL d   1      -3.554   1.317  -0.051  0.00  0.00    -0.218 F 
ATOM     13  C   UNL d   1       2.499   0.644   0.121  0.00  0.00     0.026 A 
ATOM     14 CL   UNL d   1       1.198  -3.177   0.009  0.00  0.00    -0.080 Cl
ATOM     15 CL   UNL d   1       3.998  -1.564  -0.100  0.00  0.00    -0.082 Cl
ATOM     16  H   UNL d   1      -1.194  -2.388   0.487  0.00  0.00     0.169 HD
ENDROOT
BRANCH   1  17
ATOM     17  C   UNL d   1      -2.347   0.481  -1.941  0.00  0.00    -0.001 A 
ATOM     18  C   UNL d   1      -3.387  -0.236  -2.565  0.00  0.00     0.011 A 
ATOM     19  C   UNL d   1      -3.304  -0.598  -3.910  0.00  0.00     0.001 A 
ATOM     20  C   UNL d   1      -2.191  -0.236  -4.661  0.00  0.00     0.000 A 
ATOM     21  C   UNL d   1      -1.183   0.528  -4.083  0.00  0.00     0.001 A 
ATOM     22  C   UNL d   1      -1.271   0.905  -2.740  0.00  0.00     0.011 A 
ENDBRANCH   1  17
TORSDOF 1
