REMARK  6 active torsions:
REMARK  status: ('A' for Active; 'I' for Inactive)
REMARK    1  A    between atoms: N_3  and  C_1 
REMARK    2  A    between atoms: N_6  and  C_1 
REMARK    3  A    between atoms: C_5  and  C_2 
REMARK    4  A    between atoms: C_4  and  N_3 
REMARK    5  A    between atoms: O_10  and  C_5 
REMARK    6  A    between atoms: N_9  and  N_6 
ROOT
ATOM      1  C   UNL d   1       2.126   2.598  -0.836  0.00  0.00     0.066 A 
ATOM      2  C   UNL d   1       1.086   2.430   0.102  0.00  0.00     0.050 A 
ATOM      3  C   UNL d   1       2.764   3.850  -0.953  0.00  0.00     0.020 A 
ATOM      4  C   UNL d   1       0.651   3.563   0.810  0.00  0.00     0.030 A 
ATOM      5  C   UNL d   1       2.354   4.942  -0.193  0.00  0.00     0.001 A 
ATOM      6  C   UNL d   1       1.284   4.802   0.677  0.00  0.00     0.002 A 
ENDROOT
BRANCH   2   7
ATOM      7  N   UNL d   1       0.442   1.175   0.300  0.00  0.00    -0.331 N 
ATOM      8  H   UNL d   1       0.629   0.490  -0.424  0.00  0.00     0.168 HD
BRANCH   7   9
ATOM      9  C   UNL d   1      -0.176   0.701   1.454  0.00  0.00     0.188 C 
ATOM     10  S   UNL d   1       0.220   1.191   3.029  0.00  0.00    -0.039 SA
BRANCH   9  11
ATOM     11  N   UNL d   1      -1.179  -0.268   1.234  0.00  0.00    -0.295 N 
ATOM     12  C   UNL d   1      -1.469  -0.957  -0.022  0.00  0.00     0.174 C 
BRANCH  11  13
ATOM     13  N   UNL d   1      -2.195  -0.445   2.231  0.00  0.00    -0.246 NA
ATOM     14  H   UNL d   1      -2.165   0.382   2.840  0.00  0.00     0.143 HD
ATOM     15  H   UNL d   1      -1.893  -1.208   2.839  0.00  0.00     0.143 HD
ENDBRANCH  11  13
ENDBRANCH   9  11
ENDBRANCH   7   9
ENDBRANCH   2   7
BRANCH   1  16
ATOM     16  C   UNL d   1       2.664   1.540  -1.733  0.00  0.00     0.295 C 
ATOM     17  O   UNL d   1       3.782   1.594  -2.233  0.00  0.00    -0.259 OA
BRANCH  16  18
ATOM     18  O   UNL d   1       1.738   0.583  -1.995  0.00  0.00    -0.322 OA
ATOM     19  C   UNL d   1       2.153  -0.333  -3.013  0.00  0.00     0.213 C 
ENDBRANCH  16  18
ENDBRANCH   1  16
TORSDOF 6
