REMARK  2 active torsions:
REMARK  status: ('A' for Active; 'I' for Inactive)
REMARK    1  A    between atoms: C_11  and  C_5 
REMARK    2  A    between atoms: O_17  and  C_14 
ROOT
ATOM      1  N   UNL d   1      -0.300   0.688   0.011  0.00  0.00    -0.316 N 
ATOM      2  N   UNL d   1      -1.601  -1.128   0.048  0.00  0.00    -0.340 N 
ATOM      3  HN  UNL d   1      -1.920  -2.096   0.072  1.00  0.00     0.167 HD
ATOM      4  C   UNL d   1      -0.356  -0.699   0.032  0.00  0.00     0.111 A 
ATOM      5  C   UNL d   1      -2.384   0.008   0.026  0.00  0.00     0.060 A 
ATOM      6  C   UNL d   1      -1.593   1.138   0.001  0.00  0.00     0.128 A 
ATOM      7  C   UNL d   1       0.884   1.418  -0.001  0.00  0.00     0.104 A 
ATOM      8  C   UNL d   1       0.887  -1.393   0.032  0.00  0.00     0.050 A 
ATOM      9  C   UNL d   1       2.063   0.766   0.007  0.00  0.00    -0.046 A 
ATOM     10  C   UNL d   1       2.042  -0.699   0.016  0.00  0.00     0.012 A 
ATOM     11  C   UNL d   1       3.392   1.454   0.007  0.00  0.00     0.049 C 
ENDROOT
BRANCH   5  12
ATOM     12  C   UNL d   1      -3.840  -0.015   0.040  0.00  0.00    -0.008 A 
ATOM     13  C   UNL d   1      -4.597   1.161  -0.039  0.00  0.00     0.016 A 
ATOM     14  C   UNL d   1      -5.993   1.115   0.010  0.00  0.00     0.037 A 
ATOM     15  C   UNL d   1      -6.663  -0.102   0.136  0.00  0.00     0.068 A 
ATOM     16  C   UNL d   1      -5.921  -1.281   0.189  0.00  0.00     0.037 A 
ATOM     17  C   UNL d   1      -4.520  -1.236   0.144  0.00  0.00     0.016 A 
BRANCH  15  18
ATOM     18  O   UNL d   1      -8.023   0.004   0.202  0.00  0.00    -0.356 OA
ATOM     19  C   UNL d   1      -8.753  -1.203   0.374  0.00  0.00     0.210 C 
ENDBRANCH  15  18
ENDBRANCH   5  12
TORSDOF 2
