REMARK  2 active torsions:
REMARK  status: ('A' for Active; 'I' for Inactive)
REMARK       I    between atoms: N_4  and  C_1 
REMARK       I    between atoms: N_8  and  C_1 
REMARK       I    between atoms: C_2  and  N_3 
REMARK    1  A    between atoms: C_7  and  C_2 
REMARK    2  A    between atoms: N_3  and  N_4 
ROOT
ATOM      1  C   UNL d   1      -0.001  -1.679   3.275  0.00  0.00     0.270 C 
ATOM      2  N   UNL d   1       0.793  -1.267   2.227  0.00  0.00    -0.262 N 
ATOM      3  O   UNL d   1      -1.229  -1.669   3.234  0.00  0.00    -0.266 OA
ATOM      4  H   UNL d   1       1.807  -1.359   2.199  0.00  0.00     0.190 HD
ENDROOT
BRANCH   2   5
ATOM      5  N   UNL d   1       0.185  -0.814   1.044  0.00  0.00    -0.249 N 
ATOM      6  C   UNL d   1       0.997  -0.188   0.140  0.00  0.00     0.334 C 
ATOM      7  O   UNL d   1       2.221  -0.143   0.269  0.00  0.00    -0.246 OA
ATOM      8  N   UNL d   1       0.414   0.369  -0.949  0.00  0.00    -0.346 N 
ATOM      9  C   UNL d   1      -0.968   0.368  -1.367  0.00  0.00     0.151 C 
ATOM     10  H   UNL d   1       1.091   0.796  -1.569  0.00  0.00     0.163 HD
ATOM     11  H   UNL d   1      -0.782  -0.524   1.154  0.00  0.00     0.192 HD
ENDBRANCH   2   5
BRANCH   1  12
ATOM     12  C   UNL d   1       0.720  -2.166   4.481  0.00  0.00     0.033 A 
ATOM     13  C   UNL d   1       1.941  -1.609   4.883  0.00  0.00     0.017 A 
ATOM     14  C   UNL d   1       2.580  -2.085   6.031  0.00  0.00     0.001 A 
ATOM     15  C   UNL d   1       2.004  -3.113   6.777  0.00  0.00     0.000 A 
ATOM     16  C   UNL d   1       0.784  -3.664   6.385  0.00  0.00     0.001 A 
ATOM     17  C   UNL d   1       0.138  -3.187   5.242  0.00  0.00     0.017 A 
ENDBRANCH   1  12
TORSDOF 2
