REMARK  3 active torsions:
REMARK  status: ('A' for Active; 'I' for Inactive)
REMARK    1  A    between atoms: C_3  and  C_4 
REMARK       I    between atoms: N_11  and  C_3 
REMARK    2  A    between atoms: C_7  and  C_13 
REMARK    3  A    between atoms: C_16  and  N_11 
ROOT
ATOM      1  C   UNL d   1      -0.312  -0.481   0.387  0.00  0.00    -0.026 A 
ATOM      2  C   UNL d   1      -0.496   0.903   0.363  0.00  0.00     0.024 A 
ATOM      3  C   UNL d   1       0.979  -1.034   0.223  0.00  0.00     0.045 A 
ATOM      4  C   UNL d   1      -1.926   1.170   0.581  0.00  0.00     0.168 A 
ATOM      5  C   UNL d   1      -2.684  -0.130   0.778  0.00  0.00     0.022 A 
ATOM      6  C   UNL d   1      -1.616  -1.221   0.543  0.00  0.00     0.057 A 
ATOM      7  C   UNL d   1       0.551   1.786   0.161  0.00  0.00    -0.047 A 
ATOM      8  C   UNL d   1       2.068  -0.159   0.028  0.00  0.00    -0.045 A 
ATOM      9  C   UNL d   1       1.837   1.235   0.021  0.00  0.00     0.015 A 
ATOM     10  O   UNL d   1      -2.419   2.287   0.634  0.00  0.00    -0.291 OA
ATOM     11  C   UNL d   1      -3.839  -0.217  -0.228  0.00  0.00     0.023 C 
ATOM     12  C   UNL d   1      -3.236  -0.178   2.209  0.00  0.00     0.023 C 
ATOM     13  C   UNL d   1       0.405   3.278   0.059  0.00  0.00     0.049 C 
ATOM     14  C   UNL d   1       3.490  -0.601  -0.199  0.00  0.00     0.049 C 
ENDROOT
BRANCH   3  15
ATOM     15  C   UNL d   1       1.088  -2.514   0.142  0.00  0.00     0.257 C 
ATOM     16  N   UNL d   1       2.144  -3.122   0.809  0.00  0.00    -0.323 N 
ATOM     17  H   UNL d   1       2.757  -2.533   1.359  0.00  0.00     0.169 HD
ATOM     18  O   UNL d   1       0.207  -3.095  -0.485  0.00  0.00    -0.267 OA
BRANCH  16  19
ATOM     19  C   UNL d   1       2.338  -4.519   0.935  0.00  0.00     0.035 A 
ATOM     20  C   UNL d   1       1.511  -5.451   0.306  0.00  0.00     0.045 A 
ATOM     21  C   UNL d   1       1.556  -6.812   0.634  0.00  0.00     0.050 A 
ATOM     22  C   UNL d   1       2.541  -7.259   1.520  0.00  0.00     0.016 A 
ATOM     23  C   UNL d   1       3.451  -6.354   2.069  0.00  0.00     0.003 A 
ATOM     24  C   UNL d   1       3.343  -4.986   1.787  0.00  0.00     0.029 A 
BRANCH  21  25
ATOM     25  C   UNL d   1       0.492  -7.741   0.105  0.00  0.00     0.417 C 
ATOM     26  F   UNL d   1      -0.408  -7.139  -0.721  0.00  0.00    -0.166 F 
ATOM     27  F   UNL d   1       1.002  -8.788  -0.599  0.00  0.00    -0.166 F 
ATOM     28  F   UNL d   1      -0.247  -8.290   1.111  0.00  0.00    -0.166 F 
ENDBRANCH  21  25
ENDBRANCH  16  19
ENDBRANCH   3  15
TORSDOF 3
