REMARK  2 active torsions:
REMARK  status: ('A' for Active; 'I' for Inactive)
REMARK    1  A    between atoms: S_3  and  C_1 
REMARK    2  A    between atoms: C_6  and  C_4 
ROOT
ATOM      1  C   UNL d   1       0.545  -2.412   0.098  0.00  0.00     0.063 C 
ATOM      2  C   UNL d   1       0.076  -3.460   0.807  0.00  0.00     0.126 C 
ATOM      3  N   UNL d   1      -2.006  -3.379   2.336  0.00  0.00    -0.191 NA
ATOM      4  N   UNL d   1       1.348  -5.706   0.640  0.00  0.00    -0.191 NA
ATOM      5  C   UNL d   1      -1.069  -3.408   1.652  0.00  0.00     0.111 C 
ATOM      6  C   UNL d   1       0.770  -4.703   0.726  0.00  0.00     0.111 C 
ENDROOT
BRANCH   1   7
ATOM      7  C   UNL d   1      -0.068  -1.125   0.057  0.00  0.00     0.037 A 
ATOM      8  N   UNL d   1       0.700   0.029  -0.073  0.00  0.00    -0.342 N 
ATOM      9  C   UNL d   1      -0.120   1.150  -0.017  0.00  0.00     0.130 A 
ATOM     10  C   UNL d   1       2.144   0.054  -0.237  0.00  0.00     0.157 C 
ATOM     11  C   UNL d   1      -1.423   0.682   0.054  0.00  0.00     0.044 A 
ATOM     12  C   UNL d   1      -1.390  -0.725   0.086  0.00  0.00     0.032 A 
BRANCH   9  13
ATOM     13  S   UNL d   1       0.506   2.821  -0.052  0.00  0.00     0.187 S 
ATOM     14  O   UNL d   1       1.283   2.939   1.163  0.00  0.00    -0.222 OA
ATOM     15  O   UNL d   1       1.098   2.953  -1.366  0.00  0.00    -0.222 OA
ATOM     16  C   UNL d   1      -0.932   3.852   0.056  0.00  0.00     0.168 C 
ENDBRANCH   9  13
ENDBRANCH   1   7
TORSDOF 2
