REMARK  3 active torsions:
REMARK  status: ('A' for Active; 'I' for Inactive)
REMARK    1  A    between atoms: C_3  and  C_1 
REMARK       I    between atoms: N_5  and  C_3 
REMARK    2  A    between atoms: C_10  and  N_5 
REMARK    3  A    between atoms: O_21  and  C_18 
ROOT
ATOM      1  C   UNL d   1      -3.814  -0.139  -0.136  0.00  0.00     0.273 C 
ATOM      2  N   UNL d   1      -4.449  -1.361  -0.165  0.00  0.00    -0.308 N 
ATOM      3  O   UNL d   1      -4.355   0.961  -0.087  0.00  0.00    -0.266 OA
ATOM      4  H   UNL d   1      -3.874  -2.186  -0.196  0.00  0.00     0.170 HD
ENDROOT
BRANCH   1   5
ATOM      5  C   UNL d   1      -2.363  -0.225  -0.144  0.00  0.00     0.102 A 
ATOM      6  N   UNL d   1      -1.589   0.910  -0.018  0.00  0.00    -0.351 N 
ATOM      7  C   UNL d   1      -0.250   0.603  -0.019  0.00  0.00     0.043 A 
ATOM      8  H   UNL d   1      -1.980   1.839   0.078  0.00  0.00     0.166 HD
ATOM      9  C   UNL d   1       0.874   1.428   0.096  0.00  0.00     0.033 A 
ATOM     10  C   UNL d   1      -0.154  -0.778  -0.162  0.00  0.00    -0.004 A 
ATOM     11  C   UNL d   1       2.136   0.816   0.070  0.00  0.00     0.039 A 
ATOM     12  C   UNL d   1       2.266  -0.567  -0.064  0.00  0.00     0.069 A 
ATOM     13  C   UNL d   1       1.123  -1.368  -0.185  0.00  0.00     0.050 A 
ATOM     14  C   UNL d   1      -1.479  -1.287  -0.252  0.00  0.00     0.049 A 
BRANCH  12  15
ATOM     15  O   UNL d   1       3.443  -1.266  -0.092  0.00  0.00    -0.356 OA
ATOM     16  C   UNL d   1       4.644  -0.519   0.046  0.00  0.00     0.210 C 
ENDBRANCH  12  15
ENDBRANCH   1   5
BRANCH   2  17
ATOM     17  C   UNL d   1      -5.831  -1.561  -0.078  0.00  0.00     0.108 A 
ATOM     18  N   UNL d   1      -6.672  -0.518   0.004  0.00  0.00    -0.345 N 
ATOM     19  C   UNL d   1      -8.005  -0.745   0.137  0.00  0.00     0.024 A 
ATOM     20  HN  UNL d   1      -6.314   0.437  -0.035  1.00  0.00     0.167 HD
ATOM     21  C   UNL d   1      -8.858   0.484   0.229  0.00  0.00     0.069 C 
ATOM     22  C   UNL d   1      -8.531  -2.033   0.198  0.00  0.00     0.033 A 
ATOM     23  C   UNL d   1      -7.656  -3.110   0.094  0.00  0.00     0.025 A 
ATOM     24 BR   UNL d   1     -10.376  -2.385   0.428  0.00  0.00    -0.049 Br
ATOM     25  C   UNL d   1      -6.289  -2.873  -0.050  0.00  0.00     0.050 A 
ENDBRANCH   2  17
TORSDOF 3
