REMARK  7 active torsions:
REMARK  status: ('A' for Active; 'I' for Inactive)
REMARK    1  A    between atoms: C_8  and  C_3 
REMARK    2  A    between atoms: C_6  and  C_9 
REMARK    3  A    between atoms: C_7  and  C_10 
REMARK    4  A    between atoms: C_24  and  C_11 
REMARK    5  A    between atoms: C_16  and  C_25 
REMARK    6  A    between atoms: O_26  and  C_16 
REMARK    7  A    between atoms: C_25  and  C_24 
ROOT
ATOM      1  C   UNL d   1       0.535   2.538  -0.009  0.00  0.00     0.011 A 
ATOM      2  C   UNL d   1       0.154   4.793   0.858  0.00  0.00     0.049 A 
ATOM      3  C   UNL d   1       1.513   4.472  -1.147  0.00  0.00     0.049 A 
ATOM      4  C   UNL d   1       0.935   5.315  -0.185  0.00  0.00     0.032 A 
ATOM      5  C   UNL d   1       1.310   3.084  -1.044  0.00  0.00     0.031 A 
ATOM      6  C   UNL d   1      -0.031   3.403   0.939  0.00  0.00     0.031 A 
ENDROOT
BRANCH   1   7
ATOM      7  C   UNL d   1       0.303   1.098   0.059  0.00  0.00     0.137 A 
ATOM      8  N   UNL d   1       0.848   0.222  -0.854  0.00  0.00    -0.323 N 
ATOM      9  C   UNL d   1       0.386  -0.938  -0.446  0.00  0.00     0.148 A 
ATOM     10  HN  UNL d   1       1.457   0.423  -1.647  1.00  0.00     0.169 HD
ATOM     11  O   UNL d   1      -0.408  -0.846   0.656  0.00  0.00    -0.223 OA
ATOM     12  N   UNL d   1      -0.458   0.504   0.993  0.00  0.00    -0.242 N 
ATOM     13  HN  UNL d   1      -0.957   0.940   1.769  1.00  0.00     0.196 HD
BRANCH   9  14
ATOM     14  C   UNL d   1       0.621  -2.292  -0.995  0.00  0.00     0.097 C 
BRANCH  14  15
ATOM     15  C   UNL d   1       1.998  -2.374  -1.645  0.00  0.00     0.118 C 
BRANCH  15  16
ATOM     16  C   UNL d   1       2.257  -3.750  -2.192  0.00  0.00     0.139 C 
ATOM     17  O   UNL d   1       1.481  -4.687  -2.126  0.00  0.00    -0.650 OA
BRANCH  16  18
ATOM     18  O   UNL d   1       3.474  -3.850  -2.777  0.00  0.00    -0.776 OA
ATOM     19  H   UNL d   1       3.995  -3.024  -2.764  0.00  0.00     0.167 HD
ENDBRANCH  16  18
ENDBRANCH  15  16
ENDBRANCH  14  15
ENDBRANCH   9  14
ENDBRANCH   1   7
BRANCH   3  20
ATOM     20  C   UNL d   1       2.318   5.035  -2.295  0.00  0.00     0.417 C 
ATOM     21  F   UNL d   1       2.392   6.395  -2.288  0.00  0.00    -0.166 F 
ATOM     22  F   UNL d   1       3.604   4.590  -2.299  0.00  0.00    -0.166 F 
ATOM     23  F   UNL d   1       1.798   4.696  -3.506  0.00  0.00    -0.166 F 
ENDBRANCH   3  20
BRANCH   2  24
ATOM     24  C   UNL d   1      -0.509   5.698   1.869  0.00  0.00     0.417 C 
ATOM     25  F   UNL d   1      -0.274   7.020   1.647  0.00  0.00    -0.166 F 
ATOM     26  F   UNL d   1      -1.863   5.556   1.877  0.00  0.00    -0.166 F 
ATOM     27  F   UNL d   1      -0.095   5.451   3.141  0.00  0.00    -0.166 F 
ENDBRANCH   2  24
TORSDOF 7
