REMARK  2 active torsions:
REMARK  status: ('A' for Active; 'I' for Inactive)
REMARK       I    between atoms: N_2  and  C_1 
REMARK       I    between atoms: N_4  and  C_1 
REMARK    1  A    between atoms: C_3  and  N_2 
REMARK    2  A    between atoms: C_6  and  N_4 
ROOT
ATOM      1  C   UNL d   1       1.112   0.894  -1.389  0.00  0.00     0.321 C 
ATOM      2  N   UNL d   1       2.430   0.488  -1.353  0.00  0.00    -0.306 N 
ATOM      3  N   UNL d   1       0.289  -0.127  -0.973  0.00  0.00    -0.338 N 
ATOM      4  O   UNL d   1       0.705   1.978  -1.780  0.00  0.00    -0.247 OA
ATOM      5  H   UNL d   1       2.555  -0.492  -1.574  0.00  0.00     0.171 HD
ATOM      6  H   UNL d   1       0.677  -0.718  -0.252  0.00  0.00     0.164 HD
ENDROOT
BRANCH   2   7
ATOM      7  C   UNL d   1       3.512   1.323  -1.702  0.00  0.00     0.075 A 
ATOM      8  C   UNL d   1       4.569   0.763  -2.430  0.00  0.00     0.146 A 
ATOM      9  C   UNL d   1       5.652   1.530  -2.837  0.00  0.00     0.086 A 
ATOM     10  F   UNL d   1       4.515  -0.532  -2.782  0.00  0.00    -0.204 F 
ATOM     11  C   UNL d   1       5.696   2.867  -2.468  0.00  0.00     0.119 A 
ATOM     12  C   UNL d   1       4.677   3.440  -1.711  0.00  0.00     0.044 A 
ATOM     13  F   UNL d   1       6.738   3.618  -2.846  0.00  0.00    -0.206 F 
ATOM     14  C   UNL d   1       3.573   2.669  -1.334  0.00  0.00     0.036 A 
ENDBRANCH   2   7
BRANCH   3  15
ATOM     15  C   UNL d   1      -1.164  -0.049  -1.087  0.00  0.00     0.094 C 
ATOM     16  C   UNL d   1      -1.815   1.177  -0.404  0.00  0.00     0.064 C 
ATOM     17  C   UNL d   1      -3.128   0.625   0.055  0.00  0.00    -0.050 A 
ATOM     18  C   UNL d   1      -4.223   1.331   0.529  0.00  0.00     0.007 A 
ATOM     19  C   UNL d   1      -3.136  -0.771   0.015  0.00  0.00    -0.050 A 
ATOM     20  C   UNL d   1      -5.336   0.610   0.971  0.00  0.00     0.001 A 
ATOM     21  C   UNL d   1      -5.340  -0.792   0.945  0.00  0.00     0.001 A 
ATOM     22  C   UNL d   1      -4.231  -1.496   0.467  0.00  0.00     0.007 A 
ATOM     23  C   UNL d   1      -1.841  -1.308  -0.494  0.00  0.00     0.064 C 
ENDBRANCH   3  15
TORSDOF 2
