REMARK  3 active torsions:
REMARK  status: ('A' for Active; 'I' for Inactive)
REMARK    1  A    between atoms: S_5  and  C_1 
REMARK    2  A    between atoms: C_4  and  C_3 
REMARK       I    between atoms: N_8  and  C_4 
REMARK    3  A    between atoms: C_9  and  S_5 
ROOT
ATOM      1  C   UNL d   1       1.441  -1.280  -0.376  0.00  0.00     0.017 A 
ATOM      2  C   UNL d   1       0.108  -0.766  -0.169  0.00  0.00     0.007 A 
ATOM      3  C   UNL d   1      -1.157  -1.463  -0.162  0.00  0.00     0.044 A 
ATOM      4  C   UNL d   1       0.025   0.648   0.030  0.00  0.00    -0.024 A 
ATOM      5  C   UNL d   1       2.574  -0.448  -0.246  0.00  0.00     0.020 A 
ATOM      6  C   UNL d   1      -2.379  -0.762  -0.061  0.00  0.00     0.018 A 
ATOM      7  C   UNL d   1       2.444   0.902   0.010  0.00  0.00     0.002 A 
ATOM      8  C   UNL d   1      -2.407   0.614   0.072  0.00  0.00     0.002 A 
ATOM      9  C   UNL d   1       1.176   1.447   0.122  0.00  0.00     0.012 A 
ATOM     10  C   UNL d   1      -1.208   1.307   0.135  0.00  0.00     0.012 A 
ENDROOT
BRANCH   1  11
ATOM     11  S   UNL d   1       1.843  -2.957  -0.861  0.00  0.00    -0.090 SA
BRANCH  11  12
ATOM     12  C   UNL d   1       1.944  -2.916  -2.644  0.00  0.00     0.005 A 
ATOM     13  C   UNL d   1       1.828  -1.762  -3.428  0.00  0.00     0.019 A 
ATOM     14  C   UNL d   1       1.946  -1.831  -4.820  0.00  0.00     0.001 A 
ATOM     15  C   UNL d   1       2.177  -3.054  -5.445  0.00  0.00     0.000 A 
ATOM     16  C   UNL d   1       2.291  -4.210  -4.679  0.00  0.00     0.001 A 
ATOM     17  C   UNL d   1       2.177  -4.140  -3.288  0.00  0.00     0.019 A 
ENDBRANCH  11  12
ENDBRANCH   1  11
BRANCH   3  18
ATOM     18  C   UNL d   1      -1.370  -2.940  -0.184  0.00  0.00     0.252 C 
ATOM     19  O   UNL d   1      -2.255  -3.417  -0.889  0.00  0.00    -0.268 OA
ATOM     20  N   UNL d   1      -0.640  -3.692   0.711  0.00  0.00    -0.361 N 
ATOM     21  C   UNL d   1      -0.788  -5.126   0.737  0.00  0.00     0.149 C 
ATOM     22  H   UNL d   1       0.215  -3.293   1.078  0.00  0.00     0.162 HD
ENDBRANCH   3  18
TORSDOF 3
