REMARK  3 active torsions:
REMARK  status: ('A' for Active; 'I' for Inactive)
REMARK    1  A    between atoms: C_2  and  C_1 
REMARK       I    between atoms: N_5  and  C_2 
REMARK    2  A    between atoms: C_4  and  C_9 
REMARK    3  A    between atoms: C_10  and  N_8 
ROOT
ATOM      1  C   UNL d   1       1.641   2.602  -0.096  0.00  0.00     0.256 C 
ATOM      2  N   UNL d   1       1.107   3.892  -0.225  0.00  0.00    -0.345 N 
ATOM      3  N   UNL d   1      -0.180   6.390  -0.571  0.00  0.00    -0.364 N 
ATOM      4  O   UNL d   1       1.321   1.868   0.841  0.00  0.00    -0.267 OA
ATOM      5  C   UNL d   1       0.159   4.366   0.800  0.00  0.00     0.146 C 
ATOM      6  C   UNL d   1       1.724   4.987  -1.001  0.00  0.00     0.146 C 
ATOM      7  C   UNL d   1       0.646   5.867  -1.654  0.00  0.00     0.144 C 
ATOM      8  C   UNL d   1      -0.865   5.383   0.245  0.00  0.00     0.144 C 
ENDROOT
BRANCH   3   9
ATOM      9  C   UNL d   1      -0.483   7.727  -0.550  0.00  0.00     0.103 A 
ATOM     10  N   UNL d   1      -0.525   8.402  -1.719  0.00  0.00    -0.352 N 
ATOM     11  C   UNL d   1      -0.759   9.736  -1.694  0.00  0.00     0.106 A 
ATOM     12  HN  UNL d   1      -0.382   7.917  -2.605  1.00  0.00     0.166 HD
ATOM     13  C   UNL d   1      -0.927  10.469  -0.533  0.00  0.00     0.063 A 
ATOM     14  C   UNL d   1      -0.854   9.773   0.671  0.00  0.00     0.021 A 
ATOM     15  C   UNL d   1      -0.645   8.396   0.659  0.00  0.00     0.049 A 
BRANCH  13  16
ATOM     16  C   UNL d   1      -1.167  11.944  -0.574  0.00  0.00     0.418 C 
ATOM     17  F   UNL d   1      -1.246  12.453  -1.834  0.00  0.00    -0.166 F 
ATOM     18  F   UNL d   1      -2.328  12.297   0.044  0.00  0.00    -0.166 F 
ATOM     19  F   UNL d   1      -0.183  12.648   0.051  0.00  0.00    -0.166 F 
ENDBRANCH  13  16
ENDBRANCH   3   9
BRANCH   1  20
ATOM     20  C   UNL d   1       2.595   2.162  -1.105  0.00  0.00     0.063 C 
ATOM     21  C   UNL d   1       3.696   1.353  -0.876  0.00  0.00     0.065 C 
ATOM     22  O   UNL d   1       4.455   1.250  -2.007  0.00  0.00    -0.319 OA
ATOM     23  C   UNL d   1       4.236   0.643   0.304  0.00  0.00     0.077 C 
ATOM     24  C   UNL d   1       3.811   1.939  -2.986  0.00  0.00     0.050 C 
ATOM     25  C   UNL d   1       2.611   2.413  -2.513  0.00  0.00     0.051 C 
ATOM     26  C   UNL d   1       4.510   2.062  -4.279  0.00  0.00     0.076 C 
ENDBRANCH   1  20
TORSDOF 3
