REMARK  1 active torsions:
REMARK  status: ('A' for Active; 'I' for Inactive)
REMARK       I    between atoms: N_3  and  C_1 
REMARK       I    between atoms: N_5  and  C_1 
REMARK    1  A    between atoms: C_8  and  N_5 
ROOT
ATOM      1  C   UNL d   1       1.138   0.132  -1.023  0.00  0.00     0.685 C 
ATOM      2  C   UNL d   1       2.738  -0.755   0.571  0.00  0.00     0.196 C 
ATOM      3  N   UNL d   1       2.441  -0.103  -0.680  0.00  0.00    -0.126 N 
ATOM      4  N   UNL d   1       2.987  -1.304   1.560  0.00  0.00    -0.171 NA
ATOM      5  N   UNL d   1       0.230  -0.811  -0.620  0.00  0.00    -0.192 N 
ATOM      6  N   UNL d   1       0.836   1.163  -1.745  0.00  0.00    -0.234 N 
ATOM      7  HN  UNL d   1      -0.113   1.396  -2.039  1.00  0.00     0.174 HD
ATOM      8  H   UNL d   1       3.080   0.644  -0.908  0.00  0.00     0.197 HD
ATOM      9  H   UNL d   1       0.593  -1.707  -0.324  0.00  0.00     0.184 HD
ATOM     10  H   UNL d   1       1.658   1.715  -1.986  0.00  0.00     0.174 HD
ENDROOT
BRANCH   5  11
ATOM     11  C   UNL d   1      -1.175  -0.781  -0.701  0.00  0.00     0.049 A 
ATOM     12  C   UNL d   1      -1.872  -2.002  -0.711  0.00  0.00     0.032 A 
ATOM     13  C   UNL d   1      -3.268  -2.042  -0.791  0.00  0.00     0.026 A 
ATOM     14  C   UNL d   1      -3.987  -0.854  -0.861  0.00  0.00     0.034 A 
ATOM     15  C   UNL d   1      -3.320   0.367  -0.873  0.00  0.00     0.026 A 
ATOM     16 CL   UNL d   1      -5.705  -0.897  -0.931  0.00  0.00    -0.084 Cl
ATOM     17  C   UNL d   1      -1.922   0.399  -0.804  0.00  0.00     0.032 A 
ENDBRANCH   5  11
TORSDOF 1
