REMARK  5 active torsions:
REMARK  status: ('A' for Active; 'I' for Inactive)
REMARK    1  A    between atoms: C_5  and  C_1 
REMARK    2  A    between atoms: O_18  and  C_2 
REMARK    3  A    between atoms: C_4  and  O_11 
REMARK    4  A    between atoms: O_19  and  C_5 
REMARK    5  A    between atoms: O_11  and  C_12 
ROOT
ATOM      1  C   UNL d   1      -2.348  -0.342  -0.034  0.00  0.00     0.087 A 
ATOM      2  C   UNL d   1      -1.455   0.728  -0.097  0.00  0.00     0.096 A 
ATOM      3  C   UNL d   1      -0.059   0.504  -0.098  0.00  0.00     0.028 A 
ATOM      4  N   UNL d   1      -0.485  -1.875   0.002  0.00  0.00    -0.364 N 
ATOM      5  HN  UNL d   1      -0.140  -2.834   0.021  1.00  0.00     0.165 HD
ATOM      6  C   UNL d   1      -1.813  -1.615   0.023  0.00  0.00     0.109 A 
ATOM      7  C   UNL d   1       0.368  -0.838  -0.044  0.00  0.00     0.045 A 
ATOM      8  C   UNL d   1       0.903   1.547  -0.111  0.00  0.00     0.053 A 
ATOM      9  C   UNL d   1       2.263   1.260  -0.006  0.00  0.00     0.079 A 
ATOM     10  C   UNL d   1       1.728  -1.101  -0.017  0.00  0.00     0.033 A 
ATOM     11  C   UNL d   1       2.671  -0.071   0.002  0.00  0.00     0.039 A 
ENDROOT
BRANCH   9  12
ATOM     12  O   UNL d   1       3.279   2.160   0.058  0.00  0.00    -0.255 OA
BRANCH  12  13
ATOM     13  C   UNL d   1       3.049   3.436   0.643  0.00  0.00     0.530 C 
ATOM     14  F   UNL d   1       1.917   3.504   1.376  0.00  0.00    -0.144 F 
ATOM     15  F   UNL d   1       4.085   3.725   1.462  0.00  0.00    -0.144 F 
ATOM     16  F   UNL d   1       3.003   4.373  -0.327  0.00  0.00    -0.144 F 
ENDBRANCH  12  13
ENDBRANCH   9  12
BRANCH   2  17
ATOM     17  O   UNL d   1      -1.916   2.023  -0.139  0.00  0.00    -0.359 OA
ATOM     18  H   UNL d   1      -2.540   2.148   0.605  0.00  0.00     0.217 HD
ENDBRANCH   2  17
BRANCH   1  19
ATOM     19  C   UNL d   1      -3.812  -0.208   0.015  0.00  0.00     0.180 C 
ATOM     20  O   UNL d   1      -4.529  -1.016   0.576  0.00  0.00    -0.646 OA
BRANCH  19  21
ATOM     21  O   UNL d   1      -4.285   0.891  -0.609  0.00  0.00    -0.773 OA
ATOM     22  H   UNL d   1      -3.618   1.377  -1.135  0.00  0.00     0.167 HD
ENDBRANCH  19  21
ENDBRANCH   1  19
TORSDOF 5
