REMARK  7 active torsions:
REMARK  status: ('A' for Active; 'I' for Inactive)
REMARK    1  A    between atoms: N_5  and  C_1 
REMARK    2  A    between atoms: N_7  and  N_5 
REMARK       I    between atoms: C_6  and  N_7 
REMARK    3  A    between atoms: C_14  and  C_6 
REMARK    4  A    between atoms: C_8  and  C_15 
REMARK    5  A    between atoms: O_16  and  C_8 
REMARK    6  A    between atoms: C_11  and  C_14 
REMARK    7  A    between atoms: C_15  and  C_11 
ROOT
ATOM      1  C   UNL d   1      -0.088  -1.109  -0.110  0.00  0.00     0.119 A 
ATOM      2  C   UNL d   1       0.421   0.004  -0.787  0.00  0.00     0.084 A 
ATOM      3  C   UNL d   1       1.685  -0.027  -1.440  0.00  0.00     0.103 C 
ATOM      4  N   UNL d   1       2.753  -0.086  -1.894  0.00  0.00    -0.191 NA
ATOM      5  N   UNL d   1      -1.305  -1.061   0.487  0.00  0.00    -0.354 N 
ATOM      6  HN  UNL d   1      -1.673  -1.872   0.985  1.00  0.00     0.166 HD
ATOM      7  C   UNL d   1      -0.339   1.179  -0.846  0.00  0.00     0.027 A 
ATOM      8  C   UNL d   1      -2.023   0.084   0.410  0.00  0.00     0.089 A 
ATOM      9  C   UNL d   1      -1.589   1.220  -0.244  0.00  0.00     0.019 A 
ENDROOT
BRANCH   1  10
ATOM     10  N   UNL d   1       0.505  -2.388  -0.115  0.00  0.00    -0.186 NA
ATOM     11  H   UNL d   1      -0.081  -2.983   0.483  0.00  0.00     0.154 HD
BRANCH  10  12
ATOM     12  N   UNL d   1       1.876  -2.509   0.230  0.00  0.00    -0.286 N 
ATOM     13  C   UNL d   1       2.325  -3.824   0.333  0.00  0.00     0.232 C 
ATOM     14  O   UNL d   1       1.571  -4.791   0.380  0.00  0.00    -0.272 OA
ATOM     15  H   UNL d   1       2.522  -1.854  -0.206  0.00  0.00     0.184 HD
BRANCH  13  16
ATOM     16  C   UNL d   1       3.846  -3.929   0.340  0.00  0.00     0.113 C 
BRANCH  16  17
ATOM     17  C   UNL d   1       4.445  -5.354   0.497  0.00  0.00    -0.030 C 
ATOM     18  C   UNL d   1       5.986  -5.222   0.526  0.00  0.00     0.016 C 
ATOM     19  C   UNL d   1       4.032  -5.972   1.852  0.00  0.00     0.016 C 
BRANCH  17  20
ATOM     20  C   UNL d   1       4.020  -6.326  -0.634  0.00  0.00     0.119 C 
BRANCH  20  21
ATOM     21  C   UNL d   1       4.315  -5.836  -2.036  0.00  0.00     0.140 C 
ATOM     22  O   UNL d   1       5.439  -5.687  -2.490  0.00  0.00    -0.650 OA
BRANCH  21  23
ATOM     23  O   UNL d   1       3.211  -5.560  -2.761  0.00  0.00    -0.776 OA
ATOM     24  H   UNL d   1       2.367  -5.732  -2.296  0.00  0.00     0.167 HD
ENDBRANCH  21  23
ENDBRANCH  20  21
ENDBRANCH  17  20
ENDBRANCH  16  17
ENDBRANCH  13  16
ENDBRANCH  10  12
ENDBRANCH   1  10
TORSDOF 7
