REMARK  8 active torsions:
REMARK  status: ('A' for Active; 'I' for Inactive)
REMARK    1  A    between atoms: C_2  and  S_1 
REMARK    2  A    between atoms: N_5  and  S_1 
REMARK    3  A    between atoms: C_17  and  N_5 
REMARK       I    between atoms: C_6  and  N_9 
REMARK    4  A    between atoms: C_7  and  C_21 
REMARK    5  A    between atoms: N_9  and  C_16 
REMARK    6  A    between atoms: C_23  and  C_17 
REMARK    7  A    between atoms: S_20  and  C_23 
REMARK    8  A    between atoms: C_21  and  S_20 
ROOT
ATOM      1  S   UNL d   1       0.975  -0.056  -0.108  0.00  0.00     0.258 S 
ATOM      2  O   UNL d   1       0.672   0.036  -1.518  0.00  0.00    -0.201 OA
ATOM      3  O   UNL d   1       0.541  -1.171   0.703  0.00  0.00    -0.201 OA
ENDROOT
BRANCH   1   4
ATOM      4  C   UNL d   1       0.414   1.445   0.657  0.00  0.00     0.079 A 
ATOM      5  C   UNL d   1       0.779   2.683   0.122  0.00  0.00     0.027 A 
ATOM      6  C   UNL d   1       0.357   3.858   0.757  0.00  0.00     0.031 A 
ATOM      7  C   UNL d   1      -0.434   3.802   1.915  0.00  0.00     0.034 A 
ATOM      8  C   UNL d   1      -0.788   2.552   2.430  0.00  0.00     0.031 A 
ATOM      9  C   UNL d   1      -0.369   1.376   1.807  0.00  0.00     0.027 A 
BRANCH   7  10
ATOM     10  N   UNL d   1      -0.842   5.025   2.495  0.00  0.00    -0.328 N 
ATOM     11  C   UNL d   1      -1.630   5.187   3.624  0.00  0.00     0.218 C 
ATOM     12  O   UNL d   1      -2.091   4.298   4.331  0.00  0.00    -0.274 OA
ATOM     13  C   UNL d   1      -1.916   6.629   3.957  0.00  0.00     0.117 C 
ATOM     14  H   UNL d   1      -0.534   5.865   2.022  0.00  0.00     0.169 HD
ENDBRANCH   7  10
ENDBRANCH   1   4
BRANCH   1  15
ATOM     15  N   UNL d   1       2.642   0.049   0.039  0.00  0.00    -0.315 N 
ATOM     16  H   UNL d   1       3.071   0.580  -0.723  0.00  0.00     0.172 HD
BRANCH  15  17
ATOM     17  C   UNL d   1       3.232   0.256   1.372  0.00  0.00     0.142 C 
BRANCH  17  18
ATOM     18  C   UNL d   1       4.755   0.381   1.251  0.00  0.00     0.094 C 
BRANCH  18  19
ATOM     19  S   UNL d   1       5.168   1.730   0.085  0.00  0.00    -0.161 SA
BRANCH  19  20
ATOM     20  C   UNL d   1       6.983   1.674   0.211  0.00  0.00     0.139 C 
BRANCH  20  21
ATOM     21  C   UNL d   1       7.569   2.678  -0.710  0.00  0.00     0.061 A 
ATOM     22  O   UNL d   1       7.741   3.938  -0.213  0.00  0.00    -0.326 OA
ATOM     23  C   UNL d   1       8.240   4.697  -1.222  0.00  0.00     0.142 A 
ATOM     24  C   UNL d   1       8.410   3.940  -2.357  0.00  0.00     0.027 A 
ATOM     25  C   UNL d   1       7.979   2.632  -2.027  0.00  0.00     0.035 A 
ENDBRANCH  20  21
ENDBRANCH  19  20
ENDBRANCH  18  19
ENDBRANCH  17  18
ENDBRANCH  15  17
ENDBRANCH   1  15
TORSDOF 8
