REMARK  2 active torsions:
REMARK  status: ('A' for Active; 'I' for Inactive)
REMARK    1  A    between atoms: C_2  and  C_1 
REMARK    2  A    between atoms: C_10  and  C_6 
ROOT
ATOM      1  C   UNL d   1       2.083  -2.524   0.020  0.00  0.00     0.057 C 
ATOM      2  C   UNL d   1       1.535  -1.439  -0.575  0.00  0.00     0.042 C 
ATOM      3  C   UNL d   1       1.239  -3.502   0.656  0.00  0.00     0.100 C 
ATOM      4  N   UNL d   1       0.555  -4.302   1.144  0.00  0.00    -0.191 NA
ENDROOT
BRANCH   1   5
ATOM      5  C   UNL d   1       3.526  -2.726   0.044  0.00  0.00     0.003 A 
ATOM      6  C   UNL d   1       4.247  -3.994   0.027  0.00  0.00    -0.005 A 
ATOM      7  C   UNL d   1       5.635  -3.790   0.041  0.00  0.00     0.016 A 
ATOM      8  C   UNL d   1       3.803  -5.345  -0.016  0.00  0.00     0.037 A 
ATOM      9  C   UNL d   1       6.557  -4.858   0.028  0.00  0.00     0.021 A 
ATOM     10  S   UNL d   1       6.039  -2.122   0.071  0.00  0.00    -0.100 SA
ATOM     11  C   UNL d   1       6.081  -6.167   0.004  0.00  0.00     0.025 A 
ATOM     12  C   UNL d   1       4.717  -6.404  -0.018  0.00  0.00     0.035 A 
ATOM     13 CL   UNL d   1       4.138  -8.025  -0.051  0.00  0.00    -0.084 Cl
ATOM     14  C   UNL d   1       4.405  -1.657   0.080  0.00  0.00     0.064 A 
ENDBRANCH   1   5
BRANCH   2  15
ATOM     15  C   UNL d   1       0.138  -1.181  -0.609  0.00  0.00     0.006 A 
ATOM     16  S   UNL d   1      -0.627  -0.367   0.697  0.00  0.00    -0.102 SA
ATOM     17  C   UNL d   1      -2.161  -0.469  -0.049  0.00  0.00     0.050 A 
ATOM     18  C   UNL d   1      -2.094  -1.066  -1.287  0.00  0.00     0.008 A 
ATOM     19  C   UNL d   1      -0.765  -1.461  -1.617  0.00  0.00     0.019 A 
ENDBRANCH   2  15
TORSDOF 2
