REMARK  1 active torsions:
REMARK  status: ('A' for Active; 'I' for Inactive)
REMARK    1  A    between atoms: C_11  and  C_3 
ROOT
ATOM      1  N   UNL d   1       0.566   0.755   0.017  0.00  0.00    -0.303 N 
ATOM      2  C   UNL d   1      -0.144  -0.417  -0.012  0.00  0.00     0.123 A 
ATOM      3  C   UNL d   1      -0.088   2.063  -0.026  0.00  0.00     0.242 C 
ATOM      4  N   UNL d   1       0.673  -1.454  -0.032  0.00  0.00    -0.340 N 
ATOM      5  HN  UNL d   1       0.417  -2.441  -0.075  1.00  0.00     0.167 HD
ATOM      6  N   UNL d   1      -1.556   2.051   0.130  0.00  0.00    -0.362 N 
ATOM      7  C   UNL d   1      -1.599  -0.400  -0.017  0.00  0.00     0.035 A 
ATOM      8  C   UNL d   1       1.905   0.468   0.062  0.00  0.00     0.065 A 
ATOM      9  C   UNL d   1      -2.258   0.849   0.014  0.00  0.00     0.043 A 
ATOM     10  C   UNL d   1       1.941  -0.923   0.018  0.00  0.00     0.061 A 
ATOM     11  C   UNL d   1      -2.332  -1.593  -0.040  0.00  0.00     0.017 A 
ATOM     12  C   UNL d   1       3.057   1.260   0.116  0.00  0.00     0.032 A 
ATOM     13  C   UNL d   1      -3.656   0.859   0.084  0.00  0.00     0.030 A 
ATOM     14  C   UNL d   1       3.182  -1.576   0.030  0.00  0.00     0.032 A 
ATOM     15  C   UNL d   1      -3.724  -1.560   0.004  0.00  0.00     0.001 A 
ATOM     16  C   UNL d   1       4.285   0.590   0.128  0.00  0.00     0.002 A 
ATOM     17  C   UNL d   1       4.349  -0.804   0.086  0.00  0.00     0.002 A 
ATOM     18  C   UNL d   1      -4.385  -0.335   0.074  0.00  0.00     0.002 A 
ATOM     19  H   UNL d   1      -2.024   2.882  -0.215  0.00  0.00     0.162 HD
ENDROOT
BRANCH   3  20
ATOM     20  C   UNL d   1       0.333   2.819  -1.288  0.00  0.00     0.052 A 
ATOM     21  N   UNL d   1       0.964   4.014  -1.111  0.00  0.00    -0.366 N 
ATOM     22  C   UNL d   1       1.442   4.642  -2.208  0.00  0.00     0.088 A 
ATOM     23  HN  UNL d   1       1.072   4.421  -0.181  1.00  0.00     0.165 HD
ATOM     24  C   UNL d   1       1.314   4.148  -3.493  0.00  0.00     0.017 A 
ATOM     25  C   UNL d   1       0.637   2.948  -3.670  0.00  0.00     0.003 A 
ATOM     26  C   UNL d   1       0.131   2.276  -2.560  0.00  0.00     0.029 A 
ENDBRANCH   3  20
TORSDOF 1
