REMARK  1 active torsions:
REMARK  status: ('A' for Active; 'I' for Inactive)
REMARK    1  A    between atoms: C_8  and  C_3 
ROOT
ATOM      1  N   UNL d   1      -2.033  -3.714  -2.302  0.00  0.00    -0.197 NA
ATOM      2  C   UNL d   1      -1.889  -3.205  -1.268  0.00  0.00     0.063 C 
ATOM      3  C   UNL d   1      -1.726  -2.622   0.073  0.00  0.00     0.165 C 
ENDROOT
BRANCH   3   4
ATOM      4  C   UNL d   1      -1.261  -1.199   0.013  0.00  0.00    -0.011 A 
ATOM      5  C   UNL d   1      -2.045  -0.052  -0.001  0.00  0.00     0.013 A 
ATOM      6  N   UNL d   1      -1.199   1.030  -0.014  0.00  0.00    -0.359 N 
ATOM      7  C   UNL d   1      -3.520   0.133   0.001  0.00  0.00     0.068 C 
ATOM      8  C   UNL d   1       0.112   0.624  -0.013  0.00  0.00     0.043 A 
ATOM      9  H   UNL d   1      -1.492   1.998  -0.019  0.00  0.00     0.166 HD
ATOM     10  C   UNL d   1       0.109  -0.769  -0.007  0.00  0.00    -0.000 A 
ATOM     11  C   UNL d   1       1.288   1.382  -0.015  0.00  0.00     0.030 A 
ATOM     12  C   UNL d   1       1.349  -1.442  -0.013  0.00  0.00     0.014 A 
ATOM     13  C   UNL d   1       2.536  -0.700  -0.020  0.00  0.00     0.001 A 
ATOM     14  C   UNL d   1       2.503   0.692  -0.019  0.00  0.00     0.002 A 
ENDBRANCH   3   4
TORSDOF 1
