REMARK  6 active torsions:
REMARK  status: ('A' for Active; 'I' for Inactive)
REMARK    1  A    between atoms: C_17  and  C_2 
REMARK    2  A    between atoms: N_19  and  C_6 
REMARK    3  A    between atoms: N_13  and  C_20 
REMARK    4  A    between atoms: C_22  and  N_19 
REMARK    5  A    between atoms: C_20  and  C_21 
REMARK    6  A    between atoms: C_21  and  C_22 
ROOT
ATOM      1  C   UNL d   1       0.204   1.052   0.062  0.00  0.00     0.048 A 
ATOM      2  C   UNL d   1      -1.035   1.835   0.144  0.00  0.00    -0.003 A 
ATOM      3  C   UNL d   1      -2.144   0.997   0.125  0.00  0.00     0.065 A 
ATOM      4  C   UNL d   1      -0.084  -0.309   0.062  0.00  0.00     0.089 A 
ATOM      5  S   UNL d   1      -1.749  -0.655   0.112  0.00  0.00    -0.082 SA
ATOM      6  C   UNL d   1       1.586   1.359  -0.036  0.00  0.00     0.095 A 
ATOM      7  N   UNL d   1       0.787  -1.328   0.014  0.00  0.00    -0.346 N 
ATOM      8  HN  UNL d   1       0.511  -2.310   0.034  1.00  0.00     0.167 HD
ATOM      9  N   UNL d   1       2.479   0.348  -0.102  0.00  0.00    -0.342 N 
ATOM     10  HN  UNL d   1       3.476   0.548  -0.181  1.00  0.00     0.167 HD
ATOM     11  C   UNL d   1       2.046  -0.917  -0.061  0.00  0.00     0.182 A 
ENDROOT
BRANCH   6  12
ATOM     12  N   UNL d   1       2.061   2.669  -0.132  0.00  0.00    -0.278 NA
ATOM     13  H   UNL d   1       1.974   3.106   0.785  0.00  0.00     0.129 HD
BRANCH  12  14
ATOM     14  C   UNL d   1       3.378   2.867  -0.735  0.00  0.00     0.095 C 
BRANCH  14  15
ATOM     15  C   UNL d   1       3.403   2.508  -2.232  0.00  0.00     0.035 C 
BRANCH  15  16
ATOM     16  C   UNL d   1       2.223   3.103  -2.994  0.00  0.00     0.130 C 
BRANCH  16  17
ATOM     17  N   UNL d   1       2.189   2.769  -4.401  0.00  0.00    -0.352 N 
ATOM     18  C   UNL d   1       1.483   1.731  -4.943  0.00  0.00     0.182 A 
ATOM     19  N   UNL d   1       1.522   1.762  -6.256  0.00  0.00    -0.361 N 
ATOM     20  C   UNL d   1       2.267   2.869  -6.568  0.00  0.00     0.106 A 
ATOM     21  HN  UNL d   1       1.089   1.104  -6.904  1.00  0.00     0.166 HD
ATOM     22  C   UNL d   1       2.693   3.512  -5.428  0.00  0.00     0.108 A 
ENDBRANCH  16  17
ENDBRANCH  15  16
ENDBRANCH  14  15
ENDBRANCH  12  14
ENDBRANCH   6  12
BRANCH   2  23
ATOM     23  C   UNL d   1      -1.259   3.290   0.207  0.00  0.00    -0.024 A 
ATOM     24  C   UNL d   1      -0.524   4.184  -0.574  0.00  0.00     0.012 A 
ATOM     25  C   UNL d   1      -0.735   5.564  -0.511  0.00  0.00     0.001 A 
ATOM     26  C   UNL d   1      -1.729   6.076   0.313  0.00  0.00     0.000 A 
ATOM     27  C   UNL d   1      -2.501   5.206   1.076  0.00  0.00     0.001 A 
ATOM     28  C   UNL d   1      -2.260   3.827   1.033  0.00  0.00     0.012 A 
ENDBRANCH   2  23
TORSDOF 6
