REMARK  4 active torsions:
REMARK  status: ('A' for Active; 'I' for Inactive)
REMARK    1  A    between atoms: N_9  and  C_1 
REMARK    2  A    between atoms: N_12  and  C_1 
REMARK    3  A    between atoms: N_3  and  N_9 
REMARK    4  A    between atoms: C_15  and  C_14 
ROOT
ATOM      1  N   UNL d   1      -1.198   1.152   1.031  0.00  0.00    -0.309 N 
ATOM      2  HN  UNL d   1      -1.707   0.424   1.532  1.00  0.00     0.186 HD
ATOM      3  C   UNL d   1      -1.809   2.139   0.460  0.00  0.00     0.118 C 
ENDROOT
BRANCH   3   4
ATOM      4  C   UNL d   1      -3.284   2.213   0.498  0.00  0.00    -0.017 A 
ATOM      5  C   UNL d   1      -3.939   3.273  -0.134  0.00  0.00     0.052 A 
ATOM      6  C   UNL d   1      -5.320   3.265  -0.102  0.00  0.00     0.105 A 
ATOM      7  O   UNL d   1      -6.133   4.193  -0.674  0.00  0.00    -0.323 OA
ATOM      8  C   UNL d   1      -6.032   2.269   0.530  0.00  0.00     0.105 A 
ATOM      9  C   UNL d   1      -7.433   3.640  -0.375  0.00  0.00     0.352 A 
ATOM     10  O   UNL d   1      -7.376   2.447   0.432  0.00  0.00    -0.323 OA
ATOM     11  C   UNL d   1      -5.410   1.223   1.173  0.00  0.00     0.040 A 
ATOM     12  C   UNL d   1      -4.015   1.196   1.153  0.00  0.00     0.016 A 
ENDBRANCH   3   4
BRANCH   1  13
ATOM     13  N   UNL d   1       0.161   1.133   0.928  0.00  0.00    -0.277 N 
ATOM     14  H   UNL d   1       0.661   1.841   0.399  0.00  0.00     0.189 HD
BRANCH  13  15
ATOM     15  C   UNL d   1       0.882   0.108   1.514  0.00  0.00     0.186 C 
ATOM     16  S   UNL d   1       2.537   0.051   1.356  0.00  0.00    -0.040 SA
BRANCH  15  17
ATOM     17  N   UNL d   1       0.081  -0.775   2.189  0.00  0.00    -0.370 N 
ATOM     18  C   UNL d   1       0.433  -1.964   2.927  0.00  0.00     0.148 C 
ATOM     19  H   UNL d   1      -0.897  -0.514   2.117  0.00  0.00     0.161 HD
ENDBRANCH  15  17
ENDBRANCH  13  15
ENDBRANCH   1  13
TORSDOF 4
