REMARK  4 active torsions:
REMARK  status: ('A' for Active; 'I' for Inactive)
REMARK    1  A    between atoms: C_2  and  C_1 
REMARK       I    between atoms: N_4  and  C_2 
REMARK    2  A    between atoms: N_6  and  C_3 
REMARK       I    between atoms: C_9  and  N_4 
REMARK    3  A    between atoms: C_12  and  N_8 
REMARK    4  A    between atoms: C_17  and  C_12 
ROOT
ATOM      1  C   UNL d   1       1.011   0.091  -0.313  0.00  0.00     0.127 C 
ATOM      2  C   UNL d   1       0.251   0.633   0.669  0.00  0.00     0.114 C 
ATOM      3  C   UNL d   1       0.405  -0.425  -1.487  0.00  0.00     0.106 C 
ATOM      4  N   UNL d   1      -0.127  -0.793  -2.457  0.00  0.00    -0.191 NA
ENDROOT
BRANCH   1   5
ATOM      5  C   UNL d   1       2.493   0.259  -0.194  0.00  0.00     0.270 C 
ATOM      6  N   UNL d   1       3.362  -0.249  -1.131  0.00  0.00    -0.293 N 
ATOM      7  C   UNL d   1       3.346  -1.488  -1.756  0.00  0.00     0.220 C 
ATOM      8  H   UNL d   1       4.296   0.077  -0.918  0.00  0.00     0.172 HD
ATOM      9  O   UNL d   1       2.425  -2.292  -1.711  0.00  0.00    -0.274 OA
ATOM     10  C   UNL d   1       4.604  -1.774  -2.542  0.00  0.00     0.117 C 
ATOM     11  O   UNL d   1       2.997   0.884   0.746  0.00  0.00    -0.266 OA
ENDBRANCH   1   5
BRANCH   2  12
ATOM     12  N   UNL d   1      -1.130   0.636   0.837  0.00  0.00    -0.385 N 
ATOM     13  C   UNL d   1      -1.982  -0.551   0.643  0.00  0.00     0.152 C 
ATOM     14  C   UNL d   1      -3.062  -0.267  -0.419  0.00  0.00     0.292 C 
ATOM     15  N   UNL d   1      -3.924   0.902  -0.114  0.00  0.00     0.095 N 
ATOM     16  C   UNL d   1      -3.040   2.073   0.130  0.00  0.00     0.292 C 
ATOM     17  C   UNL d   1      -1.892   1.861   1.161  0.00  0.00     0.152 C 
BRANCH  15  18
ATOM     18  C   UNL d   1      -4.823   0.672   1.029  0.00  0.00     0.311 C 
BRANCH  18  19
ATOM     19  C   UNL d   1      -5.731  -0.531   0.869  0.00  0.00    -0.030 A 
ATOM     20  C   UNL d   1      -5.611  -1.632   1.732  0.00  0.00     0.009 A 
ATOM     21  C   UNL d   1      -6.436  -2.747   1.579  0.00  0.00     0.001 A 
ATOM     22  C   UNL d   1      -7.392  -2.774   0.566  0.00  0.00     0.000 A 
ATOM     23  C   UNL d   1      -7.518  -1.690  -0.301  0.00  0.00     0.001 A 
ATOM     24  C   UNL d   1      -6.691  -0.574  -0.152  0.00  0.00     0.009 A 
ENDBRANCH  18  19
ENDBRANCH  15  18
ENDBRANCH   2  12
TORSDOF 4
