REMARK  6 active torsions:
REMARK  status: ('A' for Active; 'I' for Inactive)
REMARK    1  A    between atoms: C_11  and  N_1 
REMARK    2  A    between atoms: N_4  and  C_14 
REMARK    3  A    between atoms: C_15  and  N_6 
REMARK    4  A    between atoms: C_8  and  C_11 
REMARK    5  A    between atoms: C_9  and  C_8 
REMARK    6  A    between atoms: O_18  and  C_9 
ROOT
ATOM      1  N   UNL d   1      -1.151   1.359  -0.118  0.00  0.00    -0.380 N 
ATOM      2  C   UNL d   1       0.065   0.693  -0.051  0.00  0.00     0.036 A 
ATOM      3  C   UNL d   1       0.105  -0.714   0.022  0.00  0.00    -0.029 A 
ATOM      4  C   UNL d   1       1.291   1.373  -0.075  0.00  0.00     0.032 A 
ATOM      5  C   UNL d   1       1.340  -1.393   0.062  0.00  0.00     0.040 A 
ATOM      6  C   UNL d   1       2.554  -0.701   0.027  0.00  0.00     0.048 A 
ATOM      7  C   UNL d   1       2.513   0.693  -0.043  0.00  0.00     0.033 A 
ATOM      8  C   UNL d   1      -2.334   0.651   0.361  0.00  0.00     0.123 C 
ATOM      9  C   UNL d   1      -1.167  -1.529   0.072  0.00  0.00     0.042 C 
ATOM     10  C   UNL d   1      -2.404  -0.717  -0.295  0.00  0.00     0.024 C 
ENDROOT
BRANCH   6  11
ATOM     11  N   UNL d   1       3.751  -1.442  -0.009  0.00  0.00    -0.300 N 
ATOM     12  N   UNL d   1       4.674  -0.896   0.632  0.00  0.00    -0.300 N 
ATOM     13  HN  UNL d   1       4.569  -0.029   1.159  1.00  0.00     0.187 HD
ATOM     14  HN  UNL d   1       3.853  -2.327  -0.505  1.00  0.00     0.187 HD
BRANCH  12  15
ATOM     15  C   UNL d   1       5.881  -1.623   0.540  0.00  0.00     0.048 A 
ATOM     16  C   UNL d   1       7.088  -0.912   0.518  0.00  0.00     0.032 A 
ATOM     17  C   UNL d   1       8.315  -1.579   0.439  0.00  0.00     0.021 A 
ATOM     18  C   UNL d   1       8.340  -2.972   0.387  0.00  0.00     0.011 A 
ATOM     19  C   UNL d   1       7.154  -3.699   0.422  0.00  0.00     0.021 A 
ATOM     20 BR   UNL d   1       9.993  -3.879   0.270  0.00  0.00    -0.051 Br
ATOM     21  C   UNL d   1       5.932  -3.025   0.504  0.00  0.00     0.032 A 
ENDBRANCH  12  15
ENDBRANCH   6  11
BRANCH   1  22
ATOM     22  C   UNL d   1      -1.294   2.708  -0.678  0.00  0.00     0.133 C 
BRANCH  22  23
ATOM     23  C   UNL d   1      -0.979   2.722  -2.174  0.00  0.00     0.131 C 
BRANCH  23  24
ATOM     24  C   UNL d   1      -1.106   4.114  -2.729  0.00  0.00     0.259 C 
ATOM     25  O   UNL d   1      -1.445   5.102  -2.093  0.00  0.00    -0.265 OA
BRANCH  24  26
ATOM     26  O   UNL d   1      -0.782   4.111  -4.053  0.00  0.00    -0.326 OA
ATOM     27  C   UNL d   1      -0.858   5.394  -4.676  0.00  0.00     0.213 C 
ENDBRANCH  24  26
ENDBRANCH  23  24
ENDBRANCH  22  23
ENDBRANCH   1  22
TORSDOF 6
