REMARK  4 active torsions:
REMARK  status: ('A' for Active; 'I' for Inactive)
REMARK    1  A    between atoms: N_10  and  C_1 
REMARK    2  A    between atoms: C_8  and  C_6 
REMARK    3  A    between atoms: C_14  and  O_17 
REMARK    4  A    between atoms: O_17  and  C_25 
ROOT
ATOM      1  C   UNL d   1       0.867   1.495  -0.154  0.00  0.00     0.046 A 
ATOM      2  C   UNL d   1      -0.256   0.730   0.351  0.00  0.00     0.039 A 
ATOM      3  C   UNL d   1       0.001  -0.645   0.605  0.00  0.00     0.048 A 
ATOM      4  N   UNL d   1       1.149  -1.258   0.314  0.00  0.00    -0.351 N 
ATOM      5  HN  UNL d   1       1.266  -2.251   0.516  1.00  0.00     0.166 HD
ATOM      6  C   UNL d   1       2.158  -0.556  -0.249  0.00  0.00     0.119 A 
ATOM      7  C   UNL d   1       2.061   0.814  -0.447  0.00  0.00     0.064 A 
ATOM      8  C   UNL d   1      -1.607   1.151   0.594  0.00  0.00     0.050 A 
ATOM      9  C   UNL d   1      -2.566   0.308   1.169  0.00  0.00     0.048 A 
ATOM     10  C   UNL d   1      -0.967  -1.467   1.154  0.00  0.00     0.054 A 
ATOM     11  C   UNL d   1      -2.233  -0.999   1.458  0.00  0.00     0.037 A 
ATOM     12 CL   UNL d   1      -2.246   2.675   0.082  0.00  0.00    -0.083 Cl
ATOM     13 CL   UNL d   1      -3.407  -2.055   2.137  0.00  0.00    -0.084 Cl
ENDROOT
BRANCH   1  14
ATOM     14  N   UNL d   1       0.788   2.887  -0.378  0.00  0.00    -0.380 N 
ATOM     15  C   UNL d   1       1.613   3.469  -1.448  0.00  0.00     0.125 C 
ATOM     16  C   UNL d   1       0.951   4.758  -1.910  0.00  0.00     0.052 C 
ATOM     17  C   UNL d   1       0.680   5.739  -0.766  0.00  0.00     0.135 C 
ATOM     18  C   UNL d   1       0.188   5.088   0.531  0.00  0.00     0.052 C 
ATOM     19  C   UNL d   1       0.820   3.724   0.836  0.00  0.00     0.125 C 
BRANCH  17  20
ATOM     20  O   UNL d   1       1.876   6.506  -0.502  0.00  0.00    -0.316 OA
BRANCH  20  21
ATOM     21  C   UNL d   1       1.648   7.789  -0.089  0.00  0.00     0.255 C 
ATOM     22  O   UNL d   1       0.549   8.291   0.107  0.00  0.00    -0.266 OA
ATOM     23  C   UNL d   1       2.936   8.514   0.149  0.00  0.00     0.126 C 
ENDBRANCH  20  21
ENDBRANCH  17  20
ENDBRANCH   1  14
BRANCH   6  24
ATOM     24  C   UNL d   1       3.418  -1.283  -0.698  0.00  0.00     0.432 C 
ATOM     25  F   UNL d   1       3.341  -2.641  -0.618  0.00  0.00    -0.165 F 
ATOM     26  F   UNL d   1       3.737  -1.009  -1.998  0.00  0.00    -0.165 F 
ATOM     27  F   UNL d   1       4.516  -0.925   0.029  0.00  0.00    -0.165 F 
ENDBRANCH   6  24
TORSDOF 4
