REMARK  3 active torsions:
REMARK  status: ('A' for Active; 'I' for Inactive)
REMARK    1  A    between atoms: C_2  and  C_1 
REMARK       I    between atoms: N_4  and  C_2 
REMARK       I    between atoms: C_3  and  N_5 
REMARK    2  A    between atoms: C_6  and  C_3 
REMARK    3  A    between atoms: N_5  and  N_4 
ROOT
ATOM      1  C   UNL d   1       6.758   1.285  -0.168  0.00  0.00     0.270 C 
ATOM      2  N   UNL d   1       5.410   1.298   0.121  0.00  0.00    -0.263 N 
ATOM      3  O   UNL d   1       7.332   0.265  -0.547  0.00  0.00    -0.266 OA
ATOM      4  H   UNL d   1       4.920   2.054   0.597  0.00  0.00     0.190 HD
ENDROOT
BRANCH   2   5
ATOM      5  N   UNL d   1       4.680   0.117  -0.067  0.00  0.00    -0.263 N 
ATOM      6  C   UNL d   1       3.415   0.051   0.482  0.00  0.00     0.271 C 
ATOM      7  O   UNL d   1       2.955   0.980   1.147  0.00  0.00    -0.266 OA
ATOM      8  H   UNL d   1       5.169  -0.623  -0.565  0.00  0.00     0.190 HD
BRANCH   6   9
ATOM      9  C   UNL d   1       2.598  -1.166   0.243  0.00  0.00     0.050 A 
ATOM     10  C   UNL d   1       1.349  -1.268   0.870  0.00  0.00     0.039 A 
ATOM     11  C   UNL d   1       0.545  -2.377   0.627  0.00  0.00     0.027 A 
ATOM     12 BR   UNL d   1      -1.145  -2.535   1.446  0.00  0.00    -0.050 Br
ATOM     13  C   UNL d   1       1.009  -3.357  -0.235  0.00  0.00     0.106 A 
ATOM     14  N   UNL d   1       2.212  -3.295  -0.855  0.00  0.00    -0.373 N 
ATOM     15  C   UNL d   1       2.977  -2.201  -0.604  0.00  0.00     0.104 A 
ATOM     16  HN  UNL d   1       2.529  -4.036  -1.481  1.00  0.00     0.164 HD
ENDBRANCH   6   9
ENDBRANCH   2   5
BRANCH   1  17
ATOM     17  C   UNL d   1       7.505   2.571  -0.033  0.00  0.00     0.034 A 
ATOM     18  C   UNL d   1       8.905   2.528  -0.065  0.00  0.00     0.030 A 
ATOM     19  C   UNL d   1       9.665   3.713  -0.051  0.00  0.00    -0.009 A 
ATOM     20  C   UNL d   1      11.064   3.696  -0.115  0.00  0.00     0.015 A 
ATOM     21  C   UNL d   1       9.025   4.968   0.012  0.00  0.00     0.042 A 
ATOM     22  C   UNL d   1      11.771   4.892  -0.134  0.00  0.00     0.018 A 
ATOM     23  C   UNL d   1      11.051   6.070  -0.079  0.00  0.00     0.088 A 
ATOM     24  N   UNL d   1       9.704   6.127  -0.001  0.00  0.00    -0.365 N 
ATOM     25  HN  UNL d   1       9.217   7.022   0.047  1.00  0.00     0.165 HD
ATOM     26  C   UNL d   1       7.636   4.990   0.067  0.00  0.00     0.031 A 
ATOM     27  C   UNL d   1       6.871   3.815   0.041  0.00  0.00     0.019 A 
ENDBRANCH   1  17
TORSDOF 3
