REMARK  5 active torsions:
REMARK  status: ('A' for Active; 'I' for Inactive)
REMARK    1  A    between atoms: C_5  and  C_2 
REMARK    2  A    between atoms: C_11  and  C_7 
REMARK    3  A    between atoms: O_22  and  C_10 
REMARK    4  A    between atoms: O_23  and  C_11 
REMARK    5  A    between atoms: O_25  and  C_20 
ROOT
ATOM      1  C   UNL d   1       0.015   0.614   0.153  0.00  0.00     0.024 A 
ATOM      2  C   UNL d   1      -1.288   1.369  -0.074  0.00  0.00     0.107 A 
ATOM      3  C   UNL d   1       0.016  -0.713   0.389  0.00  0.00     0.021 A 
ATOM      4  C   UNL d   1      -2.548   0.517   0.066  0.00  0.00     0.057 A 
ATOM      5  N   UNL d   1      -1.190  -1.382   0.559  0.00  0.00    -0.362 N 
ATOM      6  C   UNL d   1      -2.438  -0.801   0.360  0.00  0.00     0.023 A 
ATOM      7  C   UNL d   1       1.311   1.360   0.146  0.00  0.00     0.159 C 
ATOM      8  C   UNL d   1      -3.825   1.138  -0.110  0.00  0.00     0.098 C 
ATOM      9  N   UNL d   1      -4.867   1.621  -0.236  0.00  0.00    -0.192 NA
ATOM     10  C   UNL d   1       1.290  -1.533   0.412  0.00  0.00     0.067 C 
ATOM     11  C   UNL d   1       2.524  -0.796  -0.172  0.00  0.00    -0.036 C 
ATOM     12  C   UNL d   1       2.580   0.597   0.458  0.00  0.00     0.092 C 
ATOM     13  O   UNL d   1       1.354   2.569  -0.062  0.00  0.00    -0.293 OA
ATOM     14  C   UNL d   1      -3.643  -1.711   0.383  0.00  0.00     0.069 C 
ATOM     15  C   UNL d   1       2.458  -0.659  -1.706  0.00  0.00     0.015 C 
ATOM     16  C   UNL d   1       3.807  -1.577   0.145  0.00  0.00     0.015 C 
ATOM     17  H   UNL d   1      -1.156  -2.399   0.592  0.00  0.00     0.165 HD
ENDROOT
BRANCH   2  18
ATOM     18  C   UNL d   1      -1.295   2.184  -1.371  0.00  0.00     0.005 A 
ATOM     19  C   UNL d   1      -1.089   1.586  -2.656  0.00  0.00     0.052 A 
ATOM     20  C   UNL d   1      -1.173   2.365  -3.827  0.00  0.00     0.055 A 
ATOM     21  C   UNL d   1      -1.427   3.726  -3.775  0.00  0.00     0.071 A 
ATOM     22  C   UNL d   1      -1.623   4.319  -2.533  0.00  0.00     0.074 A 
ATOM     23  C   UNL d   1      -1.567   3.578  -1.338  0.00  0.00     0.079 A 
BRANCH  19  24
ATOM     24  C   UNL d   1      -0.888   0.123  -2.935  0.00  0.00     0.293 C 
ATOM     25  O   UNL d   1      -1.443  -0.797  -2.375  0.00  0.00    -0.259 OA
BRANCH  24  26
ATOM     26  O   UNL d   1      -0.017  -0.019  -3.978  0.00  0.00    -0.323 OA
ATOM     27  C   UNL d   1       0.168  -1.355  -4.456  0.00  0.00     0.213 C 
ENDBRANCH  24  26
ENDBRANCH  19  24
BRANCH  21  28
ATOM     28  O   UNL d   1      -1.542   4.545  -4.863  0.00  0.00    -0.356 OA
ATOM     29  C   UNL d   1      -1.384   3.931  -6.141  0.00  0.00     0.210 C 
ENDBRANCH  21  28
BRANCH  23  30
ATOM     30  O   UNL d   1      -2.014   4.307  -0.263  0.00  0.00    -0.355 OA
ATOM     31  C   UNL d   1      -1.265   4.351   0.945  0.00  0.00     0.210 C 
ENDBRANCH  23  30
ENDBRANCH   2  18
TORSDOF 5
