REMARK  7 active torsions:
REMARK  status: ('A' for Active; 'I' for Inactive)
REMARK    1  A    between atoms: O_5  and  C_1 
REMARK       I    between atoms: N_6  and  C_1 
REMARK    2  A    between atoms: N_2  and  C_3 
REMARK    3  A    between atoms: C_4  and  O_5 
REMARK    4  A    between atoms: C_8  and  N_6 
REMARK    5  A    between atoms: O_9  and  C_10 
REMARK    6  A    between atoms: C_11  and  O_9 
REMARK    7  A    between atoms: C_16  and  C_11 
ROOT
ATOM      1  C   UNL d   1       0.876  -0.796  -0.317  0.00  0.00     0.370 C 
ATOM      2  N   UNL d   1       0.113  -1.773   0.291  0.00  0.00    -0.302 N 
ATOM      3  O   UNL d   1       2.096  -0.769  -0.158  0.00  0.00    -0.238 OA
ATOM      4  H   UNL d   1       0.624  -2.157   1.077  0.00  0.00     0.171 HD
ENDROOT
BRANCH   2   5
ATOM      5  C   UNL d   1      -1.277  -1.663   0.401  0.00  0.00     0.037 A 
ATOM      6  C   UNL d   1      -2.112  -1.794  -0.712  0.00  0.00     0.032 A 
ATOM      7  C   UNL d   1      -3.480  -1.552  -0.578  0.00  0.00     0.039 A 
ATOM      8  C   UNL d   1      -3.991  -1.130   0.649  0.00  0.00     0.069 A 
ATOM      9  C   UNL d   1      -3.166  -1.096   1.776  0.00  0.00     0.039 A 
ATOM     10  C   UNL d   1      -1.809  -1.378   1.659  0.00  0.00     0.032 A 
BRANCH   8  11
ATOM     11  O   UNL d   1      -5.305  -0.744   0.661  0.00  0.00    -0.347 OA
BRANCH  11  12
ATOM     12  C   UNL d   1      -5.533   0.413   1.476  0.00  0.00     0.214 C 
BRANCH  12  13
ATOM     13  C   UNL d   1      -6.685   1.214   0.933  0.00  0.00    -0.034 A 
ATOM     14  C   UNL d   1      -7.785   1.520   1.748  0.00  0.00     0.009 A 
ATOM     15  C   UNL d   1      -8.817   2.327   1.266  0.00  0.00     0.001 A 
ATOM     16  C   UNL d   1      -8.757   2.838  -0.030  0.00  0.00     0.000 A 
ATOM     17  C   UNL d   1      -7.673   2.541  -0.850  0.00  0.00     0.001 A 
ATOM     18  C   UNL d   1      -6.644   1.735  -0.376  0.00  0.00     0.009 A 
ENDBRANCH  12  13
ENDBRANCH  11  12
ENDBRANCH   8  11
ENDBRANCH   2   5
BRANCH   1  19
ATOM     19  O   UNL d   1       0.144   0.136  -1.038  0.00  0.00    -0.259 OA
BRANCH  19  20
ATOM     20  C   UNL d   1       0.721   0.756  -2.175  0.00  0.00     0.107 A 
ATOM     21  C   UNL d   1       0.220   2.015  -2.577  0.00  0.00     0.064 A 
ATOM     22  C   UNL d   1       0.561   2.425  -3.877  0.00  0.00     0.032 A 
ATOM     23  C   UNL d   1       1.375   1.648  -4.711  0.00  0.00     0.002 A 
ATOM     24  C   UNL d   1       1.893   0.439  -4.263  0.00  0.00     0.003 A 
ATOM     25  C   UNL d   1       1.558  -0.014  -2.997  0.00  0.00     0.040 A 
BRANCH  21  26
ATOM     26  N   UNL d   1      -0.590   2.799  -1.771  0.00  0.00    -0.379 N 
ATOM     27  C   UNL d   1      -0.222   3.064  -0.381  0.00  0.00     0.123 C 
ATOM     28  C   UNL d   1      -1.433   2.758   0.498  0.00  0.00     0.020 C 
ATOM     29  C   UNL d   1      -2.663   3.546   0.038  0.00  0.00     0.003 C 
ATOM     30  C   UNL d   1      -2.918   3.386  -1.464  0.00  0.00     0.020 C 
ATOM     31  C   UNL d   1      -1.659   3.643  -2.298  0.00  0.00     0.123 C 
ENDBRANCH  21  26
ENDBRANCH  19  20
ENDBRANCH   1  19
TORSDOF 7
