REMARK  2 active torsions:
REMARK  status: ('A' for Active; 'I' for Inactive)
REMARK    1  A    between atoms: C_8  and  C_1 
REMARK    2  A    between atoms: C_13  and  C_8 
ROOT
ATOM      1  C   UNL d   1       2.275   0.255  -0.004  0.00  0.00     0.099 C 
ATOM      2  C   UNL d   1       1.274  -0.820   0.186  0.00  0.00     0.268 C 
ATOM      3  N   UNL d   1      -0.057  -0.439   0.060  0.00  0.00    -0.274 N 
ATOM      4  C   UNL d   1       1.806   1.508  -0.036  0.00  0.00     0.111 C 
ATOM      5  N   UNL d   1       0.484   1.868   0.002  0.00  0.00    -0.351 N 
ATOM      6  HN  UNL d   1       0.199   2.847   0.013  1.00  0.00     0.166 HD
ATOM      7  C   UNL d   1      -0.389   0.909   0.022  0.00  0.00     0.114 A 
ATOM      8  C   UNL d   1      -1.043  -1.420   0.051  0.00  0.00     0.102 A 
ATOM      9  O   UNL d   1       1.625  -1.968   0.460  0.00  0.00    -0.267 OA
ATOM     10  C   UNL d   1      -1.839   1.247   0.006  0.00  0.00     0.049 A 
ATOM     11  C   UNL d   1      -2.344  -1.111   0.007  0.00  0.00     0.018 A 
ATOM     12  C   UNL d   1      -2.753   0.267  -0.006  0.00  0.00     0.005 A 
ENDROOT
BRANCH   1  13
ATOM     13  C   UNL d   1       3.751   0.062  -0.102  0.00  0.00     0.199 C 
ATOM     14  O   UNL d   1       4.523   0.969   0.206  0.00  0.00    -0.286 OA
BRANCH  13  15
ATOM     15  C   UNL d   1       4.323  -1.221  -0.594  0.00  0.00     0.015 A 
ATOM     16  C   UNL d   1       3.669  -2.043  -1.520  0.00  0.00     0.015 A 
ATOM     17  C   UNL d   1       4.230  -3.264  -1.897  0.00  0.00     0.001 A 
ATOM     18  C   UNL d   1       5.475  -3.644  -1.401  0.00  0.00     0.000 A 
ATOM     19  C   UNL d   1       6.165  -2.802  -0.531  0.00  0.00     0.001 A 
ATOM     20  C   UNL d   1       5.592  -1.595  -0.128  0.00  0.00     0.015 A 
ENDBRANCH  13  15
ENDBRANCH   1  13
TORSDOF 2
