REMARK  4 active torsions:
REMARK  status: ('A' for Active; 'I' for Inactive)
REMARK    1  A    between atoms: C_6  and  N_1 
REMARK    2  A    between atoms: O_15  and  C_5 
REMARK    3  A    between atoms: C_11  and  C_6 
REMARK    4  A    between atoms: C_8  and  C_11 
ROOT
ATOM      1  C   UNL d   1      -1.545  -1.990  -0.643  0.00  0.00     0.134 C 
ENDROOT
BRANCH   1   2
ATOM      2  N   UNL d   1      -0.632  -0.956  -0.180  0.00  0.00    -0.325 N 
ATOM      3  C   UNL d   1      -0.170  -0.862   1.123  0.00  0.00     0.222 C 
ATOM      4  C   UNL d   1       0.909   0.192   1.151  0.00  0.00     0.107 C 
ATOM      5  O   UNL d   1      -0.573  -1.497   2.082  0.00  0.00    -0.273 OA
ATOM      6  C   UNL d   1       1.366   0.228  -0.304  0.00  0.00     0.063 C 
ATOM      7  C   UNL d   1       0.114  -0.134  -1.081  0.00  0.00     0.223 C 
BRANCH   7   8
ATOM      8  O   UNL d   1      -0.660   1.014  -1.334  0.00  0.00    -0.377 OA
ATOM      9  H   UNL d   1      -1.276   1.081  -0.586  0.00  0.00     0.212 HD
ENDBRANCH   7   8
ENDBRANCH   1   2
BRANCH   1  10
ATOM     10  C   UNL d   1      -0.806  -3.287  -0.994  0.00  0.00     0.078 C 
BRANCH  10  11
ATOM     11  C   UNL d   1      -1.724  -4.333  -1.515  0.00  0.00     0.027 A 
ATOM     12  N   UNL d   1      -2.264  -5.323  -0.726  0.00  0.00    -0.355 N 
ATOM     13  C   UNL d   1      -3.035  -6.114  -1.530  0.00  0.00     0.180 A 
ATOM     14  H   UNL d   1      -2.114  -5.454   0.265  0.00  0.00     0.166 HD
ATOM     15  N   UNL d   1      -3.029  -5.691  -2.772  0.00  0.00    -0.360 N 
ATOM     16  C   UNL d   1      -2.214  -4.588  -2.777  0.00  0.00     0.114 A 
ATOM     17  HN  UNL d   1      -3.525  -6.096  -3.566  1.00  0.00     0.166 HD
ENDBRANCH  10  11
ENDBRANCH   1  10
TORSDOF 4
