REMARK  5 active torsions:
REMARK  status: ('A' for Active; 'I' for Inactive)
REMARK    1  A    between atoms: C_8  and  N_1 
REMARK    2  A    between atoms: S_9  and  C_2 
REMARK    3  A    between atoms: O_12  and  C_13 
REMARK    4  A    between atoms: C_14  and  O_12 
REMARK    5  A    between atoms: C_17  and  C_14 
ROOT
ATOM      1  C   UNL d   1      -0.517  -2.679   0.034  0.00  0.00     0.043 A 
ATOM      2  C   UNL d   1      -0.170  -3.490   1.122  0.00  0.00     0.033 A 
ATOM      3  C   UNL d   1      -1.161  -3.264  -1.062  0.00  0.00     0.033 A 
ATOM      4  C   UNL d   1      -1.137  -5.431   0.030  0.00  0.00     0.069 A 
ATOM      5  C   UNL d   1      -0.468  -4.858   1.110  0.00  0.00     0.039 A 
ATOM      6  C   UNL d   1      -1.464  -4.632  -1.065  0.00  0.00     0.039 A 
ENDROOT
BRANCH   1   7
ATOM      7  N   UNL d   1      -0.214  -1.284   0.029  0.00  0.00    -0.279 N 
ATOM      8  C   UNL d   1       0.898  -0.625   0.540  0.00  0.00     0.167 A 
ATOM      9  N   UNL d   1       0.799   0.668   0.332  0.00  0.00    -0.278 N 
ATOM     10  N   UNL d   1      -0.375   0.904  -0.317  0.00  0.00    -0.287 N 
ATOM     11  HN  UNL d   1       1.483   1.373   0.608  1.00  0.00     0.189 HD
ATOM     12  C   UNL d   1      -0.989  -0.249  -0.498  0.00  0.00     0.101 A 
ATOM     13  HN  UNL d   1      -0.720   1.817  -0.614  1.00  0.00     0.188 HD
ATOM     14  C   UNL d   1      -2.362  -0.363  -1.052  0.00  0.00     0.091 C 
BRANCH   8  15
ATOM     15  S   UNL d   1       2.322  -1.386   1.184  0.00  0.00    -0.096 SA
ATOM     16  C   UNL d   1       3.306   0.059   1.638  0.00  0.00     0.099 C 
ENDBRANCH   8  15
ENDBRANCH   1   7
BRANCH   4  17
ATOM     17  O   UNL d   1      -1.410  -6.767   0.149  0.00  0.00    -0.347 OA
BRANCH  17  18
ATOM     18  C   UNL d   1      -2.433  -7.265  -0.717  0.00  0.00     0.214 C 
BRANCH  18  19
ATOM     19  C   UNL d   1      -2.910  -8.626  -0.266  0.00  0.00    -0.034 A 
ATOM     20  C   UNL d   1      -4.281  -8.936  -0.321  0.00  0.00     0.009 A 
ATOM     21  C   UNL d   1      -4.738 -10.203   0.037  0.00  0.00     0.001 A 
ATOM     22  C   UNL d   1      -3.833 -11.181   0.444  0.00  0.00     0.000 A 
ATOM     23  C   UNL d   1      -2.471 -10.891   0.495  0.00  0.00     0.001 A 
ATOM     24  C   UNL d   1      -2.010  -9.621   0.138  0.00  0.00     0.009 A 
ENDBRANCH  18  19
ENDBRANCH  17  18
ENDBRANCH   4  17
TORSDOF 5
