REMARK  2 active torsions:
REMARK  status: ('A' for Active; 'I' for Inactive)
REMARK       I    between atoms: N_2  and  C_1 
REMARK    1  A    between atoms: C_4  and  C_1 
REMARK    2  A    between atoms: C_5  and  N_3 
ROOT
ATOM      1  C   UNL d   1       0.941   0.042  -0.115  0.00  0.00     0.260 C 
ATOM      2  N   UNL d   1       0.358   0.894   0.831  0.00  0.00    -0.344 N 
ATOM      3  N   UNL d   1      -0.639   2.729   2.768  0.00  0.00    -0.364 N 
ATOM      4  C   UNL d   1       0.651   2.334   0.731  0.00  0.00     0.146 C 
ATOM      5  C   UNL d   1      -0.768   0.532   1.710  0.00  0.00     0.146 C 
ATOM      6  C   UNL d   1       0.626   3.054   2.092  0.00  0.00     0.144 C 
ATOM      7  C   UNL d   1      -0.769   1.294   3.049  0.00  0.00     0.144 C 
ATOM      8  O   UNL d   1       1.852   0.440  -0.838  0.00  0.00    -0.267 OA
ENDROOT
BRANCH   1   9
ATOM      9  C   UNL d   1       0.444  -1.325  -0.201  0.00  0.00     0.072 A 
ATOM     10  S   UNL d   1       1.562  -2.619  -0.095  0.00  0.00    -0.097 SA
ATOM     11  C   UNL d   1       0.324  -3.789  -0.249  0.00  0.00     0.050 A 
ATOM     12  C   UNL d   1      -0.914  -3.212  -0.412  0.00  0.00     0.009 A 
ATOM     13  C   UNL d   1      -0.843  -1.788  -0.411  0.00  0.00     0.025 A 
ENDBRANCH   1   9
BRANCH   3  14
ATOM     14  C   UNL d   1      -1.125   3.599   3.734  0.00  0.00     0.102 A 
ATOM     15  N   UNL d   1      -1.530   3.110   4.926  0.00  0.00    -0.352 N 
ATOM     16  C   UNL d   1      -2.128   3.952   5.800  0.00  0.00     0.089 A 
ATOM     17  HN  UNL d   1      -1.389   2.127   5.161  1.00  0.00     0.166 HD
ATOM     18  C   UNL d   1      -2.364   5.289   5.546  0.00  0.00     0.017 A 
ATOM     19  C   UNL d   1      -1.944   5.796   4.328  0.00  0.00     0.005 A 
ATOM     20  C   UNL d   1      -1.317   4.947   3.420  0.00  0.00     0.048 A 
ENDBRANCH   3  14
TORSDOF 2
