REMARK  8 active torsions:
REMARK  status: ('A' for Active; 'I' for Inactive)
REMARK    1  A    between atoms: C_8  and  C_2 
REMARK    2  A    between atoms: S_10  and  C_5 
REMARK    3  A    between atoms: C_9  and  C_22 
REMARK    4  A    between atoms: C_23  and  S_10 
REMARK    5  A    between atoms: C_13  and  C_23 
REMARK       I    between atoms: N_15  and  C_13 
REMARK    6  A    between atoms: O_21  and  C_14 
REMARK    7  A    between atoms: C_17  and  N_15 
REMARK    8  A    between atoms: C_22  and  O_21 
ROOT
ATOM      1  N   UNL d   1       1.020   0.141   0.180  0.00  0.00    -0.315 N 
ATOM      2  C   UNL d   1       0.082   1.137  -0.004  0.00  0.00     0.135 C 
ATOM      3  N   UNL d   1      -1.111   0.564  -0.039  0.00  0.00    -0.283 N 
ATOM      4  HN  UNL d   1      -1.990   1.033  -0.258  1.00  0.00     0.188 HD
ATOM      5  C   UNL d   1       0.303  -0.992   0.454  0.00  0.00     0.163 C 
ATOM      6  N   UNL d   1      -0.967  -0.765   0.266  0.00  0.00    -0.278 N 
ATOM      7  HN  UNL d   1      -1.718  -1.452   0.335  1.00  0.00     0.189 HD
ATOM      8  C   UNL d   1       2.454   0.217   0.072  0.00  0.00     0.160 C 
ENDROOT
BRANCH   2   9
ATOM      9  C   UNL d   1       0.311   2.576  -0.096  0.00  0.00     0.025 A 
ATOM     10  C   UNL d   1      -0.504   3.385  -0.874  0.00  0.00     0.105 A 
ATOM     11  N   UNL d   1      -0.367   4.732  -0.978  0.00  0.00    -0.346 N 
ATOM     12  C   UNL d   1       0.611   5.323  -0.266  0.00  0.00     0.142 A 
ATOM     13  HN  UNL d   1      -0.987   5.279  -1.576  1.00  0.00     0.167 HD
ATOM     14  C   UNL d   1       1.456   4.603   0.564  0.00  0.00     0.057 A 
ATOM     15  C   UNL d   1       1.291   3.222   0.660  0.00  0.00     0.021 A 
BRANCH  12  16
ATOM     16  O   UNL d   1       0.630   6.681  -0.402  0.00  0.00    -0.327 OA
BRANCH  16  17
ATOM     17  C   UNL d   1       1.893   7.331  -0.225  0.00  0.00     0.294 C 
BRANCH  17  18
ATOM     18  C   UNL d   1       2.189   7.739   1.216  0.00  0.00     0.408 C 
ATOM     19  F   UNL d   1       1.230   7.352   2.082  0.00  0.00    -0.169 F 
ATOM     20  F   UNL d   1       3.349   7.170   1.631  0.00  0.00    -0.169 F 
ATOM     21  F   UNL d   1       2.336   9.077   1.333  0.00  0.00    -0.169 F 
ENDBRANCH  17  18
ENDBRANCH  16  17
ENDBRANCH  12  16
ENDBRANCH   2   9
BRANCH   5  22
ATOM     22  S   UNL d   1       0.984  -2.380   1.223  0.00  0.00    -0.083 SA
BRANCH  22  23
ATOM     23  C   UNL d   1      -0.416  -3.517   1.319  0.00  0.00     0.185 C 
BRANCH  23  24
ATOM     24  C   UNL d   1      -1.556  -3.179   2.272  0.00  0.00     0.231 C 
ATOM     25  N   UNL d   1      -1.568  -1.927   2.849  0.00  0.00    -0.326 N 
ATOM     26  H   UNL d   1      -0.922  -1.255   2.455  0.00  0.00     0.169 HD
ATOM     27  O   UNL d   1      -2.422  -4.037   2.448  0.00  0.00    -0.272 OA
BRANCH  25  28
ATOM     28  C   UNL d   1      -2.597  -1.372   3.640  0.00  0.00     0.036 A 
ATOM     29  C   UNL d   1      -3.588  -2.132   4.264  0.00  0.00     0.053 A 
ATOM     30  C   UNL d   1      -4.625  -1.500   4.949  0.00  0.00     0.036 A 
ATOM     31 CL   UNL d   1      -5.863  -2.447   5.682  0.00  0.00    -0.084 Cl
ATOM     32  C   UNL d   1      -4.678  -0.111   5.037  0.00  0.00     0.024 A 
ATOM     33  C   UNL d   1      -3.669   0.654   4.456  0.00  0.00     0.004 A 
ATOM     34  C   UNL d   1      -2.628   0.024   3.768  0.00  0.00     0.029 A 
ENDBRANCH  25  28
ENDBRANCH  23  24
ENDBRANCH  22  23
ENDBRANCH   5  22
TORSDOF 8
