REMARK  9 active torsions:
REMARK  status: ('A' for Active; 'I' for Inactive)
REMARK    1  A    between atoms: C_15  and  C_6 
REMARK    2  A    between atoms: N_7  and  C_9 
REMARK    3  A    between atoms: N_8  and  C_14 
REMARK    4  A    between atoms: O_27  and  C_15 
REMARK    5  A    between atoms: C_28  and  O_27 
REMARK    6  A    between atoms: C_29  and  C_28 
REMARK    7  A    between atoms: C_32  and  C_29 
REMARK    8  A    between atoms: C_30  and  C_31 
REMARK    9  A    between atoms: C_31  and  C_32 
ROOT
ATOM      1  C   UNL d   1      -1.721   0.511  -0.050  0.00  0.00     0.003 A 
ATOM      2  C   UNL d   1       0.594   0.029   0.064  0.00  0.00     0.018 A 
ATOM      3  C   UNL d   1      -0.437   1.126   0.086  0.00  0.00    -0.008 A 
ATOM      4  C   UNL d   1      -0.154  -1.273   0.052  0.00  0.00    -0.009 A 
ATOM      5  C   UNL d   1      -1.536  -0.950  -0.045  0.00  0.00    -0.013 A 
ATOM      6  C   UNL d   1      -2.869   1.320  -0.120  0.00  0.00     0.053 A 
ATOM      7  C   UNL d   1      -1.458   3.295   0.207  0.00  0.00     0.104 A 
ATOM      8  C   UNL d   1       1.948   0.182  -0.018  0.00  0.00     0.136 C 
ATOM      9  C   UNL d   1      -0.306   2.505   0.234  0.00  0.00     0.049 A 
ATOM     10  C   UNL d   1      -2.719   2.717   0.016  0.00  0.00     0.054 A 
ATOM     11  C   UNL d   1       0.266  -2.599   0.155  0.00  0.00     0.049 A 
ATOM     12  C   UNL d   1      -0.698  -3.617   0.128  0.00  0.00     0.103 A 
ATOM     13  C   UNL d   1       2.582   1.452  -0.096  0.00  0.00     0.111 C 
ATOM     14  C   UNL d   1       2.857  -0.911  -0.074  0.00  0.00     0.111 C 
ATOM     15  N   UNL d   1       3.114   2.477  -0.166  0.00  0.00    -0.191 NA
ATOM     16  N   UNL d   1       3.619  -1.787  -0.116  0.00  0.00    -0.191 NA
ATOM     17  C   UNL d   1      -2.478  -1.976  -0.045  0.00  0.00     0.015 A 
ATOM     18  C   UNL d   1      -2.062  -3.311   0.020  0.00  0.00     0.037 A 
ENDROOT
BRANCH   6  19
ATOM     19  C   UNL d   1      -4.222   0.827  -0.516  0.00  0.00     0.294 C 
ATOM     20  O   UNL d   1      -4.415  -0.072  -1.316  0.00  0.00    -0.259 OA
BRANCH  19  21
ATOM     21  O   UNL d   1      -5.183   1.663  -0.038  0.00  0.00    -0.317 OA
BRANCH  21  22
ATOM     22  C   UNL d   1      -6.080   2.141  -1.054  0.00  0.00     0.179 C 
BRANCH  22  23
ATOM     23  C   UNL d   1      -7.508   1.646  -0.872  0.00  0.00     0.027 C 
BRANCH  23  24
ATOM     24  C   UNL d   1      -8.402   2.240  -1.968  0.00  0.00     0.002 C 
BRANCH  24  25
ATOM     25  C   UNL d   1      -9.849   1.771  -1.845  0.00  0.00    -0.000 C 
BRANCH  25  26
ATOM     26  C   UNL d   1     -10.732   2.364  -2.945  0.00  0.00    -0.005 C 
ATOM     27  C   UNL d   1     -12.169   1.885  -2.809  0.00  0.00     0.005 C 
ENDBRANCH  25  26
ENDBRANCH  24  25
ENDBRANCH  23  24
ENDBRANCH  22  23
ENDBRANCH  21  22
ENDBRANCH  19  21
ENDBRANCH   6  19
BRANCH   7  28
ATOM     28  N   UNL d   1      -1.347   4.755   0.361  0.00  0.00    -0.116 N 
ATOM     29  O   UNL d   1      -0.219   5.230   0.544  0.00  0.00    -0.532 OA
ATOM     30  O   UNL d   1      -2.390   5.418   0.304  0.00  0.00    -0.532 OA
ENDBRANCH   7  28
BRANCH  12  31
ATOM     31  N   UNL d   1      -0.279  -5.022   0.241  0.00  0.00    -0.116 N 
ATOM     32  O   UNL d   1       0.930  -5.251   0.392  0.00  0.00    -0.532 OA
ATOM     33  O   UNL d   1      -1.158  -5.892   0.188  0.00  0.00    -0.532 OA
ENDBRANCH  12  31
TORSDOF 9
