REMARK  2 active torsions:
REMARK  status: ('A' for Active; 'I' for Inactive)
REMARK    1  A    between atoms: C_2  and  C_1 
REMARK    2  A    between atoms: C_3  and  C_2 
REMARK       I    between atoms: N_8  and  C_3 
ROOT
ATOM      1  C   UNL d   1      -1.584  -1.228  -0.061  0.00  0.00     0.048 A 
ATOM      2  C   UNL d   1      -2.380  -0.093  -0.062  0.00  0.00     0.105 A 
ATOM      3  N   UNL d   1      -1.570   1.010  -0.034  0.00  0.00    -0.364 N 
ATOM      4  C   UNL d   1      -0.225  -0.766  -0.042  0.00  0.00     0.006 A 
ATOM      5  C   UNL d   1      -0.249   0.629  -0.035  0.00  0.00     0.043 A 
ATOM      6  C   UNL d   1       1.031  -1.410  -0.025  0.00  0.00     0.015 A 
ATOM      7  C   UNL d   1       0.915   1.410  -0.024  0.00  0.00     0.030 A 
ATOM      8  C   UNL d   1       2.204  -0.647  -0.017  0.00  0.00     0.001 A 
ATOM      9  C   UNL d   1       2.144   0.744  -0.020  0.00  0.00     0.002 A 
ATOM     10  H   UNL d   1      -1.888   1.970  -0.008  0.00  0.00     0.165 HD
ENDROOT
BRANCH   1  11
ATOM     11  C   UNL d   1      -2.048  -2.619  -0.067  0.00  0.00     0.251 C 
ATOM     12  O   UNL d   1      -1.272  -3.574  -0.057  0.00  0.00    -0.281 OA
BRANCH  11  13
ATOM     13  C   UNL d   1      -3.548  -2.937  -0.073  0.00  0.00     0.294 C 
ATOM     14  N   UNL d   1      -4.067  -3.707  -1.119  0.00  0.00    -0.354 N 
ATOM     15  C   UNL d   1      -5.470  -4.080  -1.083  0.00  0.00     0.152 C 
ATOM     16  C   UNL d   1      -3.293  -4.223  -2.238  0.00  0.00     0.152 C 
ATOM     17  O   UNL d   1      -4.229  -2.497   0.852  0.00  0.00    -0.264 OA
ENDBRANCH  11  13
ENDBRANCH   1  11
TORSDOF 2
