REMARK  4 active torsions:
REMARK  status: ('A' for Active; 'I' for Inactive)
REMARK    1  A    between atoms: C_2  and  C_1 
REMARK       I    between atoms: N_3  and  C_1 
REMARK    2  A    between atoms: C_6  and  N_3 
REMARK    3  A    between atoms: N_11  and  C_4 
REMARK    4  A    between atoms: O_14  and  C_7 
ROOT
ATOM      1  C   UNL d   1       0.887   0.016  -0.117  0.00  0.00     0.259 C 
ATOM      2  N   UNL d   1       0.135  -0.957   0.519  0.00  0.00    -0.323 N 
ATOM      3  O   UNL d   1       0.457   0.932  -0.815  0.00  0.00    -0.267 OA
ATOM      4  H   UNL d   1       0.615  -1.581   1.153  0.00  0.00     0.169 HD
ENDROOT
BRANCH   2   5
ATOM      5  C   UNL d   1      -1.276  -1.069   0.507  0.00  0.00     0.036 A 
ATOM      6  C   UNL d   1      -2.113  -0.249  -0.258  0.00  0.00     0.054 A 
ATOM      7  C   UNL d   1      -3.509  -0.327  -0.162  0.00  0.00     0.030 A 
ATOM      8  C   UNL d   1      -4.065  -1.337   0.636  0.00  0.00     0.055 A 
ATOM      9  C   UNL d   1      -3.247  -2.189   1.379  0.00  0.00     0.028 A 
ATOM     10 CL   UNL d   1      -5.780  -1.529   0.752  0.00  0.00    -0.082 Cl
ATOM     11  C   UNL d   1      -1.857  -2.050   1.321  0.00  0.00     0.031 A 
BRANCH   7  12
ATOM     12  N   UNL d   1      -4.292   0.463  -1.028  0.00  0.00    -0.301 NA
ATOM     13  H   UNL d   1      -3.862   1.350  -1.273  0.00  0.00     0.124 HD
ATOM     14  H   UNL d   1      -5.252   0.565  -0.705  0.00  0.00     0.124 HD
ENDBRANCH   7  12
ENDBRANCH   2   5
BRANCH   1  15
ATOM     15  C   UNL d   1       2.356   0.002   0.132  0.00  0.00     0.065 A 
ATOM     16  C   UNL d   1       3.072   1.209   0.057  0.00  0.00     0.081 A 
ATOM     17  C   UNL d   1       4.438   1.248   0.327  0.00  0.00     0.037 A 
ATOM     18  C   UNL d   1       5.112   0.073   0.650  0.00  0.00     0.003 A 
ATOM     19  C   UNL d   1       4.423  -1.140   0.692  0.00  0.00     0.001 A 
ATOM     20  C   UNL d   1       3.049  -1.181   0.430  0.00  0.00     0.020 A 
BRANCH  16  21
ATOM     21  O   UNL d   1       2.492   2.406  -0.279  0.00  0.00    -0.360 OA
ATOM     22  H   UNL d   1       1.589   2.214  -0.621  0.00  0.00     0.217 HD
ENDBRANCH  16  21
ENDBRANCH   1  15
TORSDOF 4
