REMARK  9 active torsions:
REMARK  status: ('A' for Active; 'I' for Inactive)
REMARK    1  A    between atoms: O_8  and  C_1 
REMARK    2  A    between atoms: C_12  and  N_2 
REMARK    3  A    between atoms: C_7  and  O_14 
REMARK    4  A    between atoms: C_16  and  C_7 
REMARK    5  A    between atoms: C_17  and  O_8 
REMARK    6  A    between atoms: O_14  and  N_9 
REMARK    7  A    between atoms: C_11  and  C_13 
REMARK    8  A    between atoms: N_18  and  C_11 
REMARK    9  A    between atoms: C_13  and  C_12 
ROOT
ATOM      1  C   UNL d   1       7.152   1.907  -0.105  0.00  0.00     0.156 C 
ENDROOT
BRANCH   1   2
ATOM      2  N   UNL d   1       8.276   0.988   0.001  0.00  0.00    -0.293 N 
ATOM      3  C   UNL d   1       9.287   0.952   0.937  0.00  0.00     0.060 C 
ATOM      4  C   UNL d   1      10.008  -0.194   0.633  0.00  0.00     0.123 C 
ATOM      5  C   UNL d   1       9.467   1.988   1.990  0.00  0.00     0.073 C 
ATOM      6  C   UNL d   1       9.469  -0.675  -0.575  0.00  0.00     0.058 C 
ATOM      7  N   UNL d   1       8.378   0.013  -0.928  0.00  0.00    -0.300 N 
ATOM      8  C   UNL d   1       9.938  -1.798  -1.421  0.00  0.00     0.072 C 
ATOM      9  HN  UNL d   1       7.762  -0.159  -1.722  1.00  0.00     0.187 HD
BRANCH   4  10
ATOM     10  O   UNL d   1      11.077  -0.731   1.267  0.00  0.00    -0.307 OA
BRANCH  10  11
ATOM     11  C   UNL d   1      11.270  -0.600   2.620  0.00  0.00     0.076 A 
ATOM     12  C   UNL d   1      10.226  -0.665   3.548  0.00  0.00     0.039 A 
ATOM     13  C   UNL d   1      10.472  -0.378   4.891  0.00  0.00     0.026 A 
ATOM     14  C   UNL d   1      11.771  -0.098   5.310  0.00  0.00     0.034 A 
ATOM     15  C   UNL d   1      12.832  -0.139   4.405  0.00  0.00     0.026 A 
ATOM     16 CL   UNL d   1      12.064   0.319   6.953  0.00  0.00    -0.084 Cl
ATOM     17  C   UNL d   1      12.580  -0.394   3.055  0.00  0.00     0.039 A 
ENDBRANCH  10  11
ENDBRANCH   4  10
ENDBRANCH   1   2
BRANCH   1  18
ATOM     18  C   UNL d   1       5.798   1.253   0.161  0.00  0.00     0.093 C 
BRANCH  18  19
ATOM     19  C   UNL d   1       5.400   0.255  -0.917  0.00  0.00     0.077 C 
ATOM     20  N   UNL d   1       4.797   0.713  -1.967  0.00  0.00    -0.251 N 
ATOM     21  HN  UNL d   1       4.574   1.696  -2.123  1.00  0.00     0.196 HD
BRANCH  20  22
ATOM     22  O   UNL d   1       4.489  -0.331  -2.871  0.00  0.00    -0.194 OA
BRANCH  22  23
ATOM     23  C   UNL d   1       3.710   0.152  -3.885  0.00  0.00     0.315 C 
ATOM     24  O   UNL d   1       3.334   1.300  -4.058  0.00  0.00    -0.257 OA
BRANCH  23  25
ATOM     25  C   UNL d   1       3.280  -0.967  -4.767  0.00  0.00     0.041 A 
ATOM     26  C   UNL d   1       3.997  -2.165  -4.877  0.00  0.00     0.017 A 
ATOM     27  C   UNL d   1       3.533  -3.180  -5.723  0.00  0.00     0.001 A 
ATOM     28  C   UNL d   1       2.359  -3.002  -6.455  0.00  0.00     0.000 A 
ATOM     29  C   UNL d   1       1.647  -1.807  -6.356  0.00  0.00     0.001 A 
ATOM     30  C   UNL d   1       2.109  -0.791  -5.517  0.00  0.00     0.017 A 
ENDBRANCH  23  25
ENDBRANCH  22  23
ENDBRANCH  20  22
BRANCH  19  31
ATOM     31  N   UNL d   1       5.713  -1.066  -0.698  0.00  0.00    -0.291 NA
ATOM     32  H   UNL d   1       5.641  -1.596  -1.561  0.00  0.00     0.125 HD
ATOM     33  H   UNL d   1       6.663  -1.165  -0.334  0.00  0.00     0.125 HD
ENDBRANCH  19  31
ENDBRANCH  18  19
ENDBRANCH   1  18
TORSDOF 9
