REMARK  3 active torsions:
REMARK  status: ('A' for Active; 'I' for Inactive)
REMARK       I    between atoms: N_2  and  C_1 
REMARK    1  A    between atoms: C_4  and  C_1 
REMARK    2  A    between atoms: C_5  and  N_3 
REMARK    3  A    between atoms: C_22  and  C_20 
ROOT
ATOM      1  C   UNL d   1       0.761  -0.138  -0.207  0.00  0.00     0.253 C 
ATOM      2  N   UNL d   1       0.138   0.436  -1.314  0.00  0.00    -0.345 N 
ATOM      3  N   UNL d   1      -0.330   2.203  -3.525  0.00  0.00    -0.378 N 
ATOM      4  C   UNL d   1       0.586   0.062  -2.666  0.00  0.00     0.146 C 
ATOM      5  C   UNL d   1      -0.976   1.399  -1.288  0.00  0.00     0.146 C 
ATOM      6  C   UNL d   1      -0.702   2.623  -2.171  0.00  0.00     0.143 C 
ATOM      7  C   UNL d   1       0.823   1.286  -3.583  0.00  0.00     0.143 C 
ATOM      8  O   UNL d   1       1.766  -0.841  -0.298  0.00  0.00    -0.267 OA
ENDROOT
BRANCH   1   9
ATOM      9  C   UNL d   1       0.228   0.123   1.157  0.00  0.00     0.032 A 
ATOM     10  C   UNL d   1      -1.136   0.018   1.446  0.00  0.00     0.017 A 
ATOM     11  C   UNL d   1      -1.613   0.359   2.713  0.00  0.00     0.008 A 
ATOM     12  C   UNL d   1      -0.724   0.733   3.729  0.00  0.00    -0.059 A 
ATOM     13  C   UNL d   1       0.651   0.762   3.455  0.00  0.00     0.008 A 
ATOM     14  C   UNL d   1       1.126   0.458   2.176  0.00  0.00     0.017 A 
BRANCH  12  15
ATOM     15  C   UNL d   1      -1.244   1.090   5.099  0.00  0.00     0.034 C 
ATOM     16  C   UNL d   1      -1.442   2.588   5.275  0.00  0.00     0.010 C 
ENDBRANCH  12  15
ENDBRANCH   1   9
BRANCH   3  17
ATOM     17  C   UNL d   1      -1.097   2.512  -4.628  0.00  0.00     0.030 A 
ATOM     18  C   UNL d   1      -0.507   2.705  -5.889  0.00  0.00     0.032 A 
ATOM     19  C   UNL d   1      -1.265   3.069  -7.008  0.00  0.00     0.044 A 
ATOM     20  C   UNL d   1      -2.639   3.235  -6.879  0.00  0.00     0.116 A 
ATOM     21  C   UNL d   1      -3.259   3.038  -5.658  0.00  0.00     0.044 A 
ATOM     22  F   UNL d   1      -3.366   3.583  -7.947  0.00  0.00    -0.206 F 
ATOM     23  C   UNL d   1      -2.490   2.682  -4.545  0.00  0.00     0.032 A 
ENDBRANCH   3  17
TORSDOF 3
