REMARK  4 active torsions:
REMARK  status: ('A' for Active; 'I' for Inactive)
REMARK    1  A    between atoms: C_3  and  C_1 
REMARK    2  A    between atoms: C_15  and  N_2 
REMARK    3  A    between atoms: C_16  and  C_8 
REMARK    4  A    between atoms: N_19  and  C_11 
ROOT
ATOM      1  C   UNL d   1      -0.495  -2.737   0.070  0.00  0.00     0.054 A 
ATOM      2  C   UNL d   1      -1.047  -3.339  -1.057  0.00  0.00     0.060 A 
ATOM      3  N   UNL d   1      -1.173  -4.694  -1.147  0.00  0.00    -0.331 N 
ATOM      4  HN  UNL d   1      -1.560  -5.126  -1.985  1.00  0.00     0.168 HD
ATOM      5  C   UNL d   1      -0.779  -5.440  -0.115  0.00  0.00     0.155 A 
ATOM      6  C   UNL d   1      -0.220  -3.614   1.109  0.00  0.00     0.108 A 
ATOM      7  N   UNL d   1      -0.337  -4.952   1.038  0.00  0.00    -0.342 N 
ATOM      8  HN  UNL d   1      -0.100  -5.557   1.824  1.00  0.00     0.167 HD
ENDROOT
BRANCH   1   9
ATOM      9  C   UNL d   1      -0.257  -1.309   0.241  0.00  0.00     0.152 A 
ATOM     10  N   UNL d   1       0.882  -0.700   0.776  0.00  0.00    -0.224 N 
ATOM     11  N   UNL d   1       0.604   0.612   0.962  0.00  0.00     0.001 NA
ATOM     12  N   UNL d   1      -0.596   0.813   0.448  0.00  0.00    -0.007 NA
ATOM     13  N   UNL d   1      -1.145  -0.357   0.013  0.00  0.00    -0.269 N 
ATOM     14  HN  UNL d   1      -2.066  -0.475  -0.408  1.00  0.00     0.185 HD
BRANCH  10  15
ATOM     15  C   UNL d   1       2.142  -1.234   1.161  0.00  0.00     0.056 A 
ATOM     16  C   UNL d   1       2.654  -2.411   0.596  0.00  0.00     0.032 A 
ATOM     17  C   UNL d   1       3.841  -2.965   1.085  0.00  0.00     0.021 A 
ATOM     18  C   UNL d   1       4.527  -2.337   2.123  0.00  0.00     0.011 A 
ATOM     19  C   UNL d   1       4.058  -1.138   2.653  0.00  0.00     0.021 A 
ATOM     20 BR   UNL d   1       6.100  -3.120   2.818  0.00  0.00    -0.051 Br
ATOM     21  C   UNL d   1       2.875  -0.577   2.163  0.00  0.00     0.032 A 
ENDBRANCH  10  15
ENDBRANCH   1   9
BRANCH   2  22
ATOM     22  C   UNL d   1      -1.608  -2.627  -2.231  0.00  0.00    -0.008 A 
ATOM     23  C   UNL d   1      -0.973  -1.541  -2.857  0.00  0.00     0.014 A 
ATOM     24  C   UNL d   1      -1.579  -0.858  -3.919  0.00  0.00     0.001 A 
ATOM     25  C   UNL d   1      -2.819  -1.268  -4.401  0.00  0.00     0.000 A 
ATOM     26  C   UNL d   1      -3.450  -2.367  -3.832  0.00  0.00     0.001 A 
ATOM     27  C   UNL d   1      -2.849  -3.036  -2.761  0.00  0.00     0.014 A 
ENDBRANCH   2  22
BRANCH   5  28
ATOM     28  N   UNL d   1      -0.868  -6.808  -0.233  0.00  0.00    -0.274 NA
ATOM     29  H   UNL d   1      -0.947  -7.231   0.681  0.00  0.00     0.127 HD
ATOM     30  H   UNL d   1      -1.564  -7.056  -0.925  0.00  0.00     0.127 HD
ENDBRANCH   5  28
TORSDOF 4
