REMARK  8 active torsions:
REMARK  status: ('A' for Active; 'I' for Inactive)
REMARK    1  A    between atoms: N_2  and  C_1 
REMARK    2  A    between atoms: N_4  and  C_1 
REMARK    3  A    between atoms: C_5  and  N_2 
REMARK    4  A    between atoms: C_14  and  N_4 
REMARK    5  A    between atoms: O_12  and  C_6 
REMARK    6  A    between atoms: C_11  and  C_14 
REMARK    7  A    between atoms: C_15  and  C_11 
REMARK    8  A    between atoms: O_13  and  C_15 
ROOT
ATOM      1  N   UNL d   1       0.462  -1.071  -0.812  0.00  0.00    -0.333 N 
ATOM      2  H   UNL d   1       0.911  -1.978  -0.781  0.00  0.00     0.168 HD
ENDROOT
BRANCH   1   3
ATOM      3  C   UNL d   1       1.040  -0.129   0.008  0.00  0.00     0.172 C 
ATOM      4  S   UNL d   1       0.273   0.995   0.982  0.00  0.00    -0.041 SA
BRANCH   3   5
ATOM      5  N   UNL d   1       2.407  -0.167   0.070  0.00  0.00    -0.367 N 
ATOM      6  H   UNL d   1       2.784   0.527   0.709  0.00  0.00     0.161 HD
BRANCH   5   7
ATOM      7  C   UNL d   1       3.279  -0.559  -1.026  0.00  0.00     0.124 C 
BRANCH   7   8
ATOM      8  C   UNL d   1       4.282  -1.630  -0.615  0.00  0.00     0.046 C 
BRANCH   8   9
ATOM      9  C   UNL d   1       3.614  -2.946  -0.237  0.00  0.00     0.168 C 
BRANCH   9  10
ATOM     10  O   UNL d   1       2.755  -3.358  -1.301  0.00  0.00    -0.396 OA
ATOM     11  C   UNL d   1       2.055  -4.553  -0.986  0.00  0.00     0.201 C 
ENDBRANCH   9  10
ENDBRANCH   8   9
ENDBRANCH   7   8
ENDBRANCH   5   7
ENDBRANCH   3   5
ENDBRANCH   1   3
BRANCH   1  12
ATOM     12  C   UNL d   1      -0.846  -1.021  -1.339  0.00  0.00     0.034 A 
ATOM     13  C   UNL d   1      -1.351   0.173  -1.861  0.00  0.00     0.032 A 
ATOM     14  C   UNL d   1      -2.658   0.241  -2.339  0.00  0.00     0.039 A 
ATOM     15  C   UNL d   1      -3.478  -0.882  -2.287  0.00  0.00     0.068 A 
ATOM     16  C   UNL d   1      -2.946  -2.102  -1.852  0.00  0.00     0.039 A 
ATOM     17  C   UNL d   1      -1.624  -2.176  -1.390  0.00  0.00     0.032 A 
BRANCH  15  18
ATOM     18  O   UNL d   1      -4.792  -0.893  -2.667  0.00  0.00    -0.356 OA
ATOM     19  C   UNL d   1      -5.483   0.330  -2.405  0.00  0.00     0.210 C 
ENDBRANCH  15  18
ENDBRANCH   1  12
TORSDOF 8
