REMARK  4 active torsions:
REMARK  status: ('A' for Active; 'I' for Inactive)
REMARK    1  A    between atoms: O_15  and  C_2 
REMARK    2  A    between atoms: C_14  and  C_6 
REMARK    3  A    between atoms: N_18  and  C_12 
REMARK    4  A    between atoms: O_19  and  C_13 
ROOT
ATOM      1  C   UNL d   1       0.034  -0.731  -0.053  0.00  0.00     0.069 A 
ATOM      2  C   UNL d   1       1.311  -1.311  -0.119  0.00  0.00     0.155 A 
ATOM      3  C   UNL d   1      -0.012   0.670   0.018  0.00  0.00     0.036 A 
ATOM      4  N   UNL d   1       2.473  -0.631  -0.073  0.00  0.00    -0.336 N 
ATOM      5  HN  UNL d   1       3.367  -1.121  -0.117  1.00  0.00     0.168 HD
ATOM      6  C   UNL d   1       2.425   0.713   0.031  0.00  0.00     0.045 A 
ATOM      7  N   UNL d   1      -2.373  -0.808  -0.061  0.00  0.00    -0.287 N 
ATOM      8  HN  UNL d   1      -3.237  -1.349  -0.102  1.00  0.00     0.188 HD
ATOM      9  N   UNL d   1      -2.425   0.550   0.005  0.00  0.00    -0.278 N 
ATOM     10  HN  UNL d   1      -3.326   1.028   0.028  1.00  0.00     0.189 HD
ATOM     11  C   UNL d   1       1.207   1.388   0.074  0.00  0.00     0.047 A 
ATOM     12  C   UNL d   1      -1.184  -1.436  -0.073  0.00  0.00     0.108 A 
ATOM     13  C   UNL d   1      -1.282   1.259   0.042  0.00  0.00     0.166 A 
ENDROOT
BRANCH   6  14
ATOM     14  C   UNL d   1       3.731   1.409   0.042  0.00  0.00    -0.009 A 
ATOM     15  C   UNL d   1       3.920   2.644   0.693  0.00  0.00     0.015 A 
ATOM     16  C   UNL d   1       5.153   3.307   0.657  0.00  0.00     0.024 A 
ATOM     17  C   UNL d   1       6.225   2.740  -0.023  0.00  0.00     0.034 A 
ATOM     18  C   UNL d   1       6.079   1.512  -0.658  0.00  0.00     0.024 A 
ATOM     19 CL   UNL d   1       7.735   3.561  -0.076  0.00  0.00    -0.084 Cl
ATOM     20  C   UNL d   1       4.844   0.855  -0.621  0.00  0.00     0.015 A 
ENDBRANCH   6  14
BRANCH   2  21
ATOM     21  O   UNL d   1       1.483  -2.660  -0.278  0.00  0.00    -0.345 OA
ATOM     22  H   UNL d   1       0.621  -3.023  -0.561  0.00  0.00     0.219 HD
ENDBRANCH   2  21
BRANCH  13  23
ATOM     23  O   UNL d   1      -1.469   2.611   0.104  0.00  0.00    -0.344 OA
ATOM     24  H   UNL d   1      -0.733   3.043  -0.348  0.00  0.00     0.219 HD
ENDBRANCH  13  23
BRANCH  12  25
ATOM     25  N   UNL d   1      -1.217  -2.848  -0.061  0.00  0.00    -0.287 NA
ATOM     26  H   UNL d   1      -2.207  -3.099  -0.122  0.00  0.00     0.125 HD
ATOM     27  H   UNL d   1      -0.865  -3.176   0.841  0.00  0.00     0.125 HD
ENDBRANCH  12  25
TORSDOF 4
