REMARK  5 active torsions:
REMARK  status: ('A' for Active; 'I' for Inactive)
REMARK    1  A    between atoms: C_7  and  C_1 
REMARK    2  A    between atoms: C_6  and  C_2 
REMARK    3  A    between atoms: C_8  and  C_5 
REMARK    4  A    between atoms: O_15  and  C_7 
REMARK    5  A    between atoms: C_20  and  O_15 
ROOT
ATOM      1  C   UNL d   1       1.192   0.675   0.020  0.00  0.00     0.081 A 
ATOM      2  C   UNL d   1      -0.123   1.116   0.009  0.00  0.00     0.175 A 
ATOM      3  O   UNL d   1      -0.966   0.033   0.034  0.00  0.00    -0.304 OA
ATOM      4  C   UNL d   1       1.121  -0.751   0.070  0.00  0.00     0.058 A 
ATOM      5  C   UNL d   1      -0.210  -1.101   0.066  0.00  0.00     0.087 A 
ENDROOT
BRANCH   5   6
ATOM      6  C   UNL d   1      -0.920  -2.374   0.107  0.00  0.00    -0.002 A 
ATOM      7  C   UNL d   1      -0.204  -3.582   0.160  0.00  0.00     0.016 A 
ATOM      8  C   UNL d   1      -0.869  -4.808   0.263  0.00  0.00     0.024 A 
ATOM      9  C   UNL d   1      -2.259  -4.838   0.307  0.00  0.00     0.034 A 
ATOM     10  C   UNL d   1      -2.989  -3.655   0.228  0.00  0.00     0.024 A 
ATOM     11 CL   UNL d   1      -3.076  -6.342   0.473  0.00  0.00    -0.084 Cl
ATOM     12  C   UNL d   1      -2.322  -2.430   0.125  0.00  0.00     0.016 A 
ENDBRANCH   5   6
BRANCH   1  13
ATOM     13  C   UNL d   1       2.395   1.480  -0.063  0.00  0.00     0.296 C 
ATOM     14  O   UNL d   1       2.403   2.690  -0.213  0.00  0.00    -0.259 OA
BRANCH  13  15
ATOM     15  O   UNL d   1       3.509   0.692  -0.056  0.00  0.00    -0.318 OA
BRANCH  15  16
ATOM     16  C   UNL d   1       4.696   1.292  -0.586  0.00  0.00     0.174 C 
ATOM     17  C   UNL d   1       4.686   1.106  -2.092  0.00  0.00     0.034 C 
ENDBRANCH  15  16
ENDBRANCH  13  15
ENDBRANCH   1  13
BRANCH   2  18
ATOM     18  C   UNL d   1      -0.795   2.443  -0.040  0.00  0.00     0.440 C 
ATOM     19  F   UNL d   1       0.043   3.502   0.044  0.00  0.00    -0.164 F 
ATOM     20  F   UNL d   1      -1.502   2.599  -1.191  0.00  0.00    -0.164 F 
ATOM     21  F   UNL d   1      -1.684   2.584   0.980  0.00  0.00    -0.164 F 
ENDBRANCH   2  18
TORSDOF 5
