REMARK  7 active torsions:
REMARK  status: ('A' for Active; 'I' for Inactive)
REMARK    1  A    between atoms: C_17  and  C_1 
REMARK    2  A    between atoms: C_3  and  S_11 
REMARK    3  A    between atoms: C_15  and  C_4 
REMARK    4  A    between atoms: S_11  and  C_7 
REMARK    5  A    between atoms: C_18  and  C_8 
REMARK    6  A    between atoms: O_30  and  C_17 
REMARK    7  A    between atoms: C_33  and  O_30 
ROOT
ATOM      1  C   UNL d   1      -1.603   1.365   0.070  0.00  0.00     0.072 A 
ATOM      2  C   UNL d   1      -2.252   0.137   0.008  0.00  0.00     0.134 A 
ATOM      3  N   UNL d   1      -1.533  -1.036   0.018  0.00  0.00    -0.345 N 
ATOM      4  HN  UNL d   1      -2.023  -1.930  -0.021  1.00  0.00     0.166 HD
ATOM      5  C   UNL d   1      -0.174  -1.013   0.079  0.00  0.00     0.099 A 
ATOM      6  C   UNL d   1       0.528   0.186   0.025  0.00  0.00     0.079 A 
ATOM      7  C   UNL d   1      -0.200   1.383   0.036  0.00  0.00     0.045 A 
ATOM      8  C   UNL d   1       1.959   0.249  -0.056  0.00  0.00     0.102 C 
ATOM      9  N   UNL d   1       3.106   0.351  -0.153  0.00  0.00    -0.191 NA
ENDROOT
BRANCH   5  10
ATOM     10  S   UNL d   1       0.630  -2.610   0.180  0.00  0.00    -0.033 SA
BRANCH  10  11
ATOM     11  C   UNL d   1      -0.511  -3.497   1.126  0.00  0.00     0.167 A 
ATOM     12  N   UNL d   1      -1.795  -3.698   0.720  0.00  0.00    -0.320 N 
ATOM     13  C   UNL d   1      -2.422  -4.409   1.713  0.00  0.00     0.132 A 
ATOM     14  H   UNL d   1      -2.207  -3.295  -0.106  0.00  0.00     0.169 HD
ATOM     15  N   UNL d   1      -1.512  -4.693   2.632  0.00  0.00    -0.283 N 
ATOM     16  N   UNL d   1      -0.308  -4.124   2.258  0.00  0.00    -0.278 N 
ATOM     17  HN  UNL d   1      -1.673  -5.242   3.477  1.00  0.00     0.188 HD
ATOM     18  HN  UNL d   1       0.573  -4.181   2.768  1.00  0.00     0.189 HD
BRANCH  13  19
ATOM     19  C   UNL d   1      -3.847  -4.751   1.741  0.00  0.00     0.013 A 
ATOM     20  C   UNL d   1      -4.731  -4.346   0.728  0.00  0.00     0.039 A 
ATOM     21  C   UNL d   1      -6.090  -4.662   0.802  0.00  0.00     0.036 A 
ATOM     22 CL   UNL d   1      -7.148  -4.141  -0.453  0.00  0.00    -0.084 Cl
ATOM     23  C   UNL d   1      -6.598  -5.383   1.876  0.00  0.00     0.047 A 
ATOM     24  C   UNL d   1      -5.730  -5.793   2.882  0.00  0.00     0.036 A 
ATOM     25  C   UNL d   1      -4.367  -5.485   2.820  0.00  0.00     0.039 A 
ATOM     26 CL   UNL d   1      -6.347  -6.681   4.221  0.00  0.00    -0.084 Cl
ENDBRANCH  13  19
ENDBRANCH  10  11
ENDBRANCH   5  10
BRANCH   1  27
ATOM     27  C   UNL d   1      -2.342   2.631   0.217  0.00  0.00     0.295 C 
ATOM     28  O   UNL d   1      -3.329   2.745   0.917  0.00  0.00    -0.259 OA
BRANCH  27  29
ATOM     29  O   UNL d   1      -1.770   3.567  -0.572  0.00  0.00    -0.318 OA
BRANCH  29  30
ATOM     30  C   UNL d   1      -2.552   4.749  -0.806  0.00  0.00     0.174 C 
ATOM     31  C   UNL d   1      -3.260   4.557  -2.134  0.00  0.00     0.034 C 
ENDBRANCH  29  30
ENDBRANCH  27  29
ENDBRANCH   1  27
BRANCH   2  32
ATOM     32  C   UNL d   1      -3.758  -0.028  -0.150  0.00  0.00     0.433 C 
ATOM     33  F   UNL d   1      -4.471   1.081  -0.468  0.00  0.00    -0.165 F 
ATOM     34  F   UNL d   1      -4.031  -0.907  -1.169  0.00  0.00    -0.165 F 
ATOM     35  F   UNL d   1      -4.341  -0.580   0.949  0.00  0.00    -0.165 F 
ENDBRANCH   2  32
TORSDOF 7
