REMARK  6 active torsions:
REMARK  status: ('A' for Active; 'I' for Inactive)
REMARK    1  A    between atoms: N_2  and  S_1 
REMARK    2  A    between atoms: C_6  and  S_1 
REMARK    3  A    between atoms: C_8  and  N_2 
REMARK    4  A    between atoms: C_10  and  N_2 
REMARK    5  A    between atoms: C_11  and  C_8 
REMARK    6  A    between atoms: C_9  and  C_10 
ROOT
ATOM      1  N   UNL d   1       2.931  -2.652  -2.906  0.00  0.00    -0.197 NA
ATOM      2  C   UNL d   1       2.688  -1.519  -2.945  0.00  0.00     0.060 C 
ATOM      3  C   UNL d   1       2.397  -0.084  -3.015  0.00  0.00     0.144 C 
ENDROOT
BRANCH   3   4
ATOM      4  C   UNL d   1       0.963   0.243  -2.595  0.00  0.00     0.149 C 
BRANCH   4   5
ATOM      5  N   UNL d   1       0.548  -0.287  -1.263  0.00  0.00    -0.302 N 
BRANCH   5   6
ATOM      6  S   UNL d   1       1.274   0.391   0.123  0.00  0.00     0.261 S 
ATOM      7  O   UNL d   1       0.377   1.340   0.738  0.00  0.00    -0.200 OA
ATOM      8  O   UNL d   1       2.621   0.798  -0.225  0.00  0.00    -0.200 OA
BRANCH   6   9
ATOM      9  C   UNL d   1       1.442  -0.993   1.233  0.00  0.00     0.079 A 
ATOM     10  C   UNL d   1       2.620  -1.748   1.204  0.00  0.00     0.025 A 
ATOM     11  C   UNL d   1       2.846  -2.716   2.183  0.00  0.00     0.002 A 
ATOM     12  C   UNL d   1       1.898  -2.930   3.184  0.00  0.00     0.000 A 
ATOM     13  C   UNL d   1       0.718  -2.184   3.205  0.00  0.00     0.002 A 
ATOM     14  C   UNL d   1       0.491  -1.206   2.235  0.00  0.00     0.025 A 
ENDBRANCH   6   9
ENDBRANCH   5   6
BRANCH   5  15
ATOM     15  C   UNL d   1      -0.905  -0.627  -1.179  0.00  0.00     0.174 C 
BRANCH  15  16
ATOM     16  C   UNL d   1      -1.874   0.540  -1.222  0.00  0.00    -0.040 A 
ATOM     17  C   UNL d   1      -2.189   1.197  -2.422  0.00  0.00     0.009 A 
ATOM     18  C   UNL d   1      -3.018   2.323  -2.426  0.00  0.00     0.001 A 
ATOM     19  C   UNL d   1      -3.558   2.800  -1.234  0.00  0.00     0.000 A 
ATOM     20  C   UNL d   1      -3.287   2.138  -0.041  0.00  0.00     0.001 A 
ATOM     21  C   UNL d   1      -2.461   1.012  -0.037  0.00  0.00     0.009 A 
ENDBRANCH  15  16
ENDBRANCH   5  15
ENDBRANCH   4   5
ENDBRANCH   3   4
TORSDOF 6
