REMARK  9 active torsions:
REMARK  status: ('A' for Active; 'I' for Inactive)
REMARK    1  A    between atoms: C_2  and  S_1 
REMARK    2  A    between atoms: N_8  and  S_1 
REMARK    3  A    between atoms: C_11  and  N_8 
REMARK    4  A    between atoms: C_12  and  C_11 
REMARK    5  A    between atoms: C_15  and  C_12 
REMARK    6  A    between atoms: O_22  and  C_12 
REMARK    7  A    between atoms: O_13  and  C_15 
REMARK    8  A    between atoms: C_14  and  O_13 
REMARK    9  A    between atoms: O_24  and  C_16 
ROOT
ATOM      1  C   UNL d   1       0.865  -0.417   2.479  0.00  0.00     0.138 C 
ENDROOT
BRANCH   1   2
ATOM      2  N   UNL d   1       0.455   0.446   1.355  0.00  0.00    -0.213 NA
ATOM      3  H   UNL d   1      -0.531   0.694   1.309  0.00  0.00     0.140 HD
BRANCH   2   4
ATOM      4  S   UNL d   1       1.006   0.014  -0.180  0.00  0.00     0.246 S 
ATOM      5  O   UNL d   1       0.469   0.993  -1.099  0.00  0.00    -0.206 OA
ATOM      6  O   UNL d   1       2.413  -0.291  -0.098  0.00  0.00    -0.206 OA
BRANCH   4   7
ATOM      7  C   UNL d   1       0.235  -1.435  -0.644  0.00  0.00     0.129 A 
ATOM      8  C   UNL d   1      -1.120  -1.653  -0.753  0.00  0.00     0.097 A 
ATOM      9  O   UNL d   1      -1.325  -2.937  -1.157  0.00  0.00    -0.241 OA
ATOM     10  C   UNL d   1      -2.340  -0.849  -0.560  0.00  0.00     0.081 C 
ATOM     11  N   UNL d   1      -0.111  -3.571  -1.322  0.00  0.00    -0.264 N 
ATOM     12  C   UNL d   1       0.828  -2.661  -1.026  0.00  0.00     0.054 A 
ATOM     13  HN  UNL d   1       0.042  -4.537  -1.611  1.00  0.00     0.194 HD
ATOM     14  C   UNL d   1       2.259  -3.032  -1.130  0.00  0.00     0.072 C 
ENDBRANCH   4   7
ENDBRANCH   2   4
ENDBRANCH   1   2
BRANCH   1  15
ATOM     15  C   UNL d   1       0.338   0.120   3.822  0.00  0.00     0.156 C 
BRANCH  15  16
ATOM     16  C   UNL d   1      -1.196   0.139   3.910  0.00  0.00     0.208 C 
BRANCH  16  17
ATOM     17  O   UNL d   1      -1.690  -1.179   3.642  0.00  0.00    -0.349 OA
BRANCH  17  18
ATOM     18  C   UNL d   1      -3.049  -1.333   3.619  0.00  0.00     0.069 A 
ATOM     19  C   UNL d   1      -3.988  -0.322   3.820  0.00  0.00     0.039 A 
ATOM     20  C   UNL d   1      -5.359  -0.604   3.759  0.00  0.00     0.039 A 
ATOM     21  C   UNL d   1      -5.802  -1.900   3.505  0.00  0.00     0.068 A 
ATOM     22  C   UNL d   1      -4.861  -2.912   3.307  0.00  0.00     0.039 A 
ATOM     23  C   UNL d   1      -3.493  -2.630   3.362  0.00  0.00     0.039 A 
BRANCH  21  24
ATOM     24  O   UNL d   1      -7.107  -2.301   3.433  0.00  0.00    -0.356 OA
ATOM     25  C   UNL d   1      -8.098  -1.298   3.623  0.00  0.00     0.210 C 
ENDBRANCH  21  24
ENDBRANCH  17  18
ENDBRANCH  16  17
ENDBRANCH  15  16
BRANCH  15  26
ATOM     26  O   UNL d   1       0.855  -0.693   4.885  0.00  0.00    -0.392 OA
ATOM     27  H   UNL d   1       0.388  -1.549   4.846  0.00  0.00     0.210 HD
ENDBRANCH  15  26
ENDBRANCH   1  15
TORSDOF 9
