REMARK  2 active torsions:
REMARK  status: ('A' for Active; 'I' for Inactive)
REMARK    1  A    between atoms: C_9  and  N_3 
REMARK    2  A    between atoms: C_12  and  C_9 
ROOT
ATOM      1  N   UNL d   1       0.588   0.700  -0.770  0.00  0.00    -0.274 N 
ATOM      2  C   UNL d   1      -0.026  -0.485  -1.082  0.00  0.00     0.329 A 
ATOM      3  N   UNL d   1      -0.624  -1.143  -0.015  0.00  0.00    -0.304 N 
ATOM      4  C   UNL d   1       0.016   0.529   1.570  0.00  0.00     0.128 A 
ATOM      5  C   UNL d   1       0.710   1.246   0.479  0.00  0.00     0.271 A 
ATOM      6  C   UNL d   1      -0.608  -0.618   1.267  0.00  0.00     0.124 A 
ATOM      7  C   UNL d   1       0.036   1.047   2.890  0.00  0.00     0.106 C 
ATOM      8  N   UNL d   1       0.019   1.417   3.989  0.00  0.00    -0.191 NA
ATOM      9  O   UNL d   1      -0.015  -0.898  -2.238  0.00  0.00    -0.246 OA
ATOM     10  O   UNL d   1       1.366   2.263   0.671  0.00  0.00    -0.266 OA
ATOM     11  H   UNL d   1       1.051   1.178  -1.528  0.00  0.00     0.173 HD
ENDROOT
BRANCH   3  12
ATOM     12  C   UNL d   1      -1.311  -2.413  -0.266  0.00  0.00     0.171 C 
BRANCH  12  13
ATOM     13  C   UNL d   1      -2.808  -2.249  -0.390  0.00  0.00    -0.040 A 
ATOM     14  C   UNL d   1      -3.360  -1.586  -1.496  0.00  0.00     0.009 A 
ATOM     15  C   UNL d   1      -4.742  -1.424  -1.611  0.00  0.00     0.001 A 
ATOM     16  C   UNL d   1      -5.587  -1.928  -0.625  0.00  0.00     0.000 A 
ATOM     17  C   UNL d   1      -5.052  -2.598   0.474  0.00  0.00     0.001 A 
ATOM     18  C   UNL d   1      -3.670  -2.757   0.593  0.00  0.00     0.009 A 
ENDBRANCH  12  13
ENDBRANCH   3  12
TORSDOF 2
