REMARK  2 active torsions:
REMARK  status: ('A' for Active; 'I' for Inactive)
REMARK    1  A    between atoms: C_7  and  C_3 
REMARK    2  A    between atoms: C_8  and  C_4 
ROOT
ATOM      1  N   UNL d   1       1.439  -0.601  -0.042  0.00  0.00    -0.349 N 
ATOM      2  HN  UNL d   1       2.322  -1.112  -0.056  1.00  0.00     0.166 HD
ATOM      3  C   UNL d   1       0.244  -1.160  -0.051  0.00  0.00     0.085 A 
ATOM      4  C   UNL d   1       1.323   0.781  -0.011  0.00  0.00     0.050 A 
ATOM      5  S   UNL d   1      -1.075  -0.048   0.003  0.00  0.00    -0.081 SA
ATOM      6  C   UNL d   1       0.028   1.254   0.000  0.00  0.00     0.082 A 
ENDROOT
BRANCH   4   7
ATOM      7  C   UNL d   1       2.492   1.650  -0.007  0.00  0.00    -0.006 A 
ATOM      8  C   UNL d   1       2.456   2.899   0.629  0.00  0.00     0.053 A 
ATOM      9  C   UNL d   1       3.571   3.732   0.613  0.00  0.00     0.103 A 
ATOM     10  O   UNL d   1       3.436   4.939   1.250  0.00  0.00    -0.346 OA
ATOM     11  C   UNL d   1       4.747   3.320  -0.018  0.00  0.00     0.102 A 
ATOM     12  C   UNL d   1       4.486   5.840   0.888  0.00  0.00     0.202 C 
ATOM     13  C   UNL d   1       5.835   5.138   0.918  0.00  0.00     0.202 C 
ATOM     14  O   UNL d   1       5.885   4.084  -0.051  0.00  0.00    -0.346 OA
ATOM     15  C   UNL d   1       4.795   2.084  -0.659  0.00  0.00     0.040 A 
ATOM     16  C   UNL d   1       3.674   1.247  -0.646  0.00  0.00     0.017 A 
ENDBRANCH   4   7
BRANCH   3  17
ATOM     17  C   UNL d   1      -0.003  -2.610  -0.064  0.00  0.00     0.001 A 
ATOM     18  C   UNL d   1      -1.136  -3.164  -0.675  0.00  0.00     0.057 A 
ATOM     19  C   UNL d   1      -1.338  -4.540  -0.664  0.00  0.00     0.123 A 
ATOM     20  F   UNL d   1      -2.435  -5.032  -1.259  0.00  0.00    -0.206 F 
ATOM     21  C   UNL d   1      -0.431  -5.407  -0.055  0.00  0.00    -0.023 A 
ATOM     22  C   UNL d   1       0.707  -4.865   0.550  0.00  0.00     0.011 A 
ATOM     23  C   UNL d   1      -0.688  -6.881  -0.068  0.00  0.00     0.051 C 
ATOM     24  C   UNL d   1       0.920  -3.481   0.539  0.00  0.00     0.015 A 
ENDBRANCH   3  17
TORSDOF 2
