REMARK  7 active torsions:
REMARK  status: ('A' for Active; 'I' for Inactive)
REMARK    1  A    between atoms: N_3  and  S_1 
REMARK    2  A    between atoms: C_13  and  S_1 
REMARK    3  A    between atoms: C_2  and  C_6 
REMARK    4  A    between atoms: C_5  and  N_3 
REMARK    5  A    between atoms: C_11  and  CA_4 
REMARK       I    between atoms: C_6  and  N_12 
REMARK    6  A    between atoms: OXT_28  and  C_11 
REMARK    7  A    between atoms: N_12  and  C_27 
ROOT
ATOM      1  C   UNL d   1       0.486   1.612   0.164  0.00  0.00     0.075 A 
ATOM      2  C   UNL d   1      -0.767   1.824   0.748  0.00  0.00     0.027 A 
ATOM      3  C   UNL d   1       1.289   2.693  -0.185  0.00  0.00     0.027 A 
ATOM      4  C   UNL d   1      -0.416   4.230   0.626  0.00  0.00     0.035 A 
ATOM      5  C   UNL d   1      -1.218   3.132   0.965  0.00  0.00     0.031 A 
ATOM      6  C   UNL d   1       0.837   3.994   0.046  0.00  0.00     0.031 A 
ENDROOT
BRANCH   4   7
ATOM      7  N   UNL d   1      -0.899   5.524   0.920  0.00  0.00    -0.322 N 
ATOM      8  C   UNL d   1      -0.243   6.718   0.676  0.00  0.00     0.275 C 
ATOM      9  O   UNL d   1       0.801   6.876   0.052  0.00  0.00    -0.266 OA
ATOM     10  H   UNL d   1      -1.819   5.597   1.343  0.00  0.00     0.169 HD
BRANCH   8  11
ATOM     11  C   UNL d   1      -0.952   7.937   1.131  0.00  0.00     0.134 A 
ATOM     12  CA  UNL d   1      -0.251   9.090   1.456  0.00  0.00     0.139 A 
ATOM     13  N   UNL d   1      -0.853  10.324   1.524  0.00  0.00    -0.357 N 
ATOM     14  C   UNL d   1      -2.190  10.318   1.316  0.00  0.00     0.105 A 
ATOM     15  HN  UNL d   1      -0.331  11.178   1.718  1.00  0.00     0.165 HD
ATOM     16  C   UNL d   1      -2.903   9.152   1.064  0.00  0.00     0.105 A 
ATOM     17  N   UNL d   1      -2.311   7.937   0.963  0.00  0.00    -0.358 N 
ATOM     18  HN  UNL d   1      -2.840   7.084   0.777  1.00  0.00     0.165 HD
BRANCH  12  19
ATOM     19  C   UNL d   1       1.177   9.072   1.864  0.00  0.00     0.196 C 
ATOM     20  O   UNL d   1       1.737   8.139   2.407  0.00  0.00    -0.645 OA
BRANCH  19  21
ATOM     21  OXT UNL d   1       1.744  10.288   1.662  0.00  0.00    -0.772 OA
ATOM     22  HXT UNL d   1       1.071  10.930   1.344  0.00  0.00     0.167 HD
ENDBRANCH  19  21
ENDBRANCH  12  19
ENDBRANCH   8  11
ENDBRANCH   4   7
BRANCH   1  23
ATOM     23  S   UNL d   1       1.137  -0.035   0.027  0.00  0.00     0.248 S 
ATOM     24  O   UNL d   1       2.582   0.082  -0.029  0.00  0.00    -0.205 OA
ATOM     25  O   UNL d   1       0.517  -0.846   1.054  0.00  0.00    -0.205 OA
BRANCH  23  26
ATOM     26  N   UNL d   1       0.671  -0.531  -1.504  0.00  0.00    -0.151 NA
ATOM     27  H   UNL d   1       1.379  -1.156  -1.875  0.00  0.00     0.149 HD
BRANCH  26  28
ATOM     28  C   UNL d   1      -0.590  -1.115  -1.525  0.00  0.00     0.171 A 
ATOM     29  N   UNL d   1      -1.642  -0.301  -1.618  0.00  0.00    -0.336 N 
ATOM     30  C   UNL d   1      -2.846  -0.895  -1.517  0.00  0.00     0.009 A 
ATOM     31  HN  UNL d   1      -1.541   0.704  -1.756  1.00  0.00     0.168 HD
ATOM     32  C   UNL d   1      -4.058  -0.026  -1.672  0.00  0.00     0.068 C 
ATOM     33  C   UNL d   1      -2.984  -2.248  -1.261  0.00  0.00     0.049 A 
ATOM     34  C   UNL d   1      -1.817  -2.984  -1.154  0.00  0.00     0.009 A 
ATOM     35  N   UNL d   1      -0.601  -2.433  -1.323  0.00  0.00    -0.336 N 
ATOM     36  C   UNL d   1      -1.866  -4.438  -0.795  0.00  0.00     0.068 C 
ATOM     37  HN  UNL d   1       0.255  -2.987  -1.298  1.00  0.00     0.168 HD
ENDBRANCH  26  28
ENDBRANCH  23  26
ENDBRANCH   1  23
TORSDOF 7
