REMARK  4 active torsions:
REMARK  status: ('A' for Active; 'I' for Inactive)
REMARK    1  A    between atoms: C_8  and  N_2 
REMARK    2  A    between atoms: C_7  and  C_9 
REMARK    3  A    between atoms: O_14  and  C_7 
REMARK    4  A    between atoms: C_13  and  C_8 
ROOT
ATOM      1  C   UNL d   1       2.147  -2.413   0.031  0.00  0.00     0.185 C 
ENDROOT
BRANCH   1   2
ATOM      2  N   UNL d   1       1.570  -1.300  -0.701  0.00  0.00    -0.269 N 
ATOM      3  N   UNL d   1       1.260  -0.157  -0.053  0.00  0.00    -0.019 NA
ATOM      4  N   UNL d   1       0.710   0.667  -0.937  0.00  0.00    -0.282 N 
ATOM      5  C   UNL d   1       0.662   0.025  -2.145  0.00  0.00     0.074 A 
ATOM      6  HN  UNL d   1       0.381   1.614  -0.748  1.00  0.00     0.184 HD
ATOM      7  C   UNL d   1       0.166   0.450  -3.386  0.00  0.00     0.033 A 
ATOM      8  C   UNL d   1       1.206  -1.249  -2.022  0.00  0.00     0.077 A 
ATOM      9  C   UNL d   1       0.237  -0.431  -4.473  0.00  0.00     0.002 A 
ATOM     10  C   UNL d   1       0.789  -1.706  -4.326  0.00  0.00     0.002 A 
ATOM     11  C   UNL d   1       1.286  -2.146  -3.093  0.00  0.00     0.033 A 
ENDBRANCH   1   2
BRANCH   1  12
ATOM     12  C   UNL d   1       3.656  -2.363   0.009  0.00  0.00    -0.039 A 
ATOM     13  C   UNL d   1       4.351  -1.652   0.998  0.00  0.00     0.010 A 
ATOM     14  C   UNL d   1       5.739  -1.523   0.934  0.00  0.00     0.018 A 
ATOM     15  C   UNL d   1       6.456  -2.106  -0.118  0.00  0.00     0.039 A 
ATOM     16  C   UNL d   1       5.773  -2.844  -1.092  0.00  0.00     0.018 A 
ATOM     17  C   UNL d   1       4.382  -2.971  -1.027  0.00  0.00     0.010 A 
BRANCH  15  18
ATOM     18  C   UNL d   1       7.917  -1.861  -0.190  0.00  0.00     0.292 C 
ATOM     19  O   UNL d   1       8.474  -0.952   0.408  0.00  0.00    -0.259 OA
BRANCH  18  20
ATOM     20  O   UNL d   1       8.523  -2.779  -0.983  0.00  0.00    -0.323 OA
ATOM     21  C   UNL d   1       9.933  -2.584  -1.104  0.00  0.00     0.213 C 
ENDBRANCH  18  20
ENDBRANCH  15  18
ENDBRANCH   1  12
TORSDOF 4
