REMARK  3 active torsions:
REMARK  status: ('A' for Active; 'I' for Inactive)
REMARK    1  A    between atoms: N_5  and  S_1 
REMARK    2  A    between atoms: C_7  and  S_1 
REMARK    3  A    between atoms: C_4  and  N_5 
ROOT
ATOM      1  N   UNL d   1      17.976  -9.870  -5.094  0.00  0.00    -0.310 N 
ATOM      2  H   UNL d   1      18.660  -9.233  -5.495  0.00  0.00     0.172 HD
ENDROOT
BRANCH   1   3
ATOM      3  S   UNL d   1      18.792 -11.161  -4.385  0.00  0.00     0.259 S 
ATOM      4  O   UNL d   1      18.550 -11.149  -2.960  0.00  0.00    -0.201 OA
ATOM      5  O   UNL d   1      20.127 -11.140  -4.936  0.00  0.00    -0.201 OA
BRANCH   3   6
ATOM      6  C   UNL d   1      17.950 -12.546  -5.090  0.00  0.00     0.079 A 
ATOM      7  C   UNL d   1      18.046 -12.769  -6.469  0.00  0.00     0.028 A 
ATOM      8  C   UNL d   1      17.345 -13.829  -7.036  0.00  0.00     0.044 A 
ATOM      9  C   UNL d   1      16.572 -14.654  -6.224  0.00  0.00     0.116 A 
ATOM     10  C   UNL d   1      16.500 -14.452  -4.848  0.00  0.00     0.044 A 
ATOM     11  F   UNL d   1      15.881 -15.659  -6.777  0.00  0.00    -0.206 F 
ATOM     12  C   UNL d   1      17.196 -13.393  -4.271  0.00  0.00     0.028 A 
ENDBRANCH   3   6
ENDBRANCH   1   3
BRANCH   1  13
ATOM     13  C   UNL d   1      16.758  -9.306  -4.480  0.00  0.00     0.102 C 
ATOM     14  C   UNL d   1      16.094  -8.181  -5.384  0.00  0.00    -0.016 C 
ATOM     15  C   UNL d   1      15.409  -7.234  -4.337  0.00  0.00    -0.035 C 
ATOM     16  C   UNL d   1      17.201  -7.246  -5.930  0.00  0.00     0.012 C 
ATOM     17  C   UNL d   1      15.183  -8.738  -6.464  0.00  0.00     0.018 C 
ATOM     18  C   UNL d   1      16.736  -7.082  -3.554  0.00  0.00    -0.004 C 
ATOM     19  C   UNL d   1      14.884  -5.874  -4.852  0.00  0.00     0.016 C 
ATOM     20  C   UNL d   1      14.243  -7.873  -3.561  0.00  0.00     0.016 C 
ATOM     21  C   UNL d   1      17.099  -8.530  -3.192  0.00  0.00     0.032 C 
ATOM     22  C   UNL d   1      17.755  -6.622  -4.636  0.00  0.00     0.006 C 
ENDBRANCH   1  13
TORSDOF 3
