REMARK  1 active torsions:
REMARK  status: ('A' for Active; 'I' for Inactive)
REMARK    1  A    between atoms: C_6  and  C_2 
ROOT
ATOM      1  C   UNL d   1       2.091  -2.682   0.008  0.00  0.00    -0.018 A 
ATOM      2  C   UNL d   1       2.975  -2.933   1.067  0.00  0.00     0.014 A 
ATOM      3  C   UNL d   1       2.000  -3.606  -1.044  0.00  0.00     0.014 A 
ATOM      4  C   UNL d   1       3.630  -5.019   0.040  0.00  0.00     0.034 A 
ATOM      5  C   UNL d   1       2.767  -4.774  -1.025  0.00  0.00     0.024 A 
ATOM      6  C   UNL d   1       3.742  -4.101   1.084  0.00  0.00     0.024 A 
ATOM      7 CL   UNL d   1       4.561  -6.465   0.070  0.00  0.00    -0.084 Cl
ENDROOT
BRANCH   1   8
ATOM      8  C   UNL d   1       1.275  -1.467  -0.006  0.00  0.00     0.024 A 
ATOM      9  C   UNL d   1       1.698  -0.323  -0.555  0.00  0.00     0.051 A 
ATOM     10  C   UNL d   1       0.754   0.813  -0.498  0.00  0.00     0.080 A 
ATOM     11  S   UNL d   1      -0.747   0.393   0.316  0.00  0.00    -0.041 SA
ATOM     12  S   UNL d   1       1.052   2.332  -1.128  0.00  0.00    -0.072 SA
ATOM     13  S   UNL d   1      -0.289  -1.557   0.714  0.00  0.00    -0.051 SA
ENDBRANCH   1   8
TORSDOF 1
