REMARK  2 active torsions:
REMARK  status: ('A' for Active; 'I' for Inactive)
REMARK    1  A    between atoms: C_8  and  C_2 
REMARK    2  A    between atoms: S_9  and  C_5 
ROOT
ATOM      1  N   UNL d   1       0.740   0.643   0.516  0.00  0.00    -0.315 N 
ATOM      2  C   UNL d   1       1.036  -0.622   0.042  0.00  0.00     0.134 A 
ATOM      3  N   UNL d   1      -0.062  -1.111  -0.515  0.00  0.00    -0.283 N 
ATOM      4  HN  UNL d   1      -0.136  -2.014  -0.983  1.00  0.00     0.188 HD
ATOM      5  C   UNL d   1      -0.594   0.834   0.265  0.00  0.00     0.159 A 
ATOM      6  N   UNL d   1      -1.081  -0.209  -0.361  0.00  0.00    -0.278 N 
ATOM      7  HN  UNL d   1      -2.044  -0.327  -0.677  1.00  0.00     0.189 HD
ATOM      8  C   UNL d   1       1.644   1.609   1.087  0.00  0.00     0.160 C 
ENDROOT
BRANCH   2   9
ATOM      9  C   UNL d   1       2.325  -1.321   0.075  0.00  0.00     0.009 A 
ATOM     10  C   UNL d   1       3.202  -1.246   1.164  0.00  0.00     0.016 A 
ATOM     11  C   UNL d   1       4.432  -1.914   1.142  0.00  0.00     0.007 A 
ATOM     12  C   UNL d   1       4.793  -2.704   0.046  0.00  0.00    -0.062 A 
ATOM     13  C   UNL d   1       3.904  -2.822  -1.024  0.00  0.00     0.007 A 
ATOM     14  C   UNL d   1       6.114  -3.416   0.040  0.00  0.00     0.048 C 
ATOM     15  C   UNL d   1       2.684  -2.138  -1.008  0.00  0.00     0.016 A 
ENDBRANCH   2   9
BRANCH   5  16
ATOM     16  S   UNL d   1      -1.514   2.234   0.698  0.00  0.00    -0.105 SA
ATOM     17  H   UNL d   1      -0.588   2.947   1.348  0.00  0.00     0.110 HD
ENDBRANCH   5  16
TORSDOF 2
