REMARK  4 active torsions:
REMARK  status: ('A' for Active; 'I' for Inactive)
REMARK    1  A    between atoms: C_4  and  C_1 
REMARK       I    between atoms: N_7  and  C_4 
REMARK    2  A    between atoms: C_5  and  N_9 
REMARK    3  A    between atoms: C_25  and  C_20 
REMARK    4  A    between atoms: C_26  and  C_25 
ROOT
ATOM      1  C   UNL d   1       3.844  -0.167  -0.079  0.00  0.00     0.262 C 
ATOM      2  N   UNL d   1       4.692  -1.267   0.043  0.00  0.00    -0.344 N 
ATOM      3  N   UNL d   1       5.967  -3.691   0.775  0.00  0.00    -0.214 N 
ATOM      4  O   UNL d   1       3.812   0.680   0.825  0.00  0.00    -0.267 OA
ATOM      5  C   UNL d   1       4.940  -2.320  -0.954  0.00  0.00     0.146 C 
ATOM      6  C   UNL d   1       5.667  -1.282   1.150  0.00  0.00     0.146 C 
ATOM      7  C   UNL d   1       4.954  -3.704  -0.279  0.00  0.00     0.161 C 
ATOM      8  C   UNL d   1       5.807  -2.670   1.810  0.00  0.00     0.161 C 
ENDROOT
BRANCH   1   9
ATOM      9  C   UNL d   1       3.053   0.019  -1.285  0.00  0.00     0.096 C 
ATOM     10  S   UNL d   1       3.108   1.579  -2.002  0.00  0.00    -0.082 SA
ATOM     11  C   UNL d   1       2.030   1.142  -3.261  0.00  0.00     0.017 A 
ATOM     12  C   UNL d   1       1.543   1.982  -4.282  0.00  0.00     0.020 A 
ATOM     13  C   UNL d   1       1.659  -0.201  -3.172  0.00  0.00     0.004 A 
ATOM     14  C   UNL d   1       0.716   1.440  -5.267  0.00  0.00     0.001 A 
ATOM     15  C   UNL d   1       0.395   0.092  -5.250  0.00  0.00     0.001 A 
ATOM     16  C   UNL d   1       0.849  -0.728  -4.212  0.00  0.00     0.014 A 
ATOM     17  C   UNL d   1       2.156  -0.791  -1.951  0.00  0.00     0.068 C 
ATOM     18 CL   UNL d   1       1.603  -2.336  -1.422  0.00  0.00    -0.082 Cl
ENDBRANCH   1   9
BRANCH   3  19
ATOM     19  C   UNL d   1       6.740  -4.800   0.997  0.00  0.00     0.679 A 
ATOM     20  N   UNL d   1       7.489  -4.866   2.107  0.00  0.00    -0.201 N 
ATOM     21  C   UNL d   1       8.314  -5.923   2.247  0.00  0.00     0.114 A 
ATOM     22  HN  UNL d   1       7.436  -4.141   2.823  1.00  0.00     0.183 HD
ATOM     23  C   UNL d   1       8.437  -6.929   1.317  0.00  0.00    -0.026 A 
ATOM     24  C   UNL d   1       7.619  -6.785   0.224  0.00  0.00     0.114 A 
ATOM     25  N   UNL d   1       6.778  -5.750   0.047  0.00  0.00    -0.201 N 
ATOM     26  HN  UNL d   1       6.187  -5.688  -0.782  1.00  0.00     0.183 HD
BRANCH  23  27
ATOM     27  C   UNL d   1       9.376  -8.082   1.490  0.00  0.00     0.041 C 
BRANCH  27  28
ATOM     28  C   UNL d   1      10.429  -8.206   0.383  0.00  0.00     0.000 C 
ATOM     29  C   UNL d   1      11.375  -7.015   0.317  0.00  0.00     0.005 C 
ENDBRANCH  27  28
ENDBRANCH  23  27
ENDBRANCH   3  19
TORSDOF 4
