REMARK  6 active torsions:
REMARK  status: ('A' for Active; 'I' for Inactive)
REMARK    1  A    between atoms: N_2  and  S_1 
REMARK    2  A    between atoms: C_12  and  S_1 
REMARK    3  A    between atoms: C_3  and  N_2 
REMARK    4  A    between atoms: C_4  and  N_7 
REMARK    5  A    between atoms: C_21  and  C_5 
REMARK       I    between atoms: C_6  and  N_18 
REMARK       I    between atoms: N_7  and  C_6 
REMARK    6  A    between atoms: N_18  and  C_26 
ROOT
ATOM      1  C   UNL d   1       0.116  -1.524  -0.824  0.00  0.00     0.075 A 
ATOM      2  C   UNL d   1       1.056  -2.470  -1.241  0.00  0.00     0.027 A 
ATOM      3  C   UNL d   1      -1.217  -1.893  -0.633  0.00  0.00     0.027 A 
ATOM      4  C   UNL d   1      -0.635  -4.209  -1.059  0.00  0.00     0.036 A 
ATOM      5  C   UNL d   1       0.675  -3.811  -1.360  0.00  0.00     0.031 A 
ATOM      6  C   UNL d   1      -1.589  -3.233  -0.760  0.00  0.00     0.031 A 
ENDROOT
BRANCH   4   7
ATOM      7  N   UNL d   1      -0.898  -5.593  -0.990  0.00  0.00    -0.309 N 
ATOM      8  C   UNL d   1      -2.111  -6.207  -0.817  0.00  0.00     0.325 C 
ATOM      9  N   UNL d   1      -2.082  -7.576  -0.763  0.00  0.00    -0.307 N 
ATOM     10  O   UNL d   1      -3.210  -5.653  -0.846  0.00  0.00    -0.247 OA
ATOM     11  H   UNL d   1      -2.942  -8.010  -1.072  0.00  0.00     0.170 HD
ATOM     12  H   UNL d   1      -0.116  -6.210  -1.170  0.00  0.00     0.170 HD
BRANCH   9  13
ATOM     13  C   UNL d   1      -1.018  -8.417  -0.478  0.00  0.00     0.054 A 
ATOM     14  C   UNL d   1      -0.729  -9.624  -1.212  0.00  0.00     0.008 A 
ATOM     15  C   UNL d   1       0.303 -10.323  -0.609  0.00  0.00     0.064 A 
ATOM     16  S   UNL d   1       0.938  -9.528   0.766  0.00  0.00    -0.111 SA
ATOM     17  C   UNL d   1      -0.145  -8.221   0.573  0.00  0.00     0.080 A 
BRANCH  14  18
ATOM     18  C   UNL d   1      -1.253 -10.027  -2.529  0.00  0.00    -0.023 A 
ATOM     19  C   UNL d   1      -1.625  -9.046  -3.464  0.00  0.00     0.012 A 
ATOM     20  C   UNL d   1      -2.011  -9.388  -4.761  0.00  0.00     0.001 A 
ATOM     21  C   UNL d   1      -2.013 -10.722  -5.152  0.00  0.00     0.000 A 
ATOM     22  C   UNL d   1      -1.659 -11.711  -4.238  0.00  0.00     0.001 A 
ATOM     23  C   UNL d   1      -1.294 -11.370  -2.930  0.00  0.00     0.012 A 
ENDBRANCH  14  18
ENDBRANCH   9  13
ENDBRANCH   4   7
BRANCH   1  24
ATOM     24  S   UNL d   1       0.675   0.050  -0.208  0.00  0.00     0.248 S 
ATOM     25  O   UNL d   1      -0.389   0.580   0.622  0.00  0.00    -0.205 OA
ATOM     26  O   UNL d   1       2.000  -0.160   0.340  0.00  0.00    -0.205 OA
BRANCH  24  27
ATOM     27  N   UNL d   1       0.698   1.025  -1.573  0.00  0.00    -0.151 NA
ATOM     28  H   UNL d   1       0.134   1.843  -1.360  0.00  0.00     0.149 HD
BRANCH  27  29
ATOM     29  C   UNL d   1       1.994   1.426  -1.893  0.00  0.00     0.171 A 
ATOM     30  N   UNL d   1       2.688   0.626  -2.703  0.00  0.00    -0.336 N 
ATOM     31  C   UNL d   1       3.985   0.953  -2.857  0.00  0.00     0.009 A 
ATOM     32  HN  UNL d   1       2.267  -0.176  -3.172  1.00  0.00     0.168 HD
ATOM     33  C   UNL d   1       4.799   0.105  -3.786  0.00  0.00     0.068 C 
ATOM     34  C   UNL d   1       4.572   2.006  -2.175  0.00  0.00     0.049 A 
ATOM     35  C   UNL d   1       3.751   2.747  -1.343  0.00  0.00     0.009 A 
ATOM     36  N   UNL d   1       2.437   2.488  -1.217  0.00  0.00    -0.336 N 
ATOM     37  C   UNL d   1       4.322   3.848  -0.500  0.00  0.00     0.068 C 
ATOM     38  HN  UNL d   1       1.821   3.065  -0.644  1.00  0.00     0.168 HD
ENDBRANCH  27  29
ENDBRANCH  24  27
ENDBRANCH   1  24
TORSDOF 6
