REMARK  9 active torsions:
REMARK  status: ('A' for Active; 'I' for Inactive)
REMARK    1  A    between atoms: C_9  and  C_1 
REMARK    2  A    between atoms: O_8  and  C_4 
REMARK    3  A    between atoms: C_13  and  C_9 
REMARK    4  A    between atoms: C_19  and  C_13 
REMARK    5  A    between atoms: C_14  and  C_16 
REMARK    6  A    between atoms: C_16  and  C_18 
REMARK    7  A    between atoms: C_17  and  C_20 
REMARK    8  A    between atoms: C_18  and  C_17 
REMARK    9  A    between atoms: C_20  and  C_19 
ROOT
ATOM      1  C   UNL d   1      -1.367  -1.424  -0.025  0.00  0.00     0.044 A 
ATOM      2  C   UNL d   1      -0.971  -1.074  -1.430  0.00  0.00     0.256 A 
ATOM      3  N   UNL d   1       0.013  -0.111  -1.613  0.00  0.00    -0.317 N 
ATOM      4  C   UNL d   1      -0.764  -0.813   1.011  0.00  0.00     0.089 A 
ATOM      5  C   UNL d   1       0.283   0.195   0.792  0.00  0.00     0.025 A 
ATOM      6  C   UNL d   1       0.654   0.536  -0.517  0.00  0.00     0.050 A 
ATOM      7  O   UNL d   1      -1.520  -1.655  -2.367  0.00  0.00    -0.267 OA
ATOM      8  C   UNL d   1       0.400   0.222  -2.976  0.00  0.00     0.159 C 
ATOM      9  C   UNL d   1       0.928   0.818   1.876  0.00  0.00     0.016 A 
ATOM     10  C   UNL d   1       1.655   1.504  -0.712  0.00  0.00     0.031 A 
ATOM     11  C   UNL d   1       1.920   1.775   1.669  0.00  0.00     0.001 A 
ATOM     12  C   UNL d   1       2.282   2.120   0.373  0.00  0.00     0.002 A 
ENDROOT
BRANCH   1  13
ATOM     13  C   UNL d   1      -2.433  -2.490   0.091  0.00  0.00     0.047 C 
BRANCH  13  14
ATOM     14  C   UNL d   1      -1.786  -3.875   0.074  0.00  0.00     0.005 C 
BRANCH  14  15
ATOM     15  C   UNL d   1      -2.807  -5.011   0.102  0.00  0.00     0.000 C 
BRANCH  15  16
ATOM     16  C   UNL d   1      -2.073  -6.353   0.104  0.00  0.00     0.000 C 
BRANCH  16  17
ATOM     17  C   UNL d   1      -3.028  -7.543   0.132  0.00  0.00     0.000 C 
BRANCH  17  18
ATOM     18  C   UNL d   1      -2.245  -8.858   0.144  0.00  0.00     0.000 C 
BRANCH  18  19
ATOM     19  C   UNL d   1      -3.186 -10.060   0.176  0.00  0.00    -0.000 C 
BRANCH  19  20
ATOM     20  C   UNL d   1      -2.413 -11.377   0.193  0.00  0.00    -0.005 C 
ATOM     21  C   UNL d   1      -3.361 -12.565   0.224  0.00  0.00     0.005 C 
ENDBRANCH  19  20
ENDBRANCH  18  19
ENDBRANCH  17  18
ENDBRANCH  16  17
ENDBRANCH  15  16
ENDBRANCH  14  15
ENDBRANCH  13  14
ENDBRANCH   1  13
BRANCH   4  22
ATOM     22  O   UNL d   1      -1.036  -1.092   2.335  0.00  0.00    -0.359 OA
ATOM     23  H   UNL d   1      -1.668  -1.826   2.395  0.00  0.00     0.217 HD
ENDBRANCH   4  22
TORSDOF 9
