REMARK  5 active torsions:
REMARK  status: ('A' for Active; 'I' for Inactive)
REMARK    1  A    between atoms: C_4  and  C_1 
REMARK    2  A    between atoms: C_2  and  C_5 
REMARK    3  A    between atoms: C_3  and  C_6 
REMARK       I    between atoms: N_7  and  C_3 
REMARK    4  A    between atoms: C_21  and  N_7 
REMARK    5  A    between atoms: O_24  and  C_13 
ROOT
ATOM      1  C   UNL d   1       0.379   1.212   0.293  0.00  0.00     0.049 A 
ATOM      2  C   UNL d   1      -0.509   2.746   1.970  0.00  0.00     0.049 A 
ATOM      3  C   UNL d   1       0.945   3.585   0.179  0.00  0.00     0.034 A 
ATOM      4  C   UNL d   1      -0.394   1.454   1.442  0.00  0.00     0.032 A 
ATOM      5  C   UNL d   1       0.156   3.798   1.324  0.00  0.00     0.033 A 
ATOM      6  C   UNL d   1       1.054   2.284  -0.327  0.00  0.00     0.033 A 
ENDROOT
BRANCH   3   7
ATOM      7  C   UNL d   1       1.657   4.781  -0.377  0.00  0.00     0.256 C 
ATOM      8  N   UNL d   1       2.482   4.603  -1.477  0.00  0.00    -0.322 N 
ATOM      9  H   UNL d   1       2.464   3.725  -1.974  0.00  0.00     0.169 HD
ATOM     10  O   UNL d   1       1.479   5.855   0.187  0.00  0.00    -0.267 OA
BRANCH   8  11
ATOM     11  C   UNL d   1       3.406   5.559  -1.964  0.00  0.00     0.050 A 
ATOM     12  C   UNL d   1       3.674   6.786  -1.359  0.00  0.00     0.119 A 
ATOM     13  N   UNL d   1       4.627   7.657  -1.776  0.00  0.00    -0.345 N 
ATOM     14  C   UNL d   1       5.348   7.299  -2.852  0.00  0.00     0.141 A 
ATOM     15  HN  UNL d   1       4.788   8.543  -1.295  1.00  0.00     0.167 HD
ATOM     16  C   UNL d   1       5.139   6.123  -3.553  0.00  0.00     0.058 A 
ATOM     17  C   UNL d   1       4.156   5.241  -3.099  0.00  0.00     0.035 A 
BRANCH  14  18
ATOM     18  O   UNL d   1       6.370   8.116  -3.292  0.00  0.00    -0.341 OA
ATOM     19  C   UNL d   1       6.611   9.210  -2.408  0.00  0.00     0.211 C 
ENDBRANCH  14  18
ENDBRANCH   8  11
ENDBRANCH   3   7
BRANCH   1  20
ATOM     20  C   UNL d   1       0.513  -0.186  -0.269  0.00  0.00     0.417 C 
ATOM     21  F   UNL d   1      -0.287  -1.101   0.343  0.00  0.00    -0.166 F 
ATOM     22  F   UNL d   1       1.783  -0.661  -0.164  0.00  0.00    -0.166 F 
ATOM     23  F   UNL d   1       0.202  -0.238  -1.593  0.00  0.00    -0.166 F 
ENDBRANCH   1  20
BRANCH   2  24
ATOM     24  C   UNL d   1      -1.313   3.029   3.219  0.00  0.00     0.417 C 
ATOM     25  F   UNL d   1      -1.863   1.913   3.770  0.00  0.00    -0.166 F 
ATOM     26  F   UNL d   1      -0.562   3.600   4.200  0.00  0.00    -0.166 F 
ATOM     27  F   UNL d   1      -2.347   3.883   2.988  0.00  0.00    -0.166 F 
ENDBRANCH   2  24
TORSDOF 5
