REMARK  5 active torsions:
REMARK  status: ('A' for Active; 'I' for Inactive)
REMARK    1  A    between atoms: C_11  and  C_1 
REMARK    2  A    between atoms: O_15  and  C_3 
REMARK       I    between atoms: C_4  and  N_10 
REMARK    3  A    between atoms: O_14  and  C_4 
REMARK    4  A    between atoms: N_10  and  N_6 
REMARK    5  A    between atoms: C_17  and  O_14 
ROOT
ATOM      1  C   UNL d   1      -0.034   2.388   0.094  0.00  0.00     0.017 A 
ATOM      2  C   UNL d   1       1.114   0.266  -0.011  0.00  0.00     0.046 A 
ATOM      3  C   UNL d   1       1.159   1.663   0.053  0.00  0.00     0.094 A 
ATOM      4  C   UNL d   1      -0.109  -0.406  -0.036  0.00  0.00     0.041 A 
ATOM      5  C   UNL d   1      -1.265   1.718   0.067  0.00  0.00     0.034 A 
ATOM      6  C   UNL d   1      -1.295   0.327   0.003  0.00  0.00     0.013 A 
ATOM      7 BR   UNL d   1       2.713  -0.752  -0.067  0.00  0.00    -0.048 Br
ATOM      8 BR   UNL d   1      -2.955  -0.575  -0.034  0.00  0.00    -0.051 Br
ENDROOT
BRANCH   1   9
ATOM      9  C   UNL d   1      -0.016   3.865   0.152  0.00  0.00     0.121 C 
ATOM     10  N   UNL d   1      -1.125   4.531   0.152  0.00  0.00    -0.307 N 
ATOM     11  HN  UNL d   1      -2.032   4.065   0.128  1.00  0.00     0.186 HD
BRANCH  10  12
ATOM     12  N   UNL d   1      -1.017   5.884   0.185  0.00  0.00    -0.246 N 
ATOM     13  C   UNL d   1      -2.126   6.670  -0.019  0.00  0.00     0.379 C 
ATOM     14  O   UNL d   1      -3.277   6.277  -0.162  0.00  0.00    -0.237 OA
ATOM     15  H   UNL d   1      -0.113   6.337   0.205  0.00  0.00     0.192 HD
BRANCH  13  16
ATOM     16  O   UNL d   1      -1.739   7.972  -0.099  0.00  0.00    -0.303 OA
BRANCH  16  17
ATOM     17  C   UNL d   1      -2.765   8.884  -0.518  0.00  0.00     0.176 C 
ATOM     18  C   UNL d   1      -2.774   8.958  -2.034  0.00  0.00     0.034 C 
ENDBRANCH  16  17
ENDBRANCH  13  16
ENDBRANCH  10  12
ENDBRANCH   1   9
BRANCH   3  19
ATOM     19  O   UNL d   1       2.355   2.330   0.071  0.00  0.00    -0.358 OA
ATOM     20  H   UNL d   1       3.068   1.664   0.025  0.00  0.00     0.217 HD
ENDBRANCH   3  19
TORSDOF 5
