REMARK  4 active torsions:
REMARK  status: ('A' for Active; 'I' for Inactive)
REMARK    1  A    between atoms: C_3  and  C_1 
REMARK    2  A    between atoms: C_6  and  C_2 
REMARK       I    between atoms: N_8  and  C_3 
REMARK    3  A    between atoms: C_11  and  N_8 
REMARK    4  A    between atoms: N_10  and  C_12 
ROOT
ATOM      1  C   UNL d   1       0.514  -4.545   0.537  0.00  0.00     0.261 C 
ATOM      2  N   UNL d   1      -0.321  -3.470   0.271  0.00  0.00    -0.321 N 
ATOM      3  O   UNL d   1       0.194  -5.720   0.383  0.00  0.00    -0.267 OA
ATOM      4  H   UNL d   1       0.099  -2.565   0.104  0.00  0.00     0.169 HD
ENDROOT
BRANCH   1   5
ATOM      5  C   UNL d   1       1.872  -4.222   0.913  0.00  0.00     0.093 A 
ATOM      6  C   UNL d   1       2.453  -3.410   1.947  0.00  0.00     0.085 A 
ATOM      7  N   UNL d   1       3.782  -3.619   1.970  0.00  0.00    -0.259 N 
ATOM      8  O   UNL d   1       4.094  -4.441   0.927  0.00  0.00    -0.241 OA
ATOM      9  HN  UNL d   1       4.439  -3.232   2.648  1.00  0.00     0.195 HD
ATOM     10  C   UNL d   1       2.963  -4.796   0.285  0.00  0.00     0.090 A 
ATOM     11  C   UNL d   1       3.140  -5.673  -0.890  0.00  0.00     0.080 C 
BRANCH   6  12
ATOM     12  C   UNL d   1       1.848  -2.525   2.962  0.00  0.00     0.015 A 
ATOM     13  C   UNL d   1       2.552  -1.449   3.557  0.00  0.00     0.046 A 
ATOM     14 CL   UNL d   1       4.137  -0.926   3.077  0.00  0.00    -0.083 Cl
ATOM     15  C   UNL d   1       1.971  -0.683   4.579  0.00  0.00     0.025 A 
ATOM     16  C   UNL d   1       0.673  -0.941   5.002  0.00  0.00     0.002 A 
ATOM     17  C   UNL d   1      -0.047  -1.969   4.407  0.00  0.00     0.001 A 
ATOM     18  C   UNL d   1       0.535  -2.761   3.411  0.00  0.00     0.015 A 
ENDBRANCH   6  12
ENDBRANCH   1   5
BRANCH   2  19
ATOM     19  C   UNL d   1      -1.627  -3.639  -0.262  0.00  0.00     0.061 A 
ATOM     20  C   UNL d   1      -2.106  -2.749  -1.261  0.00  0.00     0.057 A 
ATOM     21  C   UNL d   1      -3.437  -2.947  -1.686  0.00  0.00     0.031 A 
ATOM     22  C   UNL d   1      -4.264  -3.928  -1.137  0.00  0.00     0.002 A 
ATOM     23  C   UNL d   1      -3.779  -4.772  -0.149  0.00  0.00     0.002 A 
ATOM     24  C   UNL d   1      -2.459  -4.634   0.275  0.00  0.00     0.032 A 
BRANCH  20  25
ATOM     25  N   UNL d   1      -1.326  -1.718  -1.780  0.00  0.00    -0.379 N 
ATOM     26  C   UNL d   1       0.003  -1.979  -2.346  0.00  0.00     0.123 C 
ATOM     27  C   UNL d   1       0.911  -0.826  -1.904  0.00  0.00     0.020 C 
ATOM     28  C   UNL d   1       0.338   0.529  -2.333  0.00  0.00     0.003 C 
ATOM     29  C   UNL d   1      -1.134   0.685  -1.942  0.00  0.00     0.020 C 
ATOM     30  C   UNL d   1      -1.966  -0.527  -2.359  0.00  0.00     0.123 C 
ENDBRANCH  20  25
ENDBRANCH   2  19
TORSDOF 4
