REMARK  8 active torsions:
REMARK  status: ('A' for Active; 'I' for Inactive)
REMARK    1  A    between atoms: C_5  and  C_1 
REMARK    2  A    between atoms: C_14  and  N_2 
REMARK    3  A    between atoms: S_16  and  C_6 
REMARK    4  A    between atoms: C_11  and  C_12 
REMARK    5  A    between atoms: C_25  and  S_16 
REMARK    6  A    between atoms: C_18  and  C_25 
REMARK    7  A    between atoms: O_30  and  C_18 
REMARK    8  A    between atoms: C_32  and  O_30 
ROOT
ATOM      1  C   UNL d   1      -0.121  -1.256   0.091  0.00  0.00     0.158 A 
ATOM      2  N   UNL d   1       1.206  -0.799   0.066  0.00  0.00    -0.274 N 
ATOM      3  N   UNL d   1      -0.928  -0.208  -0.000  0.00  0.00    -0.281 N 
ATOM      4  HN  UNL d   1      -1.947  -0.248  -0.029  1.00  0.00     0.188 HD
ATOM      5  C   UNL d   1       1.082   0.582   0.005  0.00  0.00     0.168 A 
ATOM      6  N   UNL d   1      -0.179   0.932  -0.050  0.00  0.00    -0.278 N 
ATOM      7  HN  UNL d   1      -0.536   1.885  -0.118  1.00  0.00     0.189 HD
ENDROOT
BRANCH   1   8
ATOM      8  C   UNL d   1      -0.573  -2.639   0.309  0.00  0.00     0.100 A 
ATOM      9  N   UNL d   1       0.226  -3.363   1.141  0.00  0.00    -0.361 N 
ATOM     10  C   UNL d   1      -0.075  -4.664   1.360  0.00  0.00     0.104 A 
ATOM     11  HN  UNL d   1       1.034  -2.934   1.590  1.00  0.00     0.165 HD
ATOM     12  C   UNL d   1      -1.179  -5.298   0.819  0.00  0.00     0.065 A 
ATOM     13  C   UNL d   1      -2.017  -4.536  -0.002  0.00  0.00     0.043 A 
ATOM     14  C   UNL d   1      -1.717  -3.193  -0.268  0.00  0.00     0.065 A 
ATOM     15 CL   UNL d   1      -2.764  -2.344  -1.343  0.00  0.00    -0.082 Cl
BRANCH  12  16
ATOM     16  C   UNL d   1      -1.413  -6.748   1.107  0.00  0.00     0.418 C 
ATOM     17  F   UNL d   1      -2.602  -7.210   0.636  0.00  0.00    -0.166 F 
ATOM     18  F   UNL d   1      -0.456  -7.543   0.556  0.00  0.00    -0.166 F 
ATOM     19  F   UNL d   1      -1.404  -7.023   2.441  0.00  0.00    -0.166 F 
ENDBRANCH  12  16
ENDBRANCH   1   8
BRANCH   2  20
ATOM     20  C   UNL d   1       2.403  -1.581   0.099  0.00  0.00     0.043 A 
ATOM     21  C   UNL d   1       2.473  -2.803  -0.587  0.00  0.00     0.032 A 
ATOM     22  C   UNL d   1       3.583  -3.638  -0.430  0.00  0.00     0.026 A 
ATOM     23  C   UNL d   1       4.644  -3.236   0.376  0.00  0.00     0.034 A 
ATOM     24  C   UNL d   1       4.616  -1.997   1.009  0.00  0.00     0.026 A 
ATOM     25 CL   UNL d   1       5.984  -4.288   0.615  0.00  0.00    -0.084 Cl
ATOM     26  C   UNL d   1       3.494  -1.172   0.879  0.00  0.00     0.032 A 
ENDBRANCH   2  20
BRANCH   5  27
ATOM     27  S   UNL d   1       2.400   1.703  -0.197  0.00  0.00    -0.082 SA
BRANCH  27  28
ATOM     28  C   UNL d   1       1.692   3.225   0.485  0.00  0.00     0.193 C 
BRANCH  28  29
ATOM     29  C   UNL d   1       1.332   3.127   1.951  0.00  0.00     0.268 C 
ATOM     30  O   UNL d   1       1.423   2.141   2.672  0.00  0.00    -0.264 OA
BRANCH  29  31
ATOM     31  O   UNL d   1       0.860   4.349   2.350  0.00  0.00    -0.321 OA
BRANCH  31  32
ATOM     32  C   UNL d   1       0.171   4.389   3.607  0.00  0.00     0.174 C 
ATOM     33  C   UNL d   1      -1.305   4.189   3.328  0.00  0.00     0.034 C 
ENDBRANCH  31  32
ENDBRANCH  29  31
ENDBRANCH  28  29
ENDBRANCH  27  28
ENDBRANCH   5  27
TORSDOF 8
