REMARK  3 active torsions:
REMARK  status: ('A' for Active; 'I' for Inactive)
REMARK    1  A    between atoms: C_12  and  C_2 
REMARK    2  A    between atoms: C_13  and  C_10 
REMARK    3  A    between atoms: C_14  and  C_11 
ROOT
ATOM      1  N   UNL d   1       0.264   0.614   0.024  0.00  0.00    -0.235 N 
ATOM      2  C   UNL d   1      -0.859   1.430   0.038  0.00  0.00     0.144 A 
ATOM      3  C   UNL d   1       0.128  -0.781   0.013  0.00  0.00     0.130 A 
ATOM      4  N   UNL d   1       1.566   0.970   0.027  0.00  0.00    -0.296 N 
ATOM      5  HN  UNL d   1       1.949   1.915   0.049  1.00  0.00     0.187 HD
ATOM      6  N   UNL d   1      -1.091  -1.399   0.051  0.00  0.00    -0.340 N 
ATOM      7  HN  UNL d   1      -1.173  -2.416   0.064  1.00  0.00     0.167 HD
ATOM      8  C   UNL d   1      -2.084   0.868   0.059  0.00  0.00     0.067 A 
ATOM      9  C   UNL d   1       1.405  -1.297  -0.038  0.00  0.00     0.077 A 
ATOM     10  C   UNL d   1       2.243  -0.174  -0.004  0.00  0.00     0.034 A 
ATOM     11  C   UNL d   1      -2.145  -0.630   0.069  0.00  0.00     0.046 A 
ENDROOT
BRANCH  11  12
ATOM     12  C   UNL d   1      -3.503  -1.250   0.135  0.00  0.00    -0.009 A 
ATOM     13  C   UNL d   1      -3.652  -2.459   0.830  0.00  0.00     0.021 A 
ATOM     14  C   UNL d   1      -4.907  -3.043   0.887  0.00  0.00    -0.051 A 
ATOM     15  C   UNL d   1      -5.317  -4.297   1.599  0.00  0.00     0.039 C 
ATOM     16  C   UNL d   1      -6.011  -2.444   0.271  0.00  0.00    -0.052 A 
ATOM     17  C   UNL d   1      -6.657  -4.602   0.914  0.00  0.00     0.009 C 
ATOM     18  C   UNL d   1      -7.253  -3.251   0.493  0.00  0.00     0.039 C 
ATOM     19  C   UNL d   1      -5.885  -1.247  -0.410  0.00  0.00     0.008 A 
ATOM     20  C   UNL d   1      -4.620  -0.654  -0.488  0.00  0.00     0.014 A 
ENDBRANCH  11  12
BRANCH   2  21
ATOM     21  C   UNL d   1      -0.677   2.902   0.033  0.00  0.00     0.434 C 
ATOM     22  F   UNL d   1       0.591   3.369  -0.007  0.00  0.00    -0.165 F 
ATOM     23  F   UNL d   1      -1.317   3.454  -1.037  0.00  0.00    -0.165 F 
ATOM     24  F   UNL d   1      -1.256   3.460   1.133  0.00  0.00    -0.165 F 
ENDBRANCH   2  21
BRANCH  10  25
ATOM     25  C   UNL d   1       3.762  -0.237   0.005  0.00  0.00     0.037 A 
ATOM     26  C   UNL d   1       4.518   0.822   0.787  0.00  0.00     0.011 A 
ATOM     27  C   UNL d   1       4.532   0.862  -0.701  0.00  0.00     0.011 A 
ENDBRANCH  10  25
TORSDOF 3
