REMARK  7 active torsions:
REMARK  status: ('A' for Active; 'I' for Inactive)
REMARK    1  A    between atoms: C_19  and  N_1 
REMARK    2  A    between atoms: C_8  and  C_2 
REMARK    3  A    between atoms: S_9  and  C_5 
REMARK    4  A    between atoms: C_17  and  S_9 
REMARK    5  A    between atoms: C_11  and  C_17 
REMARK    6  A    between atoms: C_13  and  C_11 
REMARK    7  A    between atoms: C_22  and  C_19 
ROOT
ATOM      1  N   UNL d   1      -0.245  -1.238   0.105  0.00  0.00    -0.307 N 
ATOM      2  C   UNL d   1       0.991  -0.631  -0.089  0.00  0.00     0.135 A 
ATOM      3  N   UNL d   1       0.774   0.672  -0.205  0.00  0.00    -0.283 N 
ATOM      4  HN  UNL d   1       1.489   1.373  -0.400  1.00  0.00     0.188 HD
ATOM      5  C   UNL d   1      -1.166  -0.214   0.175  0.00  0.00     0.163 A 
ATOM      6  N   UNL d   1      -0.562   0.932  -0.020  0.00  0.00    -0.278 N 
ATOM      7  HN  UNL d   1      -1.004   1.851  -0.033  1.00  0.00     0.189 HD
ENDROOT
BRANCH   2   8
ATOM      8  C   UNL d   1       2.339  -1.240  -0.134  0.00  0.00     0.011 A 
ATOM      9  C   UNL d   1       3.367  -0.608  -0.855  0.00  0.00     0.029 A 
ATOM     10  C   UNL d   1       4.706  -1.073  -0.813  0.00  0.00    -0.009 A 
ATOM     11  C   UNL d   1       5.755  -0.441  -1.498  0.00  0.00     0.015 A 
ATOM     12  C   UNL d   1       5.036  -2.203  -0.039  0.00  0.00     0.042 A 
ATOM     13  C   UNL d   1       7.057  -0.918  -1.380  0.00  0.00     0.018 A 
ATOM     14  C   UNL d   1       7.272  -2.025  -0.580  0.00  0.00     0.088 A 
ATOM     15  N   UNL d   1       6.289  -2.674   0.078  0.00  0.00    -0.365 N 
ATOM     16  HN  UNL d   1       6.491  -3.497   0.646  1.00  0.00     0.165 HD
ATOM     17  C   UNL d   1       4.016  -2.839   0.643  0.00  0.00     0.031 A 
ATOM     18  C   UNL d   1       2.695  -2.370   0.607  0.00  0.00     0.017 A 
ENDBRANCH   2   8
BRANCH   1  19
ATOM     19  C   UNL d   1      -0.533  -2.663   0.116  0.00  0.00     0.159 C 
BRANCH  19  20
ATOM     20  C   UNL d   1      -0.555  -3.317   1.475  0.00  0.00    -0.017 C 
ATOM     21  C   UNL d   1      -0.323  -2.748   2.668  0.00  0.00     0.008 C 
ENDBRANCH  19  20
ENDBRANCH   1  19
BRANCH   5  22
ATOM     22  S   UNL d   1      -2.857  -0.420   0.522  0.00  0.00    -0.085 SA
BRANCH  22  23
ATOM     23  C   UNL d   1      -3.494   1.284   0.381  0.00  0.00     0.166 C 
BRANCH  23  24
ATOM     24  C   UNL d   1      -4.983   1.323   0.704  0.00  0.00     0.169 C 
ATOM     25  O   UNL d   1      -5.830   1.160  -0.181  0.00  0.00    -0.291 OA
BRANCH  24  26
ATOM     26  C   UNL d   1      -5.463   1.585   2.107  0.00  0.00     0.011 A 
ATOM     27  C   UNL d   1      -4.585   1.754   3.186  0.00  0.00     0.017 A 
ATOM     28  C   UNL d   1      -5.077   2.024   4.470  0.00  0.00     0.025 A 
ATOM     29  C   UNL d   1      -6.451   2.123   4.692  0.00  0.00     0.034 A 
ATOM     30  C   UNL d   1      -7.338   1.942   3.635  0.00  0.00     0.025 A 
ATOM     31 CL   UNL d   1      -7.039   2.467   6.269  0.00  0.00    -0.084 Cl
ATOM     32  C   UNL d   1      -6.849   1.677   2.350  0.00  0.00     0.017 A 
ENDBRANCH  24  26
ENDBRANCH  23  24
ENDBRANCH  22  23
ENDBRANCH   5  22
TORSDOF 7
