REMARK  10 active torsions:
REMARK  status: ('A' for Active; 'I' for Inactive)
REMARK       I    between atoms: N_2  and  C_1 
REMARK    1  A    between atoms: C_3  and  C_1 
REMARK    2  A    between atoms: N_5  and  N_2 
REMARK    3  A    between atoms: C_12  and  N_2 
REMARK       I    between atoms: C_4  and  N_5 
REMARK    4  A    between atoms: C_6  and  C_4 
REMARK    5  A    between atoms: O_10  and  C_7 
REMARK    6  A    between atoms: O_11  and  C_8 
REMARK    7  A    between atoms: C_9  and  O_19 
REMARK    8  A    between atoms: C_27  and  O_10 
REMARK    9  A    between atoms: C_26  and  O_11 
REMARK   10  A    between atoms: O_19  and  C_25 
ROOT
ATOM      1  C   UNL d   1       1.103  -0.049  -0.012  0.00  0.00     0.281 C 
ATOM      2  N   UNL d   1       0.230   0.103   1.110  0.00  0.00    -0.217 N 
ATOM      3  O   UNL d   1       2.286  -0.372   0.108  0.00  0.00    -0.265 OA
ENDROOT
BRANCH   2   4
ATOM      4  N   UNL d   1      -1.159   0.311   0.955  0.00  0.00    -0.256 N 
ATOM      5  C   UNL d   1      -2.057  -0.753   1.090  0.00  0.00     0.274 C 
ATOM      6  O   UNL d   1      -1.790  -1.938   1.137  0.00  0.00    -0.266 OA
ATOM      7  H   UNL d   1      -1.482   1.265   1.058  0.00  0.00     0.191 HD
BRANCH   5   8
ATOM      8  C   UNL d   1      -3.461  -0.269   1.028  0.00  0.00     0.085 C 
ATOM      9  C   UNL d   1      -4.213  -0.080   2.171  0.00  0.00     0.164 C 
ATOM     10  N   UNL d   1      -5.258   0.794   2.188  0.00  0.00    -0.346 N 
ATOM     11  C   UNL d   1      -5.659   1.348   1.028  0.00  0.00     0.090 C 
ATOM     12  HN  UNL d   1      -5.728   1.023   3.063  1.00  0.00     0.167 HD
ATOM     13  C   UNL d   1      -5.061   1.070  -0.183  0.00  0.00     0.018 C 
ATOM     14  C   UNL d   1      -3.932   0.260  -0.177  0.00  0.00     0.023 C 
BRANCH   9  15
ATOM     15  O   UNL d   1      -3.929  -0.805   3.316  0.00  0.00    -0.293 OA
BRANCH  15  16
ATOM     16  C   UNL d   1      -4.927  -0.923   4.268  0.00  0.00     0.077 C 
ATOM     17  C   UNL d   1      -6.295  -1.031   3.972  0.00  0.00     0.037 C 
ATOM     18  C   UNL d   1      -7.246  -0.972   4.991  0.00  0.00     0.003 C 
ATOM     19  C   UNL d   1      -6.832  -0.894   6.318  0.00  0.00     0.000 C 
ATOM     20  C   UNL d   1      -5.471  -0.909   6.624  0.00  0.00     0.003 C 
ATOM     21  C   UNL d   1      -4.518  -0.930   5.601  0.00  0.00     0.037 C 
ENDBRANCH  15  16
ENDBRANCH   9  15
ENDBRANCH   5   8
ENDBRANCH   2   4
BRANCH   2  22
ATOM     22  C   UNL d   1       0.773   0.454   2.394  0.00  0.00     0.060 A 
ATOM     23  C   UNL d   1       0.267   1.566   3.090  0.00  0.00     0.034 A 
ATOM     24  C   UNL d   1       0.765   1.940   4.344  0.00  0.00     0.039 A 
ATOM     25  C   UNL d   1       1.740   1.165   4.962  0.00  0.00     0.078 A 
ATOM     26  C   UNL d   1       2.290   0.089   4.258  0.00  0.00     0.039 A 
ATOM     27  C   UNL d   1       1.821  -0.260   2.982  0.00  0.00     0.034 A 
BRANCH  25  28
ATOM     28  O   UNL d   1       2.229   1.353   6.222  0.00  0.00    -0.255 OA
BRANCH  28  29
ATOM     29  C   UNL d   1       1.460   2.128   7.131  0.00  0.00     0.530 C 
ATOM     30  F   UNL d   1       0.128   1.976   6.957  0.00  0.00    -0.144 F 
ATOM     31  F   UNL d   1       1.754   1.734   8.392  0.00  0.00    -0.144 F 
ATOM     32  F   UNL d   1       1.775   3.435   7.012  0.00  0.00    -0.144 F 
ENDBRANCH  28  29
ENDBRANCH  25  28
ENDBRANCH   2  22
BRANCH   1  33
ATOM     33  C   UNL d   1       0.645   0.332  -1.396  0.00  0.00     0.085 C 
ATOM     34  C   UNL d   1       1.507   0.974  -2.298  0.00  0.00     0.164 C 
ATOM     35  N   UNL d   1       1.108   1.460  -3.510  0.00  0.00    -0.346 N 
ATOM     36  C   UNL d   1      -0.175   1.278  -3.870  0.00  0.00     0.090 C 
ATOM     37  HN  UNL d   1       1.762   1.946  -4.124  1.00  0.00     0.167 HD
ATOM     38  C   UNL d   1      -1.083   0.598  -3.089  0.00  0.00     0.018 C 
ATOM     39  C   UNL d   1      -0.645   0.086  -1.867  0.00  0.00     0.023 C 
BRANCH  34  40
ATOM     40  O   UNL d   1       2.812   1.246  -1.920  0.00  0.00    -0.293 OA
BRANCH  40  41
ATOM     41  C   UNL d   1       3.776   1.287  -2.906  0.00  0.00     0.077 A 
ATOM     42  C   UNL d   1       4.591   2.418  -2.945  0.00  0.00     0.037 A 
ATOM     43  C   UNL d   1       5.687   2.466  -3.812  0.00  0.00     0.003 A 
ATOM     44  C   UNL d   1       5.973   1.379  -4.634  0.00  0.00     0.000 A 
ATOM     45  C   UNL d   1       5.154   0.249  -4.605  0.00  0.00     0.003 A 
ATOM     46  C   UNL d   1       4.054   0.199  -3.739  0.00  0.00     0.037 A 
ENDBRANCH  40  41
ENDBRANCH  34  40
ENDBRANCH   1  33
TORSDOF 10
