REMARK  4 active torsions:
REMARK  status: ('A' for Active; 'I' for Inactive)
REMARK    1  A    between atoms: C_13  and  C_1 
REMARK    2  A    between atoms: C_4  and  C_7 
REMARK    3  A    between atoms: C_9  and  N_6 
REMARK    4  A    between atoms: N_12  and  C_13 
ROOT
ATOM      1  N   UNL d   1       5.011   4.313   0.357  0.00  0.00    -0.266 NA
ATOM      2  N   UNL d   1       3.750   1.775  -0.133  0.00  0.00     0.095 N 
ATOM      3  C   UNL d   1       3.739   3.985   1.024  0.00  0.00     0.127 C 
ATOM      4  C   UNL d   1       5.129   3.668  -0.964  0.00  0.00     0.127 C 
ATOM      5  C   UNL d   1       5.023   2.139  -0.786  0.00  0.00     0.287 C 
ATOM      6  C   UNL d   1       3.640   2.444   1.176  0.00  0.00     0.287 C 
ENDROOT
BRANCH   1   7
ATOM      7  C   UNL d   1       5.383   5.656   0.383  0.00  0.00     0.082 A 
ATOM      8  N   UNL d   1       4.501   6.610   0.747  0.00  0.00    -0.356 N 
ATOM      9  C   UNL d   1       4.941   7.889   0.847  0.00  0.00     0.105 A 
ATOM     10  HN  UNL d   1       3.528   6.375   0.941  1.00  0.00     0.166 HD
ATOM     11  C   UNL d   1       6.248   8.284   0.619  0.00  0.00     0.063 A 
ATOM     12  C   UNL d   1       7.156   7.293   0.242  0.00  0.00     0.021 A 
ATOM     13  C   UNL d   1       6.716   5.981   0.120  0.00  0.00     0.043 A 
BRANCH  11  14
ATOM     14  C   UNL d   1       6.688   9.697   0.811  0.00  0.00     0.418 C 
ATOM     15  F   UNL d   1       5.677  10.547   1.140  0.00  0.00    -0.166 F 
ATOM     16  F   UNL d   1       7.616   9.823   1.802  0.00  0.00    -0.166 F 
ATOM     17  F   UNL d   1       7.267  10.221  -0.305  0.00  0.00    -0.166 F 
ENDBRANCH  11  14
ENDBRANCH   1   7
BRANCH   2  18
ATOM     18  C   UNL d   1       3.543   0.331  -0.064  0.00  0.00     0.319 C 
BRANCH  18  19
ATOM     19  C   UNL d   1       3.204  -0.216  -1.433  0.00  0.00     0.018 A 
ATOM     20  S   UNL d   1       4.098  -1.539  -2.042  0.00  0.00    -0.092 SA
ATOM     21  C   UNL d   1       3.220  -1.568  -3.517  0.00  0.00     0.016 A 
ATOM     22  C   UNL d   1       3.418  -2.442  -4.604  0.00  0.00     0.019 A 
ATOM     23  C   UNL d   1       2.228  -0.588  -3.537  0.00  0.00    -0.012 A 
ATOM     24  C   UNL d   1       2.584  -2.337  -5.720  0.00  0.00     0.001 A 
ATOM     25  C   UNL d   1       1.576  -1.386  -5.760  0.00  0.00     0.001 A 
ATOM     26  C   UNL d   1       1.395  -0.514  -4.684  0.00  0.00     0.013 A 
ATOM     27  C   UNL d   1       2.240   0.219  -2.335  0.00  0.00    -0.035 A 
ATOM     28  C   UNL d   1       1.310   1.377  -2.130  0.00  0.00     0.050 C 
ENDBRANCH  18  19
ENDBRANCH   2  18
TORSDOF 4
