REMARK  8 active torsions:
REMARK  status: ('A' for Active; 'I' for Inactive)
REMARK    1  A    between atoms: N_5  and  C_1 
REMARK    2  A    between atoms: C_13  and  C_2 
REMARK       I    between atoms: C_6  and  N_5 
REMARK       I    between atoms: N_9  and  C_6 
REMARK    3  A    between atoms: C_14  and  N_9 
REMARK    4  A    between atoms: C_15  and  N_9 
REMARK    5  A    between atoms: C_10  and  C_14 
REMARK    6  A    between atoms: C_11  and  C_10 
REMARK    7  A    between atoms: O_17  and  C_11 
REMARK    8  A    between atoms: C_18  and  C_15 
ROOT
ATOM      1  N   UNL d   1       1.730  -4.072   0.878  0.00  0.00    -0.304 N 
ATOM      2  C   UNL d   1       1.576  -3.014   0.011  0.00  0.00     0.323 C 
ATOM      3  N   UNL d   1       2.766  -2.311  -0.226  0.00  0.00    -0.329 N 
ATOM      4  O   UNL d   1       0.497  -2.674  -0.471  0.00  0.00    -0.247 OA
ATOM      5  H   UNL d   1       2.466  -3.924   1.550  0.00  0.00     0.171 HD
ENDROOT
BRANCH   1   6
ATOM      6  C   UNL d   1       0.682  -4.835   1.390  0.00  0.00     0.097 C 
ATOM      7  C   UNL d   1       0.525  -5.163   2.778  0.00  0.00     0.094 C 
ATOM      8  N   UNL d   1      -0.467  -6.048   2.944  0.00  0.00    -0.258 N 
ATOM      9  O   UNL d   1      -1.053  -6.194   1.706  0.00  0.00    -0.240 OA
ATOM     10  HN  UNL d   1      -0.733  -6.517   3.809  1.00  0.00     0.195 HD
ATOM     11  C   UNL d   1      -0.403  -5.429   0.783  0.00  0.00     0.101 C 
ATOM     12  C   UNL d   1      -0.992  -5.495  -0.568  0.00  0.00     0.081 C 
BRANCH   7  13
ATOM     13  C   UNL d   1       1.205  -4.560   3.926  0.00  0.00    -0.005 A 
ATOM     14  C   UNL d   1       1.508  -3.186   3.916  0.00  0.00     0.014 A 
ATOM     15  C   UNL d   1       2.060  -2.567   5.035  0.00  0.00     0.001 A 
ATOM     16  C   UNL d   1       2.298  -3.309   6.187  0.00  0.00     0.000 A 
ATOM     17  C   UNL d   1       2.004  -4.673   6.213  0.00  0.00     0.001 A 
ATOM     18  C   UNL d   1       1.464  -5.299   5.085  0.00  0.00     0.014 A 
ENDBRANCH   7  13
ENDBRANCH   1   6
BRANCH   3  19
ATOM     19  C   UNL d   1       4.120  -2.775   0.127  0.00  0.00     0.138 C 
BRANCH  19  20
ATOM     20  C   UNL d   1       4.556  -4.048  -0.598  0.00  0.00     0.130 C 
BRANCH  20  21
ATOM     21  C   UNL d   1       5.961  -4.402  -0.189  0.00  0.00     0.141 C 
ATOM     22  O   UNL d   1       6.669  -3.722   0.539  0.00  0.00    -0.650 OA
BRANCH  21  23
ATOM     23  O   UNL d   1       6.381  -5.576  -0.710  0.00  0.00    -0.776 OA
ATOM     24  H   UNL d   1       5.722  -6.029  -1.270  0.00  0.00     0.167 HD
ENDBRANCH  21  23
ENDBRANCH  20  21
ENDBRANCH  19  20
ENDBRANCH   3  19
BRANCH   3  25
ATOM     25  C   UNL d   1       2.658  -0.972  -0.820  0.00  0.00     0.166 C 
BRANCH  25  26
ATOM     26  C   UNL d   1       2.650   0.184   0.170  0.00  0.00    -0.040 A 
ATOM     27  C   UNL d   1       3.475   0.239   1.307  0.00  0.00     0.009 A 
ATOM     28  C   UNL d   1       3.507   1.377   2.122  0.00  0.00     0.001 A 
ATOM     29  C   UNL d   1       2.725   2.483   1.815  0.00  0.00     0.000 A 
ATOM     30  C   UNL d   1       1.898   2.451   0.697  0.00  0.00     0.001 A 
ATOM     31  C   UNL d   1       1.864   1.314  -0.117  0.00  0.00     0.009 A 
ENDBRANCH  25  26
ENDBRANCH   3  25
TORSDOF 8
