REMARK  8 active torsions:
REMARK  status: ('A' for Active; 'I' for Inactive)
REMARK    1  A    between atoms: C_5  and  C_1 
REMARK    2  A    between atoms: C_7  and  C_2 
REMARK    3  A    between atoms: O_11  and  C_7 
REMARK    4  A    between atoms: N_9  and  O_11 
REMARK    5  A    between atoms: C_20  and  C_12 
REMARK    6  A    between atoms: N_21  and  C_12 
REMARK    7  A    between atoms: C_15  and  C_16 
REMARK    8  A    between atoms: C_22  and  C_20 
ROOT
ATOM      1  O   UNL d   1      -2.764  -1.601  -0.012  0.00  0.00    -0.194 OA
ENDROOT
BRANCH   1   2
ATOM      2  N   UNL d   1      -2.269  -2.878   0.377  0.00  0.00    -0.250 N 
ATOM      3  C   UNL d   1      -3.049  -3.860   0.028  0.00  0.00     0.080 C 
ATOM      4  HN  UNL d   1      -1.391  -3.010   0.880  1.00  0.00     0.196 HD
BRANCH   3   5
ATOM      5  C   UNL d   1      -2.537  -5.261   0.388  0.00  0.00     0.110 C 
BRANCH   5   6
ATOM      6  C   UNL d   1      -2.864  -6.494  -0.442  0.00  0.00    -0.052 A 
ATOM      7  C   UNL d   1      -3.514  -6.514  -1.675  0.00  0.00     0.008 A 
ATOM      8  C   UNL d   1      -3.602  -7.703  -2.427  0.00  0.00     0.008 A 
ATOM      9  C   UNL d   1      -3.002  -8.905  -2.003  0.00  0.00    -0.051 A 
ATOM     10  C   UNL d   1      -2.438  -8.902  -0.724  0.00  0.00     0.008 A 
ATOM     11  C   UNL d   1      -2.372  -7.724   0.037  0.00  0.00     0.008 A 
BRANCH   9  12
ATOM     12  C   UNL d   1      -2.865 -10.100  -2.972  0.00  0.00    -0.024 C 
ATOM     13  C   UNL d   1      -1.996 -11.260  -2.425  0.00  0.00     0.019 C 
ATOM     14  C   UNL d   1      -4.240 -10.691  -3.337  0.00  0.00     0.019 C 
ATOM     15  C   UNL d   1      -2.170  -9.605  -4.264  0.00  0.00     0.019 C 
ENDBRANCH   9  12
ENDBRANCH   5   6
ENDBRANCH   3   5
BRANCH   3  16
ATOM     16  N   UNL d   1      -4.301  -3.699  -0.511  0.00  0.00    -0.290 NA
ATOM     17  H   UNL d   1      -4.686  -2.773  -0.365  0.00  0.00     0.125 HD
ATOM     18  H   UNL d   1      -4.963  -4.443  -0.311  0.00  0.00     0.125 HD
ENDBRANCH   3  16
ENDBRANCH   1   2
BRANCH   1  19
ATOM     19  C   UNL d   1      -2.207  -0.625   0.796  0.00  0.00     0.320 C 
ATOM     20  O   UNL d   1      -2.073  -0.724   2.009  0.00  0.00    -0.257 OA
BRANCH  19  21
ATOM     21  C   UNL d   1      -1.778   0.556   0.056  0.00  0.00     0.102 A 
ATOM     22  C   UNL d   1      -0.757   1.522   0.387  0.00  0.00     0.087 A 
ATOM     23  N   UNL d   1      -0.618   2.396  -0.623  0.00  0.00    -0.259 N 
ATOM     24  O   UNL d   1      -1.580   2.100  -1.547  0.00  0.00    -0.241 OA
ATOM     25  HN  UNL d   1       0.076   3.141  -0.688  1.00  0.00     0.195 HD
ATOM     26  C   UNL d   1      -2.283   1.013  -1.147  0.00  0.00     0.091 A 
ATOM     27  C   UNL d   1      -3.381   0.635  -2.057  0.00  0.00     0.080 C 
BRANCH  22  28
ATOM     28  C   UNL d   1       0.117   1.663   1.564  0.00  0.00     0.037 A 
ATOM     29  C   UNL d   1       0.920   0.606   2.033  0.00  0.00     0.048 A 
ATOM     30 CL   UNL d   1       1.024  -0.931   1.239  0.00  0.00    -0.083 Cl
ATOM     31  C   UNL d   1       1.766   0.775   3.143  0.00  0.00     0.025 A 
ATOM     32  C   UNL d   1       1.883   2.011   3.768  0.00  0.00     0.003 A 
ATOM     33  C   UNL d   1       1.137   3.083   3.296  0.00  0.00     0.025 A 
ATOM     34  C   UNL d   1       0.248   2.911   2.222  0.00  0.00     0.048 A 
ATOM     35 CL   UNL d   1      -0.665   4.324   1.786  0.00  0.00    -0.083 Cl
ENDBRANCH  22  28
ENDBRANCH  19  21
ENDBRANCH   1  19
TORSDOF 8
