REMARK  5 active torsions:
REMARK  status: ('A' for Active; 'I' for Inactive)
REMARK    1  A    between atoms: C_8  and  C_3 
REMARK    2  A    between atoms: C_11  and  C_4 
REMARK    3  A    between atoms: C_9  and  C_17 
REMARK    4  A    between atoms: C_23  and  C_10 
REMARK    5  A    between atoms: C_15  and  C_16 
ROOT
ATOM      1  N   UNL d   1       1.293   0.108   0.013  0.00  0.00    -0.318 N 
ATOM      2  HN  UNL d   1       2.303   0.248  -0.001  1.00  0.00     0.169 HD
ATOM      3  C   UNL d   1       0.619  -1.020   0.024  0.00  0.00     0.183 A 
ATOM      4  C   UNL d   1       0.290   1.057   0.025  0.00  0.00     0.138 A 
ATOM      5  N   UNL d   1      -0.948   0.536   0.059  0.00  0.00    -0.242 N 
ATOM      6  HN  UNL d   1      -1.839   1.032   0.082  1.00  0.00     0.196 HD
ATOM      7  O   UNL d   1      -0.733  -0.834   0.057  0.00  0.00    -0.217 OA
ENDROOT
BRANCH   3   8
ATOM      8  C   UNL d   1       1.085  -2.393  -0.006  0.00  0.00     0.034 A 
ATOM      9  C   UNL d   1       2.454  -2.690   0.004  0.00  0.00     0.039 A 
ATOM     10  C   UNL d   1       2.873  -4.019  -0.037  0.00  0.00     0.034 A 
ATOM     11  C   UNL d   1       1.904  -5.013  -0.086  0.00  0.00     0.108 A 
ATOM     12  N   UNL d   1       0.574  -4.770  -0.096  0.00  0.00    -0.373 N 
ATOM     13  C   UNL d   1       0.200  -3.469  -0.056  0.00  0.00     0.103 A 
ATOM     14  HN  UNL d   1      -0.110  -5.526  -0.132  1.00  0.00     0.164 HD
BRANCH  10  15
ATOM     15  C   UNL d   1       4.256  -4.369  -0.035  0.00  0.00    -0.060 C 
ATOM     16  C   UNL d   1       5.399  -4.742  -0.041  0.00  0.00    -0.061 C 
BRANCH  16  17
ATOM     17  C   UNL d   1       6.730  -5.261  -0.057  0.00  0.00     0.018 A 
ATOM     18  C   UNL d   1       7.053  -6.308  -0.924  0.00  0.00     0.020 A 
ATOM     19  C   UNL d   1       8.342  -6.842  -0.927  0.00  0.00     0.001 A 
ATOM     20  C   UNL d   1       9.310  -6.328  -0.064  0.00  0.00     0.000 A 
ATOM     21  C   UNL d   1       8.990  -5.281   0.800  0.00  0.00     0.001 A 
ATOM     22  C   UNL d   1       7.700  -4.746   0.805  0.00  0.00     0.020 A 
ENDBRANCH  16  17
ENDBRANCH  10  15
ENDBRANCH   3   8
BRANCH   4  23
ATOM     23  C   UNL d   1       0.555   2.489  -0.008  0.00  0.00     0.010 A 
ATOM     24  C   UNL d   1       1.863   2.981  -0.054  0.00  0.00     0.016 A 
ATOM     25  C   UNL d   1       2.105   4.362  -0.081  0.00  0.00     0.009 A 
ATOM     26  C   UNL d   1       1.050   5.294  -0.055  0.00  0.00    -0.051 A 
ATOM     27  C   UNL d   1      -0.256   4.782  -0.023  0.00  0.00     0.009 A 
ATOM     28  C   UNL d   1      -0.500   3.406   0.001  0.00  0.00     0.016 A 
BRANCH  26  29
ATOM     29  C   UNL d   1       1.338   6.805  -0.030  0.00  0.00    -0.024 C 
ATOM     30  C   UNL d   1       0.057   7.670   0.027  0.00  0.00     0.019 C 
ATOM     31  C   UNL d   1       2.178   7.147   1.219  0.00  0.00     0.019 C 
ATOM     32  C   UNL d   1       2.117   7.227  -1.293  0.00  0.00     0.019 C 
ENDBRANCH  26  29
ENDBRANCH   4  23
TORSDOF 5
