REMARK  8 active torsions:
REMARK  status: ('A' for Active; 'I' for Inactive)
REMARK       I    between atoms: N_8  and  C_1 
REMARK       I    between atoms: N_9  and  C_1 
REMARK    1  A    between atoms: C_2  and  C_11 
REMARK    2  A    between atoms: C_13  and  N_8 
REMARK    3  A    between atoms: C_12  and  N_9 
REMARK    4  A    between atoms: S_10  and  C_14 
REMARK    5  A    between atoms: C_11  and  S_10 
REMARK    6  A    between atoms: C_14  and  C_12 
REMARK    7  A    between atoms: C_15  and  C_13 
REMARK    8  A    between atoms: C_16  and  C_15 
ROOT
ATOM      1  C   UNL d   1       0.928   0.122  -0.058  0.00  0.00     0.316 C 
ATOM      2  O   UNL d   1       0.328  -0.015  -1.115  0.00  0.00    -0.247 OA
ATOM      3  N   UNL d   1       0.318   0.263   1.158  0.00  0.00    -0.343 N 
ATOM      4  N   UNL d   1       2.297   0.182   0.040  0.00  0.00    -0.342 N 
ATOM      5  H   UNL d   1       0.890   0.370   1.981  0.00  0.00     0.164 HD
ATOM      6  H   UNL d   1       2.685  -0.162   0.907  0.00  0.00     0.164 HD
ENDROOT
BRANCH   4   7
ATOM      7  C   UNL d   1       3.093  -0.069  -1.151  0.00  0.00     0.134 C 
BRANCH   7   8
ATOM      8  C   UNL d   1       4.600  -0.068  -0.887  0.00  0.00     0.094 C 
BRANCH   8   9
ATOM      9  S   UNL d   1       5.033  -1.409   0.274  0.00  0.00    -0.161 SA
BRANCH   9  10
ATOM     10  C   UNL d   1       6.849  -1.232   0.265  0.00  0.00     0.139 C 
BRANCH  10  11
ATOM     11  C   UNL d   1       7.460  -2.270   1.135  0.00  0.00     0.061 A 
ATOM     12  O   UNL d   1       8.143  -1.827   2.231  0.00  0.00    -0.326 OA
ATOM     13  C   UNL d   1       8.581  -2.926   2.896  0.00  0.00     0.142 A 
ATOM     14  C   UNL d   1       8.201  -4.072   2.240  0.00  0.00     0.027 A 
ATOM     15  C   UNL d   1       7.488  -3.650   1.091  0.00  0.00     0.035 A 
ENDBRANCH  10  11
ENDBRANCH   9  10
ENDBRANCH   8   9
ENDBRANCH   7   8
ENDBRANCH   4   7
BRANCH   3  16
ATOM     16  C   UNL d   1      -1.124   0.253   1.300  0.00  0.00     0.124 C 
BRANCH  16  17
ATOM     17  C   UNL d   1      -1.691  -1.152   1.497  0.00  0.00     0.019 C 
BRANCH  17  18
ATOM     18  C   UNL d   1      -1.232  -1.792   2.811  0.00  0.00    -0.003 C 
ATOM     19  C   UNL d   1      -1.850  -3.163   3.014  0.00  0.00     0.005 C 
ENDBRANCH  17  18
ENDBRANCH  16  17
ENDBRANCH   3  16
TORSDOF 8
