REMARK  6 active torsions:
REMARK  status: ('A' for Active; 'I' for Inactive)
REMARK    1  A    between atoms: N_3  and  S_1 
REMARK    2  A    between atoms: C_7  and  S_1 
REMARK    3  A    between atoms: S_2  and  N_4 
REMARK    4  A    between atoms: C_8  and  S_2 
REMARK    5  A    between atoms: C_5  and  N_3 
REMARK    6  A    between atoms: N_4  and  C_6 
ROOT
ATOM      1  C   UNL d   1       0.812  -1.431  -2.094  0.00  0.00     0.050 A 
ATOM      2  C   UNL d   1      -0.203  -1.991  -2.885  0.00  0.00     0.064 A 
ATOM      3  C   UNL d   1       2.099  -1.285  -2.627  0.00  0.00     0.033 A 
ATOM      4  C   UNL d   1       0.050  -2.311  -4.221  0.00  0.00     0.032 A 
ATOM      5  C   UNL d   1       2.364  -1.636  -3.960  0.00  0.00    -0.060 A 
ATOM      6  C   UNL d   1       1.322  -2.118  -4.761  0.00  0.00     0.009 A 
ATOM      7  C   UNL d   1       3.740  -1.497  -4.545  0.00  0.00     0.048 C 
ENDROOT
BRANCH   1   8
ATOM      8  N   UNL d   1       0.562  -1.009  -0.739  0.00  0.00    -0.179 NA
ATOM      9  H   UNL d   1       1.049  -0.143  -0.512  0.00  0.00     0.146 HD
BRANCH   8  10
ATOM     10  S   UNL d   1       0.857  -2.171   0.460  0.00  0.00     0.245 S 
ATOM     11  O   UNL d   1       2.280  -2.412   0.500  0.00  0.00    -0.206 OA
ATOM     12  O   UNL d   1      -0.102  -3.251   0.315  0.00  0.00    -0.206 OA
BRANCH  10  13
ATOM     13  C   UNL d   1       0.436  -1.251   1.936  0.00  0.00     0.075 A 
ATOM     14  C   UNL d   1      -0.866  -1.307   2.443  0.00  0.00     0.028 A 
ATOM     15  C   UNL d   1      -1.202  -0.555   3.570  0.00  0.00     0.044 A 
ATOM     16  C   UNL d   1      -0.236   0.225   4.195  0.00  0.00     0.116 A 
ATOM     17  C   UNL d   1       1.076   0.246   3.727  0.00  0.00     0.044 A 
ATOM     18  F   UNL d   1      -0.569   0.964   5.261  0.00  0.00    -0.206 F 
ATOM     19  C   UNL d   1       1.419  -0.498   2.595  0.00  0.00     0.028 A 
ENDBRANCH  10  13
ENDBRANCH   8  10
ENDBRANCH   1   8
BRANCH   2  20
ATOM     20  N   UNL d   1      -1.469  -2.328  -2.342  0.00  0.00    -0.279 N 
ATOM     21  H   UNL d   1      -1.585  -3.222  -1.866  0.00  0.00     0.179 HD
BRANCH  20  22
ATOM     22  S   UNL d   1      -2.824  -1.410  -2.644  0.00  0.00     0.263 S 
ATOM     23  O   UNL d   1      -2.776  -0.896  -3.996  0.00  0.00    -0.200 OA
ATOM     24  O   UNL d   1      -3.959  -2.180  -2.180  0.00  0.00    -0.200 OA
BRANCH  22  25
ATOM     25  C   UNL d   1      -2.619  -0.050  -1.522  0.00  0.00     0.079 A 
ATOM     26  C   UNL d   1      -2.107   1.168  -1.972  0.00  0.00     0.026 A 
ATOM     27  C   UNL d   1      -1.948   2.220  -1.066  0.00  0.00     0.008 A 
ATOM     28  C   UNL d   1      -2.316   2.065   0.278  0.00  0.00    -0.062 A 
ATOM     29  C   UNL d   1      -2.870   0.852   0.700  0.00  0.00     0.008 A 
ATOM     30  C   UNL d   1      -2.116   3.189   1.252  0.00  0.00     0.048 C 
ATOM     31  C   UNL d   1      -3.018  -0.208  -0.194  0.00  0.00     0.026 A 
ENDBRANCH  22  25
ENDBRANCH  20  22
ENDBRANCH   2  20
TORSDOF 6
