REMARK  9 active torsions:
REMARK  status: ('A' for Active; 'I' for Inactive)
REMARK    1  A    between atoms: C_2  and  C_1 
REMARK    2  A    between atoms: S_3  and  C_1 
REMARK    3  A    between atoms: C_8  and  C_1 
REMARK       I    between atoms: N_9  and  C_2 
REMARK    4  A    between atoms: C_11  and  S_3 
REMARK    5  A    between atoms: O_15  and  C_4 
REMARK    6  A    between atoms: O_21  and  C_5 
REMARK    7  A    between atoms: C_22  and  N_9 
REMARK    8  A    between atoms: C_12  and  C_23 
REMARK    9  A    between atoms: C_23  and  C_22 
ROOT
ATOM      1  C   UNL d   1       0.665  -0.620   1.329  0.00  0.00     0.236 C 
ATOM      2  O   UNL d   1       0.315   0.018   2.320  0.00  0.00    -0.272 OA
ATOM      3  N   UNL d   1       0.646  -2.014   1.306  0.00  0.00    -0.359 N 
ATOM      4  H   UNL d   1       1.233  -2.477   0.624  0.00  0.00     0.162 HD
ENDROOT
BRANCH   1   5
ATOM      5  C   UNL d   1       1.147   0.020   0.015  0.00  0.00     0.177 C 
BRANCH   5   6
ATOM      6  S   UNL d   1       0.269   1.610  -0.356  0.00  0.00    -0.111 SA
BRANCH   6   7
ATOM      7  C   UNL d   1      -1.465   1.229  -0.546  0.00  0.00     0.001 A 
ATOM      8  C   UNL d   1      -2.054  -0.032  -0.439  0.00  0.00     0.020 A 
ATOM      9  C   UNL d   1      -3.440  -0.190  -0.595  0.00  0.00     0.025 A 
ATOM     10  C   UNL d   1      -4.244   0.911  -0.876  0.00  0.00     0.034 A 
ATOM     11  C   UNL d   1      -3.678   2.173  -0.999  0.00  0.00     0.025 A 
ATOM     12 CL   UNL d   1      -5.940   0.709  -1.076  0.00  0.00    -0.084 Cl
ATOM     13  C   UNL d   1      -2.298   2.328  -0.831  0.00  0.00     0.020 A 
ENDBRANCH   6   7
ENDBRANCH   5   6
BRANCH   5  14
ATOM     14  C   UNL d   1       2.651   0.279   0.069  0.00  0.00    -0.035 A 
ATOM     15  C   UNL d   1       3.516  -0.302  -0.872  0.00  0.00     0.009 A 
ATOM     16  C   UNL d   1       4.885  -0.016  -0.849  0.00  0.00     0.001 A 
ATOM     17  C   UNL d   1       5.405   0.855   0.107  0.00  0.00     0.000 A 
ATOM     18  C   UNL d   1       4.564   1.423   1.059  0.00  0.00     0.001 A 
ATOM     19  C   UNL d   1       3.200   1.131   1.046  0.00  0.00     0.009 A 
ENDBRANCH   5  14
ENDBRANCH   1   5
BRANCH   3  20
ATOM     20  C   UNL d   1       0.264  -2.773   2.490  0.00  0.00     0.127 C 
BRANCH  20  21
ATOM     21  C   UNL d   1      -1.221  -2.623   2.834  0.00  0.00     0.058 C 
BRANCH  21  22
ATOM     22  C   UNL d   1      -1.635  -3.421   4.046  0.00  0.00    -0.054 A 
ATOM     23  C   UNL d   1      -2.112  -4.734   3.910  0.00  0.00     0.046 A 
ATOM     24  C   UNL d   1      -2.548  -5.472   5.023  0.00  0.00     0.102 A 
ATOM     25  C   UNL d   1      -2.460  -4.898   6.301  0.00  0.00     0.101 A 
ATOM     26  C   UNL d   1      -1.987  -3.587   6.434  0.00  0.00     0.040 A 
ATOM     27  C   UNL d   1      -1.571  -2.855   5.321  0.00  0.00     0.010 A 
BRANCH  24  28
ATOM     28  O   UNL d   1      -3.039  -6.747   4.903  0.00  0.00    -0.353 OA
ATOM     29  C   UNL d   1      -3.742  -7.039   3.700  0.00  0.00     0.210 C 
ENDBRANCH  24  28
BRANCH  25  30
ATOM     30  O   UNL d   1      -2.861  -5.450   7.491  0.00  0.00    -0.353 OA
ATOM     31  C   UNL d   1      -2.731  -6.859   7.623  0.00  0.00     0.210 C 
ENDBRANCH  25  30
ENDBRANCH  21  22
ENDBRANCH  20  21
ENDBRANCH   3  20
TORSDOF 9
