REMARK  5 active torsions:
REMARK  status: ('A' for Active; 'I' for Inactive)
REMARK    1  A    between atoms: C_3  and  N_1 
REMARK    2  A    between atoms: N_5  and  N_1 
REMARK       I    between atoms: C_2  and  N_5 
REMARK    3  A    between atoms: C_9  and  C_2 
REMARK    4  A    between atoms: C_12  and  C_9 
REMARK    5  A    between atoms: C_13  and  C_12 
ROOT
ATOM      1  C   UNL d   1       2.847  -1.077   0.821  0.00  0.00     0.232 C 
ATOM      2  N   UNL d   1       2.369   0.068   0.204  0.00  0.00    -0.287 N 
ATOM      3  O   UNL d   1       2.113  -1.911   1.345  0.00  0.00    -0.272 OA
ATOM      4  H   UNL d   1       2.949   0.898   0.141  0.00  0.00     0.184 HD
ENDROOT
BRANCH   2   5
ATOM      5  N   UNL d   1       0.978   0.297   0.280  0.00  0.00    -0.203 NA
ATOM      6  H   UNL d   1       0.522  -0.516   0.712  0.00  0.00     0.153 HD
BRANCH   5   7
ATOM      7  C   UNL d   1       0.379   0.600  -0.978  0.00  0.00     0.033 A 
ATOM      8  C   UNL d   1      -0.986   0.323  -1.216  0.00  0.00    -0.039 A 
ATOM      9  C   UNL d   1      -1.559   0.665  -2.459  0.00  0.00     0.015 A 
ATOM     10  C   UNL d   1      -1.871  -0.386  -0.226  0.00  0.00     0.050 C 
ATOM     11  C   UNL d   1      -0.827   1.333  -3.446  0.00  0.00    -0.061 A 
ATOM     12  C   UNL d   1       0.496   1.676  -3.178  0.00  0.00     0.008 A 
ATOM     13  C   UNL d   1      -1.468   1.682  -4.755  0.00  0.00     0.048 C 
ATOM     14  C   UNL d   1       1.082   1.324  -1.959  0.00  0.00     0.026 A 
ENDBRANCH   5   7
ENDBRANCH   2   5
BRANCH   1  15
ATOM     15  C   UNL d   1       4.357  -1.184   0.769  0.00  0.00     0.108 C 
BRANCH  15  16
ATOM     16  C   UNL d   1       4.825  -2.570   1.200  0.00  0.00     0.048 C 
BRANCH  16  17
ATOM     17  C   UNL d   1       6.307  -2.766   0.998  0.00  0.00    -0.058 A 
ATOM     18  C   UNL d   1       7.217  -2.445   2.011  0.00  0.00     0.007 A 
ATOM     19  C   UNL d   1       8.586  -2.653   1.826  0.00  0.00     0.001 A 
ATOM     20  C   UNL d   1       9.057  -3.177   0.624  0.00  0.00     0.000 A 
ATOM     21  C   UNL d   1       8.162  -3.485  -0.398  0.00  0.00     0.001 A 
ATOM     22  C   UNL d   1       6.792  -3.278  -0.215  0.00  0.00     0.007 A 
ENDBRANCH  16  17
ENDBRANCH  15  16
ENDBRANCH   1  15
TORSDOF 5
