REMARK  5 active torsions:
REMARK  status: ('A' for Active; 'I' for Inactive)
REMARK    1  A    between atoms: C_5  and  C_1 
REMARK       I    between atoms: N_10  and  C_5 
REMARK    2  A    between atoms: C_13  and  N_10 
REMARK    3  A    between atoms: C_14  and  C_11 
REMARK    4  A    between atoms: C_15  and  C_13 
REMARK    5  A    between atoms: C_16  and  C_15 
ROOT
ATOM      1  C   UNL d   1      -2.459  -0.156  -0.062  0.00  0.00     0.102 A 
ATOM      2  N   UNL d   1      -1.651   0.966  -0.041  0.00  0.00    -0.351 N 
ATOM      3  C   UNL d   1      -1.606  -1.245  -0.025  0.00  0.00     0.049 A 
ATOM      4  C   UNL d   1      -0.270  -0.775  -0.016  0.00  0.00    -0.007 A 
ATOM      5  C   UNL d   1      -0.320   0.616  -0.025  0.00  0.00     0.043 A 
ATOM      6  C   UNL d   1       0.981  -1.418  -0.008  0.00  0.00     0.021 A 
ATOM      7  C   UNL d   1       0.837   1.403  -0.025  0.00  0.00     0.031 A 
ATOM      8  C   UNL d   1       2.159  -0.657  -0.016  0.00  0.00    -0.058 A 
ATOM      9  C   UNL d   1       2.075   0.741  -0.028  0.00  0.00     0.009 A 
ATOM     10  H   UNL d   1      -2.010   1.913  -0.050  0.00  0.00     0.166 HD
ENDROOT
BRANCH   1  11
ATOM     11  C   UNL d   1      -3.904  -0.073  -0.121  0.00  0.00     0.268 C 
ATOM     12  O   UNL d   1      -4.501   0.996  -0.172  0.00  0.00    -0.266 OA
ATOM     13  N   UNL d   1      -4.544  -1.293  -0.121  0.00  0.00    -0.356 N 
ATOM     14  H   UNL d   1      -3.987  -2.132  -0.134  0.00  0.00     0.162 HD
BRANCH  13  15
ATOM     15  C   UNL d   1      -5.976  -1.442  -0.248  0.00  0.00     0.123 C 
BRANCH  15  16
ATOM     16  C   UNL d   1      -6.433  -1.507  -1.706  0.00  0.00     0.019 C 
BRANCH  16  17
ATOM     17  C   UNL d   1      -5.867  -2.717  -2.455  0.00  0.00    -0.003 C 
ATOM     18  C   UNL d   1      -6.370  -2.765  -3.891  0.00  0.00     0.005 C 
ENDBRANCH  16  17
ENDBRANCH  15  16
ENDBRANCH  13  15
ENDBRANCH   1  11
BRANCH   8  19
ATOM     19  C   UNL d   1       3.494  -1.360  -0.039  0.00  0.00     0.034 C 
ATOM     20  C   UNL d   1       3.960  -1.657  -1.456  0.00  0.00     0.010 C 
ENDBRANCH   8  19
TORSDOF 5
