REMARK  5 active torsions:
REMARK  status: ('A' for Active; 'I' for Inactive)
REMARK    1  A    between atoms: N_5  and  C_1 
REMARK    2  A    between atoms: C_4  and  C_6 
REMARK    3  A    between atoms: C_7  and  C_13 
REMARK       I    between atoms: N_10  and  C_7 
REMARK    4  A    between atoms: C_25  and  N_10 
REMARK    5  A    between atoms: C_11  and  C_25 
ROOT
ATOM      1  N   UNL d   1       0.446   2.681  -0.160  0.00  0.00    -0.255 NA
ATOM      2  C   UNL d   1      -0.049   5.519   0.136  0.00  0.00     0.080 C 
ATOM      3  C   UNL d   1       0.069   3.461  -1.339  0.00  0.00     0.099 C 
ATOM      4  C   UNL d   1      -0.057   3.171   1.125  0.00  0.00     0.099 C 
ATOM      5  C   UNL d   1       0.499   4.918  -1.162  0.00  0.00     0.029 C 
ATOM      6  C   UNL d   1       0.361   4.631   1.318  0.00  0.00     0.029 C 
ENDROOT
BRANCH   1   7
ATOM      7  C   UNL d   1       0.319   1.299  -0.330  0.00  0.00     0.159 A 
ATOM      8  N   UNL d   1       0.330   0.803  -1.576  0.00  0.00    -0.329 N 
ATOM      9  C   UNL d   1       0.262  -0.541  -1.755  0.00  0.00     0.120 A 
ATOM     10  HN  UNL d   1       0.389   1.429  -2.380  1.00  0.00     0.168 HD
ATOM     11  C   UNL d   1       0.182  -1.412  -0.689  0.00  0.00     0.051 A 
ATOM     12  C   UNL d   1       0.175  -0.829   0.552  0.00  0.00     0.093 A 
ATOM     13  N   UNL d   1       0.243   0.500   0.746  0.00  0.00    -0.343 N 
ATOM     14  HN  UNL d   1       0.237   0.892   1.688  1.00  0.00     0.167 HD
BRANCH   9  15
ATOM     15  C   UNL d   1       0.285  -1.092  -3.168  0.00  0.00     0.432 C 
ATOM     16  F   UNL d   1       0.357  -0.141  -4.142  0.00  0.00    -0.165 F 
ATOM     17  F   UNL d   1       1.343  -1.927  -3.384  0.00  0.00    -0.165 F 
ATOM     18  F   UNL d   1      -0.826  -1.832  -3.455  0.00  0.00    -0.165 F 
ENDBRANCH   9  15
ENDBRANCH   1   7
BRANCH   2  19
ATOM     19  C   UNL d   1      -1.563   5.729   0.070  0.00  0.00     0.222 C 
ATOM     20  N   UNL d   1      -1.976   6.558  -0.946  0.00  0.00    -0.355 N 
ATOM     21  H   UNL d   1      -1.311   7.176  -1.393  0.00  0.00     0.162 HD
ATOM     22  O   UNL d   1      -2.351   5.215   0.857  0.00  0.00    -0.273 OA
BRANCH  20  23
ATOM     23  C   UNL d   1      -3.375   6.878  -1.109  0.00  0.00     0.187 C 
BRANCH  23  24
ATOM     24  C   UNL d   1      -3.551   7.862  -2.208  0.00  0.00     0.070 A 
ATOM     25  O   UNL d   1      -2.526   8.739  -2.441  0.00  0.00    -0.325 OA
ATOM     26  C   UNL d   1      -2.924   9.557  -3.449  0.00  0.00     0.142 A 
ATOM     27  C   UNL d   1      -4.188   9.224  -3.871  0.00  0.00     0.027 A 
ATOM     28  C   UNL d   1      -4.593   8.125  -3.075  0.00  0.00     0.036 A 
ENDBRANCH  23  24
ENDBRANCH  20  23
ENDBRANCH   2  19
TORSDOF 5
