REMARK  5 active torsions:
REMARK  status: ('A' for Active; 'I' for Inactive)
REMARK    1  A    between atoms: N_2  and  S_1 
REMARK    2  A    between atoms: C_4  and  S_1 
REMARK    3  A    between atoms: C_3  and  N_2 
REMARK    4  A    between atoms: C_10  and  C_6 
REMARK    5  A    between atoms: C_20  and  C_11 
ROOT
ATOM      1  S   UNL d   1       1.057   0.062  -0.130  0.00  0.00     0.245 S 
ATOM      2  O   UNL d   1       0.175   1.157  -0.476  0.00  0.00    -0.206 OA
ATOM      3  O   UNL d   1       2.483   0.246   0.016  0.00  0.00    -0.206 OA
ENDROOT
BRANCH   1   4
ATOM      4  N   UNL d   1       0.740  -1.165  -1.279  0.00  0.00    -0.180 NA
ATOM      5  H   UNL d   1       0.034  -0.766  -1.907  0.00  0.00     0.146 HD
BRANCH   4   6
ATOM      6  C   UNL d   1       1.897  -1.624  -2.011  0.00  0.00     0.045 A 
ATOM      7  C   UNL d   1       2.588  -2.737  -1.515  0.00  0.00     0.041 A 
ATOM      8  C   UNL d   1       3.743  -3.198  -2.162  0.00  0.00     0.011 A 
ATOM      9  C   UNL d   1       4.194  -2.526  -3.312  0.00  0.00     0.017 A 
ATOM     10  C   UNL d   1       3.518  -1.405  -3.798  0.00  0.00     0.026 A 
ATOM     11  C   UNL d   1       2.377  -0.946  -3.143  0.00  0.00     0.056 A 
ATOM     12 CL   UNL d   1       1.565   0.440  -3.773  0.00  0.00    -0.082 Cl
BRANCH   8  13
ATOM     13  C   UNL d   1       4.540  -4.377  -1.698  0.00  0.00     0.155 C 
ATOM     14  O   UNL d   1       5.498  -4.754  -2.379  0.00  0.00    -0.293 OA
ATOM     15  C   UNL d   1       4.205  -5.100  -0.419  0.00  0.00     0.096 C 
ENDBRANCH   8  13
ENDBRANCH   4   6
ENDBRANCH   1   4
BRANCH   1  16
ATOM     16  C   UNL d   1       0.448  -0.659   1.381  0.00  0.00     0.074 A 
ATOM     17  C   UNL d   1       1.309  -1.422   2.175  0.00  0.00     0.025 A 
ATOM     18  C   UNL d   1       0.878  -1.881   3.425  0.00  0.00     0.009 A 
ATOM     19  C   UNL d   1      -0.407  -1.575   3.902  0.00  0.00    -0.055 A 
ATOM     20  C   UNL d   1      -1.257  -0.806   3.090  0.00  0.00     0.009 A 
ATOM     21  C   UNL d   1      -0.834  -0.346   1.838  0.00  0.00     0.025 A 
BRANCH  19  22
ATOM     22  C   UNL d   1      -0.887  -2.042   5.269  0.00  0.00     0.010 C 
ATOM     23  C   UNL d   1      -0.924  -3.570   5.363  0.00  0.00     0.015 C 
ATOM     24  C   UNL d   1      -0.052  -1.452   6.409  0.00  0.00     0.015 C 
ENDBRANCH  19  22
ENDBRANCH   1  16
TORSDOF 5
