REMARK  8 active torsions:
REMARK  status: ('A' for Active; 'I' for Inactive)
REMARK    1  A    between atoms: C_18  and  N_1 
REMARK    2  A    between atoms: C_14  and  C_2 
REMARK    3  A    between atoms: S_10  and  C_5 
REMARK       I    between atoms: C_8  and  N_12 
REMARK       I    between atoms: N_11  and  C_8 
REMARK    4  A    between atoms: C_9  and  C_20 
REMARK       I    between atoms: N_13  and  C_9 
REMARK    5  A    between atoms: C_20  and  S_10 
REMARK    6  A    between atoms: C_16  and  N_11 
REMARK    7  A    between atoms: N_12  and  N_13 
REMARK    8  A    between atoms: C_21  and  C_18 
ROOT
ATOM      1  C   UNL d   1      -3.559  -1.756  -0.088  0.00  0.00     0.186 C 
ENDROOT
BRANCH   1   2
ATOM      2  C   UNL d   1      -5.069  -1.789   0.116  0.00  0.00     0.245 C 
ATOM      3  N   UNL d   1      -5.776  -0.741  -0.448  0.00  0.00    -0.265 N 
ATOM      4  H   UNL d   1      -5.350  -0.076  -1.095  0.00  0.00     0.190 HD
ATOM      5  O   UNL d   1      -5.625  -2.710   0.717  0.00  0.00    -0.271 OA
BRANCH   3   6
ATOM      6  N   UNL d   1      -7.184  -0.826  -0.492  0.00  0.00    -0.249 N 
ATOM      7  C   UNL d   1      -7.832  -0.089  -1.472  0.00  0.00     0.339 C 
ATOM      8  N   UNL d   1      -9.206  -0.166  -1.363  0.00  0.00    -0.308 N 
ATOM      9  O   UNL d   1      -7.194   0.529  -2.317  0.00  0.00    -0.245 OA
ATOM     10  H   UNL d   1      -9.558  -0.821  -0.680  0.00  0.00     0.170 HD
ATOM     11  H   UNL d   1      -7.635  -1.036   0.391  0.00  0.00     0.192 HD
BRANCH   8  12
ATOM     12  C   UNL d   1     -10.170   0.505  -2.149  0.00  0.00     0.038 A 
ATOM     13  C   UNL d   1      -9.849   1.408  -3.164  0.00  0.00     0.053 A 
ATOM     14  C   UNL d   1     -10.862   2.058  -3.877  0.00  0.00     0.036 A 
ATOM     15 CL   UNL d   1     -10.450   3.178  -5.120  0.00  0.00    -0.084 Cl
ATOM     16  C   UNL d   1     -12.202   1.819  -3.587  0.00  0.00     0.024 A 
ATOM     17  C   UNL d   1     -12.534   0.915  -2.583  0.00  0.00     0.004 A 
ATOM     18  C   UNL d   1     -11.523   0.259  -1.869  0.00  0.00     0.029 A 
ENDBRANCH   8  12
ENDBRANCH   3   6
ENDBRANCH   1   2
BRANCH   1  19
ATOM     19  S   UNL d   1      -2.825  -0.237   0.566  0.00  0.00    -0.083 SA
BRANCH  19  20
ATOM     20  C   UNL d   1      -1.161  -0.273   0.059  0.00  0.00     0.163 A 
ATOM     21  N   UNL d   1      -0.209  -1.214   0.395  0.00  0.00    -0.307 N 
ATOM     22  C   UNL d   1       1.012  -0.677   0.002  0.00  0.00     0.135 A 
ATOM     23  N   UNL d   1       0.767   0.490  -0.577  0.00  0.00    -0.283 N 
ATOM     24  N   UNL d   1      -0.581   0.736  -0.543  0.00  0.00    -0.278 N 
ATOM     25  HN  UNL d   1       1.470   1.107  -0.984  1.00  0.00     0.188 HD
ATOM     26  HN  UNL d   1      -1.050   1.559  -0.921  1.00  0.00     0.189 HD
BRANCH  21  27
ATOM     27  C   UNL d   1      -0.417  -2.454   1.106  0.00  0.00     0.159 C 
BRANCH  27  28
ATOM     28  C   UNL d   1      -0.656  -3.658   0.222  0.00  0.00    -0.017 C 
ATOM     29  C   UNL d   1      -0.635  -3.718  -1.121  0.00  0.00     0.008 C 
ENDBRANCH  27  28
ENDBRANCH  21  27
BRANCH  22  30
ATOM     30  C   UNL d   1       2.372  -1.212   0.220  0.00  0.00     0.009 A 
ATOM     31  C   UNL d   1       2.692  -2.574   0.142  0.00  0.00     0.015 A 
ATOM     32  C   UNL d   1       4.000  -3.029   0.353  0.00  0.00     0.001 A 
ATOM     33  C   UNL d   1       5.020  -2.122   0.619  0.00  0.00     0.000 A 
ATOM     34  C   UNL d   1       4.735  -0.763   0.672  0.00  0.00     0.001 A 
ATOM     35  C   UNL d   1       3.425  -0.314   0.474  0.00  0.00     0.015 A 
ENDBRANCH  22  30
ENDBRANCH  19  20
ENDBRANCH   1  19
TORSDOF 8
