REMARK  6 active torsions:
REMARK  status: ('A' for Active; 'I' for Inactive)
REMARK    1  A    between atoms: C_8  and  C_1 
REMARK       I    between atoms: C_3  and  N_5 
REMARK    2  A    between atoms: C_13  and  C_3 
REMARK    3  A    between atoms: N_5  and  C_7 
REMARK    4  A    between atoms: C_7  and  C_8 
REMARK    5  A    between atoms: C_9  and  C_7 
REMARK    6  A    between atoms: O_17  and  C_9 
ROOT
ATOM      1  C   UNL d   1       3.611  -2.473   0.207  0.00  0.00     0.189 C 
ENDROOT
BRANCH   1   2
ATOM      2  N   UNL d   1       4.043  -1.876   1.482  0.00  0.00    -0.343 N 
ATOM      3  C   UNL d   1       5.389  -1.757   1.758  0.00  0.00     0.252 C 
ATOM      4  O   UNL d   1       6.262  -2.172   0.996  0.00  0.00    -0.268 OA
ATOM      5  H   UNL d   1       3.366  -1.676   2.204  0.00  0.00     0.163 HD
BRANCH   3   6
ATOM      6  C   UNL d   1       5.771  -1.118   3.038  0.00  0.00     0.032 A 
ATOM      7  C   UNL d   1       6.874  -1.619   3.739  0.00  0.00     0.017 A 
ATOM      8  C   UNL d   1       7.331  -0.968   4.887  0.00  0.00     0.001 A 
ATOM      9  C   UNL d   1       6.695   0.192   5.327  0.00  0.00     0.000 A 
ATOM     10  C   UNL d   1       5.590   0.690   4.635  0.00  0.00     0.001 A 
ATOM     11  C   UNL d   1       5.121   0.036   3.492  0.00  0.00     0.017 A 
ENDBRANCH   3   6
ENDBRANCH   1   2
BRANCH   1  12
ATOM     12  C   UNL d   1       2.089  -2.417  -0.019  0.00  0.00     0.075 C 
BRANCH  12  13
ATOM     13  C   UNL d   1       1.546  -1.014  -0.098  0.00  0.00    -0.037 C 
ATOM     14  C   UNL d   1       0.947  -0.288   1.003  0.00  0.00    -0.011 A 
ATOM     15  C   UNL d   1       0.700   1.046   0.660  0.00  0.00     0.015 A 
ATOM     16  C   UNL d   1       0.612  -0.704   2.318  0.00  0.00     0.037 A 
ATOM     17  C   UNL d   1       0.223   1.979   1.603  0.00  0.00     0.021 A 
ATOM     18  S   UNL d   1       1.034   1.341  -1.000  0.00  0.00    -0.101 SA
ATOM     19  C   UNL d   1      -0.084   1.542   2.893  0.00  0.00     0.025 A 
ATOM     20  C   UNL d   1       0.083   0.209   3.234  0.00  0.00     0.035 A 
ATOM     21 CL   UNL d   1      -0.374  -0.334   4.802  0.00  0.00    -0.084 Cl
ATOM     22  C   UNL d   1       1.538  -0.263  -1.257  0.00  0.00     0.058 C 
ENDBRANCH  12  13
ENDBRANCH   1  12
BRANCH   1  23
ATOM     23  C   UNL d   1       4.004  -3.953   0.147  0.00  0.00     0.281 C 
ATOM     24  O   UNL d   1       4.004  -4.717   1.105  0.00  0.00    -0.263 OA
BRANCH  23  25
ATOM     25  O   UNL d   1       4.265  -4.314  -1.143  0.00  0.00    -0.325 OA
ATOM     26  C   UNL d   1       4.676  -5.673  -1.297  0.00  0.00     0.213 C 
ENDBRANCH  23  25
ENDBRANCH   1  23
TORSDOF 6
