REMARK  4 active torsions:
REMARK  status: ('A' for Active; 'I' for Inactive)
REMARK    1  A    between atoms: N_4  and  C_1 
REMARK    2  A    between atoms: N_5  and  C_1 
REMARK    3  A    between atoms: N_2  and  N_4 
REMARK    4  A    between atoms: C_8  and  N_5 
ROOT
ATOM      1  C   UNL d   1       1.090   0.097  -0.173  0.00  0.00     0.191 C 
ATOM      2  S   UNL d   1       2.746   0.318  -0.165  0.00  0.00    -0.039 SA
ENDROOT
BRANCH   1   3
ATOM      3  N   UNL d   1       0.396   0.586  -1.262  0.00  0.00    -0.276 N 
ATOM      4  H   UNL d   1       0.948   1.047  -1.976  0.00  0.00     0.189 HD
BRANCH   3   5
ATOM      5  N   UNL d   1      -0.939   0.389  -1.435  0.00  0.00    -0.307 N 
ATOM      6  C   UNL d   1      -1.553   1.177  -2.271  0.00  0.00    -0.004 C 
ATOM      7  C   UNL d   1      -0.952   2.387  -2.955  0.00  0.00     0.064 C 
ATOM      8  C   UNL d   1      -2.994   0.875  -2.604  0.00  0.00     0.064 C 
ATOM      9  HN  UNL d   1      -1.438  -0.345  -0.933  1.00  0.00     0.186 HD
ENDBRANCH   3   5
ENDBRANCH   1   3
BRANCH   1  10
ATOM     10  N   UNL d   1       0.289  -0.531   0.753  0.00  0.00    -0.332 N 
ATOM     11  H   UNL d   1      -0.592  -0.823   0.341  0.00  0.00     0.168 HD
BRANCH  10  12
ATOM     12  C   UNL d   1       0.540  -0.881   2.094  0.00  0.00     0.034 A 
ATOM     13  C   UNL d   1       1.465  -0.211   2.899  0.00  0.00     0.031 A 
ATOM     14  C   UNL d   1       1.651  -0.579   4.235  0.00  0.00     0.026 A 
ATOM     15  C   UNL d   1       0.906  -1.623   4.774  0.00  0.00     0.034 A 
ATOM     16  C   UNL d   1      -0.035  -2.286   3.992  0.00  0.00     0.026 A 
ATOM     17 CL   UNL d   1       1.140  -2.080   6.415  0.00  0.00    -0.084 Cl
ATOM     18  C   UNL d   1      -0.229  -1.905   2.659  0.00  0.00     0.031 A 
ENDBRANCH  10  12
ENDBRANCH   1  10
TORSDOF 4
