REMARK  4 active torsions:
REMARK  status: ('A' for Active; 'I' for Inactive)
REMARK    1  A    between atoms: C_7  and  N_1 
REMARK    2  A    between atoms: C_15  and  N_2 
REMARK    3  A    between atoms: S_13  and  C_11 
REMARK    4  A    between atoms: C_20  and  C_15 
ROOT
ATOM      1  N   UNL d   1       0.936  -1.406   0.015  0.00  0.00    -0.246 N 
ATOM      2  N   UNL d   1       2.105   0.683  -0.084  0.00  0.00    -0.260 N 
ATOM      3  C   UNL d   1       2.163  -0.725   0.007  0.00  0.00     0.338 A 
ATOM      4  C   UNL d   1      -0.250  -0.706  -0.061  0.00  0.00     0.150 A 
ATOM      5  C   UNL d   1      -0.241   0.657  -0.113  0.00  0.00     0.147 A 
ATOM      6  C   UNL d   1       0.938   1.446  -0.137  0.00  0.00     0.282 A 
ATOM      7  N   UNL d   1      -1.527  -1.187  -0.042  0.00  0.00    -0.336 N 
ATOM      8  HN  UNL d   1      -1.824  -2.162  -0.010  1.00  0.00     0.168 HD
ATOM      9  N   UNL d   1      -1.550   1.038  -0.112  0.00  0.00    -0.345 N 
ATOM     10  C   UNL d   1      -2.294  -0.113  -0.072  0.00  0.00     0.182 A 
ATOM     11  O   UNL d   1       3.244  -1.318   0.048  0.00  0.00    -0.246 OA
ATOM     12  O   UNL d   1       0.895   2.671  -0.212  0.00  0.00    -0.265 OA
ATOM     13  H   UNL d   1      -1.899   1.988  -0.123  0.00  0.00     0.167 HD
ENDROOT
BRANCH   1  14
ATOM     14  C   UNL d   1       0.883  -2.822   0.110  0.00  0.00     0.053 A 
ATOM     15  C   UNL d   1       1.367  -3.509   1.256  0.00  0.00    -0.015 A 
ATOM     16  C   UNL d   1       1.449  -4.923   1.220  0.00  0.00     0.039 A 
ATOM     17  C   UNL d   1       1.721  -2.739   2.502  0.00  0.00     0.052 C 
ATOM     18  C   UNL d   1       1.030  -5.608   0.065  0.00  0.00     0.021 A 
ATOM     19  C   UNL d   1       0.505  -4.926  -1.031  0.00  0.00     0.004 A 
ATOM     20  C   UNL d   1       0.419  -3.539  -1.004  0.00  0.00     0.031 A 
BRANCH  16  21
ATOM     21  S   UNL d   1       1.906  -5.925   2.679  0.00  0.00     0.046 S 
ATOM     22  O   UNL d   1       1.792  -7.361   2.251  0.00  0.00    -0.253 OA
ATOM     23  C   UNL d   1       3.667  -5.553   2.803  0.00  0.00     0.133 C 
ENDBRANCH  16  21
ENDBRANCH   1  14
BRANCH   2  24
ATOM     24  C   UNL d   1       3.373   1.403  -0.105  0.00  0.00     0.175 C 
BRANCH  24  25
ATOM     25  C   UNL d   1       3.846   1.750   1.290  0.00  0.00    -0.040 A 
ATOM     26  C   UNL d   1       4.692   0.881   1.994  0.00  0.00     0.009 A 
ATOM     27  C   UNL d   1       5.075   1.172   3.304  0.00  0.00     0.001 A 
ATOM     28  C   UNL d   1       4.615   2.333   3.924  0.00  0.00     0.000 A 
ATOM     29  C   UNL d   1       3.787   3.211   3.229  0.00  0.00     0.001 A 
ATOM     30  C   UNL d   1       3.405   2.924   1.919  0.00  0.00     0.009 A 
ENDBRANCH  24  25
ENDBRANCH   2  24
TORSDOF 4
