REMARK  5 active torsions:
REMARK  status: ('A' for Active; 'I' for Inactive)
REMARK       I    between atoms: C_2  and  N_1 
REMARK       I    between atoms: C_4  and  N_1 
REMARK       I    between atoms: N_6  and  C_2 
REMARK    1  A    between atoms: C_3  and  C_5 
REMARK    2  A    between atoms: C_7  and  C_4 
REMARK    3  A    between atoms: C_12  and  N_6 
REMARK    4  A    between atoms: C_8  and  O_13 
REMARK    5  A    between atoms: O_13  and  C_19 
ROOT
ATOM      1  N   UNL d   1       1.123   0.073  -0.106  0.00  0.00    -0.275 N 
ATOM      2  C   UNL d   1       0.339  -0.421   0.909  0.00  0.00     0.327 C 
ATOM      3  C   UNL d   1       2.284  -0.444  -0.644  0.00  0.00     0.259 C 
ATOM      4  N   UNL d   1       0.752  -1.601   1.466  0.00  0.00    -0.309 N 
ATOM      5  O   UNL d   1      -0.639   0.248   1.232  0.00  0.00    -0.247 OA
ATOM      6  O   UNL d   1       2.787  -1.510  -0.304  0.00  0.00    -0.267 OA
ATOM      7  H   UNL d   1       0.735   0.925  -0.484  0.00  0.00     0.173 HD
ATOM      8  H   UNL d   1       1.638  -1.961   1.114  0.00  0.00     0.170 HD
ENDROOT
BRANCH   3   9
ATOM      9  C   UNL d   1       2.897   0.367  -1.731  0.00  0.00     0.032 A 
ATOM     10  C   UNL d   1       2.892   1.769  -1.701  0.00  0.00     0.020 A 
ATOM     11  C   UNL d   1       3.468   2.495  -2.752  0.00  0.00     0.038 A 
ATOM     12  C   UNL d   1       4.062   1.824  -3.822  0.00  0.00     0.074 A 
ATOM     13  C   UNL d   1       4.052   0.427  -3.849  0.00  0.00     0.038 A 
ATOM     14  C   UNL d   1       3.486  -0.302  -2.802  0.00  0.00     0.020 A 
BRANCH  12  15
ATOM     15  O   UNL d   1       4.655   2.412  -4.903  0.00  0.00    -0.290 OA
BRANCH  15  16
ATOM     16  C   UNL d   1       5.134   3.732  -4.710  0.00  0.00     0.505 C 
ATOM     17  F   UNL d   1       5.992   4.002  -5.726  0.00  0.00    -0.184 F 
ATOM     18  F   UNL d   1       4.098   4.598  -4.832  0.00  0.00    -0.184 F 
ENDBRANCH  15  16
ENDBRANCH  12  15
ENDBRANCH   3   9
BRANCH   4  19
ATOM     19  C   UNL d   1       0.152  -2.290   2.538  0.00  0.00     0.037 A 
ATOM     20  C   UNL d   1      -1.101  -1.954   3.057  0.00  0.00     0.045 A 
ATOM     21  C   UNL d   1      -1.627  -2.615   4.178  0.00  0.00     0.050 A 
ATOM     22  C   UNL d   1      -0.882  -3.643   4.770  0.00  0.00     0.016 A 
ATOM     23  C   UNL d   1       0.352  -4.013   4.237  0.00  0.00     0.003 A 
ATOM     24  C   UNL d   1       0.863  -3.344   3.121  0.00  0.00     0.029 A 
BRANCH  21  25
ATOM     25  C   UNL d   1      -2.957  -2.202   4.757  0.00  0.00     0.417 C 
ATOM     26  F   UNL d   1      -3.618  -1.271   4.015  0.00  0.00    -0.166 F 
ATOM     27  F   UNL d   1      -3.818  -3.249   4.888  0.00  0.00    -0.166 F 
ATOM     28  F   UNL d   1      -2.833  -1.665   6.003  0.00  0.00    -0.166 F 
ENDBRANCH  21  25
ENDBRANCH   4  19
TORSDOF 5
