REMARK  6 active torsions:
REMARK  status: ('A' for Active; 'I' for Inactive)
REMARK    1  A    between atoms: C_15  and  N_1 
REMARK    2  A    between atoms: C_22  and  N_5 
REMARK    3  A    between atoms: C_11  and  C_7 
REMARK       I    between atoms: N_16  and  C_11 
REMARK       I    between atoms: C_14  and  N_17 
REMARK    4  A    between atoms: C_20  and  C_14 
REMARK    5  A    between atoms: C_27  and  C_15 
REMARK    6  A    between atoms: N_17  and  N_16 
ROOT
ATOM      1  N   UNL d   1      -0.683   1.182  -0.079  0.00  0.00    -0.261 N 
ATOM      2  C   UNL d   1      -1.388  -0.016  -0.189  0.00  0.00     0.332 C 
ATOM      3  C   UNL d   1       1.446   0.003  -0.108  0.00  0.00     0.082 C 
ATOM      4  C   UNL d   1       0.700   1.280  -0.019  0.00  0.00     0.266 C 
ATOM      5  N   UNL d   1      -0.622  -1.184  -0.084  0.00  0.00    -0.304 N 
ATOM      6  C   UNL d   1       2.867  -0.013  -0.135  0.00  0.00     0.091 A 
ATOM      7  C   UNL d   1       4.994  -0.100  -0.838  0.00  0.00     0.110 A 
ATOM      8  N   UNL d   1       3.643  -0.114  -1.204  0.00  0.00    -0.345 N 
ATOM      9  HN  UNL d   1       3.302  -0.191  -2.162  1.00  0.00     0.167 HD
ATOM     10  C   UNL d   1       0.758  -1.144  -0.116  0.00  0.00     0.116 C 
ATOM     11  S   UNL d   1       3.730   0.028   1.368  0.00  0.00    -0.081 SA
ATOM     12  C   UNL d   1       5.211  -0.049   0.526  0.00  0.00     0.087 A 
ATOM     13  O   UNL d   1      -2.606  -0.054  -0.371  0.00  0.00    -0.246 OA
ATOM     14  O   UNL d   1       1.306   2.345   0.093  0.00  0.00    -0.267 OA
ENDROOT
BRANCH   7  15
ATOM     15  C   UNL d   1       6.087  -0.124  -1.815  0.00  0.00     0.287 C 
ATOM     16  N   UNL d   1       5.684  -0.150  -3.135  0.00  0.00    -0.262 N 
ATOM     17  H   UNL d   1       4.700  -0.144  -3.400  0.00  0.00     0.190 HD
ATOM     18  O   UNL d   1       7.275  -0.096  -1.493  0.00  0.00    -0.264 OA
BRANCH  16  19
ATOM     19  N   UNL d   1       6.657  -0.033  -4.138  0.00  0.00    -0.263 N 
ATOM     20  C   UNL d   1       6.409  -0.561  -5.388  0.00  0.00     0.270 C 
ATOM     21  O   UNL d   1       5.348  -1.084  -5.710  0.00  0.00    -0.266 OA
ATOM     22  H   UNL d   1       7.612   0.120  -3.808  0.00  0.00     0.190 HD
BRANCH  20  23
ATOM     23  C   UNL d   1       7.539  -0.474  -6.353  0.00  0.00     0.033 A 
ATOM     24  C   UNL d   1       7.731  -1.504  -7.284  0.00  0.00     0.019 A 
ATOM     25  C   UNL d   1       8.789  -1.434  -8.197  0.00  0.00     0.025 A 
ATOM     26  C   UNL d   1       9.640  -0.329  -8.190  0.00  0.00     0.034 A 
ATOM     27  C   UNL d   1       9.440   0.712  -7.284  0.00  0.00     0.025 A 
ATOM     28 CL   UNL d   1      10.942  -0.242  -9.311  0.00  0.00    -0.084 Cl
ATOM     29  C   UNL d   1       8.390   0.641  -6.364  0.00  0.00     0.019 A 
ENDBRANCH  20  23
ENDBRANCH  16  19
ENDBRANCH   7  15
BRANCH   1  30
ATOM     30  C   UNL d   1      -1.460   2.417  -0.013  0.00  0.00     0.175 C 
BRANCH  30  31
ATOM     31  C   UNL d   1      -1.983   2.682   1.386  0.00  0.00    -0.040 A 
ATOM     32  C   UNL d   1      -1.220   3.401   2.316  0.00  0.00     0.009 A 
ATOM     33  C   UNL d   1      -1.683   3.584   3.621  0.00  0.00     0.001 A 
ATOM     34  C   UNL d   1      -2.908   3.047   4.013  0.00  0.00     0.000 A 
ATOM     35  C   UNL d   1      -3.682   2.340   3.095  0.00  0.00     0.001 A 
ATOM     36  C   UNL d   1      -3.224   2.164   1.789  0.00  0.00     0.009 A 
ENDBRANCH  30  31
ENDBRANCH   1  30
BRANCH   5  37
ATOM     37  C   UNL d   1      -1.333  -2.483  -0.076  0.00  0.00     0.086 C 
ATOM     38  C   UNL d   1      -1.369  -3.102  -1.472  0.00  0.00     0.032 C 
ATOM     39  C   UNL d   1      -0.795  -3.478   0.960  0.00  0.00     0.032 C 
ENDBRANCH   5  37
TORSDOF 6
