REMARK  5 active torsions:
REMARK  status: ('A' for Active; 'I' for Inactive)
REMARK    1  A    between atoms: C_6  and  N_1 
REMARK    2  A    between atoms: C_8  and  C_6 
REMARK    3  A    between atoms: N_7  and  C_9 
REMARK    4  A    between atoms: C_9  and  C_8 
REMARK    5  A    between atoms: O_10  and  C_8 
ROOT
ATOM      1  N   UNL d   1      -0.014  -1.589  -0.705  0.00  0.00    -0.343 N 
ATOM      2  C   UNL d   1      -0.426  -0.434  -0.066  0.00  0.00     0.046 A 
ATOM      3  C   UNL d   1       0.056  -1.390  -2.073  0.00  0.00     0.046 A 
ATOM      4  C   UNL d   1      -0.764   0.483  -1.062  0.00  0.00     0.003 A 
ATOM      5  C   UNL d   1      -0.451  -0.112  -2.325  0.00  0.00     0.003 A 
ATOM      6  C   UNL d   1      -0.579  -0.130   1.298  0.00  0.00     0.030 A 
ATOM      7  C   UNL d   1       0.473  -2.235  -3.115  0.00  0.00     0.030 A 
ATOM      8  C   UNL d   1      -0.573   0.323  -3.660  0.00  0.00     0.014 A 
ATOM      9  C   UNL d   1      -1.320   1.726  -0.688  0.00  0.00     0.014 A 
ATOM     10  C   UNL d   1      -0.165  -0.513  -4.702  0.00  0.00     0.001 A 
ATOM     11  C   UNL d   1      -1.115   1.114   1.644  0.00  0.00     0.002 A 
ATOM     12  C   UNL d   1       0.359  -1.772  -4.430  0.00  0.00     0.002 A 
ATOM     13  C   UNL d   1      -1.494   2.026   0.666  0.00  0.00     0.001 A 
ENDROOT
BRANCH   1  14
ATOM     14  C   UNL d   1       0.043  -2.894  -0.070  0.00  0.00     0.163 C 
BRANCH  14  15
ATOM     15  C   UNL d   1       1.432  -3.476   0.190  0.00  0.00     0.164 C 
BRANCH  15  16
ATOM     16  C   UNL d   1       2.252  -2.720   1.262  0.00  0.00     0.305 C 
BRANCH  16  17
ATOM     17  N   UNL d   1       3.346  -3.577   1.792  0.00  0.00     0.090 N 
ATOM     18  C   UNL d   1       4.415  -3.804   0.803  0.00  0.00     0.272 C 
ATOM     19  C   UNL d   1       5.444  -4.798   1.347  0.00  0.00     0.030 C 
ATOM     20  C   UNL d   1       6.035  -4.327   2.671  0.00  0.00     0.003 C 
ATOM     21  C   UNL d   1       4.932  -3.950   3.652  0.00  0.00     0.030 C 
ATOM     22  C   UNL d   1       3.915  -2.995   3.020  0.00  0.00     0.272 C 
ENDBRANCH  16  17
ENDBRANCH  15  16
BRANCH  15  23
ATOM     23  O   UNL d   1       1.243  -4.833   0.642  0.00  0.00    -0.392 OA
ATOM     24  H   UNL d   1       2.002  -5.002   1.243  0.00  0.00     0.210 HD
ENDBRANCH  15  23
ENDBRANCH  14  15
ENDBRANCH   1  14
TORSDOF 5
