REMARK  4 active torsions:
REMARK  status: ('A' for Active; 'I' for Inactive)
REMARK    1  A    between atoms: C_6  and  C_1 
REMARK    2  A    between atoms: N_5  and  C_6 
REMARK    3  A    between atoms: C_16  and  N_7 
REMARK    4  A    between atoms: C_15  and  C_16 
ROOT
ATOM      1  N   UNL d   1      -1.136  -3.684   0.103  0.00  0.00     0.096 N 
ATOM      2  N   UNL d   1       1.879  -3.546  -0.189  0.00  0.00     0.096 N 
ATOM      3  C   UNL d   1      -0.227  -3.500   1.251  0.00  0.00     0.303 C 
ATOM      4  C   UNL d   1      -0.419  -4.285  -1.032  0.00  0.00     0.303 C 
ATOM      5  C   UNL d   1       0.970  -3.683  -1.347  0.00  0.00     0.303 C 
ATOM      6  C   UNL d   1       1.146  -2.874   0.904  0.00  0.00     0.303 C 
ENDROOT
BRANCH   1   7
ATOM      7  C   UNL d   1      -1.844  -2.443  -0.255  0.00  0.00     0.313 C 
BRANCH   7   8
ATOM      8  C   UNL d   1      -2.972  -2.238   0.722  0.00  0.00    -0.002 A 
ATOM      9  C   UNL d   1      -3.967  -3.158   1.012  0.00  0.00     0.098 A 
ATOM     10  N   UNL d   1      -4.760  -2.649   2.000  0.00  0.00    -0.365 N 
ATOM     11  C   UNL d   1      -4.325  -1.393   2.357  0.00  0.00     0.043 A 
ATOM     12  H   UNL d   1      -5.544  -3.125   2.421  0.00  0.00     0.165 HD
ATOM     13  C   UNL d   1      -3.230  -1.090   1.544  0.00  0.00    -0.000 A 
ATOM     14  C   UNL d   1      -4.819  -0.520   3.333  0.00  0.00     0.030 A 
ATOM     15  C   UNL d   1      -2.625   0.176   1.695  0.00  0.00     0.014 A 
ATOM     16  C   UNL d   1      -3.115   1.069   2.658  0.00  0.00     0.001 A 
ATOM     17  C   UNL d   1      -4.189   0.719   3.471  0.00  0.00     0.002 A 
ENDBRANCH   7   8
ENDBRANCH   1   7
BRANCH   2  18
ATOM     18  C   UNL d   1       2.428  -4.837   0.269  0.00  0.00     0.311 C 
BRANCH  18  19
ATOM     19  C   UNL d   1       3.353  -5.500  -0.735  0.00  0.00    -0.027 A 
ATOM     20  C   UNL d   1       3.120  -6.826  -1.138  0.00  0.00     0.048 A 
ATOM     21  C   UNL d   1       3.983  -7.390  -2.055  0.00  0.00     0.105 A 
ATOM     22  O   UNL d   1       3.892  -8.650  -2.560  0.00  0.00    -0.323 OA
ATOM     23  C   UNL d   1       5.054  -6.696  -2.567  0.00  0.00     0.105 A 
ATOM     24  C   UNL d   1       5.020  -8.663  -3.460  0.00  0.00     0.352 A 
ATOM     25  O   UNL d   1       5.769  -7.430  -3.460  0.00  0.00    -0.323 OA
ATOM     26  C   UNL d   1       5.327  -5.402  -2.184  0.00  0.00     0.040 A 
ATOM     27  C   UNL d   1       4.469  -4.802  -1.256  0.00  0.00     0.012 A 
ENDBRANCH  18  19
ENDBRANCH   2  18
TORSDOF 4
