REMARK  3 active torsions:
REMARK  status: ('A' for Active; 'I' for Inactive)
REMARK    1  A    between atoms: C_5  and  C_1 
REMARK    2  A    between atoms: C_6  and  C_2 
REMARK       I    between atoms: N_7  and  C_5 
REMARK    3  A    between atoms: C_13  and  N_10 
ROOT
ATOM      1  N   UNL d   1      -8.586  -9.231  -0.547  0.00  0.00    -0.191 NA
ATOM      2  C   UNL d   1      -7.635  -8.579  -0.479  0.00  0.00     0.099 C 
ATOM      3  C   UNL d   1      -4.090  -6.216  -0.239  0.00  0.00     0.030 A 
ATOM      4  C   UNL d   1      -4.931  -6.367   0.871  0.00  0.00     0.031 A 
ATOM      5  C   UNL d   1      -4.465  -6.859  -1.430  0.00  0.00     0.031 A 
ATOM      6  C   UNL d   1      -6.451  -7.771  -0.401  0.00  0.00     0.044 A 
ATOM      7  C   UNL d   1      -5.626  -7.631  -1.515  0.00  0.00     0.025 A 
ATOM      8  C   UNL d   1      -6.107  -7.131   0.792  0.00  0.00     0.025 A 
ENDROOT
BRANCH   3   9
ATOM      9  N   UNL d   1      -2.884  -5.516  -0.219  0.00  0.00    -0.378 N 
ATOM     10  C   UNL d   1      -2.155  -5.388   1.054  0.00  0.00     0.143 C 
ATOM     11  C   UNL d   1      -0.691  -4.995   0.751  0.00  0.00     0.146 C 
ATOM     12  N   UNL d   1      -0.647  -3.732  -0.008  0.00  0.00    -0.345 N 
ATOM     13  C   UNL d   1       0.185  -2.632   0.237  0.00  0.00     0.258 C 
ATOM     14  C   UNL d   1      -1.400  -3.811  -1.270  0.00  0.00     0.146 C 
ATOM     15  O   UNL d   1       0.302  -1.715  -0.572  0.00  0.00    -0.267 OA
ATOM     16  C   UNL d   1      -2.858  -4.277  -1.040  0.00  0.00     0.143 C 
BRANCH  13  17
ATOM     17  C   UNL d   1       0.916  -2.590   1.493  0.00  0.00     0.092 C 
ATOM     18  C   UNL d   1       2.304  -2.295   1.764  0.00  0.00     0.086 C 
ATOM     19  N   UNL d   1       2.541  -2.486   3.075  0.00  0.00    -0.259 N 
ATOM     20  O   UNL d   1       1.338  -2.686   3.684  0.00  0.00    -0.241 OA
ATOM     21  HN  UNL d   1       3.454  -2.482   3.530  1.00  0.00     0.195 HD
ATOM     22  C   UNL d   1       0.358  -2.717   2.756  0.00  0.00     0.090 C 
ATOM     23  C   UNL d   1      -1.002  -2.886   3.304  0.00  0.00     0.080 C 
BRANCH  18  24
ATOM     24  C   UNL d   1       3.449  -1.896   0.915  0.00  0.00     0.037 A 
ATOM     25  C   UNL d   1       4.376  -0.922   1.381  0.00  0.00     0.048 A 
ATOM     26 CL   UNL d   1       4.144   0.029   2.820  0.00  0.00    -0.083 Cl
ATOM     27  C   UNL d   1       5.564  -0.639   0.686  0.00  0.00     0.025 A 
ATOM     28  C   UNL d   1       5.835  -1.262  -0.521  0.00  0.00     0.003 A 
ATOM     29  C   UNL d   1       4.921  -2.178  -1.028  0.00  0.00     0.025 A 
ATOM     30  C   UNL d   1       3.757  -2.518  -0.310  0.00  0.00     0.048 A 
ATOM     31 CL   UNL d   1       2.835  -3.816  -0.992  0.00  0.00    -0.083 Cl
ENDBRANCH  18  24
ENDBRANCH  13  17
ENDBRANCH   3   9
TORSDOF 3
