REMARK  3 active torsions:
REMARK  status: ('A' for Active; 'I' for Inactive)
REMARK    1  A    between atoms: C_2  and  S_1 
REMARK    2  A    between atoms: N_4  and  S_1 
REMARK    3  A    between atoms: C_13  and  C_5 
ROOT
ATOM      1  S   UNL d   1       1.026  -0.009   0.081  0.00  0.00     0.267 S 
ATOM      2  O   UNL d   1       0.597  -0.707   1.277  0.00  0.00    -0.200 OA
ATOM      3  O   UNL d   1       0.649  -0.489  -1.233  0.00  0.00    -0.200 OA
ENDROOT
BRANCH   1   4
ATOM      4  C   UNL d   1       2.808  -0.148   0.136  0.00  0.00     0.121 A 
ATOM      5  S   UNL d   1       3.720   0.618  -1.086  0.00  0.00    -0.074 SA
ATOM      6  C   UNL d   1       5.191  -0.123  -0.581  0.00  0.00     0.033 A 
ATOM      7  C   UNL d   1       4.992  -0.843   0.585  0.00  0.00     0.023 A 
ATOM      8  C   UNL d   1       3.627  -0.864   0.986  0.00  0.00     0.034 A 
BRANCH   6   9
ATOM      9  C   UNL d   1       6.429   0.011  -1.367  0.00  0.00     0.049 A 
ATOM     10  N   UNL d   1       7.583  -0.090  -0.653  0.00  0.00    -0.365 N 
ATOM     11  C   UNL d   1       8.742  -0.062  -1.349  0.00  0.00     0.088 A 
ATOM     12  HN  UNL d   1       7.574  -0.183   0.362  1.00  0.00     0.165 HD
ATOM     13  C   UNL d   1       8.816   0.046  -2.728  0.00  0.00     0.017 A 
ATOM     14  C   UNL d   1       7.632   0.148  -3.444  0.00  0.00     0.004 A 
ATOM     15  C   UNL d   1       6.422   0.129  -2.751  0.00  0.00     0.031 A 
ENDBRANCH   6   9
ENDBRANCH   1   4
BRANCH   1  16
ATOM     16  N   UNL d   1       0.527   1.618   0.232  0.00  0.00    -0.306 N 
ATOM     17  C   UNL d   1       0.720   2.460  -0.969  0.00  0.00     0.140 C 
ATOM     18  C   UNL d   1      -0.099   3.735  -0.864  0.00  0.00     0.089 C 
ATOM     19  C   UNL d   1       0.188   4.486   0.434  0.00  0.00     0.167 C 
ATOM     20  C   UNL d   1       0.042   3.563   1.643  0.00  0.00     0.089 C 
ATOM     21  O   UNL d   1      -0.745   5.575   0.533  0.00  0.00    -0.353 OA
ATOM     22  O   UNL d   1       1.529   5.009   0.416  0.00  0.00    -0.353 OA
ATOM     23  C   UNL d   1       0.917   2.322   1.478  0.00  0.00     0.140 C 
ATOM     24  C   UNL d   1       0.043   6.726   0.828  0.00  0.00     0.197 C 
ATOM     25  C   UNL d   1       1.381   6.414   0.218  0.00  0.00     0.197 C 
ENDBRANCH   1  16
TORSDOF 3
