REMARK  7 active torsions:
REMARK  status: ('A' for Active; 'I' for Inactive)
REMARK    1  A    between atoms: C_2  and  CA_1 
REMARK    2  A    between atoms: N_3  and  CA_1 
REMARK    3  A    between atoms: CA_1  and  C_6 
REMARK    4  A    between atoms: OXT_14  and  C_2 
REMARK       I    between atoms: C_4  and  N_3 
REMARK    5  A    between atoms: C_5  and  O_8 
REMARK    6  A    between atoms: C_10  and  C_6 
REMARK    7  A    between atoms: O_8  and  C_11 
ROOT
ATOM      1  C   UNL d   1       2.575  -0.003  -0.055  0.00  0.00     0.074 C 
ENDROOT
BRANCH   1   2
ATOM      2  CA  UNL d   1       1.044  -0.027  -0.043  0.00  0.00     0.186 C 
BRANCH   2   3
ATOM      3  C   UNL d   1       0.454   1.124  -0.864  0.00  0.00     0.163 C 
ATOM      4  O   UNL d   1       0.921   1.536  -1.917  0.00  0.00    -0.648 OA
BRANCH   3   5
ATOM      5  OXT UNL d   1      -0.743   1.550  -0.385  0.00  0.00    -0.775 OA
ATOM      6  HXT UNL d   1      -1.099   0.965   0.325  0.00  0.00     0.167 HD
ENDBRANCH   3   5
ENDBRANCH   2   3
BRANCH   2   7
ATOM      7  N   UNL d   1       0.543  -1.276  -0.618  0.00  0.00    -0.347 N 
ATOM      8  C   UNL d   1      -0.694  -1.746  -0.248  0.00  0.00     0.214 C 
ATOM      9  O   UNL d   1      -1.389  -1.161   0.580  0.00  0.00    -0.274 OA
ATOM     10  C   UNL d   1      -1.119  -3.011  -0.944  0.00  0.00     0.117 C 
ATOM     11  H   UNL d   1       0.883  -1.532  -1.540  0.00  0.00     0.163 HD
ENDBRANCH   2   7
ENDBRANCH   1   2
BRANCH   1  12
ATOM     12  C   UNL d   1       3.196   1.196   0.624  0.00  0.00    -0.056 A 
ATOM     13  C   UNL d   1       2.947   1.489   1.972  0.00  0.00     0.010 A 
ATOM     14  C   UNL d   1       3.581   2.570   2.598  0.00  0.00     0.037 A 
ATOM     15  C   UNL d   1       4.473   3.368   1.884  0.00  0.00     0.074 A 
ATOM     16  C   UNL d   1       4.730   3.074   0.544  0.00  0.00     0.037 A 
ATOM     17  C   UNL d   1       4.092   2.004  -0.084  0.00  0.00     0.010 A 
BRANCH  15  18
ATOM     18  O   UNL d   1       5.183   4.423   2.383  0.00  0.00    -0.290 OA
BRANCH  18  19
ATOM     19  C   UNL d   1       4.642   5.049   3.531  0.00  0.00     0.505 C 
ATOM     20  F   UNL d   1       4.938   4.305   4.625  0.00  0.00    -0.184 F 
ATOM     21  F   UNL d   1       5.283   6.235   3.684  0.00  0.00    -0.184 F 
ENDBRANCH  18  19
ENDBRANCH  15  18
ENDBRANCH   1  12
TORSDOF 7
