REMARK  6 active torsions:
REMARK  status: ('A' for Active; 'I' for Inactive)
REMARK       I    between atoms: C_4  and  N_1 
REMARK    1  A    between atoms: C_6  and  N_1 
REMARK    2  A    between atoms: C_2  and  C_3 
REMARK    3  A    between atoms: C_14  and  C_4 
REMARK    4  A    between atoms: C_5  and  N_11 
REMARK    5  A    between atoms: N_12  and  C_6 
REMARK    6  A    between atoms: N_11  and  N_12 
ROOT
ATOM      1  N   UNL d   1       3.031  -1.053  -1.090  0.00  0.00    -0.292 N 
ATOM      2  H   UNL d   1       4.049  -1.094  -1.179  0.00  0.00     0.183 HD
ENDROOT
BRANCH   1   3
ATOM      3  N   UNL d   1       2.395  -2.248  -1.474  0.00  0.00    -0.187 NA
ATOM      4  H   UNL d   1       1.661  -2.100  -2.164  0.00  0.00     0.154 HD
BRANCH   3   5
ATOM      5  C   UNL d   1       3.307  -3.227  -1.950  0.00  0.00     0.120 A 
ATOM      6  N   UNL d   1       4.638  -2.939  -1.954  0.00  0.00    -0.353 N 
ATOM      7  C   UNL d   1       5.493  -3.905  -2.367  0.00  0.00     0.105 A 
ATOM      8  HN  UNL d   1       4.980  -2.026  -1.655  1.00  0.00     0.166 HD
ATOM      9  C   UNL d   1       5.098  -5.163  -2.797  0.00  0.00     0.065 A 
ATOM     10  C   UNL d   1       3.728  -5.448  -2.794  0.00  0.00     0.044 A 
ATOM     11  C   UNL d   1       2.826  -4.477  -2.365  0.00  0.00     0.074 A 
ATOM     12 CL   UNL d   1       1.140  -4.852  -2.373  0.00  0.00    -0.081 Cl
BRANCH   9  13
ATOM     13  C   UNL d   1       6.128  -6.151  -3.246  0.00  0.00     0.418 C 
ATOM     14  F   UNL d   1       5.601  -7.345  -3.632  0.00  0.00    -0.166 F 
ATOM     15  F   UNL d   1       6.846  -5.699  -4.311  0.00  0.00    -0.166 F 
ATOM     16  F   UNL d   1       7.037  -6.437  -2.275  0.00  0.00    -0.166 F 
ENDBRANCH   9  13
ENDBRANCH   3   5
ENDBRANCH   1   3
BRANCH   1  17
ATOM     17  C   UNL d   1       2.539  -0.336  -0.041  0.00  0.00     0.189 C 
ATOM     18  S   UNL d   1       2.834   1.308   0.062  0.00  0.00    -0.039 SA
BRANCH  17  19
ATOM     19  N   UNL d   1       1.778  -0.925   0.929  0.00  0.00    -0.299 N 
ATOM     20  C   UNL d   1       1.920  -2.199   1.470  0.00  0.00     0.257 C 
ATOM     21  O   UNL d   1       2.719  -3.065   1.122  0.00  0.00    -0.267 OA
ATOM     22  H   UNL d   1       1.275  -0.250   1.484  0.00  0.00     0.171 HD
BRANCH  20  23
ATOM     23  C   UNL d   1       1.055  -2.515   2.636  0.00  0.00     0.032 A 
ATOM     24  C   UNL d   1       0.603  -3.836   2.772  0.00  0.00     0.018 A 
ATOM     25  C   UNL d   1      -0.120  -4.222   3.900  0.00  0.00     0.025 A 
ATOM     26  C   UNL d   1      -0.387  -3.287   4.900  0.00  0.00     0.034 A 
ATOM     27  C   UNL d   1       0.050  -1.968   4.769  0.00  0.00     0.025 A 
ATOM     28 CL   UNL d   1      -1.229  -3.772   6.318  0.00  0.00    -0.084 Cl
ATOM     29  C   UNL d   1       0.774  -1.577   3.638  0.00  0.00     0.018 A 
ENDBRANCH  20  23
ENDBRANCH  17  19
ENDBRANCH   1  17
TORSDOF 6
