REMARK  5 active torsions:
REMARK  status: ('A' for Active; 'I' for Inactive)
REMARK    1  A    between atoms: C_14  and  C_7 
REMARK    2  A    between atoms: C_11  and  C_10 
REMARK    3  A    between atoms: C_12  and  C_11 
REMARK    4  A    between atoms: O_16  and  C_12 
REMARK    5  A    between atoms: C_19  and  O_16 
ROOT
ATOM      1  N   UNL d   1      -0.388  -0.630   0.051  0.00  0.00    -0.203 N 
ATOM      2  C   UNL d   1      -0.307   0.743   0.059  0.00  0.00     0.133 A 
ATOM      3  N   UNL d   1      -1.671  -1.066   0.021  0.00  0.00    -0.289 N 
ATOM      4  HN  UNL d   1      -2.000  -2.032   0.019  1.00  0.00     0.188 HD
ATOM      5  C   UNL d   1      -1.588   1.216   0.021  0.00  0.00     0.082 A 
ATOM      6  C   UNL d   1       0.729  -1.485   0.061  0.00  0.00     0.270 A 
ATOM      7  C   UNL d   1      -2.417   0.056  -0.004  0.00  0.00     0.062 A 
ATOM      8  C   UNL d   1       2.037  -0.766   0.072  0.00  0.00     0.101 A 
ATOM      9  N   UNL d   1       0.909   1.327   0.092  0.00  0.00    -0.344 N 
ATOM     10  C   UNL d   1       2.081   0.582   0.086  0.00  0.00     0.025 A 
ATOM     11  O   UNL d   1       0.629  -2.705   0.054  0.00  0.00    -0.266 OA
ATOM     12  H   UNL d   1       1.014   2.349   0.069  0.00  0.00     0.167 HD
ENDROOT
BRANCH   7  13
ATOM     13  C   UNL d   1      -3.884  -0.002  -0.054  0.00  0.00    -0.008 A 
ATOM     14  C   UNL d   1      -4.547  -1.237   0.019  0.00  0.00     0.014 A 
ATOM     15  C   UNL d   1      -5.941  -1.309  -0.035  0.00  0.00     0.001 A 
ATOM     16  C   UNL d   1      -6.694  -0.145  -0.163  0.00  0.00     0.000 A 
ATOM     17  C   UNL d   1      -6.054   1.090  -0.235  0.00  0.00     0.001 A 
ATOM     18  C   UNL d   1      -4.658   1.162  -0.180  0.00  0.00     0.014 A 
ENDBRANCH   7  13
BRANCH  10  19
ATOM     19  C   UNL d   1       3.428   1.287   0.087  0.00  0.00     0.168 C 
BRANCH  19  20
ATOM     20  C   UNL d   1       3.390   2.799  -0.098  0.00  0.00     0.264 C 
ATOM     21  O   UNL d   1       2.377   3.487  -0.131  0.00  0.00    -0.265 OA
BRANCH  20  22
ATOM     22  O   UNL d   1       4.659   3.272  -0.258  0.00  0.00    -0.322 OA
BRANCH  22  23
ATOM     23  C   UNL d   1       4.748   4.635  -0.705  0.00  0.00     0.174 C 
ATOM     24  C   UNL d   1       4.753   4.638  -2.222  0.00  0.00     0.034 C 
ENDBRANCH  22  23
ENDBRANCH  20  22
ENDBRANCH  19  20
ENDBRANCH  10  19
TORSDOF 5
