REMARK  4 active torsions:
REMARK  status: ('A' for Active; 'I' for Inactive)
REMARK    1  A    between atoms: C_12  and  C_1 
REMARK    2  A    between atoms: C_4  and  C_7 
REMARK    3  A    between atoms: C_9  and  N_6 
REMARK    4  A    between atoms: N_13  and  C_12 
ROOT
ATOM      1  N   UNL d   1      -4.854  -0.513   0.188  0.00  0.00    -0.266 NA
ATOM      2  N   UNL d   1      -2.919  -2.775   0.205  0.00  0.00     0.095 N 
ATOM      3  C   UNL d   1      -4.178  -0.934  -1.059  0.00  0.00     0.127 C 
ATOM      4  C   UNL d   1      -4.088  -0.835   1.410  0.00  0.00     0.127 C 
ATOM      5  C   UNL d   1      -3.628  -2.312   1.415  0.00  0.00     0.287 C 
ATOM      6  C   UNL d   1      -3.730  -2.412  -0.979  0.00  0.00     0.287 C 
ENDROOT
BRANCH   2   7
ATOM      7  C   UNL d   1      -1.552  -2.246   0.102  0.00  0.00     0.314 C 
BRANCH   7   8
ATOM      8  C   UNL d   1      -0.588  -2.901   1.066  0.00  0.00     0.005 A 
ATOM      9  C   UNL d   1      -0.595  -4.182   1.613  0.00  0.00     0.014 A 
ATOM     10  N   UNL d   1       0.531  -4.317   2.388  0.00  0.00    -0.359 N 
ATOM     11  C   UNL d   1      -1.535  -5.328   1.496  0.00  0.00     0.068 C 
ATOM     12  C   UNL d   1       1.304  -3.186   2.334  0.00  0.00     0.043 A 
ATOM     13  H   UNL d   1       0.780  -5.149   2.903  0.00  0.00     0.166 HD
ATOM     14  C   UNL d   1       0.629  -2.275   1.525  0.00  0.00     0.001 A 
ATOM     15  C   UNL d   1       2.543  -2.914   2.928  0.00  0.00     0.030 A 
ATOM     16  C   UNL d   1       1.234  -1.016   1.302  0.00  0.00     0.014 A 
ATOM     17  C   UNL d   1       2.475  -0.727   1.885  0.00  0.00     0.001 A 
ATOM     18  C   UNL d   1       3.119  -1.666   2.686  0.00  0.00     0.002 A 
ENDBRANCH   7   8
ENDBRANCH   2   7
BRANCH   1  19
ATOM     19  C   UNL d   1      -5.355   0.800   0.126  0.00  0.00     0.082 A 
ATOM     20  N   UNL d   1      -5.219   1.512  -1.016  0.00  0.00    -0.356 N 
ATOM     21  C   UNL d   1      -5.695   2.780  -1.068  0.00  0.00     0.105 A 
ATOM     22  HN  UNL d   1      -4.764   1.098  -1.830  1.00  0.00     0.166 HD
ATOM     23  C   UNL d   1      -6.324   3.417  -0.015  0.00  0.00     0.063 A 
ATOM     24  C   UNL d   1      -6.496   2.678   1.151  0.00  0.00     0.021 A 
ATOM     25  C   UNL d   1      -6.024   1.365   1.215  0.00  0.00     0.043 A 
BRANCH  23  26
ATOM     26  C   UNL d   1      -6.784   4.835  -0.127  0.00  0.00     0.418 C 
ATOM     27  F   UNL d   1      -6.617   5.370  -1.369  0.00  0.00    -0.166 F 
ATOM     28  F   UNL d   1      -8.104   4.985   0.169  0.00  0.00    -0.166 F 
ATOM     29  F   UNL d   1      -6.117   5.663   0.725  0.00  0.00    -0.166 F 
ENDBRANCH  23  26
ENDBRANCH   1  19
TORSDOF 4
