REMARK  9 active torsions:
REMARK  status: ('A' for Active; 'I' for Inactive)
REMARK    1  A    between atoms: C_11  and  N_1 
REMARK    2  A    between atoms: O_4  and  C_2 
REMARK    3  A    between atoms: C_3  and  O_4 
REMARK    4  A    between atoms: C_6  and  C_3 
REMARK    5  A    between atoms: C_5  and  C_12 
REMARK    6  A    between atoms: O_26  and  C_7 
REMARK    7  A    between atoms: O_27  and  C_9 
REMARK    8  A    between atoms: O_28  and  C_10 
REMARK    9  A    between atoms: N_15  and  C_24 
ROOT
ATOM      1  C   UNL d   1       2.432   2.254   6.647  0.00  0.00     0.113 A 
ATOM      2  C   UNL d   1       2.064   2.904   5.460  0.00  0.00     0.017 A 
ATOM      3  C   UNL d   1       3.153   2.972   7.624  0.00  0.00     0.070 A 
ATOM      4  C   UNL d   1       3.457   4.322   7.443  0.00  0.00     0.050 A 
ATOM      5  C   UNL d   1       2.429   4.246   5.260  0.00  0.00     0.039 A 
ATOM      6  C   UNL d   1       3.085   4.956   6.263  0.00  0.00     0.036 A 
ATOM      7 CL   UNL d   1       3.696   2.215   9.081  0.00  0.00    -0.081 Cl
ATOM      8 CL   UNL d   1       3.434   6.624   6.034  0.00  0.00    -0.084 Cl
ENDROOT
BRANCH   1   9
ATOM      9  O   UNL d   1       2.193   0.877   6.941  0.00  0.00    -0.272 OA
BRANCH   9  10
ATOM     10  C   UNL d   1       0.955   0.265   6.779  0.00  0.00     0.298 C 
ATOM     11  O   UNL d   1      -0.010   0.726   6.189  0.00  0.00    -0.259 OA
BRANCH  10  12
ATOM     12  C   UNL d   1       0.887  -1.041   7.476  0.00  0.00     0.045 A 
ATOM     13  C   UNL d   1       0.027  -2.040   6.989  0.00  0.00     0.057 A 
ATOM     14  C   UNL d   1      -0.208  -3.209   7.728  0.00  0.00     0.105 A 
ATOM     15  C   UNL d   1       0.404  -3.358   8.990  0.00  0.00     0.135 A 
ATOM     16  C   UNL d   1       1.276  -2.353   9.469  0.00  0.00     0.105 A 
ATOM     17  C   UNL d   1       1.535  -1.216   8.696  0.00  0.00     0.057 A 
BRANCH  14  18
ATOM     18  O   UNL d   1      -1.006  -4.235   7.290  0.00  0.00    -0.353 OA
ATOM     19  C   UNL d   1      -1.703  -4.087   6.062  0.00  0.00     0.210 C 
ENDBRANCH  14  18
BRANCH  15  20
ATOM     20  O   UNL d   1       0.267  -4.453   9.815  0.00  0.00    -0.351 OA
ATOM     21  C   UNL d   1      -1.019  -5.059   9.879  0.00  0.00     0.210 C 
ENDBRANCH  15  20
BRANCH  16  22
ATOM     22  O   UNL d   1       1.823  -2.540  10.717  0.00  0.00    -0.353 OA
ATOM     23  C   UNL d   1       2.221  -1.359  11.407  0.00  0.00     0.210 C 
ENDBRANCH  16  22
ENDBRANCH  10  12
ENDBRANCH   9  10
ENDBRANCH   1   9
BRANCH   2  24
ATOM     24  C   UNL d   1       1.367   2.195   4.373  0.00  0.00     0.102 C 
ATOM     25  N   UNL d   1       0.415   2.578   3.575  0.00  0.00    -0.365 N 
ATOM     26  HN  UNL d   1       0.118   1.901   2.873  1.00  0.00     0.165 HD
BRANCH  25  27
ATOM     27  C   UNL d   1      -0.250   3.811   3.565  0.00  0.00     0.034 A 
ATOM     28  C   UNL d   1      -0.603   4.559   4.694  0.00  0.00     0.065 A 
ATOM     29  C   UNL d   1      -1.194   5.824   4.535  0.00  0.00     0.105 A 
ATOM     30  C   UNL d   1      -1.543   6.305   3.267  0.00  0.00     0.036 A 
ATOM     31  C   UNL d   1      -1.282   5.518   2.151  0.00  0.00     0.005 A 
ATOM     32  C   UNL d   1      -0.631   4.291   2.306  0.00  0.00     0.029 A 
BRANCH  29  33
ATOM     33  N   UNL d   1      -1.396   6.684   5.708  0.00  0.00    -0.116 N 
ATOM     34  O   UNL d   1      -0.946   6.288   6.795  0.00  0.00    -0.532 OA
ATOM     35  O   UNL d   1      -1.976   7.764   5.540  0.00  0.00    -0.532 OA
ENDBRANCH  29  33
ENDBRANCH  25  27
ENDBRANCH   2  24
TORSDOF 9
