REMARK  4 active torsions:
REMARK  status: ('A' for Active; 'I' for Inactive)
REMARK    1  A    between atoms: S_12  and  C_1 
REMARK       I    between atoms: N_2  and  C_7 
REMARK    2  A    between atoms: C_5  and  N_2 
REMARK    3  A    between atoms: C_7  and  C_14 
REMARK    4  A    between atoms: C_14  and  S_12 
ROOT
ATOM      1  N   UNL d   1       1.108   6.310  -3.541  0.00  0.00    -0.191 NA
ATOM      2  C   UNL d   1       1.005   6.923  -2.557  0.00  0.00     0.102 C 
ATOM      3  C   UNL d   1       0.206   7.066  -0.225  0.00  0.00     0.055 A 
ATOM      4  C   UNL d   1       0.850   7.645  -1.331  0.00  0.00     0.071 A 
ATOM      5  C   UNL d   1       1.276   8.981  -1.281  0.00  0.00     0.025 A 
ATOM      6  C   UNL d   1       0.021   7.839   0.929  0.00  0.00     0.031 A 
ATOM      7  C   UNL d   1       1.094   9.734  -0.121  0.00  0.00     0.002 A 
ATOM      8  C   UNL d   1       0.472   9.160   0.984  0.00  0.00     0.002 A 
ENDROOT
BRANCH   3   9
ATOM      9  N   UNL d   1      -0.210   5.713  -0.260  0.00  0.00    -0.325 N 
ATOM     10  C   UNL d   1      -1.350   5.233   0.367  0.00  0.00     0.231 C 
ATOM     11  O   UNL d   1      -2.222   5.954   0.852  0.00  0.00    -0.272 OA
ATOM     12  H   UNL d   1       0.241   5.085  -0.920  0.00  0.00     0.169 HD
BRANCH  10  13
ATOM     13  C   UNL d   1      -1.527   3.721   0.302  0.00  0.00     0.185 C 
BRANCH  13  14
ATOM     14  S   UNL d   1      -0.039   2.813   0.826  0.00  0.00    -0.085 SA
BRANCH  14  15
ATOM     15  C   UNL d   1       0.227   3.612   2.389  0.00  0.00     0.144 A 
ATOM     16  N   UNL d   1      -0.850   4.022   3.077  0.00  0.00    -0.347 N 
ATOM     17  C   UNL d   1      -0.615   4.776   4.165  0.00  0.00     0.091 A 
ATOM     18  HN  UNL d   1      -1.796   3.774   2.790  1.00  0.00     0.167 HD
ATOM     19  C   UNL d   1       0.647   5.106   4.595  0.00  0.00     0.034 A 
ATOM     20  C   UNL d   1       1.680   4.600   3.842  0.00  0.00     0.091 A 
ATOM     21  N   UNL d   1       1.500   3.860   2.733  0.00  0.00    -0.347 N 
ATOM     22  HN  UNL d   1       2.286   3.508   2.186  1.00  0.00     0.167 HD
ENDBRANCH  14  15
ENDBRANCH  13  14
ENDBRANCH  10  13
ENDBRANCH   3   9
TORSDOF 4
