REMARK  6 active torsions:
REMARK  status: ('A' for Active; 'I' for Inactive)
REMARK    1  A    between atoms: N_2  and  C_1 
REMARK    2  A    between atoms: N_8  and  C_1 
REMARK    3  A    between atoms: C_4  and  N_2 
REMARK       I    between atoms: C_3  and  N_7 
REMARK    4  A    between atoms: C_11  and  C_3 
REMARK    5  A    between atoms: N_7  and  N_8 
REMARK    6  A    between atoms: N_16  and  C_12 
ROOT
ATOM      1  C   UNL d   1      -1.709  -1.731   1.601  0.00  0.00     0.270 C 
ATOM      2  N   UNL d   1      -1.062  -0.751   0.860  0.00  0.00    -0.264 N 
ATOM      3  O   UNL d   1      -1.127  -2.764   1.937  0.00  0.00    -0.266 OA
ATOM      4  H   UNL d   1      -1.562   0.000   0.395  0.00  0.00     0.190 HD
ENDROOT
BRANCH   2   5
ATOM      5  N   UNL d   1       0.142  -1.137   0.252  0.00  0.00    -0.274 N 
ATOM      6  H   UNL d   1       0.485  -2.048   0.555  0.00  0.00     0.189 HD
BRANCH   5   7
ATOM      7  C   UNL d   1       1.041  -0.236  -0.264  0.00  0.00     0.186 C 
ATOM      8  S   UNL d   1       0.957   1.423  -0.107  0.00  0.00    -0.040 SA
BRANCH   7   9
ATOM      9  N   UNL d   1       2.029  -0.789  -1.047  0.00  0.00    -0.361 N 
ATOM     10  H   UNL d   1       2.703  -0.131  -1.421  0.00  0.00     0.162 HD
BRANCH   9  11
ATOM     11  C   UNL d   1       1.953  -2.109  -1.646  0.00  0.00     0.092 C 
ATOM     12  C   UNL d   1       2.649  -2.272  -3.023  0.00  0.00     0.031 C 
ATOM     13  C   UNL d   1       4.148  -2.098  -2.901  0.00  0.00    -0.024 C 
ATOM     14  C   UNL d   1       2.605  -3.804  -3.127  0.00  0.00     0.019 C 
ATOM     15  C   UNL d   1       4.615  -3.147  -2.208  0.00  0.00    -0.026 C 
ATOM     16  C   UNL d   1       3.429  -4.010  -1.850  0.00  0.00     0.010 C 
ATOM     17  C   UNL d   1       2.598  -3.240  -0.797  0.00  0.00     0.034 C 
ENDBRANCH   9  11
ENDBRANCH   7   9
ENDBRANCH   5   7
ENDBRANCH   2   5
BRANCH   1  18
ATOM     18  C   UNL d   1      -3.149  -1.531   1.927  0.00  0.00     0.033 A 
ATOM     19  C   UNL d   1      -3.866  -0.367   1.655  0.00  0.00     0.019 A 
ATOM     20  C   UNL d   1      -5.245  -0.293   1.941  0.00  0.00     0.030 A 
ATOM     21  C   UNL d   1      -5.960  -1.361   2.510  0.00  0.00     0.029 A 
ATOM     22  C   UNL d   1      -5.210  -2.516   2.785  0.00  0.00     0.030 A 
ATOM     23  C   UNL d   1      -3.837  -2.604   2.507  0.00  0.00     0.019 A 
BRANCH  21  24
ATOM     24  N   UNL d   1      -7.336  -1.330   2.720  0.00  0.00    -0.390 N 
ATOM     25  C   UNL d   1      -7.909  -1.994   3.894  0.00  0.00     0.149 C 
ATOM     26  C   UNL d   1      -8.147  -0.226   2.211  0.00  0.00     0.149 C 
ENDBRANCH  21  24
ENDBRANCH   1  18
TORSDOF 6
