REMARK  4 active torsions:
REMARK  status: ('A' for Active; 'I' for Inactive)
REMARK    1  A    between atoms: C_5  and  N_1 
REMARK    2  A    between atoms: S_7  and  C_4 
REMARK    3  A    between atoms: C_10  and  S_7 
REMARK    4  A    between atoms: N_20  and  C_18 
ROOT
ATOM      1  N   UNL d   1       0.070   0.887   0.001  0.00  0.00    -0.251 N 
ATOM      2  C   UNL d   1      -1.063   0.151   0.254  0.00  0.00     0.232 C 
ATOM      3  C   UNL d   1       1.170   0.066  -0.152  0.00  0.00     0.245 C 
ATOM      4  C   UNL d   1       0.721  -1.381  -0.178  0.00  0.00     0.154 C 
ATOM      5  C   UNL d   1      -0.744  -1.315   0.194  0.00  0.00     0.129 C 
ATOM      6  O   UNL d   1      -2.193   0.542   0.504  0.00  0.00    -0.273 OA
ATOM      7  O   UNL d   1       2.351   0.390  -0.207  0.00  0.00    -0.271 OA
ENDROOT
BRANCH   4   8
ATOM      8  S   UNL d   1       1.054  -2.044  -1.858  0.00  0.00    -0.113 SA
BRANCH   8   9
ATOM      9  C   UNL d   1       0.558  -3.765  -1.692  0.00  0.00     0.022 A 
ATOM     10  C   UNL d   1      -0.444  -4.287  -2.542  0.00  0.00     0.022 A 
ATOM     11  C   UNL d   1      -0.843  -5.620  -2.388  0.00  0.00     0.024 A 
ATOM     12  C   UNL d   1      -0.169  -6.468  -1.511  0.00  0.00     0.002 A 
ATOM     13  C   UNL d   1       0.879  -5.974  -0.737  0.00  0.00     0.001 A 
ATOM     14  C   UNL d   1       1.234  -4.624  -0.815  0.00  0.00     0.020 A 
BRANCH  10  15
ATOM     15  N   UNL d   1      -1.188  -3.449  -3.398  0.00  0.00    -0.302 NA
ATOM     16  H   UNL d   1      -0.614  -2.672  -3.725  0.00  0.00     0.124 HD
ATOM     17  H   UNL d   1      -1.627  -3.945  -4.166  0.00  0.00     0.124 HD
ENDBRANCH  10  15
ENDBRANCH   8   9
ENDBRANCH   4   8
BRANCH   1  18
ATOM     18  C   UNL d   1       0.122   2.320  -0.046  0.00  0.00     0.048 A 
ATOM     19  C   UNL d   1      -0.875   3.113   0.551  0.00  0.00     0.070 A 
ATOM     20  C   UNL d   1      -0.774   4.493   0.474  0.00  0.00     0.107 A 
ATOM     21  O   UNL d   1      -1.641   5.384   1.028  0.00  0.00    -0.323 OA
ATOM     22  C   UNL d   1       0.257   5.112  -0.186  0.00  0.00     0.105 A 
ATOM     23  C   UNL d   1      -1.012   6.633   0.673  0.00  0.00     0.352 A 
ATOM     24  O   UNL d   1       0.166   6.466  -0.143  0.00  0.00    -0.323 OA
ATOM     25  C   UNL d   1       1.246   4.385  -0.801  0.00  0.00     0.042 A 
ATOM     26  C   UNL d   1       1.177   2.985  -0.720  0.00  0.00     0.033 A 
ENDBRANCH   1  18
TORSDOF 4
