REMARK  3 active torsions:
REMARK  status: ('A' for Active; 'I' for Inactive)
REMARK    1  A    between atoms: C_2  and  C_1 
REMARK       I    between atoms: N_3  and  C_1 
REMARK    2  A    between atoms: C_5  and  N_3 
REMARK    3  A    between atoms: O_12  and  C_6 
ROOT
ATOM      1  C   UNL d   1       1.064  -0.469   0.430  0.00  0.00     0.259 C 
ATOM      2  N   UNL d   1       0.230   0.342   1.183  0.00  0.00    -0.323 N 
ATOM      3  O   UNL d   1       0.728  -1.425  -0.263  0.00  0.00    -0.267 OA
ATOM      4  H   UNL d   1       0.637   1.150   1.630  0.00  0.00     0.169 HD
ENDROOT
BRANCH   1   5
ATOM      5  C   UNL d   1       2.506  -0.100   0.396  0.00  0.00     0.065 A 
ATOM      6  C   UNL d   1       3.266  -0.425  -0.741  0.00  0.00     0.081 A 
ATOM      7  C   UNL d   1       4.607  -0.063  -0.830  0.00  0.00     0.037 A 
ATOM      8  C   UNL d   1       5.215   0.607   0.230  0.00  0.00     0.003 A 
ATOM      9  C   UNL d   1       4.483   0.904   1.381  0.00  0.00     0.001 A 
ATOM     10  C   UNL d   1       3.133   0.550   1.469  0.00  0.00     0.020 A 
BRANCH   6  11
ATOM     11  O   UNL d   1       2.754  -1.105  -1.816  0.00  0.00    -0.360 OA
ATOM     12  H   UNL d   1       1.874  -1.458  -1.552  0.00  0.00     0.217 HD
ENDBRANCH   6  11
ENDBRANCH   1   5
BRANCH   2  13
ATOM     13  C   UNL d   1      -1.180   0.253   1.262  0.00  0.00     0.035 A 
ATOM     14  C   UNL d   1      -1.929  -0.737   0.626  0.00  0.00     0.037 A 
ATOM     15  C   UNL d   1      -3.334  -0.739   0.668  0.00  0.00    -0.054 A 
ATOM     16  C   UNL d   1      -4.077  -1.806  -0.090  0.00  0.00     0.049 C 
ATOM     17  C   UNL d   1      -4.006   0.260   1.393  0.00  0.00    -0.056 A 
ATOM     18  C   UNL d   1      -3.253   1.234   2.063  0.00  0.00     0.009 A 
ATOM     19  C   UNL d   1      -5.508   0.306   1.449  0.00  0.00     0.049 C 
ATOM     20  C   UNL d   1      -1.855   1.233   1.996  0.00  0.00     0.030 A 
ENDBRANCH   2  13
TORSDOF 3
