REMARK  6 active torsions:
REMARK  status: ('A' for Active; 'I' for Inactive)
REMARK    1  A    between atoms: O_18  and  C_1 
REMARK    2  A    between atoms: O_21  and  C_2 
REMARK    3  A    between atoms: O_20  and  C_3 
REMARK    4  A    between atoms: C_4  and  C_7 
REMARK       I    between atoms: N_9  and  C_4 
REMARK    5  A    between atoms: C_8  and  C_10 
REMARK    6  A    between atoms: C_11  and  N_9 
ROOT
ATOM      1  C   UNL d   1      -3.394   1.389  -0.172  0.00  0.00     0.075 C 
ATOM      2  C   UNL d   1      -2.751   0.332   0.347  0.00  0.00     0.017 C 
ENDROOT
BRANCH   1   3
ATOM      3  C   UNL d   1      -4.836   1.574   0.137  0.00  0.00     0.245 C 
ATOM      4  N   UNL d   1      -5.413   2.576  -0.621  0.00  0.00    -0.324 N 
ATOM      5  H   UNL d   1      -4.847   2.994  -1.348  0.00  0.00     0.169 HD
ATOM      6  O   UNL d   1      -5.399   0.861   0.954  0.00  0.00    -0.268 OA
BRANCH   4   7
ATOM      7  C   UNL d   1      -6.768   2.964  -0.581  0.00  0.00     0.036 A 
ATOM      8  C   UNL d   1      -7.653   2.579   0.431  0.00  0.00     0.055 A 
ATOM      9  C   UNL d   1      -9.006   2.933   0.370  0.00  0.00     0.058 A 
ATOM     10 CL   UNL d   1     -10.034   2.405   1.657  0.00  0.00    -0.082 Cl
ATOM     11  C   UNL d   1      -9.482   3.682  -0.707  0.00  0.00     0.055 A 
ATOM     12  C   UNL d   1      -8.594   4.108  -1.698  0.00  0.00     0.028 A 
ATOM     13 CL   UNL d   1     -11.147   4.106  -0.881  0.00  0.00    -0.083 Cl
ATOM     14  C   UNL d   1      -7.242   3.761  -1.628  0.00  0.00     0.031 A 
ENDBRANCH   4   7
ENDBRANCH   1   3
BRANCH   2  15
ATOM     15  C   UNL d   1      -1.316   0.071   0.174  0.00  0.00    -0.031 A 
ATOM     16  C   UNL d   1      -0.387   1.108   0.088  0.00  0.00     0.051 A 
ATOM     17  C   UNL d   1       0.988   0.859  -0.023  0.00  0.00     0.105 A 
ATOM     18  C   UNL d   1       1.446  -0.469  -0.030  0.00  0.00     0.135 A 
ATOM     19  C   UNL d   1       0.520  -1.526   0.134  0.00  0.00     0.105 A 
ATOM     20  C   UNL d   1      -0.852  -1.247   0.197  0.00  0.00     0.051 A 
BRANCH  17  21
ATOM     21  O   UNL d   1       1.698   2.026  -0.110  0.00  0.00    -0.353 OA
ATOM     22  C   UNL d   1       3.112   1.974  -0.195  0.00  0.00     0.210 C 
ENDBRANCH  17  21
BRANCH  18  23
ATOM     23  O   UNL d   1       2.797  -0.704  -0.070  0.00  0.00    -0.351 OA
ATOM     24  C   UNL d   1       3.219  -1.618  -1.082  0.00  0.00     0.210 C 
ENDBRANCH  18  23
BRANCH  19  25
ATOM     25  O   UNL d   1       1.034  -2.798   0.239  0.00  0.00    -0.353 OA
ATOM     26  C   UNL d   1       0.173  -3.808   0.750  0.00  0.00     0.210 C 
ENDBRANCH  19  25
ENDBRANCH   2  15
TORSDOF 6
