REMARK  4 active torsions:
REMARK  status: ('A' for Active; 'I' for Inactive)
REMARK    1  A    between atoms: N_2  and  S_1 
REMARK    2  A    between atoms: C_3  and  S_1 
REMARK    3  A    between atoms: C_4  and  N_2 
REMARK       I    between atoms: C_8  and  N_9 
REMARK    4  A    between atoms: N_9  and  C_10 
ROOT
ATOM      1  C   UNL d   1       0.967   2.626   0.551  0.00  0.00     0.048 A 
ATOM      2  C   UNL d   1       2.272   2.820   1.025  0.00  0.00    -0.033 A 
ATOM      3  C   UNL d   1       1.506   4.789   2.274  0.00  0.00     0.035 A 
ATOM      4  C   UNL d   1       2.520   3.895   1.903  0.00  0.00     0.038 A 
ATOM      5  C   UNL d   1      -0.052   3.494   0.943  0.00  0.00     0.033 A 
ATOM      6  C   UNL d   1       0.216   4.571   1.795  0.00  0.00     0.032 A 
ATOM      7  C   UNL d   1       3.427   1.938   0.637  0.00  0.00     0.050 C 
ENDROOT
BRANCH   1   8
ATOM      8  N   UNL d   1       0.640   1.585  -0.363  0.00  0.00    -0.280 N 
ATOM      9  H   UNL d   1       0.043   1.836  -1.149  0.00  0.00     0.179 HD
BRANCH   8  10
ATOM     10  S   UNL d   1       0.312   0.026   0.187  0.00  0.00     0.263 S 
ATOM     11  O   UNL d   1       1.425  -0.454   0.979  0.00  0.00    -0.200 OA
ATOM     12  O   UNL d   1      -0.146  -0.712  -0.972  0.00  0.00    -0.200 OA
BRANCH  10  13
ATOM     13  C   UNL d   1      -1.087   0.220   1.270  0.00  0.00     0.079 A 
ATOM     14  C   UNL d   1      -2.383   0.141   0.752  0.00  0.00     0.026 A 
ATOM     15  C   UNL d   1      -3.478   0.194   1.620  0.00  0.00     0.008 A 
ATOM     16  C   UNL d   1      -3.284   0.311   3.003  0.00  0.00    -0.062 A 
ATOM     17  C   UNL d   1      -1.978   0.386   3.507  0.00  0.00     0.008 A 
ATOM     18  C   UNL d   1      -4.465   0.326   3.931  0.00  0.00     0.048 C 
ATOM     19  C   UNL d   1      -0.880   0.336   2.647  0.00  0.00     0.026 A 
ENDBRANCH  10  13
ENDBRANCH   8  10
ENDBRANCH   1   8
BRANCH   3  20
ATOM     20  N   UNL d   1       1.868   5.875   3.100  0.00  0.00    -0.327 N 
ATOM     21  C   UNL d   1       1.054   6.906   3.534  0.00  0.00     0.218 C 
ATOM     22  O   UNL d   1      -0.143   7.043   3.304  0.00  0.00    -0.274 OA
ATOM     23  C   UNL d   1       1.786   7.933   4.365  0.00  0.00     0.117 C 
ATOM     24  H   UNL d   1       2.842   5.916   3.370  0.00  0.00     0.169 HD
ENDBRANCH   3  20
TORSDOF 4
