REMARK  5 active torsions:
REMARK  status: ('A' for Active; 'I' for Inactive)
REMARK    1  A    between atoms: C_4  and  N_1 
REMARK    2  A    between atoms: N_7  and  C_4 
REMARK    3  A    between atoms: C_12  and  N_7 
REMARK    4  A    between atoms: C_16  and  N_7 
REMARK    5  A    between atoms: C_13  and  C_16 
ROOT
ATOM      1  N   UNL d   1       8.416   0.990  -1.413  0.00  0.00    -0.197 NA
ATOM      2  C   UNL d   1       7.261   0.958  -1.417  0.00  0.00     0.060 C 
ATOM      3  C   UNL d   1       5.785   0.887  -1.419  0.00  0.00     0.154 C 
ENDROOT
BRANCH   3   4
ATOM      4  C   UNL d   1       5.209   1.376  -0.074  0.00  0.00     0.289 C 
BRANCH   4   5
ATOM      5  N   UNL d   1       3.712   1.409   0.032  0.00  0.00     0.111 N 
BRANCH   5   6
ATOM      6  C   UNL d   1       3.226  -0.000  -0.054  0.00  0.00     0.408 C 
BRANCH   6   7
ATOM      7  N   UNL d   1       1.803  -0.135  -0.208  0.00  0.00    -0.252 N 
ATOM      8  C   UNL d   1       1.099  -1.180   0.331  0.00  0.00     0.263 C 
ATOM      9  C   UNL d   1      -0.310  -0.923   0.026  0.00  0.00     0.048 A 
ATOM     10  O   UNL d   1       1.503  -2.147   0.945  0.00  0.00    -0.267 OA
ATOM     11  C   UNL d   1      -1.461  -1.502   0.519  0.00  0.00     0.018 A 
ATOM     12  C   UNL d   1      -0.343   0.190  -0.792  0.00  0.00     0.048 A 
ATOM     13  C   UNL d   1      -2.666  -0.845   0.247  0.00  0.00     0.001 A 
ATOM     14  C   UNL d   1      -2.686   0.358  -0.492  0.00  0.00     0.001 A 
ATOM     15  C   UNL d   1      -1.512   0.879  -1.044  0.00  0.00     0.018 A 
ATOM     16  C   UNL d   1       1.042   0.491  -1.147  0.00  0.00     0.263 C 
ATOM     17  O   UNL d   1       1.361   1.117  -2.139  0.00  0.00    -0.267 OA
ENDBRANCH   6   7
ENDBRANCH   5   6
BRANCH   5  18
ATOM     18  C   UNL d   1       3.284   2.144   1.278  0.00  0.00     0.225 C 
ATOM     19  C   UNL d   1       1.757   2.370   1.457  0.00  0.00     0.036 C 
ATOM     20  C   UNL d   1       1.156   3.317   0.411  0.00  0.00     0.002 C 
ATOM     21  C   UNL d   1       1.841   4.674   0.388  0.00  0.00     0.000 C 
ATOM     22  C   UNL d   1       3.359   4.531   0.321  0.00  0.00     0.002 C 
ATOM     23  C   UNL d   1       3.874   3.585   1.409  0.00  0.00     0.036 C 
ENDBRANCH   5  18
ENDBRANCH   4   5
ENDBRANCH   3   4
TORSDOF 5
