REMARK  4 active torsions:
REMARK  status: ('A' for Active; 'I' for Inactive)
REMARK    1  A    between atoms: C_2  and  C_1 
REMARK       I    between atoms: N_5  and  C_2 
REMARK    2  A    between atoms: C_4  and  N_8 
REMARK    3  A    between atoms: N_11  and  C_4 
REMARK    4  A    between atoms: N_8  and  N_5 
ROOT
ATOM      1  C   UNL d   1      -2.355  -2.377   0.007  0.00  0.00     0.271 C 
ATOM      2  N   UNL d   1      -2.257  -3.751   0.000  0.00  0.00    -0.264 N 
ATOM      3  O   UNL d   1      -3.444  -1.810   0.034  0.00  0.00    -0.266 OA
ATOM      4  H   UNL d   1      -1.374  -4.253  -0.077  0.00  0.00     0.190 HD
ENDROOT
BRANCH   1   5
ATOM      5  C   UNL d   1      -1.077  -1.584  -0.032  0.00  0.00     0.055 A 
ATOM      6  C   UNL d   1       0.232  -2.100   0.034  0.00  0.00     0.051 A 
ATOM      7  C   UNL d   1       1.340  -1.241  -0.027  0.00  0.00     0.048 A 
ATOM      8 CL   UNL d   1       0.625  -3.775   0.212  0.00  0.00    -0.083 Cl
ATOM      9  C   UNL d   1       1.160   0.133  -0.141  0.00  0.00     0.035 A 
ATOM     10  C   UNL d   1      -0.121   0.666  -0.194  0.00  0.00     0.025 A 
ATOM     11 CL   UNL d   1       2.529   1.170  -0.210  0.00  0.00    -0.084 Cl
ATOM     12  C   UNL d   1      -1.230  -0.186  -0.142  0.00  0.00     0.020 A 
ENDBRANCH   1   5
BRANCH   2  13
ATOM     13  N   UNL d   1      -3.416  -4.533  -0.008  0.00  0.00    -0.274 N 
ATOM     14  H   UNL d   1      -4.287  -4.005  -0.014  0.00  0.00     0.189 HD
BRANCH  13  15
ATOM     15  C   UNL d   1      -3.375  -5.833  -0.497  0.00  0.00     0.186 C 
ATOM     16  S   UNL d   1      -1.977  -6.570  -1.057  0.00  0.00    -0.040 SA
BRANCH  15  17
ATOM     17  N   UNL d   1      -4.615  -6.435  -0.421  0.00  0.00    -0.370 N 
ATOM     18  C   UNL d   1      -4.940  -7.806  -0.773  0.00  0.00     0.148 C 
ATOM     19  H   UNL d   1      -5.311  -5.947   0.126  0.00  0.00     0.161 HD
ENDBRANCH  15  17
ENDBRANCH  13  15
ENDBRANCH   2  13
TORSDOF 4
