REMARK  3 active torsions:
REMARK  status: ('A' for Active; 'I' for Inactive)
REMARK    1  A    between atoms: C_12  and  C_2 
REMARK    2  A    between atoms: C_15  and  C_10 
REMARK    3  A    between atoms: C_13  and  C_11 
ROOT
ATOM      1  N   UNL d   1       0.265   0.600   0.030  0.00  0.00    -0.235 N 
ATOM      2  C   UNL d   1      -0.848   1.429   0.024  0.00  0.00     0.144 A 
ATOM      3  C   UNL d   1       0.112  -0.790   0.061  0.00  0.00     0.130 A 
ATOM      4  N   UNL d   1       1.576   0.938   0.017  0.00  0.00    -0.295 N 
ATOM      5  HN  UNL d   1       1.966   1.880   0.020  1.00  0.00     0.187 HD
ATOM      6  N   UNL d   1      -1.110  -1.394   0.104  0.00  0.00    -0.340 N 
ATOM      7  HN  UNL d   1      -1.202  -2.409   0.147  1.00  0.00     0.167 HD
ATOM      8  C   UNL d   1      -2.081   0.880   0.047  0.00  0.00     0.067 A 
ATOM      9  C   UNL d   1       1.380  -1.319   0.038  0.00  0.00     0.077 A 
ATOM     10  C   UNL d   1       2.256  -0.213   0.000  0.00  0.00     0.037 A 
ATOM     11  C   UNL d   1      -2.154  -0.615   0.089  0.00  0.00     0.046 A 
ENDROOT
BRANCH  11  12
ATOM     12  C   UNL d   1      -3.514  -1.230   0.151  0.00  0.00    -0.009 A 
ATOM     13  C   UNL d   1      -3.668  -2.426   0.869  0.00  0.00     0.021 A 
ATOM     14  C   UNL d   1      -4.921  -3.016   0.917  0.00  0.00    -0.051 A 
ATOM     15  C   UNL d   1      -5.332  -4.256   1.649  0.00  0.00     0.039 C 
ATOM     16  C   UNL d   1      -6.014  -2.438   0.265  0.00  0.00    -0.052 A 
ATOM     17  C   UNL d   1      -6.658  -4.586   0.949  0.00  0.00     0.009 C 
ATOM     18  C   UNL d   1      -7.253  -3.249   0.483  0.00  0.00     0.039 C 
ATOM     19  C   UNL d   1      -5.882  -1.255  -0.441  0.00  0.00     0.008 A 
ATOM     20  C   UNL d   1      -4.621  -0.654  -0.506  0.00  0.00     0.014 A 
ENDBRANCH  11  12
BRANCH   2  21
ATOM     21  C   UNL d   1      -0.649   2.898   0.007  0.00  0.00     0.434 C 
ATOM     22  F   UNL d   1       0.627   3.349  -0.031  0.00  0.00    -0.165 F 
ATOM     23  F   UNL d   1      -1.278   3.453  -1.067  0.00  0.00    -0.165 F 
ATOM     24  F   UNL d   1      -1.222   3.470   1.103  0.00  0.00    -0.165 F 
ENDBRANCH   2  21
BRANCH  10  25
ATOM     25  C   UNL d   1       3.776  -0.207  -0.014  0.00  0.00    -0.007 C 
ATOM     26  C   UNL d   1       4.308  -0.213   1.432  0.00  0.00     0.021 C 
ATOM     27  C   UNL d   1       4.323  -1.446  -0.751  0.00  0.00     0.021 C 
ATOM     28  C   UNL d   1       4.331   1.045  -0.732  0.00  0.00     0.021 C 
ENDBRANCH  10  25
TORSDOF 3
