REMARK  6 active torsions:
REMARK  status: ('A' for Active; 'I' for Inactive)
REMARK    1  A    between atoms: C_7  and  C_1 
REMARK    2  A    between atoms: N_12  and  N_3 
REMARK       I    between atoms: N_8  and  C_7 
REMARK       I    between atoms: C_15  and  N_8 
REMARK    3  A    between atoms: C_9  and  N_12 
REMARK    4  A    between atoms: C_10  and  C_11 
REMARK    5  A    between atoms: O_27  and  C_15 
REMARK    6  A    between atoms: C_28  and  O_27 
ROOT
ATOM      1  C   UNL d   1      -0.606  -1.321   0.069  0.00  0.00     0.117 A 
ATOM      2  N   UNL d   1      -0.664   1.052  -0.446  0.00  0.00    -0.273 N 
ATOM      3  N   UNL d   1       1.363   0.008   0.028  0.00  0.00    -0.232 N 
ATOM      4  C   UNL d   1       0.697   1.187  -0.296  0.00  0.00     0.344 A 
ATOM      5  C   UNL d   1      -1.366  -0.121  -0.347  0.00  0.00     0.266 A 
ATOM      6  C   UNL d   1       0.711  -1.179   0.261  0.00  0.00     0.139 A 
ATOM      7  O   UNL d   1       1.253   2.276  -0.426  0.00  0.00    -0.245 OA
ATOM      8  O   UNL d   1      -2.568  -0.185  -0.590  0.00  0.00    -0.267 OA
ATOM      9  H   UNL d   1      -1.174   1.886  -0.696  0.00  0.00     0.173 HD
ENDROOT
BRANCH   3  10
ATOM     10  N   UNL d   1       2.746   0.104   0.292  0.00  0.00    -0.178 NA
ATOM     11  H   UNL d   1       3.070   1.075   0.238  0.00  0.00     0.155 HD
BRANCH  10  12
ATOM     12  C   UNL d   1       3.595  -0.723  -0.503  0.00  0.00     0.120 A 
ATOM     13  N   UNL d   1       3.062  -1.594  -1.399  0.00  0.00    -0.353 N 
ATOM     14  C   UNL d   1       3.869  -2.526  -1.961  0.00  0.00     0.105 A 
ATOM     15  HN  UNL d   1       2.073  -1.546  -1.645  1.00  0.00     0.166 HD
ATOM     16  C   UNL d   1       5.221  -2.648  -1.680  0.00  0.00     0.065 A 
ATOM     17  C   UNL d   1       5.784  -1.707  -0.816  0.00  0.00     0.044 A 
ATOM     18  C   UNL d   1       4.975  -0.737  -0.227  0.00  0.00     0.074 A 
ATOM     19 CL   UNL d   1       5.693   0.380   0.875  0.00  0.00    -0.081 Cl
BRANCH  16  20
ATOM     20  C   UNL d   1       6.000  -3.780  -2.275  0.00  0.00     0.418 C 
ATOM     21  F   UNL d   1       7.280  -3.852  -1.817  0.00  0.00    -0.166 F 
ATOM     22  F   UNL d   1       5.442  -4.992  -2.010  0.00  0.00    -0.166 F 
ATOM     23  F   UNL d   1       6.090  -3.696  -3.629  0.00  0.00    -0.166 F 
ENDBRANCH  16  20
ENDBRANCH  10  12
ENDBRANCH   3  10
BRANCH   1  24
ATOM     24  C   UNL d   1      -1.185  -2.684   0.256  0.00  0.00     0.267 C 
ATOM     25  N   UNL d   1      -2.512  -2.803  -0.072  0.00  0.00    -0.269 N 
ATOM     26  C   UNL d   1      -3.102  -4.001  -0.355  0.00  0.00     0.367 C 
ATOM     27  H   UNL d   1      -3.005  -2.000  -0.449  0.00  0.00     0.174 HD
ATOM     28  O   UNL d   1      -2.712  -5.114  -0.042  0.00  0.00    -0.238 OA
ATOM     29  O   UNL d   1      -0.490  -3.590   0.705  0.00  0.00    -0.267 OA
BRANCH  26  30
ATOM     30  O   UNL d   1      -4.245  -3.764  -1.053  0.00  0.00    -0.304 OA
BRANCH  30  31
ATOM     31  C   UNL d   1      -4.944  -4.935  -1.505  0.00  0.00     0.176 C 
ATOM     32  C   UNL d   1      -4.365  -5.398  -2.830  0.00  0.00     0.034 C 
ENDBRANCH  30  31
ENDBRANCH  26  30
ENDBRANCH   1  24
TORSDOF 6
