REMARK  5 active torsions:
REMARK  status: ('A' for Active; 'I' for Inactive)
REMARK    1  A    between atoms: N_3  and  C_1 
REMARK    2  A    between atoms: N_6  and  C_1 
REMARK    3  A    between atoms: C_2  and  C_10 
REMARK    4  A    between atoms: C_11  and  N_3 
REMARK    5  A    between atoms: C_10  and  N_6 
ROOT
ATOM      1  C   UNL d   1       1.181  -0.020  -0.253  0.00  0.00     0.172 C 
ATOM      2  S   UNL d   1       0.457  -1.314   0.515  0.00  0.00    -0.041 SA
ENDROOT
BRANCH   1   3
ATOM      3  N   UNL d   1       0.566   1.058  -0.834  0.00  0.00    -0.333 N 
ATOM      4  H   UNL d   1       0.997   1.344  -1.709  0.00  0.00     0.168 HD
BRANCH   3   5
ATOM      5  C   UNL d   1      -0.641   1.689  -0.483  0.00  0.00     0.034 A 
ATOM      6  C   UNL d   1      -1.075   1.771   0.844  0.00  0.00     0.031 A 
ATOM      7  C   UNL d   1      -2.192   2.545   1.174  0.00  0.00     0.026 A 
ATOM      8  C   UNL d   1      -2.889   3.216   0.175  0.00  0.00     0.034 A 
ATOM      9  C   UNL d   1      -2.484   3.116  -1.155  0.00  0.00     0.026 A 
ATOM     10 CL   UNL d   1      -4.234   4.209   0.588  0.00  0.00    -0.084 Cl
ATOM     11  C   UNL d   1      -1.351   2.366  -1.480  0.00  0.00     0.031 A 
ENDBRANCH   3   5
ENDBRANCH   1   3
BRANCH   1  12
ATOM     12  N   UNL d   1       2.549  -0.030  -0.390  0.00  0.00    -0.361 N 
ATOM     13  H   UNL d   1       2.954  -0.885  -0.032  0.00  0.00     0.162 HD
BRANCH  12  14
ATOM     14  C   UNL d   1       3.333   1.162  -0.107  0.00  0.00     0.187 C 
BRANCH  14  15
ATOM     15  C   UNL d   1       3.912   1.757  -1.333  0.00  0.00     0.070 A 
ATOM     16  O   UNL d   1       3.046   2.230  -2.280  0.00  0.00    -0.325 OA
ATOM     17  C   UNL d   1       3.802   2.826  -3.240  0.00  0.00     0.142 A 
ATOM     18  C   UNL d   1       5.136   2.745  -2.931  0.00  0.00     0.027 A 
ATOM     19  C   UNL d   1       5.212   2.044  -1.703  0.00  0.00     0.036 A 
ENDBRANCH  14  15
ENDBRANCH  12  14
ENDBRANCH   1  12
TORSDOF 5
