REMARK  5 active torsions:
REMARK  status: ('A' for Active; 'I' for Inactive)
REMARK    1  A    between atoms: C_21  and  N_2 
REMARK    2  A    between atoms: N_4  and  C_12 
REMARK    3  A    between atoms: C_14  and  N_6 
REMARK    4  A    between atoms: C_9  and  C_10 
REMARK    5  A    between atoms: C_25  and  C_21 
ROOT
ATOM      1  C   UNL d   1       0.080   0.692  -0.021  0.00  0.00     0.036 A 
ATOM      2  N   UNL d   1      -1.130   1.379   0.008  0.00  0.00    -0.380 N 
ATOM      3  C   UNL d   1       0.118  -0.717   0.020  0.00  0.00    -0.029 A 
ATOM      4  C   UNL d   1       1.310   1.363  -0.069  0.00  0.00     0.032 A 
ATOM      5  C   UNL d   1       1.352  -1.403   0.024  0.00  0.00     0.040 A 
ATOM      6  C   UNL d   1       2.568  -0.717  -0.022  0.00  0.00     0.048 A 
ATOM      7  C   UNL d   1       2.530   0.677  -0.076  0.00  0.00     0.033 A 
ATOM      8  C   UNL d   1      -2.328   0.641   0.405  0.00  0.00     0.123 C 
ATOM      9  C   UNL d   1      -1.156  -1.526   0.075  0.00  0.00     0.042 C 
ATOM     10  C   UNL d   1      -2.381  -0.702  -0.301  0.00  0.00     0.024 C 
ENDROOT
BRANCH   6  11
ATOM     11  N   UNL d   1       3.769  -1.456  -0.086  0.00  0.00    -0.300 N 
ATOM     12  N   UNL d   1       4.689  -0.917   0.570  0.00  0.00    -0.300 N 
ATOM     13  HN  UNL d   1       4.563  -0.086   1.148  1.00  0.00     0.187 HD
ATOM     14  HN  UNL d   1       3.875  -2.327  -0.605  1.00  0.00     0.187 HD
BRANCH  12  15
ATOM     15  C   UNL d   1       5.918  -1.589   0.419  0.00  0.00     0.048 A 
ATOM     16  C   UNL d   1       7.091  -0.827   0.372  0.00  0.00     0.032 A 
ATOM     17  C   UNL d   1       8.343  -1.438   0.242  0.00  0.00     0.017 A 
ATOM     18  C   UNL d   1       8.446  -2.833   0.174  0.00  0.00     0.009 A 
ATOM     19  C   UNL d   1       7.282  -3.608   0.217  0.00  0.00     0.017 A 
ATOM     20  C   UNL d   1       6.033  -2.987   0.348  0.00  0.00     0.032 A 
BRANCH  18  21
ATOM     21  C   UNL d   1       9.804  -3.432   0.043  0.00  0.00     0.155 C 
ATOM     22  O   UNL d   1      10.705  -2.769  -0.468  0.00  0.00    -0.293 OA
ATOM     23  C   UNL d   1      10.072  -4.815   0.578  0.00  0.00     0.096 C 
ENDBRANCH  18  21
ENDBRANCH  12  15
ENDBRANCH   6  11
BRANCH   2  24
ATOM     24  C   UNL d   1      -1.301   2.654  -0.693  0.00  0.00     0.122 C 
BRANCH  24  25
ATOM     25  C   UNL d   1      -1.729   3.774   0.259  0.00  0.00     0.015 C 
ATOM     26  C   UNL d   1      -0.738   4.038   1.382  0.00  0.00     0.006 C 
ENDBRANCH  24  25
ENDBRANCH   2  24
TORSDOF 5
