REMARK  4 active torsions:
REMARK  status: ('A' for Active; 'I' for Inactive)
REMARK    1  A    between atoms: C_16  and  C_3 
REMARK    2  A    between atoms: S_14  and  C_5 
REMARK    3  A    between atoms: C_6  and  S_14 
REMARK    4  A    between atoms: C_18  and  C_7 
ROOT
ATOM      1  N   UNL d   1       2.846  -3.314   0.953  0.00  0.00    -0.320 N 
ATOM      2  C   UNL d   1       1.923  -3.534  -0.023  0.00  0.00     0.167 A 
ATOM      3  C   UNL d   1       3.985  -3.978   0.571  0.00  0.00     0.132 A 
ATOM      4  N   UNL d   1       3.744  -4.565  -0.589  0.00  0.00    -0.283 N 
ATOM      5  HN  UNL d   1       4.406  -5.133  -1.118  1.00  0.00     0.188 HD
ATOM      6  N   UNL d   1       2.451  -4.281  -0.962  0.00  0.00    -0.278 N 
ATOM      7  HN  UNL d   1       1.988  -4.594  -1.815  1.00  0.00     0.189 HD
ATOM      8  H   UNL d   1       2.693  -2.793   1.806  0.00  0.00     0.169 HD
ENDROOT
BRANCH   2   9
ATOM      9  S   UNL d   1       0.282  -3.014   0.026  0.00  0.00    -0.026 SA
BRANCH   9  10
ATOM     10  C   UNL d   1       0.327  -1.670   1.133  0.00  0.00     0.137 A 
ATOM     11  N   UNL d   1       1.203  -1.509   2.105  0.00  0.00    -0.328 N 
ATOM     12  C   UNL d   1       0.850  -0.362   2.829  0.00  0.00     0.130 A 
ATOM     13  HN  UNL d   1       2.001  -2.114   2.297  1.00  0.00     0.168 HD
ATOM     14  N   UNL d   1      -0.217   0.344   2.440  0.00  0.00    -0.309 N 
ATOM     15  S   UNL d   1      -0.860  -0.431   1.117  0.00  0.00     0.013 SA
ATOM     16  HN  UNL d   1      -0.571   1.198   2.873  1.00  0.00     0.176 HD
BRANCH  12  17
ATOM     17  C   UNL d   1       1.648   0.069   4.029  0.00  0.00     0.049 A 
ATOM     18  S   UNL d   1       3.051  -0.734   4.582  0.00  0.00    -0.098 SA
ATOM     19  C   UNL d   1       3.253   0.374   5.872  0.00  0.00     0.050 A 
ATOM     20  C   UNL d   1       2.263   1.331   5.890  0.00  0.00     0.009 A 
ATOM     21  C   UNL d   1       1.335   1.156   4.822  0.00  0.00     0.023 A 
ENDBRANCH  12  17
ENDBRANCH   9  10
ENDBRANCH   2   9
BRANCH   3  22
ATOM     22  C   UNL d   1       5.215  -4.055   1.349  0.00  0.00     0.009 A 
ATOM     23  C   UNL d   1       6.042  -5.182   1.217  0.00  0.00     0.017 A 
ATOM     24  C   UNL d   1       7.227  -5.292   1.950  0.00  0.00     0.025 A 
ATOM     25  C   UNL d   1       7.599  -4.266   2.815  0.00  0.00     0.034 A 
ATOM     26  C   UNL d   1       6.796  -3.135   2.951  0.00  0.00     0.025 A 
ATOM     27 CL   UNL d   1       9.060  -4.391   3.714  0.00  0.00    -0.084 Cl
ATOM     28  C   UNL d   1       5.607  -3.030   2.221  0.00  0.00     0.017 A 
ENDBRANCH   3  22
TORSDOF 4
