REMARK  6 active torsions:
REMARK  status: ('A' for Active; 'I' for Inactive)
REMARK    1  A    between atoms: C_5  and  C_1 
REMARK    2  A    between atoms: C_9  and  C_2 
REMARK    3  A    between atoms: C_23  and  C_7 
REMARK    4  A    between atoms: C_8  and  C_16 
REMARK    5  A    between atoms: O_18  and  C_9 
REMARK    6  A    between atoms: N_10  and  O_18 
ROOT
ATOM      1  C   UNL d   1      -0.330  -1.225  -0.097  0.00  0.00     0.087 A 
ATOM      2  C   UNL d   1      -1.428  -0.332   0.113  0.00  0.00     0.102 A 
ATOM      3  N   UNL d   1       0.774  -0.511  -0.382  0.00  0.00    -0.259 N 
ATOM      4  HN  UNL d   1       1.697  -0.885  -0.599  1.00  0.00     0.195 HD
ATOM      5  O   UNL d   1       0.427   0.815  -0.325  0.00  0.00    -0.241 OA
ATOM      6  C   UNL d   1      -0.899   0.931  -0.066  0.00  0.00     0.094 A 
ENDROOT
BRANCH   2   7
ATOM      7  C   UNL d   1      -2.789  -0.634   0.470  0.00  0.00     0.320 C 
ATOM      8  O   UNL d   1      -3.086  -1.506   1.271  0.00  0.00    -0.257 OA
BRANCH   7   9
ATOM      9  O   UNL d   1      -3.697   0.144  -0.228  0.00  0.00    -0.195 OA
BRANCH   9  10
ATOM     10  N   UNL d   1      -4.794   0.400   0.605  0.00  0.00    -0.268 N 
ATOM     11  C   UNL d   1      -5.843   0.717  -0.078  0.00  0.00     0.129 C 
ATOM     12  HN  UNL d   1      -4.768   0.342   1.623  1.00  0.00     0.194 HD
BRANCH  11  13
ATOM     13  C   UNL d   1      -7.063   1.143   0.630  0.00  0.00     0.025 A 
ATOM     14  C   UNL d   1      -6.985   1.950   1.781  0.00  0.00     0.047 A 
ATOM     15 CL   UNL d   1      -5.519   2.672   2.357  0.00  0.00    -0.083 Cl
ATOM     16  C   UNL d   1      -8.145   2.273   2.492  0.00  0.00     0.025 A 
ATOM     17  C   UNL d   1      -9.386   1.821   2.055  0.00  0.00     0.003 A 
ATOM     18  C   UNL d   1      -9.474   1.057   0.892  0.00  0.00     0.025 A 
ATOM     19  C   UNL d   1      -8.319   0.718   0.177  0.00  0.00     0.047 A 
ATOM     20 CL   UNL d   1      -8.523  -0.253  -1.238  0.00  0.00    -0.083 Cl
ENDBRANCH  11  13
ENDBRANCH   9  10
ENDBRANCH   7   9
ENDBRANCH   2   7
BRANCH   1  21
ATOM     21  C   UNL d   1      -0.268  -2.702  -0.112  0.00  0.00     0.037 A 
ATOM     22  C   UNL d   1      -1.240  -3.488  -0.773  0.00  0.00     0.048 A 
ATOM     23 CL   UNL d   1      -2.530  -2.827  -1.730  0.00  0.00    -0.083 Cl
ATOM     24  C   UNL d   1      -1.162  -4.891  -0.788  0.00  0.00     0.025 A 
ATOM     25  C   UNL d   1      -0.073  -5.545  -0.228  0.00  0.00     0.003 A 
ATOM     26  C   UNL d   1       0.924  -4.797   0.384  0.00  0.00     0.025 A 
ATOM     27  C   UNL d   1       0.818  -3.398   0.472  0.00  0.00     0.048 A 
ATOM     28 CL   UNL d   1       2.096  -2.624   1.355  0.00  0.00    -0.083 Cl
ENDBRANCH   1  21
BRANCH   6  29
ATOM     29  C   UNL d   1      -1.421   2.325  -0.054  0.00  0.00     0.064 C 
ATOM     30  C   UNL d   1      -1.460   2.940   1.334  0.00  0.00     0.012 C 
ENDBRANCH   6  29
TORSDOF 6
