REMARK  7 active torsions:
REMARK  status: ('A' for Active; 'I' for Inactive)
REMARK    1  A    between atoms: C_8  and  C_1 
REMARK    2  A    between atoms: C_7  and  C_2 
REMARK    3  A    between atoms: O_17  and  C_8 
REMARK    4  A    between atoms: O_16  and  C_9 
REMARK    5  A    between atoms: O_19  and  C_10 
REMARK    6  A    between atoms: O_18  and  C_11 
REMARK    7  A    between atoms: C_21  and  O_17 
ROOT
ATOM      1  C   UNL d   1       1.433   1.063  -0.024  0.00  0.00     0.066 C 
ATOM      2  C   UNL d   1       0.184   1.903  -0.166  0.00  0.00     0.161 C 
ATOM      3  C   UNL d   1       1.357  -0.287  -0.041  0.00  0.00     0.024 C 
ATOM      4  C   UNL d   1      -1.080  -0.234  -0.072  0.00  0.00     0.321 C 
ATOM      5  N   UNL d   1       0.114  -0.878  -0.135  0.00  0.00    -0.312 N 
ATOM      6  N   UNL d   1      -1.019   1.111   0.030  0.00  0.00    -0.330 N 
ATOM      7  O   UNL d   1      -2.145  -0.837  -0.066  0.00  0.00    -0.247 OA
ATOM      8  C   UNL d   1       2.478  -1.292   0.022  0.00  0.00     0.069 C 
ATOM      9  H   UNL d   1       0.037  -1.889  -0.158  0.00  0.00     0.170 HD
ATOM     10  H   UNL d   1      -1.915   1.575   0.103  0.00  0.00     0.165 HD
ENDROOT
BRANCH   2  11
ATOM     11  C   UNL d   1       0.075   3.094   0.768  0.00  0.00    -0.025 A 
ATOM     12  C   UNL d   1      -0.060   4.391   0.259  0.00  0.00     0.049 A 
ATOM     13  C   UNL d   1      -0.266   5.491   1.103  0.00  0.00     0.104 A 
ATOM     14  C   UNL d   1      -0.310   5.285   2.501  0.00  0.00     0.135 A 
ATOM     15  C   UNL d   1      -0.142   3.979   3.019  0.00  0.00     0.104 A 
ATOM     16  C   UNL d   1       0.034   2.902   2.150  0.00  0.00     0.049 A 
BRANCH  13  17
ATOM     17  O   UNL d   1      -0.473   6.755   0.615  0.00  0.00    -0.353 OA
ATOM     18  C   UNL d   1      -0.429   6.951  -0.794  0.00  0.00     0.210 C 
ENDBRANCH  13  17
BRANCH  14  19
ATOM     19  O   UNL d   1      -0.582   6.250   3.445  0.00  0.00    -0.351 OA
ATOM     20  C   UNL d   1      -0.134   7.574   3.190  0.00  0.00     0.210 C 
ENDBRANCH  14  19
BRANCH  15  21
ATOM     21  O   UNL d   1      -0.195   3.814   4.385  0.00  0.00    -0.353 OA
ATOM     22  C   UNL d   1       0.441   2.640   4.889  0.00  0.00     0.210 C 
ENDBRANCH  15  21
ENDBRANCH   2  11
BRANCH   1  23
ATOM     23  C   UNL d   1       2.743   1.750   0.128  0.00  0.00     0.293 C 
ATOM     24  O   UNL d   1       3.719   1.245   0.672  0.00  0.00    -0.259 OA
BRANCH  23  25
ATOM     25  O   UNL d   1       2.727   3.006  -0.387  0.00  0.00    -0.318 OA
BRANCH  25  26
ATOM     26  C   UNL d   1       3.954   3.746  -0.225  0.00  0.00     0.174 C 
ATOM     27  C   UNL d   1       4.166   4.207   1.211  0.00  0.00     0.034 C 
ENDBRANCH  25  26
ENDBRANCH  23  25
ENDBRANCH   1  23
TORSDOF 7
