REMARK  5 active torsions:
REMARK  status: ('A' for Active; 'I' for Inactive)
REMARK    1  A    between atoms: C_4  and  C_1 
REMARK       I    between atoms: N_9  and  C_4 
REMARK    2  A    between atoms: C_18  and  C_5 
REMARK       I    between atoms: C_8  and  N_10 
REMARK       I    between atoms: N_13  and  C_8 
REMARK    3  A    between atoms: N_10  and  N_9 
REMARK    4  A    between atoms: C_12  and  C_18 
REMARK    5  A    between atoms: C_20  and  N_13 
ROOT
ATOM      1  C   UNL d   1       2.284   1.704   0.154  0.00  0.00     0.287 C 
ATOM      2  N   UNL d   1       2.097   2.973   0.666  0.00  0.00    -0.261 N 
ATOM      3  O   UNL d   1       3.382   1.282  -0.208  0.00  0.00    -0.264 OA
ATOM      4  H   UNL d   1       1.206   3.259   1.071  0.00  0.00     0.190 HD
ENDROOT
BRANCH   1   5
ATOM      5  C   UNL d   1       1.057   0.907   0.046  0.00  0.00     0.109 A 
ATOM      6  N   UNL d   1      -0.214   1.433   0.307  0.00  0.00    -0.349 N 
ATOM      7  C   UNL d   1      -1.141   0.527   0.042  0.00  0.00     0.055 A 
ATOM      8  HN  UNL d   1      -0.398   2.376   0.651  1.00  0.00     0.166 HD
ATOM      9  S   UNL d   1      -0.546  -1.016  -0.442  0.00  0.00    -0.086 SA
ATOM     10  C   UNL d   1       1.052  -0.416  -0.359  0.00  0.00     0.086 A 
BRANCH   7  11
ATOM     11  C   UNL d   1      -2.626   0.756   0.133  0.00  0.00     0.103 C 
BRANCH  11  12
ATOM     12  C   UNL d   1      -3.205   1.248  -1.168  0.00  0.00    -0.045 A 
ATOM     13  C   UNL d   1      -3.740   0.442  -2.159  0.00  0.00     0.057 A 
ATOM     14  S   UNL d   1      -4.298   1.331  -3.510  0.00  0.00    -0.113 SA
ATOM     15  C   UNL d   1      -3.841   2.812  -2.792  0.00  0.00     0.050 A 
ATOM     16  C   UNL d   1      -3.276   2.630  -1.550  0.00  0.00     0.015 A 
ENDBRANCH  11  12
ENDBRANCH   7  11
ENDBRANCH   1   5
BRANCH   2  17
ATOM     17  N   UNL d   1       3.214   3.811   0.837  0.00  0.00    -0.249 N 
ATOM     18  C   UNL d   1       3.117   4.879   1.701  0.00  0.00     0.335 C 
ATOM     19  N   UNL d   1       4.247   5.667   1.663  0.00  0.00    -0.338 N 
ATOM     20  O   UNL d   1       2.138   5.098   2.406  0.00  0.00    -0.246 OA
ATOM     21  H   UNL d   1       5.091   5.201   1.361  0.00  0.00     0.164 HD
ATOM     22  H   UNL d   1       3.808   3.904   0.019  0.00  0.00     0.192 HD
BRANCH  19  23
ATOM     23  C   UNL d   1       4.407   6.825   2.536  0.00  0.00     0.078 C 
ATOM     24  C   UNL d   1       4.957   6.420   3.903  0.00  0.00     0.032 C 
ATOM     25  C   UNL d   1       5.330   7.851   1.883  0.00  0.00     0.032 C 
ENDBRANCH  19  23
ENDBRANCH   2  17
TORSDOF 5
