REMARK  7 active torsions:
REMARK  status: ('A' for Active; 'I' for Inactive)
REMARK    1  A    between atoms: C_2  and  C_1 
REMARK       I    between atoms: N_3  and  C_1 
REMARK    2  A    between atoms: C_10  and  N_3 
REMARK    3  A    between atoms: C_4  and  C_7 
REMARK    4  A    between atoms: O_21  and  C_4 
REMARK    5  A    between atoms: N_5  and  C_14 
REMARK    6  A    between atoms: C_14  and  C_15 
REMARK    7  A    between atoms: C_25  and  O_21 
ROOT
ATOM      1  C   UNL d   1      -6.064   0.194  -1.650  0.00  0.00     0.035 A 
ATOM      2  C   UNL d   1      -4.883  -1.702  -0.638  0.00  0.00    -0.028 A 
ATOM      3  C   UNL d   1      -4.997  -0.328  -0.908  0.00  0.00     0.038 A 
ATOM      4  C   UNL d   1      -6.953  -2.057  -1.842  0.00  0.00     0.003 A 
ATOM      5  C   UNL d   1      -7.059  -0.683  -2.091  0.00  0.00     0.029 A 
ATOM      6  C   UNL d   1      -5.866  -2.566  -1.127  0.00  0.00     0.009 A 
ENDROOT
BRANCH   2   7
ATOM      7  C   UNL d   1      -3.744  -2.196   0.230  0.00  0.00     0.311 C 
BRANCH   7   8
ATOM      8  N   UNL d   1      -2.780  -3.107  -0.428  0.00  0.00     0.092 N 
ATOM      9  C   UNL d   1      -2.062  -2.422  -1.516  0.00  0.00     0.273 C 
ATOM     10  C   UNL d   1      -0.963  -3.295  -2.134  0.00  0.00     0.045 C 
ATOM     11  C   UNL d   1       0.027  -3.824  -1.092  0.00  0.00     0.089 C 
ATOM     12  C   UNL d   1      -0.763  -4.515   0.023  0.00  0.00     0.045 C 
ATOM     13  C   UNL d   1      -1.845  -3.602   0.601  0.00  0.00     0.273 C 
BRANCH  11  14
ATOM     14  C   UNL d   1       0.966  -2.764  -0.517  0.00  0.00     0.263 C 
ATOM     15  O   UNL d   1       1.349  -2.749   0.647  0.00  0.00    -0.265 OA
BRANCH  14  16
ATOM     16  O   UNL d   1       1.388  -1.891  -1.472  0.00  0.00    -0.322 OA
BRANCH  16  17
ATOM     17  C   UNL d   1       2.261  -0.840  -1.026  0.00  0.00     0.174 C 
ATOM     18  C   UNL d   1       3.715  -1.246  -1.188  0.00  0.00     0.034 C 
ENDBRANCH  16  17
ENDBRANCH  14  16
ENDBRANCH  11  14
ENDBRANCH   7   8
ENDBRANCH   2   7
BRANCH   1  19
ATOM     19  N   UNL d   1      -6.186   1.569  -1.948  0.00  0.00    -0.321 N 
ATOM     20  C   UNL d   1      -5.183   2.522  -1.824  0.00  0.00     0.279 C 
ATOM     21  O   UNL d   1      -4.019   2.276  -1.521  0.00  0.00    -0.265 OA
ATOM     22  H   UNL d   1      -7.057   1.893  -2.355  0.00  0.00     0.169 HD
BRANCH  20  23
ATOM     23  C   UNL d   1      -5.595   3.881  -2.115  0.00  0.00     0.142 A 
ATOM     24  O   UNL d   1      -6.896   4.179  -2.420  0.00  0.00    -0.317 OA
ATOM     25  C   UNL d   1      -6.961   5.526  -2.606  0.00  0.00     0.143 A 
ATOM     26  C   UNL d   1      -5.719   6.100  -2.437  0.00  0.00     0.027 A 
ATOM     27  C   UNL d   1      -4.840   5.041  -2.126  0.00  0.00     0.045 A 
ENDBRANCH  20  23
ENDBRANCH   1  19
TORSDOF 7
