REMARK  4 active torsions:
REMARK  status: ('A' for Active; 'I' for Inactive)
REMARK    1  A    between atoms: C_4  and  C_1 
REMARK       I    between atoms: N_9  and  C_4 
REMARK    2  A    between atoms: N_10  and  N_9 
REMARK    3  A    between atoms: C_12  and  N_10 
REMARK    4  A    between atoms: C_15  and  C_13 
ROOT
ATOM      1  C   UNL d   1       1.545  -0.976   1.174  0.00  0.00     0.276 C 
ATOM      2  N   UNL d   1       1.841  -2.334   1.240  0.00  0.00    -0.282 N 
ATOM      3  O   UNL d   1       1.576  -0.387   0.089  0.00  0.00    -0.266 OA
ATOM      4  H   UNL d   1       1.617  -2.898   2.053  0.00  0.00     0.184 HD
ENDROOT
BRANCH   2   5
ATOM      5  N   UNL d   1       1.994  -3.048   0.028  0.00  0.00    -0.203 NA
ATOM      6  H   UNL d   1       2.115  -2.381  -0.750  0.00  0.00     0.153 HD
BRANCH   5   7
ATOM      7  C   UNL d   1       3.113  -3.932   0.023  0.00  0.00     0.034 A 
ATOM      8  C   UNL d   1       3.124  -5.028  -0.868  0.00  0.00    -0.036 A 
ATOM      9  C   UNL d   1       4.268  -5.846  -0.948  0.00  0.00     0.009 A 
ATOM     10  C   UNL d   1       5.388  -5.592  -0.160  0.00  0.00     0.001 A 
ATOM     11  C   UNL d   1       5.386  -4.508   0.709  0.00  0.00     0.002 A 
ATOM     12  C   UNL d   1       4.266  -3.676   0.787  0.00  0.00     0.026 A 
BRANCH   8  13
ATOM     13  C   UNL d   1       1.935  -5.390  -1.731  0.00  0.00     0.036 C 
ATOM     14  C   UNL d   1       2.053  -4.861  -3.152  0.00  0.00     0.010 C 
ENDBRANCH   8  13
ENDBRANCH   5   7
ENDBRANCH   2   5
BRANCH   1  15
ATOM     15  C   UNL d   1       1.211  -0.327   2.423  0.00  0.00     0.115 A 
ATOM     16  C   UNL d   1       0.768   0.966   2.683  0.00  0.00     0.046 A 
ATOM     17  N   UNL d   1       0.561   1.248   4.032  0.00  0.00    -0.298 N 
ATOM     18  C   UNL d   1       0.475   2.063   1.723  0.00  0.00     0.071 C 
ATOM     19  N   UNL d   1       0.838   0.214   4.804  0.00  0.00    -0.269 N 
ATOM     20  HN  UNL d   1       0.233   2.148   4.382  1.00  0.00     0.187 HD
ATOM     21  S   UNL d   1       1.346  -1.116   3.942  0.00  0.00     0.009 SA
ATOM     22  HN  UNL d   1       0.750   0.229   5.820  1.00  0.00     0.195 HD
ENDBRANCH   1  15
TORSDOF 4
