REMARK  3 active torsions:
REMARK  status: ('A' for Active; 'I' for Inactive)
REMARK    1  A    between atoms: C_2  and  S_1 
REMARK    2  A    between atoms: C_3  and  S_1 
REMARK    3  A    between atoms: C_6  and  C_2 
ROOT
ATOM      1  C   UNL d   1       0.474   1.579  -0.024  0.00  0.00     0.059 A 
ATOM      2  C   UNL d   1       1.377   2.641   0.052  0.00  0.00     0.024 A 
ATOM      3  C   UNL d   1      -0.899   1.817  -0.113  0.00  0.00     0.024 A 
ATOM      4  C   UNL d   1       0.899   3.952   0.043  0.00  0.00     0.008 A 
ATOM      5  C   UNL d   1      -1.370   3.131  -0.130  0.00  0.00     0.008 A 
ATOM      6  C   UNL d   1      -0.476   4.208  -0.056  0.00  0.00    -0.062 A 
ATOM      7  C   UNL d   1      -0.969   5.625  -0.111  0.00  0.00     0.048 C 
ENDROOT
BRANCH   1   8
ATOM      8  S   UNL d   1       1.087  -0.085  -0.085  0.00  0.00     0.182 S 
ATOM      9  O   UNL d   1      -0.045  -0.990   0.001  0.00  0.00    -0.222 OA
ATOM     10  O   UNL d   1       1.984  -0.148  -1.225  0.00  0.00    -0.222 OA
BRANCH   8  11
ATOM     11  C   UNL d   1       2.061  -0.323   1.359  0.00  0.00     0.223 C 
BRANCH  11  12
ATOM     12  C   UNL d   1       1.218  -0.185   2.585  0.00  0.00     0.137 C 
ATOM     13  O   UNL d   1       1.101   0.902   3.151  0.00  0.00    -0.297 OA
ATOM     14  C   UNL d   1       0.518  -1.409   3.112  0.00  0.00     0.091 C 
ENDBRANCH  11  12
ENDBRANCH   8  11
ENDBRANCH   1   8
TORSDOF 3
