REMARK  10 active torsions:
REMARK  status: ('A' for Active; 'I' for Inactive)
REMARK    1  A    between atoms: C_6  and  C_1 
REMARK    2  A    between atoms: C_8  and  N_2 
REMARK    3  A    between atoms: C_10  and  C_5 
REMARK    4  A    between atoms: O_23  and  C_6 
REMARK    5  A    between atoms: C_7  and  C_10 
REMARK       I    between atoms: N_12  and  C_7 
REMARK    6  A    between atoms: C_9  and  C_13 
REMARK    7  A    between atoms: O_25  and  C_9 
REMARK    8  A    between atoms: C_21  and  N_12 
REMARK    9  A    between atoms: C_31  and  O_23 
REMARK   10  A    between atoms: C_32  and  O_25 
ROOT
ATOM      1  C   UNL d   1      -1.114  -1.095   0.524  0.00  0.00     0.053 C 
ATOM      2  N   UNL d   1      -0.472   1.044   0.577  0.00  0.00    -0.285 N 
ATOM      3  C   UNL d   1       0.689   0.302   0.875  0.00  0.00     0.238 C 
ATOM      4  C   UNL d   1      -1.544   0.179   0.419  0.00  0.00     0.029 C 
ATOM      5  C   UNL d   1       0.383  -1.158   0.611  0.00  0.00     0.128 C 
ATOM      6  O   UNL d   1       1.757   0.710   1.312  0.00  0.00    -0.272 OA
ATOM      7  C   UNL d   1      -2.920   0.615   0.019  0.00  0.00     0.069 C 
ENDROOT
BRANCH   5   8
ATOM      8  C   UNL d   1       1.183  -2.110   1.495  0.00  0.00     0.122 C 
BRANCH   8   9
ATOM      9  C   UNL d   1       0.863  -2.226   2.975  0.00  0.00     0.223 C 
ATOM     10  N   UNL d   1       1.191  -1.113   3.721  0.00  0.00    -0.327 N 
ATOM     11  H   UNL d   1       1.448  -0.269   3.214  0.00  0.00     0.169 HD
ATOM     12  O   UNL d   1       0.437  -3.285   3.426  0.00  0.00    -0.273 OA
BRANCH  10  13
ATOM     13  C   UNL d   1       1.367  -1.051   5.124  0.00  0.00     0.034 A 
ATOM     14  C   UNL d   1       1.344  -2.157   5.981  0.00  0.00     0.030 A 
ATOM     15  C   UNL d   1       1.669  -2.015   7.344  0.00  0.00     0.020 A 
ATOM     16  C   UNL d   1       2.009  -0.763   7.867  0.00  0.00     0.039 A 
ATOM     17  C   UNL d   1       1.978   0.352   7.022  0.00  0.00     0.020 A 
ATOM     18  C   UNL d   1       1.664   0.205   5.664  0.00  0.00     0.030 A 
BRANCH  16  19
ATOM     19  C   UNL d   1       2.398  -0.657   9.307  0.00  0.00     0.293 C 
ATOM     20  O   UNL d   1       2.287  -1.564  10.112  0.00  0.00    -0.259 OA
BRANCH  19  21
ATOM     21  O   UNL d   1       2.899   0.582   9.556  0.00  0.00    -0.318 OA
BRANCH  21  22
ATOM     22  C   UNL d   1       3.254   0.873  10.917  0.00  0.00     0.174 C 
ATOM     23  C   UNL d   1       4.701   0.507  11.190  0.00  0.00     0.034 C 
ENDBRANCH  21  22
ENDBRANCH  19  21
ENDBRANCH  16  19
ENDBRANCH  10  13
ENDBRANCH   8   9
ENDBRANCH   5   8
BRANCH   1  24
ATOM     24  C   UNL d   1      -1.993  -2.266   0.408  0.00  0.00     0.292 C 
ATOM     25  O   UNL d   1      -3.208  -2.221   0.503  0.00  0.00    -0.260 OA
BRANCH  24  26
ATOM     26  O   UNL d   1      -1.245  -3.380   0.243  0.00  0.00    -0.318 OA
BRANCH  26  27
ATOM     27  C   UNL d   1      -1.947  -4.617   0.441  0.00  0.00     0.174 C 
ATOM     28  C   UNL d   1      -1.873  -4.987   1.911  0.00  0.00     0.034 C 
ENDBRANCH  26  27
ENDBRANCH  24  26
ENDBRANCH   1  24
BRANCH   2  29
ATOM     29  C   UNL d   1      -0.436   2.464   0.509  0.00  0.00     0.042 A 
ATOM     30  C   UNL d   1       0.662   3.093  -0.105  0.00  0.00     0.033 A 
ATOM     31  C   UNL d   1       0.710   4.482  -0.244  0.00  0.00     0.044 A 
ATOM     32  C   UNL d   1      -0.331   5.251   0.256  0.00  0.00     0.116 A 
ATOM     33  C   UNL d   1      -1.417   4.657   0.888  0.00  0.00     0.044 A 
ATOM     34  F   UNL d   1      -0.285   6.583   0.128  0.00  0.00    -0.206 F 
ATOM     35  C   UNL d   1      -1.470   3.263   1.009  0.00  0.00     0.033 A 
ENDBRANCH   2  29
TORSDOF 10
