REMARK  10 active torsions:
REMARK  status: ('A' for Active; 'I' for Inactive)
REMARK    1  A    between atoms: N_2  and  C_1 
REMARK    2  A    between atoms: N_4  and  C_1 
REMARK       I    between atoms: C_3  and  N_2 
REMARK    3  A    between atoms: C_9  and  C_3 
REMARK    4  A    between atoms: C_5  and  N_4 
REMARK    5  A    between atoms: C_20  and  C_16 
REMARK    6  A    between atoms: C_22  and  C_20 
REMARK    7  A    between atoms: C_25  and  C_22 
REMARK    8  A    between atoms: C_23  and  C_24 
REMARK    9  A    between atoms: C_24  and  C_26 
REMARK   10  A    between atoms: C_26  and  C_25 
ROOT
ATOM      1  N   UNL d   1       0.492  -1.156  -0.362  0.00  0.00    -0.299 N 
ATOM      2  C   UNL d   1       1.031  -2.012  -1.325  0.00  0.00     0.257 C 
ATOM      3  O   UNL d   1       0.410  -2.532  -2.248  0.00  0.00    -0.267 OA
ATOM      4  H   UNL d   1       1.159  -0.706   0.261  0.00  0.00     0.171 HD
ENDROOT
BRANCH   2   5
ATOM      5  C   UNL d   1       2.497  -2.249  -1.214  0.00  0.00     0.032 A 
ATOM      6  C   UNL d   1       3.189  -2.176   0.003  0.00  0.00     0.017 A 
ATOM      7  C   UNL d   1       4.584  -2.282   0.026  0.00  0.00     0.008 A 
ATOM      8  C   UNL d   1       5.303  -2.476  -1.161  0.00  0.00    -0.058 A 
ATOM      9  C   UNL d   1       4.597  -2.647  -2.362  0.00  0.00     0.008 A 
ATOM     10  C   UNL d   1       3.210  -2.530  -2.386  0.00  0.00     0.017 A 
BRANCH   8  11
ATOM     11  C   UNL d   1       6.813  -2.450  -1.153  0.00  0.00     0.038 C 
BRANCH  11  12
ATOM     12  C   UNL d   1       7.402  -1.335  -2.031  0.00  0.00     0.005 C 
BRANCH  12  13
ATOM     13  C   UNL d   1       6.973   0.072  -1.598  0.00  0.00     0.000 C 
BRANCH  13  14
ATOM     14  C   UNL d   1       7.583   1.133  -2.514  0.00  0.00     0.000 C 
BRANCH  14  15
ATOM     15  C   UNL d   1       7.149   2.539  -2.104  0.00  0.00    -0.000 C 
BRANCH  15  16
ATOM     16  C   UNL d   1       7.758   3.595  -3.026  0.00  0.00    -0.005 C 
ATOM     17  C   UNL d   1       7.332   4.995  -2.619  0.00  0.00     0.005 C 
ENDBRANCH  15  16
ENDBRANCH  14  15
ENDBRANCH  13  14
ENDBRANCH  12  13
ENDBRANCH  11  12
ENDBRANCH   8  11
ENDBRANCH   2   5
BRANCH   1  18
ATOM     18  C   UNL d   1      -0.789  -0.666  -0.173  0.00  0.00     0.180 C 
ATOM     19  S   UNL d   1      -2.144  -0.991  -1.093  0.00  0.00    -0.040 SA
BRANCH  18  20
ATOM     20  N   UNL d   1      -0.969   0.111   0.948  0.00  0.00    -0.319 N 
ATOM     21  H   UNL d   1      -1.936   0.315   1.165  0.00  0.00     0.169 HD
BRANCH  20  22
ATOM     22  C   UNL d   1       0.011   0.692   1.763  0.00  0.00     0.107 A 
ATOM     23  N   UNL d   1       1.285   0.748   1.312  0.00  0.00    -0.346 N 
ATOM     24  C   UNL d   1       2.199   1.403   2.069  0.00  0.00     0.007 A 
ATOM     25  HN  UNL d   1       1.550   0.311   0.429  1.00  0.00     0.167 HD
ATOM     26  C   UNL d   1       3.563   1.602   1.477  0.00  0.00     0.068 C 
ATOM     27  C   UNL d   1       1.899   1.911   3.327  0.00  0.00     0.025 A 
ATOM     28  C   UNL d   1       0.596   1.794   3.800  0.00  0.00     0.006 A 
ATOM     29  C   UNL d   1      -0.374   1.208   2.992  0.00  0.00     0.048 A 
ENDBRANCH  20  22
ENDBRANCH  18  20
ENDBRANCH   1  18
TORSDOF 10
