REMARK  3 active torsions:
REMARK  status: ('A' for Active; 'I' for Inactive)
REMARK    1  A    between atoms: C_5  and  N_1 
REMARK    2  A    between atoms: C_6  and  C_3 
REMARK    3  A    between atoms: O_14  and  C_8 
ROOT
ATOM      1  N   UNL d   1       1.105  -0.122  -0.317  0.00  0.00    -0.364 N 
ATOM      2  HN  UNL d   1       0.651   0.551  -0.933  1.00  0.00     0.165 HD
ATOM      3  C   UNL d   1       0.403  -1.017   0.303  0.00  0.00     0.102 C 
ENDROOT
BRANCH   1   4
ATOM      4  C   UNL d   1       2.502  -0.088  -0.131  0.00  0.00     0.049 A 
ATOM      5  C   UNL d   1       3.160   1.143   0.065  0.00  0.00     0.040 A 
ATOM      6  C   UNL d   1       4.548   1.208   0.206  0.00  0.00     0.063 A 
ATOM      7 BR   UNL d   1       2.188   2.776   0.137  0.00  0.00    -0.049 Br
ATOM      8  C   UNL d   1       5.290   0.037   0.148  0.00  0.00     0.117 A 
ATOM      9  C   UNL d   1       4.674  -1.190  -0.059  0.00  0.00     0.044 A 
ATOM     10  F   UNL d   1       6.621   0.092   0.282  0.00  0.00    -0.206 F 
ATOM     11  C   UNL d   1       3.286  -1.250  -0.210  0.00  0.00     0.034 A 
ENDBRANCH   1   4
BRANCH   3  12
ATOM     12  C   UNL d   1      -1.068  -1.060   0.160  0.00  0.00     0.012 A 
ATOM     13  C   UNL d   1      -1.780  -0.028  -0.464  0.00  0.00     0.077 A 
ATOM     14  C   UNL d   1      -3.168  -0.088  -0.554  0.00  0.00     0.037 A 
ATOM     15  C   UNL d   1      -3.852  -1.186  -0.031  0.00  0.00     0.003 A 
ATOM     16  C   UNL d   1      -3.147  -2.221   0.585  0.00  0.00     0.001 A 
ATOM     17  C   UNL d   1      -1.754  -2.159   0.686  0.00  0.00     0.015 A 
BRANCH  13  18
ATOM     18  O   UNL d   1      -1.179   1.078  -0.998  0.00  0.00    -0.360 OA
ATOM     19  H   UNL d   1      -0.207   0.962  -0.894  0.00  0.00     0.217 HD
ENDBRANCH  13  18
ENDBRANCH   3  12
TORSDOF 3
