REMARK  5 active torsions:
REMARK  status: ('A' for Active; 'I' for Inactive)
REMARK    1  A    between atoms: C_9  and  C_5 
REMARK    2  A    between atoms: N_7  and  C_10 
REMARK    3  A    between atoms: N_8  and  C_14 
REMARK    4  A    between atoms: O_16  and  C_9 
REMARK    5  A    between atoms: C_24  and  O_16 
ROOT
ATOM      1  C   UNL d   1      -0.602   0.779  -0.034  0.00  0.00     0.006 A 
ATOM      2  C   UNL d   1      -1.069  -0.562  -0.065  0.00  0.00     0.029 A 
ATOM      3  C   UNL d   1       1.280  -0.628  -0.176  0.00  0.00     0.028 A 
ATOM      4  C   UNL d   1       0.868   0.723  -0.140  0.00  0.00    -0.010 A 
ATOM      5  C   UNL d   1      -1.571   1.784   0.086  0.00  0.00     0.054 A 
ATOM      6  C   UNL d   1       0.084  -1.471  -0.116  0.00  0.00     0.194 A 
ATOM      7  C   UNL d   1      -3.341   0.046  -0.015  0.00  0.00     0.104 A 
ATOM      8  C   UNL d   1      -2.393  -0.965  -0.050  0.00  0.00     0.052 A 
ATOM      9  C   UNL d   1      -2.942   1.398   0.056  0.00  0.00     0.054 A 
ATOM     10  C   UNL d   1       2.584  -1.071  -0.320  0.00  0.00     0.052 A 
ATOM     11  C   UNL d   1       3.557  -0.086  -0.456  0.00  0.00     0.103 A 
ATOM     12  C   UNL d   1       1.861   1.681  -0.284  0.00  0.00     0.016 A 
ATOM     13  O   UNL d   1       0.047  -2.682  -0.123  0.00  0.00    -0.287 OA
ATOM     14  C   UNL d   1       3.205   1.280  -0.438  0.00  0.00     0.037 A 
ENDROOT
BRANCH   5  15
ATOM     15  C   UNL d   1      -1.251   3.222   0.375  0.00  0.00     0.299 C 
ATOM     16  O   UNL d   1      -0.140   3.712   0.416  0.00  0.00    -0.259 OA
BRANCH  15  17
ATOM     17  O   UNL d   1      -2.428   3.880   0.705  0.00  0.00    -0.275 OA
BRANCH  17  18
ATOM     18  C   UNL d   1      -2.463   4.879   1.700  0.00  0.00     0.079 A 
ATOM     19  C   UNL d   1      -1.567   4.906   2.767  0.00  0.00     0.037 A 
ATOM     20  C   UNL d   1      -1.769   5.813   3.808  0.00  0.00     0.003 A 
ATOM     21  C   UNL d   1      -2.865   6.677   3.782  0.00  0.00     0.000 A 
ATOM     22  C   UNL d   1      -3.757   6.644   2.709  0.00  0.00     0.003 A 
ATOM     23  C   UNL d   1      -3.560   5.740   1.664  0.00  0.00     0.037 A 
ENDBRANCH  17  18
ENDBRANCH  15  17
ENDBRANCH   5  15
BRANCH   7  24
ATOM     24  N   UNL d   1      -4.770  -0.294  -0.030  0.00  0.00    -0.116 N 
ATOM     25  O   UNL d   1      -5.074  -1.493  -0.058  0.00  0.00    -0.532 OA
ATOM     26  O   UNL d   1      -5.581   0.642  -0.019  0.00  0.00    -0.532 OA
ENDBRANCH   7  24
BRANCH  11  27
ATOM     27  N   UNL d   1       4.955  -0.478  -0.658  0.00  0.00    -0.116 N 
ATOM     28  O   UNL d   1       5.267  -1.646  -0.392  0.00  0.00    -0.532 OA
ATOM     29  O   UNL d   1       5.735   0.383  -1.090  0.00  0.00    -0.532 OA
ENDBRANCH  11  27
TORSDOF 5
