REMARK  8 active torsions:
REMARK  status: ('A' for Active; 'I' for Inactive)
REMARK    1  A    between atoms: C_8  and  C_1 
REMARK    2  A    between atoms: N_9  and  C_2 
REMARK    3  A    between atoms: S_11  and  C_3 
REMARK    4  A    between atoms: O_14  and  C_8 
REMARK    5  A    between atoms: C_18  and  N_9 
REMARK    6  A    between atoms: C_23  and  O_14 
REMARK    7  A    between atoms: O_16  and  C_22 
REMARK    8  A    between atoms: C_22  and  C_18 
ROOT
ATOM      1  C   UNL d   1       2.873   1.061   0.172  0.00  0.00     0.100 A 
ATOM      2  C   UNL d   1       2.605  -0.330   0.072  0.00  0.00     0.061 A 
ATOM      3  C   UNL d   1       1.836   1.987   0.107  0.00  0.00     0.088 A 
ATOM      4  N   UNL d   1       0.553   1.602   0.009  0.00  0.00    -0.348 N 
ATOM      5  HN  UNL d   1      -0.184   2.307  -0.025  1.00  0.00     0.166 HD
ATOM      6  C   UNL d   1       1.217  -0.717  -0.055  0.00  0.00     0.020 A 
ATOM      7  C   UNL d   1       0.230   0.302  -0.045  0.00  0.00     0.067 A 
ATOM      8  C   UNL d   1      -1.123  -0.045  -0.095  0.00  0.00     0.061 A 
ATOM      9  C   UNL d   1       0.743  -2.053  -0.209  0.00  0.00     0.016 A 
ATOM     10 CL   UNL d   1      -2.363   1.182  -0.082  0.00  0.00    -0.082 Cl
ATOM     11  C   UNL d   1      -0.616  -2.376  -0.222  0.00  0.00     0.003 A 
ATOM     12  C   UNL d   1      -1.558  -1.366  -0.152  0.00  0.00     0.026 A 
ENDROOT
BRANCH   2  13
ATOM     13  N   UNL d   1       3.641  -1.275   0.113  0.00  0.00    -0.382 N 
ATOM     14  C   UNL d   1       3.582  -2.463   0.962  0.00  0.00     0.150 C 
BRANCH  13  15
ATOM     15  C   UNL d   1       4.835  -1.146  -0.758  0.00  0.00     0.148 C 
BRANCH  15  16
ATOM     16  C   UNL d   1       6.155  -1.198   0.035  0.00  0.00     0.183 C 
BRANCH  16  17
ATOM     17  O   UNL d   1       6.483  -2.544   0.398  0.00  0.00    -0.399 OA
ATOM     18  H   UNL d   1       7.197  -2.491   1.056  0.00  0.00     0.209 HD
ENDBRANCH  16  17
ENDBRANCH  15  16
ENDBRANCH  13  15
ENDBRANCH   2  13
BRANCH   1  19
ATOM     19  C   UNL d   1       4.212   1.589   0.469  0.00  0.00     0.298 C 
ATOM     20  O   UNL d   1       4.922   2.148  -0.347  0.00  0.00    -0.259 OA
BRANCH  19  21
ATOM     21  O   UNL d   1       4.425   1.418   1.792  0.00  0.00    -0.318 OA
BRANCH  21  22
ATOM     22  C   UNL d   1       5.392   2.219   2.496  0.00  0.00     0.174 C 
ATOM     23  C   UNL d   1       6.704   2.525   1.797  0.00  0.00     0.034 C 
ENDBRANCH  21  22
ENDBRANCH  19  21
ENDBRANCH   1  19
BRANCH   3  24
ATOM     24  S   UNL d   1       2.071   3.764   0.212  0.00  0.00    -0.116 SA
ATOM     25  C   UNL d   1       0.387   4.349  -0.139  0.00  0.00     0.097 C 
ENDBRANCH   3  24
TORSDOF 8
