REMARK  1 active torsions:
REMARK  status: ('A' for Active; 'I' for Inactive)
REMARK    1  A    between atoms: N_8  and  C_7 
ROOT
ATOM      1  C   UNL d   1      -0.129  -0.712   0.037  0.00  0.00     0.103 A 
ATOM      2  C   UNL d   1      -1.214  -1.518  -0.312  0.00  0.00     0.062 A 
ATOM      3  C   UNL d   1      -0.321   0.647   0.288  0.00  0.00     0.102 A 
ATOM      4  O   UNL d   1       1.083  -1.329   0.189  0.00  0.00    -0.348 OA
ATOM      5  O   UNL d   1       0.687   1.478   0.691  0.00  0.00    -0.348 OA
ATOM      6  C   UNL d   1      -1.596   1.198   0.185  0.00  0.00     0.041 A 
ATOM      7  C   UNL d   1      -2.500  -0.980  -0.403  0.00  0.00     0.008 A 
ATOM      8  C   UNL d   1      -2.672   0.393  -0.196  0.00  0.00     0.026 A 
ATOM      9  C   UNL d   1       2.684   0.463  -0.292  0.00  0.00     0.053 C 
ATOM     10  C   UNL d   1       2.047  -0.843  -0.745  0.00  0.00     0.178 C 
ATOM     11  C   UNL d   1       1.686   1.612  -0.322  0.00  0.00     0.178 C 
ENDROOT
BRANCH   7  12
ATOM     12  N   UNL d   1      -3.553  -1.751  -0.912  0.00  0.00    -0.303 NA
ATOM     13  H   UNL d   1      -3.453  -2.745  -0.734  0.00  0.00     0.124 HD
ATOM     14  H   UNL d   1      -4.474  -1.408  -0.654  0.00  0.00     0.124 HD
ENDBRANCH   7  12
TORSDOF 1
