REMARK  6 active torsions:
REMARK  status: ('A' for Active; 'I' for Inactive)
REMARK    1  A    between atoms: N_2  and  S_1 
REMARK    2  A    between atoms: C_8  and  S_1 
REMARK    3  A    between atoms: C_3  and  N_2 
REMARK    4  A    between atoms: C_15  and  N_2 
REMARK    5  A    between atoms: C_5  and  C_3 
REMARK    6  A    between atoms: C_14  and  C_15 
ROOT
ATOM      1  N   UNL d   1       3.018  -2.690  -3.067  0.00  0.00    -0.197 NA
ATOM      2  C   UNL d   1       2.699  -1.576  -3.055  0.00  0.00     0.060 C 
ATOM      3  C   UNL d   1       2.318  -0.159  -3.037  0.00  0.00     0.139 C 
ENDROOT
BRANCH   3   4
ATOM      4  C   UNL d   1       0.846   0.046  -2.660  0.00  0.00     0.122 C 
BRANCH   4   5
ATOM      5  N   UNL d   1       0.426  -0.627  -1.380  0.00  0.00    -0.201 NA
BRANCH   5   6
ATOM      6  S   UNL d   1       1.039   0.133   0.052  0.00  0.00     0.244 S 
ATOM      7  O   UNL d   1       0.008   1.015   0.555  0.00  0.00    -0.206 OA
ATOM      8  O   UNL d   1       2.369   0.634  -0.218  0.00  0.00    -0.206 OA
BRANCH   6   9
ATOM      9  C   UNL d   1       1.251  -1.202   1.204  0.00  0.00     0.074 A 
ATOM     10  C   UNL d   1       2.107  -2.257   0.871  0.00  0.00     0.025 A 
ATOM     11  C   UNL d   1       2.429  -3.212   1.835  0.00  0.00     0.002 A 
ATOM     12  C   UNL d   1       1.901  -3.111   3.123  0.00  0.00     0.000 A 
ATOM     13  C   UNL d   1       1.034  -2.066   3.446  0.00  0.00     0.002 A 
ATOM     14  C   UNL d   1       0.703  -1.107   2.487  0.00  0.00     0.025 A 
ENDBRANCH   6   9
ENDBRANCH   5   6
BRANCH   5  15
ATOM     15  C   UNL d   1      -1.063  -0.823  -1.269  0.00  0.00     0.153 C 
BRANCH  15  16
ATOM     16  C   UNL d   1      -1.665  -1.531  -2.454  0.00  0.00    -0.004 A 
ATOM     17  S   UNL d   1      -2.844  -0.719  -3.413  0.00  0.00    -0.105 SA
ATOM     18  C   UNL d   1      -3.049  -2.072  -4.433  0.00  0.00     0.050 A 
ATOM     19  C   UNL d   1      -2.249  -3.126  -4.056  0.00  0.00     0.008 A 
ATOM     20  C   UNL d   1      -1.448  -2.815  -2.917  0.00  0.00     0.016 A 
ENDBRANCH  15  16
ENDBRANCH   5  15
ENDBRANCH   4   5
ENDBRANCH   3   4
TORSDOF 6
