REMARK  4 active torsions:
REMARK  status: ('A' for Active; 'I' for Inactive)
REMARK    1  A    between atoms: C_9  and  C_3 
REMARK    2  A    between atoms: C_7  and  C_4 
REMARK    3  A    between atoms: C_8  and  C_7 
REMARK    4  A    between atoms: O_11  and  C_8 
ROOT
ATOM      1  N   UNL d   1      -1.316  -0.941  -0.022  0.00  0.00    -0.352 N 
ATOM      2  HN  UNL d   1      -2.097  -1.598  -0.021  1.00  0.00     0.166 HD
ATOM      3  C   UNL d   1      -1.445   0.372  -0.032  0.00  0.00     0.085 A 
ATOM      4  C   UNL d   1       0.025  -1.311  -0.014  0.00  0.00     0.032 A 
ATOM      5  S   UNL d   1       0.046   1.231   0.008  0.00  0.00    -0.075 SA
ATOM      6  C   UNL d   1       0.910  -0.246   0.045  0.00  0.00     0.004 A 
ATOM      7  C   UNL d   1       2.397  -0.230   0.115  0.00  0.00     0.058 C 
ENDROOT
BRANCH   3   8
ATOM      8  C   UNL d   1      -2.733   1.087   0.007  0.00  0.00    -0.002 A 
ATOM      9  C   UNL d   1      -3.830   0.489   0.647  0.00  0.00     0.014 A 
ATOM     10  C   UNL d   1      -5.058   1.151   0.741  0.00  0.00     0.001 A 
ATOM     11  C   UNL d   1      -5.211   2.418   0.182  0.00  0.00     0.000 A 
ATOM     12  C   UNL d   1      -4.142   3.018  -0.478  0.00  0.00     0.001 A 
ATOM     13  C   UNL d   1      -2.913   2.357  -0.568  0.00  0.00     0.014 A 
ENDBRANCH   3   8
BRANCH   4  14
ATOM     14  C   UNL d   1       0.345  -2.773   0.010  0.00  0.00     0.169 C 
BRANCH  14  15
ATOM     15  C   UNL d   1       1.150  -3.243  -1.182  0.00  0.00     0.264 C 
ATOM     16  O   UNL d   1       1.748  -2.539  -1.983  0.00  0.00    -0.265 OA
BRANCH  15  17
ATOM     17  O   UNL d   1       1.177  -4.612  -1.189  0.00  0.00    -0.326 OA
ATOM     18  C   UNL d   1       1.957  -5.185  -2.242  0.00  0.00     0.213 C 
ENDBRANCH  15  17
ENDBRANCH  14  15
ENDBRANCH   4  14
TORSDOF 4
