REMARK  3 active torsions:
REMARK  status: ('A' for Active; 'I' for Inactive)
REMARK    1  A    between atoms: N_3  and  C_1 
REMARK       I    between atoms: C_2  and  N_3 
REMARK       I    between atoms: N_7  and  C_2 
REMARK    2  A    between atoms: C_8  and  N_3 
REMARK    3  A    between atoms: C_14  and  N_7 
ROOT
ATOM      1  C   UNL d   1       4.156  -0.153   0.487  0.00  0.00     0.333 C 
ATOM      2  N   UNL d   1       2.935   0.587   0.265  0.00  0.00    -0.244 N 
ATOM      3  N   UNL d   1       4.071  -1.498   0.158  0.00  0.00    -0.308 N 
ATOM      4  O   UNL d   1       5.185   0.349   0.932  0.00  0.00    -0.246 OA
ATOM      5  H   UNL d   1       3.139  -1.846  -0.010  0.00  0.00     0.170 HD
ENDROOT
BRANCH   2   6
ATOM      6  C   UNL d   1       1.639   0.046   0.098  0.00  0.00     0.152 C 
ATOM      7  N   UNL d   1       0.661   0.657  -0.490  0.00  0.00    -0.369 N 
ATOM      8  C   UNL d   1      -0.579  -0.146  -0.431  0.00  0.00     0.142 C 
ATOM      9  HN  UNL d   1       0.736   1.571  -0.936  1.00  0.00     0.161 HD
ATOM     10  C   UNL d   1      -0.227  -1.631  -0.348  0.00  0.00     0.024 C 
ATOM     11  S   UNL d   1       1.264  -1.567   0.680  0.00  0.00    -0.083 SA
ATOM     12  C   UNL d   1       0.103  -2.212  -1.727  0.00  0.00     0.029 C 
ATOM     13  C   UNL d   1      -1.295  -2.463   0.353  0.00  0.00     0.029 C 
ENDBRANCH   2   6
BRANCH   2  14
ATOM     14  C   UNL d   1       3.033   2.050   0.315  0.00  0.00     0.046 A 
ATOM     15  C   UNL d   1       4.200   2.734  -0.076  0.00  0.00     0.032 A 
ATOM     16  C   UNL d   1       4.300   4.134   0.019  0.00  0.00     0.026 A 
ATOM     17  C   UNL d   1       3.225   4.877   0.493  0.00  0.00     0.034 A 
ATOM     18  C   UNL d   1       2.049   4.236   0.871  0.00  0.00     0.026 A 
ATOM     19 CL   UNL d   1       3.345   6.587   0.622  0.00  0.00    -0.084 Cl
ATOM     20  C   UNL d   1       1.966   2.837   0.784  0.00  0.00     0.032 A 
ENDBRANCH   2  14
BRANCH   3  21
ATOM     21  C   UNL d   1       5.062  -2.499   0.191  0.00  0.00     0.036 A 
ATOM     22  C   UNL d   1       6.417  -2.265   0.413  0.00  0.00     0.029 A 
ATOM     23  C   UNL d   1       7.333  -3.321   0.343  0.00  0.00     0.002 A 
ATOM     24  C   UNL d   1       6.900  -4.616   0.061  0.00  0.00     0.000 A 
ATOM     25  C   UNL d   1       5.545  -4.865  -0.126  0.00  0.00     0.002 A 
ATOM     26  C   UNL d   1       4.632  -3.812  -0.058  0.00  0.00     0.029 A 
ENDBRANCH   3  21
TORSDOF 3
