REMARK  5 active torsions:
REMARK  status: ('A' for Active; 'I' for Inactive)
REMARK    1  A    between atoms: CA_1  and  C_2 
REMARK    2  A    between atoms: N_3  and  CA_1 
REMARK    3  A    between atoms: CB_5  and  CA_1 
REMARK    4  A    between atoms: OXT_6  and  C_2 
REMARK       I    between atoms: C3_12  and  N_3 
REMARK    5  A    between atoms: CG_7  and  CB_5 
ROOT
ATOM      1  CA  LEU d   1       0.908  -0.019  -0.089  0.00  0.00     0.182 C 
ENDROOT
BRANCH   1   2
ATOM      2  C   LEU d   1       0.376   0.085  -1.531  0.00  0.00     0.163 C 
ATOM      3  O   LEU d   1      -0.641   0.678  -1.861  0.00  0.00    -0.648 OA
BRANCH   2   4
ATOM      4  OXT LEU d   1       1.142  -0.578  -2.436  0.00  0.00    -0.775 OA
ATOM      5  HXT LEU d   1       1.790  -1.186  -1.999  0.00  0.00     0.167 HD
ENDBRANCH   2   4
ENDBRANCH   1   2
BRANCH   1   6
ATOM      6  N   LEU d   1       0.538  -1.310   0.484  0.00  0.00    -0.347 N 
ATOM      7  C3  <1> d   1       1.146  -2.467   0.074  0.00  0.00     0.214 C 
ATOM      8  O2  <1> d   1       1.994  -2.468  -0.820  0.00  0.00    -0.274 OA
ATOM      9  C6  <1> d   1       0.663  -3.717   0.756  0.00  0.00     0.117 C 
ATOM     10  H   LEU d   1      -0.219  -1.348   1.156  0.00  0.00     0.163 HD
ENDBRANCH   1   6
BRANCH   1  11
ATOM     11  CB  LEU d   1       0.360   1.149   0.745  0.00  0.00     0.040 C 
BRANCH  11  12
ATOM     12  CG  LEU d   1       0.853   1.211   2.202  0.00  0.00    -0.020 C 
ATOM     13  CD1 LEU d   1       2.375   1.345   2.301  0.00  0.00     0.009 C 
ATOM     14  CD2 LEU d   1       0.181   2.384   2.917  0.00  0.00     0.009 C 
ENDBRANCH  11  12
ENDBRANCH   1  11
TORSDOF 5
