REMARK  5 active torsions:
REMARK  status: ('A' for Active; 'I' for Inactive)
REMARK    1  A    between atoms: C_6  and  C_2 
REMARK       I    between atoms: C_11  and  N_3 
REMARK    2  A    between atoms: C_21  and  C_11 
REMARK    3  A    between atoms: C_12  and  S_20 
REMARK    4  A    between atoms: C_13  and  C_16 
REMARK    5  A    between atoms: S_20  and  C_21 
ROOT
ATOM      1  C   UNL d   1       1.021  -0.739   0.077  0.00  0.00     0.049 A 
ATOM      2  C   UNL d   1       2.438  -1.263   0.096  0.00  0.00     0.245 C 
ATOM      3  N   UNL d   1       3.346  -0.124  -0.251  0.00  0.00    -0.333 N 
ATOM      4  C   UNL d   1       0.611   0.576  -0.020  0.00  0.00    -0.019 A 
ATOM      5  N   UNL d   1      -0.099  -1.525   0.135  0.00  0.00    -0.356 N 
ATOM      6  C   UNL d   1      -0.811   0.592   0.002  0.00  0.00    -0.001 A 
ATOM      7  C   UNL d   1      -1.230  -0.737   0.090  0.00  0.00     0.043 A 
ATOM      8  C   UNL d   1       4.622  -0.482  -0.700  0.00  0.00     0.230 C 
ATOM      9  C   UNL d   1       2.992   1.215   0.276  0.00  0.00     0.131 C 
ATOM     10  C   UNL d   1       1.590   1.684  -0.159  0.00  0.00     0.061 C 
ATOM     11  O   UNL d   1       4.912  -1.670  -0.830  0.00  0.00    -0.273 OA
ATOM     12  C   UNL d   1      -1.790   1.605  -0.053  0.00  0.00     0.014 A 
ATOM     13  C   UNL d   1      -2.580  -1.105   0.115  0.00  0.00     0.030 A 
ATOM     14  C   UNL d   1      -3.145   1.255  -0.028  0.00  0.00     0.001 A 
ATOM     15  C   UNL d   1      -3.532  -0.083   0.052  0.00  0.00     0.002 A 
ATOM     16  H   UNL d   1      -0.119  -2.535   0.208  0.00  0.00     0.166 HD
ENDROOT
BRANCH   2  17
ATOM     17  C   UNL d   1       2.817  -2.018   1.409  0.00  0.00     0.413 C 
ATOM     18  F   UNL d   1       1.789  -2.052   2.297  0.00  0.00    -0.168 F 
ATOM     19  F   UNL d   1       3.137  -3.311   1.156  0.00  0.00    -0.168 F 
ATOM     20  F   UNL d   1       3.863  -1.451   2.056  0.00  0.00    -0.168 F 
ENDBRANCH   2  17
BRANCH   8  21
ATOM     21  C   UNL d   1       5.558   0.655  -1.088  0.00  0.00     0.185 C 
BRANCH  21  22
ATOM     22  S   UNL d   1       7.224   0.091  -1.561  0.00  0.00    -0.085 SA
BRANCH  22  23
ATOM     23  C   UNL d   1       7.807   1.585  -2.323  0.00  0.00     0.145 A 
ATOM     24  N   UNL d   1       7.110   2.708  -2.108  0.00  0.00    -0.336 N 
ATOM     25  C   UNL d   1       7.455   3.792  -2.830  0.00  0.00     0.052 A 
ATOM     26  HN  UNL d   1       6.352   2.742  -1.426  1.00  0.00     0.168 HD
ATOM     27  C   UNL d   1       8.514   3.794  -3.712  0.00  0.00     0.048 A 
ATOM     28  C   UNL d   1       9.196   2.606  -3.822  0.00  0.00     0.092 A 
ATOM     29  N   UNL d   1       8.860   1.490  -3.149  0.00  0.00    -0.347 N 
ATOM     30  HN  UNL d   1       9.378   0.619  -3.260  1.00  0.00     0.167 HD
BRANCH  25  31
ATOM     31  C   UNL d   1       6.549   4.926  -2.626  0.00  0.00     0.031 A 
ATOM     32  S   UNL d   1       6.096   5.942  -3.934  0.00  0.00    -0.100 SA
ATOM     33  C   UNL d   1       5.000   6.825  -2.965  0.00  0.00     0.050 A 
ATOM     34  C   UNL d   1       4.990   6.382  -1.662  0.00  0.00     0.008 A 
ATOM     35  C   UNL d   1       5.882   5.290  -1.468  0.00  0.00     0.021 A 
ENDBRANCH  25  31
ENDBRANCH  22  23
ENDBRANCH  21  22
ENDBRANCH   8  21
TORSDOF 5
