REMARK  3 active torsions:
REMARK  status: ('A' for Active; 'I' for Inactive)
REMARK    1  A    between atoms: C_3  and  C_1 
REMARK    2  A    between atoms: C_12  and  N_2 
REMARK    3  A    between atoms: S_18  and  C_6 
ROOT
ATOM      1  C   UNL d   1      -0.123  -1.328  -0.010  0.00  0.00     0.145 A 
ATOM      2  N   UNL d   1       1.095  -0.682  -0.022  0.00  0.00    -0.306 N 
ATOM      3  N   UNL d   1      -1.075  -0.410  -0.014  0.00  0.00    -0.282 N 
ATOM      4  HN  UNL d   1      -2.077  -0.592  -0.065  1.00  0.00     0.188 HD
ATOM      5  C   UNL d   1       0.813   0.656   0.089  0.00  0.00     0.160 A 
ATOM      6  N   UNL d   1      -0.487   0.831   0.061  0.00  0.00    -0.278 N 
ATOM      7  HN  UNL d   1      -0.975   1.727   0.090  1.00  0.00     0.189 HD
ENDROOT
BRANCH   1   8
ATOM      8  C   UNL d   1      -0.405  -2.726   0.061  0.00  0.00     0.092 A 
ATOM      9  C   UNL d   1      -1.464  -3.441  -0.493  0.00  0.00     0.044 A 
ATOM     10  N   UNL d   1      -1.460  -4.804  -0.198  0.00  0.00    -0.298 N 
ATOM     11  C   UNL d   1      -2.578  -2.941  -1.339  0.00  0.00     0.071 C 
ATOM     12  N   UNL d   1      -0.464  -5.137   0.599  0.00  0.00    -0.269 N 
ATOM     13  HN  UNL d   1      -2.149  -5.466  -0.556  1.00  0.00     0.187 HD
ATOM     14  S   UNL d   1       0.474  -3.833   1.039  0.00  0.00     0.007 SA
ATOM     15  HN  UNL d   1      -0.286  -6.092   0.912  1.00  0.00     0.195 HD
ENDBRANCH   1   8
BRANCH   2  16
ATOM     16  C   UNL d   1       2.412  -1.269  -0.082  0.00  0.00     0.094 A 
ATOM     17  C   UNL d   1       3.351  -1.055  -1.244  0.00  0.00     0.028 A 
ATOM     18  C   UNL d   1       2.813  -2.431  -0.952  0.00  0.00     0.028 A 
ENDBRANCH   2  16
BRANCH   5  19
ATOM     19  S   UNL d   1       1.975   1.931   0.203  0.00  0.00    -0.105 SA
ATOM     20  H   UNL d   1       3.105   1.241   0.012  0.00  0.00     0.110 HD
ENDBRANCH   5  19
TORSDOF 3
