REMARK  4 active torsions:
REMARK  status: ('A' for Active; 'I' for Inactive)
REMARK    1  A    between atoms: C_2  and  C_1 
REMARK       I    between atoms: N_3  and  C_1 
REMARK    2  A    between atoms: C_4  and  C_10 
REMARK    3  A    between atoms: O_16  and  C_4 
REMARK    4  A    between atoms: C_20  and  O_16 
ROOT
ATOM      1  C   UNL d   1       0.839  -0.318  -0.378  0.00  0.00     0.258 C 
ATOM      2  N   UNL d   1       0.336   0.762  -1.104  0.00  0.00    -0.348 N 
ATOM      3  O   UNL d   1       0.318  -0.744   0.650  0.00  0.00    -0.267 OA
ATOM      4  C   UNL d   1      -0.848   1.455  -0.607  0.00  0.00     0.127 C 
ATOM      5  C   UNL d   1       0.759   1.175  -2.441  0.00  0.00     0.127 C 
ATOM      6  C   UNL d   1      -1.685   1.594  -3.003  0.00  0.00     0.088 C 
ATOM      7  C   UNL d   1      -2.030   1.229  -1.548  0.00  0.00     0.034 C 
ATOM      8  C   UNL d   1      -0.376   0.906  -3.436  0.00  0.00     0.034 C 
ENDROOT
BRANCH   1   9
ATOM      9  C   UNL d   1       2.080  -0.977  -0.816  0.00  0.00     0.092 A 
ATOM     10  C   UNL d   1       3.249  -0.888  -0.053  0.00  0.00     0.052 A 
ATOM     11 CL   UNL d   1       3.348   0.037   1.403  0.00  0.00    -0.083 Cl
ATOM     12  C   UNL d   1       4.411  -1.547  -0.477  0.00  0.00     0.025 A 
ATOM     13  C   UNL d   1       4.410  -2.288  -1.661  0.00  0.00     0.005 A 
ATOM     14  C   UNL d   1       3.241  -2.392  -2.409  0.00  0.00     0.043 A 
ATOM     15  C   UNL d   1       2.080  -1.757  -1.972  0.00  0.00     0.133 A 
ATOM     16  F   UNL d   1       0.968  -1.894  -2.708  0.00  0.00    -0.205 F 
ENDBRANCH   1   9
BRANCH   6  17
ATOM     17  C   UNL d   1      -1.581   3.099  -3.206  0.00  0.00     0.263 C 
ATOM     18  O   UNL d   1      -0.628   3.665  -3.719  0.00  0.00    -0.265 OA
BRANCH  17  19
ATOM     19  O   UNL d   1      -2.699   3.725  -2.747  0.00  0.00    -0.322 OA
BRANCH  19  20
ATOM     20  C   UNL d   1      -2.649   5.158  -2.757  0.00  0.00     0.174 C 
ATOM     21  C   UNL d   1      -2.024   5.641  -1.460  0.00  0.00     0.034 C 
ENDBRANCH  19  20
ENDBRANCH  17  19
ENDBRANCH   6  17
TORSDOF 4
