REMARK  5 active torsions:
REMARK  status: ('A' for Active; 'I' for Inactive)
REMARK    1  A    between atoms: N_4  and  C_1 
REMARK    2  A    between atoms: N_2  and  N_4 
REMARK    3  A    between atoms: C_5  and  N_2 
REMARK    4  A    between atoms: C_7  and  C_5 
REMARK    5  A    between atoms: O_14  and  C_11 
ROOT
ATOM      1  C   UNL d   1       0.460   2.722  -2.444  0.00  0.00     0.032 C 
ATOM      2  C   UNL d   1       1.155   3.665  -3.412  0.00  0.00     0.070 C 
ENDROOT
BRANCH   1   3
ATOM      3  N   UNL d   1       1.064   1.886  -1.642  0.00  0.00    -0.302 N 
ATOM      4  HN  UNL d   1       0.519   1.291  -1.018  1.00  0.00     0.186 HD
BRANCH   3   5
ATOM      5  N   UNL d   1       2.425   1.812  -1.644  0.00  0.00    -0.276 N 
ATOM      6  H   UNL d   1       2.990   2.369  -2.272  0.00  0.00     0.189 HD
BRANCH   5   7
ATOM      7  C   UNL d   1       3.121   0.976  -0.801  0.00  0.00     0.186 C 
ATOM      8  S   UNL d   1       4.787   0.966  -0.870  0.00  0.00    -0.040 SA
ATOM      9  N   UNL d   1       2.326   0.230   0.022  0.00  0.00    -0.370 N 
ATOM     10  C   UNL d   1       2.720  -0.748   1.010  0.00  0.00     0.148 C 
ATOM     11  H   UNL d   1       1.339   0.413  -0.133  0.00  0.00     0.161 HD
ENDBRANCH   5   7
ENDBRANCH   3   5
ENDBRANCH   1   3
BRANCH   1  12
ATOM     12  C   UNL d   1      -1.049   2.767  -2.424  0.00  0.00    -0.012 A 
ATOM     13  C   UNL d   1      -1.756   1.962  -1.520  0.00  0.00     0.016 A 
ATOM     14  C   UNL d   1      -3.158   1.987  -1.475  0.00  0.00     0.037 A 
ATOM     15  C   UNL d   1      -3.872   2.819  -2.335  0.00  0.00     0.068 A 
ATOM     16  C   UNL d   1      -3.174   3.618  -3.240  0.00  0.00     0.037 A 
ATOM     17  C   UNL d   1      -1.776   3.594  -3.289  0.00  0.00     0.016 A 
BRANCH  15  18
ATOM     18  O   UNL d   1      -5.232   2.944  -2.396  0.00  0.00    -0.356 OA
ATOM     19  C   UNL d   1      -5.992   2.173  -1.474  0.00  0.00     0.210 C 
ENDBRANCH  15  18
ENDBRANCH   1  12
TORSDOF 5
