REMARK  3 active torsions:
REMARK  status: ('A' for Active; 'I' for Inactive)
REMARK    1  A    between atoms: C_2  and  C_9 
REMARK    2  A    between atoms: N_10  and  N_3 
REMARK    3  A    between atoms: C_11  and  N_10 
ROOT
ATOM      1  N   UNL d   1      -2.664   2.035   2.049  0.00  0.00    -0.286 N 
ATOM      2  H   UNL d   1      -3.310   1.247   2.019  0.00  0.00     0.188 HD
ENDROOT
BRANCH   1   3
ATOM      3  N   UNL d   1      -1.321   1.817   2.042  0.00  0.00    -0.307 N 
ATOM      4  C   UNL d   1      -0.828   1.008   1.156  0.00  0.00     0.012 C 
ATOM      5  C   UNL d   1       0.682   0.782   1.143  0.00  0.00     0.034 C 
ATOM      6  C   UNL d   1      -1.581   0.265   0.060  0.00  0.00     0.034 C 
ATOM      7  C   UNL d   1       0.933  -0.723   1.298  0.00  0.00     0.015 C 
ATOM      8  C   UNL d   1       1.203   1.268  -0.216  0.00  0.00     0.015 C 
ATOM      9  C   UNL d   1       0.234  -1.496   0.163  0.00  0.00    -0.013 C 
ATOM     10  C   UNL d   1      -1.283  -1.233   0.240  0.00  0.00     0.015 C 
ATOM     11  C   UNL d   1       0.769  -1.006  -1.194  0.00  0.00     0.009 C 
ATOM     12  C   UNL d   1       0.503   0.500  -1.356  0.00  0.00    -0.013 C 
ATOM     13  C   UNL d   1      -1.016   0.761  -1.281  0.00  0.00     0.015 C 
ATOM     14  HN  UNL d   1      -0.715   2.279   2.720  1.00  0.00     0.186 HD
ENDBRANCH   1   3
BRANCH   1  15
ATOM     15  C   UNL d   1      -3.157   2.973   2.983  0.00  0.00     0.120 A 
ATOM     16  N   UNL d   1      -4.404   2.783   3.471  0.00  0.00    -0.338 N 
ATOM     17  C   UNL d   1      -4.891   3.683   4.382  0.00  0.00     0.118 A 
ATOM     18  HN  UNL d   1      -4.969   1.988   3.169  1.00  0.00     0.167 HD
ATOM     19  C   UNL d   1      -4.146   4.785   4.809  0.00  0.00     0.034 A 
ATOM     20  C   UNL d   1      -2.878   4.980   4.286  0.00  0.00     0.006 A 
ATOM     21  C   UNL d   1      -2.383   4.069   3.360  0.00  0.00     0.050 A 
BRANCH  17  22
ATOM     22  C   UNL d   1      -6.284   3.500   4.973  0.00  0.00     0.432 C 
ATOM     23  F   UNL d   1      -6.965   2.417   4.498  0.00  0.00    -0.165 F 
ATOM     24  F   UNL d   1      -6.258   3.354   6.331  0.00  0.00    -0.165 F 
ATOM     25  F   UNL d   1      -7.094   4.576   4.742  0.00  0.00    -0.165 F 
ENDBRANCH  17  22
ENDBRANCH   1  15
TORSDOF 3
