REMARK  8 active torsions:
REMARK  status: ('A' for Active; 'I' for Inactive)
REMARK    1  A    between atoms: C_6  and  C_1 
REMARK    2  A    between atoms: C_8  and  C_2 
REMARK    3  A    between atoms: C_9  and  N_3 
REMARK       I    between atoms: N_19  and  C_8 
REMARK    4  A    between atoms: C_10  and  C_21 
REMARK    5  A    between atoms: C_24  and  N_19 
REMARK    6  A    between atoms: S_20  and  C_25 
REMARK    7  A    between atoms: C_21  and  S_20 
REMARK    8  A    between atoms: C_25  and  C_24 
ROOT
ATOM      1  C   UNL d   1      -1.052  -0.097  -0.521  0.00  0.00     0.157 C 
ATOM      2  C   UNL d   1      -0.401  -1.226  -0.030  0.00  0.00     0.082 C 
ATOM      3  N   UNL d   1      -0.219   0.983  -0.272  0.00  0.00    -0.251 N 
ATOM      4  N   UNL d   1       0.990   0.568   0.188  0.00  0.00    -0.303 N 
ATOM      5  HN  UNL d   1       1.820   1.137   0.352  1.00  0.00     0.186 HD
ATOM      6  C   UNL d   1       0.856  -0.741   0.377  0.00  0.00     0.127 C 
ENDROOT
BRANCH   2   7
ATOM      7  C   UNL d   1      -0.789  -2.630  -0.020  0.00  0.00     0.255 C 
ATOM      8  O   UNL d   1       0.043  -3.523   0.050  0.00  0.00    -0.268 OA
ATOM      9  N   UNL d   1      -2.138  -2.880  -0.056  0.00  0.00    -0.356 N 
ATOM     10  H   UNL d   1      -2.803  -2.134   0.090  0.00  0.00     0.162 HD
BRANCH   9  11
ATOM     11  C   UNL d   1      -2.679  -4.228  -0.073  0.00  0.00     0.133 C 
BRANCH  11  12
ATOM     12  C   UNL d   1      -2.920  -4.785   1.331  0.00  0.00     0.094 C 
BRANCH  12  13
ATOM     13  S   UNL d   1      -4.141  -3.735   2.190  0.00  0.00    -0.161 SA
BRANCH  13  14
ATOM     14  C   UNL d   1      -4.226  -4.617   3.784  0.00  0.00     0.139 C 
BRANCH  14  15
ATOM     15  C   UNL d   1      -5.167  -3.904   4.685  0.00  0.00     0.061 A 
ATOM     16  O   UNL d   1      -6.271  -4.594   5.094  0.00  0.00    -0.326 OA
ATOM     17  C   UNL d   1      -7.009  -3.745   5.854  0.00  0.00     0.142 A 
ATOM     18  C   UNL d   1      -6.391  -2.521   5.951  0.00  0.00     0.027 A 
ATOM     19  C   UNL d   1      -5.192  -2.626   5.209  0.00  0.00     0.035 A 
ENDBRANCH  14  15
ENDBRANCH  13  14
ENDBRANCH  12  13
ENDBRANCH  11  12
ENDBRANCH   9  11
ENDBRANCH   2   7
BRANCH   1  20
ATOM     20  C   UNL d   1      -2.284   0.042  -1.313  0.00  0.00     0.435 C 
ATOM     21  F   UNL d   1      -2.707  -1.137  -1.835  0.00  0.00    -0.165 F 
ATOM     22  F   UNL d   1      -3.318   0.494  -0.561  0.00  0.00    -0.165 F 
ATOM     23  F   UNL d   1      -2.144   0.878  -2.368  0.00  0.00    -0.165 F 
ENDBRANCH   1  20
BRANCH   3  24
ATOM     24  C   UNL d   1      -0.430   2.383  -0.455  0.00  0.00     0.057 A 
ATOM     25  C   UNL d   1      -1.696   2.966  -0.336  0.00  0.00     0.031 A 
ATOM     26  C   UNL d   1      -1.868   4.332  -0.580  0.00  0.00     0.002 A 
ATOM     27  C   UNL d   1      -0.778   5.128  -0.923  0.00  0.00     0.000 A 
ATOM     28  C   UNL d   1       0.495   4.566  -0.992  0.00  0.00     0.002 A 
ATOM     29  C   UNL d   1       0.673   3.202  -0.746  0.00  0.00     0.031 A 
ENDBRANCH   3  24
TORSDOF 8
