REMARK  5 active torsions:
REMARK  status: ('A' for Active; 'I' for Inactive)
REMARK    1  A    between atoms: C_3  and  C_1 
REMARK    2  A    between atoms: C_15  and  N_2 
REMARK    3  A    between atoms: C_16  and  C_8 
REMARK    4  A    between atoms: N_17  and  C_11 
REMARK    5  A    between atoms: N_18  and  C_16 
ROOT
ATOM      1  C   UNL d   1      -0.481  -2.828   0.176  0.00  0.00     0.050 A 
ATOM      2  C   UNL d   1      -0.999  -3.389  -0.984  0.00  0.00     0.055 A 
ATOM      3  N   UNL d   1      -1.139  -4.739  -1.135  0.00  0.00    -0.334 N 
ATOM      4  HN  UNL d   1      -1.492  -5.136  -2.006  1.00  0.00     0.168 HD
ATOM      5  C   UNL d   1      -0.801  -5.523  -0.112  0.00  0.00     0.154 A 
ATOM      6  N   UNL d   1      -0.410  -5.078   1.077  0.00  0.00    -0.342 N 
ATOM      7  HN  UNL d   1      -0.224  -5.710   1.855  1.00  0.00     0.167 HD
ATOM      8  C   UNL d   1      -0.273  -3.741   1.195  0.00  0.00     0.108 A 
ENDROOT
BRANCH   1   9
ATOM      9  C   UNL d   1      -0.219  -1.403   0.370  0.00  0.00     0.152 A 
ATOM     10  N   UNL d   1       0.840  -0.818   1.077  0.00  0.00    -0.224 N 
ATOM     11  N   UNL d   1       0.553   0.497   1.242  0.00  0.00     0.001 NA
ATOM     12  N   UNL d   1      -0.542   0.728   0.542  0.00  0.00    -0.007 NA
ATOM     13  N   UNL d   1      -1.040  -0.428   0.016  0.00  0.00    -0.269 N 
ATOM     14  HN  UNL d   1      -1.886  -0.523  -0.546  1.00  0.00     0.185 HD
BRANCH  10  15
ATOM     15  C   UNL d   1       2.016  -1.375   1.652  0.00  0.00     0.056 A 
ATOM     16  C   UNL d   1       2.607  -2.539   1.145  0.00  0.00     0.031 A 
ATOM     17  C   UNL d   1       3.698  -3.114   1.805  0.00  0.00     0.002 A 
ATOM     18  C   UNL d   1       4.213  -2.524   2.958  0.00  0.00     0.000 A 
ATOM     19  C   UNL d   1       3.662  -1.339   3.438  0.00  0.00     0.002 A 
ATOM     20  C   UNL d   1       2.577  -0.754   2.781  0.00  0.00     0.031 A 
ENDBRANCH  10  15
ENDBRANCH   1   9
BRANCH   2  21
ATOM     21  C   UNL d   1      -1.516  -2.572  -2.157  0.00  0.00     0.329 C 
BRANCH  21  22
ATOM     22  N   UNL d   1      -0.512  -1.769  -2.882  0.00  0.00     0.085 N 
ATOM     23  C   UNL d   1       0.498  -2.610  -3.526  0.00  0.00     0.309 C 
ATOM     24  C   UNL d   1      -1.199  -0.962  -3.898  0.00  0.00     0.309 C 
ENDBRANCH  21  22
ENDBRANCH   2  21
BRANCH   5  25
ATOM     25  N   UNL d   1      -0.908  -6.885  -0.280  0.00  0.00    -0.274 NA
ATOM     26  H   UNL d   1      -1.021  -7.332   0.619  0.00  0.00     0.127 HD
ATOM     27  H   UNL d   1      -1.594  -7.093  -0.992  0.00  0.00     0.127 HD
ENDBRANCH   5  25
TORSDOF 5
