REMARK  1 active torsions:
REMARK  status: ('A' for Active; 'I' for Inactive)
REMARK    1  A    between atoms: C_9  and  N_1 
ROOT
ATOM      1  N   UNL d   1       2.351  -0.741   0.002  0.00  0.00    -0.220 N 
ATOM      2  C   UNL d   1       1.165  -1.496   0.000  0.00  0.00     0.278 A 
ATOM      3  N   UNL d   1       2.367   0.641   0.124  0.00  0.00    -0.301 N 
ATOM      4  HN  UNL d   1       3.252   1.144   0.201  1.00  0.00     0.186 HD
ATOM      5  C   UNL d   1      -0.100  -0.735   0.008  0.00  0.00     0.045 A 
ATOM      6  C   UNL d   1       1.244   1.281   0.139  0.00  0.00     0.120 A 
ATOM      7  O   UNL d   1       1.071  -2.723   0.006  0.00  0.00    -0.265 OA
ATOM      8  C   UNL d   1      -0.061   0.647   0.047  0.00  0.00    -0.004 A 
ATOM      9  C   UNL d   1      -1.337  -1.389  -0.042  0.00  0.00     0.018 A 
ATOM     10  C   UNL d   1      -1.234   1.405   0.013  0.00  0.00     0.014 A 
ATOM     11  C   UNL d   1      -2.517  -0.645  -0.072  0.00  0.00     0.001 A 
ATOM     12  C   UNL d   1      -2.465   0.751  -0.053  0.00  0.00     0.001 A 
ENDROOT
BRANCH   1  13
ATOM     13  C   UNL d   1       3.655  -1.329  -0.131  0.00  0.00     0.060 A 
ATOM     14  C   UNL d   1       3.844  -2.606  -0.682  0.00  0.00     0.031 A 
ATOM     15  C   UNL d   1       5.123  -3.159  -0.818  0.00  0.00     0.002 A 
ATOM     16  C   UNL d   1       6.239  -2.449  -0.396  0.00  0.00     0.000 A 
ATOM     17  C   UNL d   1       6.081  -1.178   0.148  0.00  0.00     0.002 A 
ATOM     18  C   UNL d   1       4.802  -0.620   0.267  0.00  0.00     0.031 A 
ENDBRANCH   1  13
TORSDOF 1
