REMARK  5 active torsions:
REMARK  status: ('A' for Active; 'I' for Inactive)
REMARK    1  A    between atoms: C_3  and  S_1 
REMARK    2  A    between atoms: C_5  and  S_1 
REMARK    3  A    between atoms: C_2  and  C_8 
REMARK    4  A    between atoms: C_9  and  C_3 
REMARK    5  A    between atoms: N_4  and  C_9 
ROOT
ATOM      1  C   UNL d   1       0.485   0.074   1.488  0.00  0.00     0.176 C 
ENDROOT
BRANCH   1   2
ATOM      2  S   UNL d   1       1.186  -0.126  -0.136  0.00  0.00     0.177 S 
ATOM      3  O   UNL d   1       0.606  -1.314  -0.738  0.00  0.00    -0.223 OA
ATOM      4  O   UNL d   1       2.624   0.029  -0.043  0.00  0.00    -0.223 OA
BRANCH   2   5
ATOM      5  C   UNL d   1       0.560   1.279  -1.032  0.00  0.00     0.059 A 
ATOM      6  C   UNL d   1       1.291   2.469  -1.040  0.00  0.00     0.024 A 
ATOM      7  C   UNL d   1       0.843   3.545  -1.808  0.00  0.00     0.008 A 
ATOM      8  C   UNL d   1      -0.325   3.433  -2.577  0.00  0.00    -0.062 A 
ATOM      9  C   UNL d   1      -1.053   2.236  -2.550  0.00  0.00     0.008 A 
ATOM     10  C   UNL d   1      -0.757   4.578  -3.447  0.00  0.00     0.048 C 
ATOM     11  C   UNL d   1      -0.611   1.156  -1.782  0.00  0.00     0.024 A 
ENDBRANCH   2   5
ENDBRANCH   1   2
BRANCH   1  12
ATOM     12  C   UNL d   1       0.926  -1.074   2.392  0.00  0.00     0.287 C 
BRANCH  12  13
ATOM     13  N   UNL d   1       0.424  -0.965   3.784  0.00  0.00     0.089 N 
ATOM     14  C   UNL d   1      -1.041  -1.079   3.842  0.00  0.00     0.273 C 
ATOM     15  C   UNL d   1      -1.556  -0.998   5.280  0.00  0.00     0.043 C 
ATOM     16  C   UNL d   1      -0.919  -2.057   6.185  0.00  0.00     0.097 C 
ATOM     17  C   UNL d   1       0.605  -1.943   6.070  0.00  0.00     0.043 C 
ATOM     18  C   UNL d   1       1.081  -1.992   4.616  0.00  0.00     0.273 C 
BRANCH  16  19
ATOM     19  C   UNL d   1      -1.434  -3.469   5.896  0.00  0.00     0.391 C 
ATOM     20  F   UNL d   1      -2.376  -3.491   4.928  0.00  0.00    -0.171 F 
ATOM     21  F   UNL d   1      -0.453  -4.320   5.526  0.00  0.00    -0.171 F 
ATOM     22  F   UNL d   1      -2.005  -3.989   7.009  0.00  0.00    -0.171 F 
ENDBRANCH  16  19
ENDBRANCH  12  13
ENDBRANCH   1  12
TORSDOF 5
