REMARK  9 active torsions:
REMARK  status: ('A' for Active; 'I' for Inactive)
REMARK    1  A    between atoms: N_2  and  C_1 
REMARK    2  A    between atoms: C_3  and  C_1 
REMARK    3  A    between atoms: C_4  and  C_1 
REMARK    4  A    between atoms: N_5  and  C_1 
REMARK       I    between atoms: C_6  and  N_2 
REMARK    5  A    between atoms: C_8  and  N_5 
REMARK    6  A    between atoms: O_11  and  C_6 
REMARK    7  A    between atoms: C_9  and  C_7 
REMARK    8  A    between atoms: O_19  and  C_9 
REMARK    9  A    between atoms: C_22  and  O_11 
ROOT
ATOM      1  C   UNL d   1       0.879  -0.096   0.217  0.00  0.00     0.308 C 
ENDROOT
BRANCH   1   2
ATOM      2  N   UNL d   1       0.346   1.226   0.552  0.00  0.00    -0.295 N 
ATOM      3  C   UNL d   1      -0.981   1.479   0.576  0.00  0.00     0.363 C 
ATOM      4  O   UNL d   1      -1.825   0.632   0.317  0.00  0.00    -0.238 OA
ATOM      5  H   UNL d   1       0.972   1.983   0.782  0.00  0.00     0.168 HD
BRANCH   3   6
ATOM      6  O   UNL d   1      -1.180   2.776   0.871  0.00  0.00    -0.299 OA
BRANCH   6   7
ATOM      7  C   UNL d   1      -2.514   3.288   0.688  0.00  0.00     0.125 C 
ATOM      8  C   UNL d   1      -3.391   2.962   1.891  0.00  0.00     0.040 C 
ATOM      9  C   UNL d   1      -2.387   4.799   0.518  0.00  0.00     0.040 C 
ENDBRANCH   6   7
ENDBRANCH   3   6
ENDBRANCH   1   2
BRANCH   1  10
ATOM     10  C   UNL d   1       0.447  -0.602  -1.221  0.00  0.00     0.441 C 
ATOM     11  F   UNL d   1      -0.154   0.391  -1.932  0.00  0.00    -0.166 F 
ATOM     12  F   UNL d   1       1.563  -0.917  -1.945  0.00  0.00    -0.166 F 
ATOM     13  F   UNL d   1      -0.352  -1.677  -1.285  0.00  0.00    -0.166 F 
ENDBRANCH   1  10
BRANCH   1  14
ATOM     14  C   UNL d   1       0.495  -1.245   1.220  0.00  0.00     0.441 C 
ATOM     15  F   UNL d   1       0.145  -0.739   2.436  0.00  0.00    -0.166 F 
ATOM     16  F   UNL d   1      -0.531  -2.038   0.857  0.00  0.00    -0.166 F 
ATOM     17  F   UNL d   1       1.555  -2.067   1.452  0.00  0.00    -0.166 F 
ENDBRANCH   1  14
BRANCH   1  18
ATOM     18  N   UNL d   1       2.385   0.193   0.182  0.00  0.00    -0.348 N 
ATOM     19  H   UNL d   1       2.659   0.524  -0.751  0.00  0.00     0.162 HD
BRANCH  18  20
ATOM     20  C   UNL d   1       3.224   0.641   1.199  0.00  0.00     0.047 A 
ATOM     21  C   UNL d   1       4.600   0.890   0.954  0.00  0.00     0.064 A 
ATOM     22  C   UNL d   1       5.458   1.341   1.972  0.00  0.00     0.020 A 
ATOM     23  C   UNL d   1       4.984   1.500   3.268  0.00  0.00     0.001 A 
ATOM     24  C   UNL d   1       3.656   1.207   3.545  0.00  0.00     0.002 A 
ATOM     25  C   UNL d   1       2.797   0.778   2.526  0.00  0.00     0.030 A 
BRANCH  21  26
ATOM     26  C   UNL d   1       5.233   0.716  -0.380  0.00  0.00     0.178 C 
ATOM     27  O   UNL d   1       6.106   1.450  -0.809  0.00  0.00    -0.646 OA
BRANCH  26  28
ATOM     28  O   UNL d   1       4.771  -0.360  -1.053  0.00  0.00    -0.773 OA
ATOM     29  H   UNL d   1       4.170  -0.917  -0.516  0.00  0.00     0.167 HD
ENDBRANCH  26  28
ENDBRANCH  21  26
ENDBRANCH  18  20
ENDBRANCH   1  18
TORSDOF 9
