REMARK  4 active torsions:
REMARK  status: ('A' for Active; 'I' for Inactive)
REMARK    1  A    between atoms: C_5  and  C_1 
REMARK    2  A    between atoms: N_7  and  C_2 
REMARK    3  A    between atoms: O_9  and  C_5 
REMARK    4  A    between atoms: C_10  and  C_6 
ROOT
ATOM      1  C   UNL d   1       0.096   1.556   0.016  0.00  0.00     0.073 A 
ATOM      2  C   UNL d   1       0.814   0.370   0.029  0.00  0.00     0.084 A 
ATOM      3  S   UNL d   1      -0.207  -1.003  -0.004  0.00  0.00    -0.076 SA
ATOM      4  C   UNL d   1      -1.321   1.290  -0.009  0.00  0.00     0.035 A 
ATOM      5  C   UNL d   1      -1.624  -0.054  -0.016  0.00  0.00    -0.015 A 
ENDROOT
BRANCH   1   6
ATOM      6  C   UNL d   1       0.705   2.886   0.030  0.00  0.00     0.295 C 
ATOM      7  O   UNL d   1       1.915   3.091   0.034  0.00  0.00    -0.259 OA
BRANCH   6   8
ATOM      8  O   UNL d   1      -0.235   3.880   0.029  0.00  0.00    -0.322 OA
ATOM      9  C   UNL d   1       0.302   5.202   0.040  0.00  0.00     0.213 C 
ENDBRANCH   6   8
ENDBRANCH   1   6
BRANCH   2  10
ATOM     10  N   UNL d   1       2.151   0.204   0.067  0.00  0.00    -0.393 N 
ATOM     11  H   UNL d   1       2.785   0.999  -0.017  0.00  0.00     0.156 HD
ATOM     12  H   UNL d   1       2.570  -0.713  -0.048  0.00  0.00     0.156 HD
ENDBRANCH   2  10
BRANCH   5  13
ATOM     13  C   UNL d   1      -2.976  -0.699  -0.020  0.00  0.00     0.042 C 
ATOM     14  C   UNL d   1      -3.491  -0.934  -1.432  0.00  0.00     0.010 C 
ENDBRANCH   5  13
TORSDOF 4
