REMARK  5 active torsions:
REMARK  status: ('A' for Active; 'I' for Inactive)
REMARK    1  A    between atoms: N_6  and  C_1 
REMARK       I    between atoms: C_4  and  N_6 
REMARK    2  A    between atoms: C_5  and  C_4 
REMARK    3  A    between atoms: C_11  and  C_7 
REMARK    4  A    between atoms: O_23  and  C_10 
REMARK    5  A    between atoms: C_20  and  C_14 
ROOT
ATOM      1  C   UNL d   1       0.278  -1.193  -0.203  0.00  0.00     0.151 A 
ATOM      2  N   UNL d   1       1.400  -0.551  -0.365  0.00  0.00    -0.335 N 
ATOM      3  HN  UNL d   1       2.295  -0.985  -0.594  1.00  0.00     0.168 HD
ATOM      4  C   UNL d   1       1.200   0.808  -0.182  0.00  0.00     0.051 A 
ATOM      5  S   UNL d   1      -1.103  -0.244   0.107  0.00  0.00    -0.063 SA
ATOM      6  C   UNL d   1      -0.119   1.166   0.035  0.00  0.00     0.083 A 
ENDROOT
BRANCH   1   7
ATOM      7  N   UNL d   1       0.058  -2.538  -0.192  0.00  0.00    -0.303 N 
ATOM      8  C   UNL d   1       1.028  -3.438  -0.565  0.00  0.00     0.260 C 
ATOM      9  O   UNL d   1       2.098  -3.202  -1.125  0.00  0.00    -0.267 OA
ATOM     10  H   UNL d   1      -0.870  -2.836   0.065  0.00  0.00     0.171 HD
BRANCH   8  11
ATOM     11  C   UNL d   1       0.681  -4.866  -0.342  0.00  0.00     0.067 A 
ATOM     12  C   UNL d   1       1.144  -5.845  -1.234  0.00  0.00     0.081 A 
ATOM     13  C   UNL d   1       0.774  -7.178  -1.074  0.00  0.00     0.039 A 
ATOM     14  C   UNL d   1      -0.042  -7.550  -0.005  0.00  0.00     0.026 A 
ATOM     15  C   UNL d   1      -0.464  -6.587   0.911  0.00  0.00     0.035 A 
ATOM     16  C   UNL d   1      -0.103  -5.249   0.755  0.00  0.00     0.043 A 
ATOM     17 CL   UNL d   1      -1.448  -7.048   2.245  0.00  0.00    -0.084 Cl
BRANCH  12  18
ATOM     18  O   UNL d   1       1.959  -5.559  -2.296  0.00  0.00    -0.360 OA
ATOM     19  H   UNL d   1       2.295  -4.640  -2.187  0.00  0.00     0.217 HD
ENDBRANCH  12  18
ENDBRANCH   8  11
ENDBRANCH   1   7
BRANCH   4  20
ATOM     20  C   UNL d   1       2.340   1.720  -0.188  0.00  0.00    -0.009 A 
ATOM     21  C   UNL d   1       3.611   1.206  -0.466  0.00  0.00     0.014 A 
ATOM     22  C   UNL d   1       4.746   2.023  -0.429  0.00  0.00     0.013 A 
ATOM     23  C   UNL d   1       4.655   3.392  -0.134  0.00  0.00    -0.026 A 
ATOM     24  C   UNL d   1       3.372   3.898   0.141  0.00  0.00     0.013 A 
ATOM     25  C   UNL d   1       2.233   3.078   0.122  0.00  0.00     0.014 A 
BRANCH  23  26
ATOM     26  C   UNL d   1       5.859   4.257  -0.115  0.00  0.00    -0.026 A 
ATOM     27  C   UNL d   1       5.959   5.367   0.744  0.00  0.00     0.012 A 
ATOM     28  C   UNL d   1       7.097   6.181   0.758  0.00  0.00     0.001 A 
ATOM     29  C   UNL d   1       8.170   5.894  -0.078  0.00  0.00     0.000 A 
ATOM     30  C   UNL d   1       8.103   4.802  -0.935  0.00  0.00     0.001 A 
ATOM     31  C   UNL d   1       6.957   4.001  -0.958  0.00  0.00     0.012 A 
ENDBRANCH  23  26
ENDBRANCH   4  20
TORSDOF 5
