REMARK  1 active torsions:
REMARK  status: ('A' for Active; 'I' for Inactive)
REMARK    1  A    between atoms: C_10  and  C_2 
ROOT
ATOM      1  C   UNL d   1      -0.093  -0.731   0.074  0.00  0.00     0.020 A 
ATOM      2  C   UNL d   1       1.152  -1.395   0.022  0.00  0.00     0.056 A 
ATOM      3  N   UNL d   1       2.325  -0.716   0.011  0.00  0.00    -0.351 N 
ATOM      4  HN  UNL d   1       3.223  -1.201   0.012  1.00  0.00     0.166 HD
ATOM      5  C   UNL d   1      -0.020   0.671   0.004  0.00  0.00     0.045 A 
ATOM      6  N   UNL d   1       1.133   1.342  -0.027  0.00  0.00    -0.352 N 
ATOM      7  HN  UNL d   1       1.157   2.361  -0.069  1.00  0.00     0.166 HD
ATOM      8  C   UNL d   1      -1.373  -1.337   0.191  0.00  0.00     0.040 A 
ATOM      9  C   UNL d   1       2.253   0.617  -0.002  0.00  0.00     0.181 A 
ATOM     10  C   UNL d   1      -1.197   1.409  -0.041  0.00  0.00     0.032 A 
ATOM     11  C   UNL d   1      -2.540  -0.573   0.133  0.00  0.00     0.035 A 
ATOM     12  C   UNL d   1      -2.455   0.804  -0.001  0.00  0.00     0.026 A 
ATOM     13 CL   UNL d   1      -4.075  -1.341   0.194  0.00  0.00    -0.084 Cl
ENDROOT
BRANCH   2  14
ATOM     14  C   UNL d   1       1.333  -2.869  -0.077  0.00  0.00    -0.009 A 
ATOM     15  C   UNL d   1       0.488  -3.687  -0.852  0.00  0.00     0.014 A 
ATOM     16  C   UNL d   1       0.666  -5.072  -0.922  0.00  0.00     0.001 A 
ATOM     17  C   UNL d   1       1.734  -5.671  -0.264  0.00  0.00     0.000 A 
ATOM     18  C   UNL d   1       2.622  -4.885   0.462  0.00  0.00     0.001 A 
ATOM     19  C   UNL d   1       2.419  -3.504   0.558  0.00  0.00     0.014 A 
ENDBRANCH   2  14
TORSDOF 1
