REMARK  2 active torsions:
REMARK  status: ('A' for Active; 'I' for Inactive)
REMARK    1  A    between atoms: C_2  and  C_1 
REMARK    2  A    between atoms: O_7  and  C_2 
ROOT
ATOM      1  C   UNL d   1      -0.923  -1.575   0.111  0.00  0.00     0.050 A 
ATOM      2  C   UNL d   1      -0.707  -0.156   0.114  0.00  0.00     0.008 A 
ATOM      3  C   UNL d   1       0.525   0.569   0.246  0.00  0.00     0.023 A 
ATOM      4  C   UNL d   1      -1.883   0.640  -0.015  0.00  0.00    -0.024 A 
ATOM      5 BR   UNL d   1       2.211  -0.237   0.623  0.00  0.00    -0.050 Br
ATOM      6  C   UNL d   1      -2.212  -2.139   0.061  0.00  0.00     0.019 A 
ATOM      7  C   UNL d   1      -3.327  -1.325  -0.026  0.00  0.00     0.002 A 
ATOM      8  C   UNL d   1      -0.590   2.703  -0.000  0.00  0.00     0.002 A 
ATOM      9  C   UNL d   1       0.573   1.970   0.171  0.00  0.00     0.020 A 
ATOM     10  C   UNL d   1      -1.807   2.040  -0.077  0.00  0.00     0.012 A 
ATOM     11  C   UNL d   1      -3.158   0.053  -0.078  0.00  0.00     0.012 A 
ENDROOT
BRANCH   1  12
ATOM     12  C   UNL d   1       0.150  -2.590   0.093  0.00  0.00     0.177 C 
ATOM     13  O   UNL d   1       0.255  -3.466   0.931  0.00  0.00    -0.646 OA
BRANCH  12  14
ATOM     14  O   UNL d   1       0.866  -2.548  -1.053  0.00  0.00    -0.773 OA
ATOM     15  H   UNL d   1       0.685  -1.769  -1.613  0.00  0.00     0.167 HD
ENDBRANCH  12  14
ENDBRANCH   1  12
TORSDOF 2
