REMARK  2 active torsions:
REMARK  status: ('A' for Active; 'I' for Inactive)
REMARK    1  A    between atoms: C_3  and  C_6 
REMARK    2  A    between atoms: C_4  and  C_3 
ROOT
ATOM      1  C   UNL d   1       1.157   0.905  -0.132  0.00  0.00    -0.042 A 
ATOM      2  C   UNL d   1       0.717  -0.437  -0.075  0.00  0.00    -0.019 A 
ATOM      3  C   UNL d   1      -0.730  -0.452  -0.048  0.00  0.00    -0.019 A 
ATOM      4  C   UNL d   1       3.436   0.188  -0.066  0.00  0.00     0.015 A 
ATOM      5  C   UNL d   1      -1.197   0.881  -0.070  0.00  0.00    -0.043 A 
ATOM      6  C   UNL d   1       2.503   1.230  -0.154  0.00  0.00     0.024 A 
ATOM      7  C   UNL d   1      -0.031   1.846  -0.128  0.00  0.00     0.078 A 
ATOM      8  C   UNL d   1       1.635  -1.473  -0.042  0.00  0.00     0.014 A 
ATOM      9  C   UNL d   1       2.997  -1.156  -0.035  0.00  0.00     0.016 A 
ATOM     10  C   UNL d   1      -1.624  -1.508  -0.002  0.00  0.00     0.013 A 
ATOM     11  C   UNL d   1      -2.549   1.176  -0.037  0.00  0.00     0.008 A 
ATOM     12  C   UNL d   1      -2.993  -1.219   0.026  0.00  0.00     0.001 A 
ATOM     13  C   UNL d   1      -3.450   0.110   0.011  0.00  0.00     0.001 A 
ENDROOT
BRANCH   4  14
ATOM     14  C   UNL d   1       4.905   0.443   0.038  0.00  0.00     0.193 C 
ATOM     15  O   UNL d   1       5.685  -0.450  -0.279  0.00  0.00    -0.287 OA
BRANCH  14  16
ATOM     16  C   UNL d   1       5.432   1.714   0.609  0.00  0.00     0.032 A 
ATOM     17  C   UNL d   1       6.554   2.369   0.085  0.00  0.00     0.025 A 
ATOM     18 BR   UNL d   1       7.469   1.806  -1.480  0.00  0.00    -0.050 Br
ATOM     19  C   UNL d   1       7.030   3.537   0.700  0.00  0.00     0.020 A 
ATOM     20  C   UNL d   1       6.387   4.061   1.823  0.00  0.00     0.001 A 
ATOM     21  C   UNL d   1       5.277   3.413   2.350  0.00  0.00     0.001 A 
ATOM     22  C   UNL d   1       4.812   2.233   1.763  0.00  0.00     0.017 A 
ENDBRANCH  14  16
ENDBRANCH   4  14
TORSDOF 2
