REMARK  9 active torsions:
REMARK  status: ('A' for Active; 'I' for Inactive)
REMARK    1  A    between atoms: N_5  and  S_1 
REMARK    2  A    between atoms: C_12  and  S_1 
REMARK    3  A    between atoms: N_3  and  C_2 
REMARK    4  A    between atoms: C_4  and  S_11 
REMARK    5  A    between atoms: C_13  and  N_5 
REMARK    6  A    between atoms: C_14  and  C_6 
REMARK    7  A    between atoms: C_7  and  C_15 
REMARK    8  A    between atoms: S_11  and  C_16 
REMARK    9  A    between atoms: O_27  and  C_14 
ROOT
ATOM      1  C   UNL d   1       0.986   1.863  -1.369  0.00  0.00     0.059 A 
ATOM      2  C   UNL d   1       2.328   2.299  -1.392  0.00  0.00     0.034 A 
ATOM      3  C   UNL d   1       0.005   2.605  -2.037  0.00  0.00     0.031 A 
ATOM      4  C   UNL d   1       2.637   3.520  -2.011  0.00  0.00     0.021 A 
ATOM      5  C   UNL d   1       0.331   3.806  -2.668  0.00  0.00     0.002 A 
ATOM      6  C   UNL d   1       1.643   4.267  -2.649  0.00  0.00     0.002 A 
ENDROOT
BRANCH   1   7
ATOM      7  N   UNL d   1       0.659   0.560  -0.900  0.00  0.00    -0.279 N 
ATOM      8  H   UNL d   1       0.595  -0.173  -1.605  0.00  0.00     0.179 HD
BRANCH   7   9
ATOM      9  S   UNL d   1      -0.453   0.282   0.319  0.00  0.00     0.263 S 
ATOM     10  O   UNL d   1      -0.782  -1.123   0.207  0.00  0.00    -0.200 OA
ATOM     11  O   UNL d   1      -1.485   1.288   0.271  0.00  0.00    -0.200 OA
BRANCH   9  12
ATOM     12  C   UNL d   1       0.441   0.460   1.853  0.00  0.00     0.080 A 
ATOM     13  C   UNL d   1      -0.046   1.351   2.819  0.00  0.00     0.041 A 
ATOM     14  C   UNL d   1       0.439   1.304   4.136  0.00  0.00     0.049 A 
ATOM     15  C   UNL d   1       1.446   0.378   4.458  0.00  0.00     0.016 A 
ATOM     16  C   UNL d   1       1.964  -0.476   3.482  0.00  0.00     0.002 A 
ATOM     17  C   UNL d   1       1.455  -0.446   2.181  0.00  0.00     0.025 A 
BRANCH  14  18
ATOM     18  C   UNL d   1      -0.186   2.150   5.221  0.00  0.00     0.417 C 
ATOM     19  F   UNL d   1      -0.909   3.199   4.740  0.00  0.00    -0.166 F 
ATOM     20  F   UNL d   1      -1.042   1.432   5.999  0.00  0.00    -0.166 F 
ATOM     21  F   UNL d   1       0.731   2.687   6.072  0.00  0.00    -0.166 F 
ENDBRANCH  14  18
ENDBRANCH   9  12
ENDBRANCH   7   9
ENDBRANCH   1   7
BRANCH   2  22
ATOM     22  S   UNL d   1       3.709   1.360  -0.710  0.00  0.00    -0.068 SA
BRANCH  22  23
ATOM     23  C   UNL d   1       3.550  -0.162  -1.631  0.00  0.00     0.108 A 
ATOM     24  C   UNL d   1       3.654  -0.273  -3.012  0.00  0.00     0.137 A 
ATOM     25  C   UNL d   1       3.131  -1.393  -3.672  0.00  0.00     0.058 A 
ATOM     26  C   UNL d   1       2.555  -2.413  -2.911  0.00  0.00     0.057 A 
ATOM     27  C   UNL d   1       2.607  -2.296  -1.529  0.00  0.00     0.106 A 
ATOM     28  N   UNL d   1       3.085  -1.201  -0.886  0.00  0.00    -0.357 N 
ATOM     29  HN  UNL d   1       3.095  -1.158   0.133  1.00  0.00     0.166 HD
BRANCH  24  30
ATOM     30  N   UNL d   1       4.273   0.770  -3.793  0.00  0.00    -0.113 N 
ATOM     31  O   UNL d   1       5.412   1.128  -3.466  0.00  0.00    -0.532 OA
ATOM     32  O   UNL d   1       3.635   1.198  -4.763  0.00  0.00    -0.532 OA
ENDBRANCH  24  30
BRANCH  26  33
ATOM     33  C   UNL d   1       1.835  -3.523  -3.573  0.00  0.00     0.294 C 
ATOM     34  O   UNL d   1       1.648  -3.563  -4.777  0.00  0.00    -0.259 OA
BRANCH  33  35
ATOM     35  O   UNL d   1       1.376  -4.391  -2.645  0.00  0.00    -0.322 OA
ATOM     36  C   UNL d   1       0.504  -5.431  -3.098  0.00  0.00     0.213 C 
ENDBRANCH  33  35
ENDBRANCH  26  33
ENDBRANCH  22  23
ENDBRANCH   2  22
TORSDOF 9
