REMARK  4 active torsions:
REMARK  status: ('A' for Active; 'I' for Inactive)
REMARK    1  A    between atoms: C_6  and  C_2 
REMARK    2  A    between atoms: C_21  and  C_13 
REMARK    3  A    between atoms: C_19  and  C_14 
REMARK    4  A    between atoms: C_18  and  C_20 
ROOT
ATOM      1  C   UNL d   1       0.291   0.503  -0.033  0.00  0.00     0.172 A 
ATOM      2  C   UNL d   1      -2.158   0.354  -0.076  0.00  0.00     0.086 A 
ATOM      3  N   UNL d   1      -0.203  -0.768  -0.028  0.00  0.00    -0.235 N 
ATOM      4  N   UNL d   1       1.593   0.525  -0.011  0.00  0.00    -0.319 N 
ATOM      5  HN  UNL d   1       2.226   1.325  -0.009  1.00  0.00     0.169 HD
ATOM      6  N   UNL d   1       0.812  -1.642  -0.006  0.00  0.00    -0.276 N 
ATOM      7  HN  UNL d   1       0.779  -2.662  -0.001  1.00  0.00     0.189 HD
ATOM      8  C   UNL d   1      -1.584  -0.869  -0.047  0.00  0.00     0.054 A 
ATOM      9  S   UNL d   1      -0.974   1.683  -0.063  0.00  0.00    -0.046 SA
ATOM     10  C   UNL d   1       1.890  -0.831   0.007  0.00  0.00     0.132 A 
ATOM     11  C   UNL d   1      -2.233  -2.213  -0.043  0.00  0.00     0.072 C 
ENDROOT
BRANCH   2  12
ATOM     12  C   UNL d   1      -3.563   0.590  -0.129  0.00  0.00     0.191 A 
ATOM     13  N   UNL d   1      -4.518  -0.327  -0.168  0.00  0.00    -0.318 N 
ATOM     14  C   UNL d   1      -5.689   0.391  -0.242  0.00  0.00     0.138 A 
ATOM     15  HN  UNL d   1      -4.409  -1.341  -0.148  1.00  0.00     0.169 HD
ATOM     16  N   UNL d   1      -5.499   1.715  -0.236  0.00  0.00    -0.242 N 
ATOM     17  O   UNL d   1      -4.119   1.854  -0.161  0.00  0.00    -0.216 OA
ATOM     18  HN  UNL d   1      -6.204   2.451  -0.278  1.00  0.00     0.196 HD
BRANCH  14  19
ATOM     19  C   UNL d   1      -6.995  -0.260  -0.327  0.00  0.00     0.011 A 
ATOM     20  C   UNL d   1      -7.091  -1.661  -0.284  0.00  0.00     0.031 A 
ATOM     21  C   UNL d   1      -8.335  -2.311  -0.369  0.00  0.00     0.048 A 
ATOM     22  C   UNL d   1      -9.497  -1.536  -0.502  0.00  0.00     0.016 A 
ATOM     23  C   UNL d   1      -9.416  -0.144  -0.546  0.00  0.00     0.002 A 
ATOM     24  C   UNL d   1      -8.173   0.489  -0.458  0.00  0.00     0.015 A 
BRANCH  21  25
ATOM     25  C   UNL d   1      -8.437  -3.816  -0.318  0.00  0.00     0.417 C 
ATOM     26  F   UNL d   1      -7.233  -4.440  -0.188  0.00  0.00    -0.166 F 
ATOM     27  F   UNL d   1      -9.197  -4.250   0.726  0.00  0.00    -0.166 F 
ATOM     28  F   UNL d   1      -9.008  -4.338  -1.438  0.00  0.00    -0.166 F 
ENDBRANCH  21  25
ENDBRANCH  14  19
ENDBRANCH   2  12
BRANCH  10  29
ATOM     29  C   UNL d   1       3.258  -1.347   0.071  0.00  0.00     0.009 A 
ATOM     30  C   UNL d   1       4.358  -0.480   0.134  0.00  0.00     0.017 A 
ATOM     31  C   UNL d   1       5.658  -0.991   0.247  0.00  0.00     0.025 A 
ATOM     32  C   UNL d   1       5.863  -2.370   0.294  0.00  0.00     0.034 A 
ATOM     33  C   UNL d   1       4.784  -3.244   0.211  0.00  0.00     0.025 A 
ATOM     34 CL   UNL d   1       7.455  -2.996   0.467  0.00  0.00    -0.084 Cl
ATOM     35  C   UNL d   1       3.488  -2.733   0.097  0.00  0.00     0.017 A 
ENDBRANCH  10  29
TORSDOF 4
