REMARK  4 active torsions:
REMARK  status: ('A' for Active; 'I' for Inactive)
REMARK       I    between atoms: N_2  and  C_1 
REMARK       I    between atoms: N_4  and  C_1 
REMARK    1  A    between atoms: C_3  and  N_2 
REMARK    2  A    between atoms: C_7  and  N_4 
REMARK    3  A    between atoms: C_8  and  C_7 
REMARK    4  A    between atoms: O_14  and  C_9 
ROOT
ATOM      1  C   UNL d   1       1.003  -0.042  -0.071  0.00  0.00     0.321 C 
ATOM      2  N   UNL d   1       0.403  -1.270  -0.044  0.00  0.00    -0.308 N 
ATOM      3  N   UNL d   1       0.173   1.028  -0.179  0.00  0.00    -0.339 N 
ATOM      4  O   UNL d   1       2.217   0.163  -0.054  0.00  0.00    -0.247 OA
ATOM      5  H   UNL d   1      -0.461  -1.315  -0.559  0.00  0.00     0.170 HD
ATOM      6  H   UNL d   1       0.681   1.903  -0.232  0.00  0.00     0.164 HD
ENDROOT
BRANCH   2   7
ATOM      7  C   UNL d   1       1.121  -2.481   0.091  0.00  0.00     0.042 A 
ATOM      8  C   UNL d   1       0.807  -3.592  -0.712  0.00  0.00    -0.035 A 
ATOM      9  C   UNL d   1      -0.188  -3.555  -1.840  0.00  0.00     0.050 C 
ATOM     10  C   UNL d   1       1.503  -4.798  -0.505  0.00  0.00     0.009 A 
ATOM     11  C   UNL d   1       2.496  -4.898   0.469  0.00  0.00     0.001 A 
ATOM     12  C   UNL d   1       2.812  -3.792   1.250  0.00  0.00     0.002 A 
ATOM     13  C   UNL d   1       2.130  -2.589   1.060  0.00  0.00     0.030 A 
ENDBRANCH   2   7
BRANCH   3  14
ATOM     14  C   UNL d   1      -1.255   1.113   0.045  0.00  0.00     0.162 C 
BRANCH  14  15
ATOM     15  C   UNL d   1      -1.996   1.724  -1.119  0.00  0.00    -0.040 A 
ATOM     16  C   UNL d   1      -1.581   1.548  -2.448  0.00  0.00     0.011 A 
ATOM     17  C   UNL d   1      -2.324   2.079  -3.511  0.00  0.00     0.037 A 
ATOM     18  C   UNL d   1      -3.502   2.782  -3.266  0.00  0.00     0.068 A 
ATOM     19  C   UNL d   1      -3.925   2.954  -1.946  0.00  0.00     0.037 A 
ATOM     20  C   UNL d   1      -3.184   2.429  -0.883  0.00  0.00     0.011 A 
BRANCH  18  21
ATOM     21  O   UNL d   1      -4.323   3.338  -4.205  0.00  0.00    -0.356 OA
ATOM     22  C   UNL d   1      -3.944   3.180  -5.567  0.00  0.00     0.210 C 
ENDBRANCH  18  21
ENDBRANCH  14  15
ENDBRANCH   3  14
TORSDOF 4
