REMARK  3 active torsions:
REMARK  status: ('A' for Active; 'I' for Inactive)
REMARK    1  A    between atoms: C_11  and  C_6 
REMARK    2  A    between atoms: O_14  and  C_11 
REMARK    3  A    between atoms: C_17  and  O_14 
ROOT
ATOM      1  C   UNL d   1      -1.008  -0.995  -0.024  0.00  0.00     0.092 A 
ATOM      2  C   UNL d   1      -0.636   0.336  -0.007  0.00  0.00     0.073 A 
ATOM      3  N   UNL d   1      -2.272  -1.486  -0.035  0.00  0.00    -0.331 N 
ATOM      4  HN  UNL d   1      -2.479  -2.485  -0.042  1.00  0.00     0.168 HD
ATOM      5  C   UNL d   1      -1.694   1.328  -0.024  0.00  0.00     0.260 A 
ATOM      6  C   UNL d   1      -3.196  -0.575  -0.037  0.00  0.00     0.186 A 
ATOM      7  N   UNL d   1      -2.958   0.787  -0.049  0.00  0.00    -0.304 N 
ATOM      8  S   UNL d   1       0.340  -2.037  -0.007  0.00  0.00    -0.075 SA
ATOM      9  C   UNL d   1       0.786   0.500   0.025  0.00  0.00    -0.026 A 
ATOM     10  C   UNL d   1       1.423  -0.728   0.003  0.00  0.00    -0.008 A 
ATOM     11  O   UNL d   1      -1.507   2.540  -0.008  0.00  0.00    -0.267 OA
ATOM     12  C   UNL d   1       1.550   1.792   0.033  0.00  0.00     0.041 C 
ATOM     13  C   UNL d   1       2.904  -0.933   0.011  0.00  0.00     0.047 C 
ATOM     14  C   UNL d   1       3.043   1.579   0.340  0.00  0.00     0.005 C 
ATOM     15  C   UNL d   1       3.617   0.362  -0.401  0.00  0.00     0.005 C 
ATOM     16  H   UNL d   1      -3.738   1.428  -0.030  0.00  0.00     0.171 HD
ENDROOT
BRANCH   6  17
ATOM     17  C   UNL d   1      -4.672  -0.947   0.038  0.00  0.00     0.327 C 
ATOM     18  O   UNL d   1      -5.530  -0.082   0.103  0.00  0.00    -0.256 OA
BRANCH  17  19
ATOM     19  O   UNL d   1      -4.815  -2.278   0.162  0.00  0.00    -0.316 OA
BRANCH  19  20
ATOM     20  C   UNL d   1      -6.052  -2.726   0.725  0.00  0.00     0.175 C 
ATOM     21  C   UNL d   1      -5.900  -2.749   2.236  0.00  0.00     0.034 C 
ENDBRANCH  19  20
ENDBRANCH  17  19
ENDBRANCH   6  17
TORSDOF 3
