REMARK  5 active torsions:
REMARK  status: ('A' for Active; 'I' for Inactive)
REMARK    1  A    between atoms: C_2  and  N_1 
REMARK    2  A    between atoms: C_3  and  N_1 
REMARK    3  A    between atoms: N_4  and  C_2 
REMARK    4  A    between atoms: C_8  and  C_3 
REMARK    5  A    between atoms: C_9  and  N_4 
ROOT
ATOM      1  C   UNL d   1       0.195   0.820   1.128  0.00  0.00     0.177 C 
ATOM      2  S   UNL d   1      -1.474   0.733   1.094  0.00  0.00    -0.040 SA
ENDROOT
BRANCH   1   3
ATOM      3  N   UNL d   1       0.866  -0.049   0.271  0.00  0.00    -0.323 N 
ATOM      4  H   UNL d   1       0.220  -0.676  -0.194  0.00  0.00     0.169 HD
BRANCH   3   5
ATOM      5  C   UNL d   1       2.194  -0.178  -0.086  0.00  0.00     0.080 C 
ATOM      6  N   UNL d   1       3.076   0.725   0.161  0.00  0.00    -0.389 N 
ATOM      7  H   UNL d   1       2.627   1.565   0.540  0.00  0.00     0.157 HD
ATOM      8  HN  UNL d   1       4.078   0.620   0.001  1.00  0.00     0.157 HD
BRANCH   5   9
ATOM      9  C   UNL d   1       2.579  -1.432  -0.864  0.00  0.00     0.045 C 
ATOM     10  C   UNL d   1       2.045  -2.705  -0.212  0.00  0.00     0.017 C 
ATOM     11  C   UNL d   1       2.103  -1.315  -2.309  0.00  0.00     0.017 C 
ENDBRANCH   5   9
ENDBRANCH   3   5
ENDBRANCH   1   3
BRANCH   1  12
ATOM     12  N   UNL d   1       1.010   1.581   1.931  0.00  0.00    -0.333 N 
ATOM     13  H   UNL d   1       1.885   1.120   2.170  0.00  0.00     0.168 HD
BRANCH  12  14
ATOM     14  C   UNL d   1       0.780   2.799   2.613  0.00  0.00     0.034 A 
ATOM     15  C   UNL d   1      -0.326   3.626   2.413  0.00  0.00     0.029 A 
ATOM     16  C   UNL d   1      -0.438   4.848   3.086  0.00  0.00     0.002 A 
ATOM     17  C   UNL d   1       0.568   5.269   3.950  0.00  0.00     0.000 A 
ATOM     18  C   UNL d   1       1.683   4.462   4.150  0.00  0.00     0.002 A 
ATOM     19  C   UNL d   1       1.787   3.234   3.488  0.00  0.00     0.029 A 
ENDBRANCH  12  14
ENDBRANCH   1  12
TORSDOF 5
