REMARK  8 active torsions:
REMARK  status: ('A' for Active; 'I' for Inactive)
REMARK    1  A    between atoms: C_8  and  C_2 
REMARK    2  A    between atoms: C_10  and  O_16 
REMARK    3  A    between atoms: C_19  and  C_10 
REMARK    4  A    between atoms: C_11  and  C_23 
REMARK    5  A    between atoms: C_14  and  O_16 
REMARK    6  A    between atoms: C_17  and  O_20 
REMARK    7  A    between atoms: C_22  and  C_17 
REMARK    8  A    between atoms: O_20  and  C_23 
ROOT
ATOM      1  C   UNL d   1       2.035  -2.609   0.107  0.00  0.00     0.194 C 
ATOM      2  O   UNL d   1       2.743  -3.156  -1.028  0.00  0.00    -0.368 OA
ATOM      3  C   UNL d   1       3.733  -4.088  -0.510  0.00  0.00     0.176 C 
ATOM      4  C   UNL d   1       3.492  -4.181   1.001  0.00  0.00     0.166 C 
ATOM      5  C   UNL d   1       2.971  -2.790   1.288  0.00  0.00     0.075 C 
ENDROOT
BRANCH   1   6
ATOM      6  C   UNL d   1       1.630  -1.205  -0.157  0.00  0.00     0.148 A 
ATOM      7  N   UNL d   1       0.812  -0.812  -1.195  0.00  0.00    -0.142 N 
ATOM      8  C   UNL d   1       0.495   0.520  -0.946  0.00  0.00     0.704 A 
ATOM      9  C   UNL d   1       0.298  -1.495  -2.291  0.00  0.00     0.118 A 
ATOM     10  N   UNL d   1       1.133   0.902   0.141  0.00  0.00    -0.130 N 
ATOM     11  N   UNL d   1      -0.365   1.210  -1.755  0.00  0.00    -0.200 N 
ATOM     12  N   UNL d   1       1.840  -0.169   0.634  0.00  0.00    -0.272 N 
ATOM     13  HN  UNL d   1       1.106   1.837   0.549  1.00  0.00     0.205 HD
ATOM     14  HN  UNL d   1       2.427  -0.164   1.468  1.00  0.00     0.189 HD
ATOM     15  C   UNL d   1      -0.841   0.554  -2.769  0.00  0.00     0.107 A 
ATOM     16  HN  UNL d   1      -0.618   2.181  -1.573  1.00  0.00     0.183 HD
ATOM     17  C   UNL d   1      -0.536  -0.860  -3.130  0.00  0.00     0.036 A 
ENDBRANCH   1   6
BRANCH   3  18
ATOM     18  C   UNL d   1       3.592  -5.442  -1.210  0.00  0.00     0.213 C 
BRANCH  18  19
ATOM     19  O   UNL d   1       4.461  -6.442  -0.657  0.00  0.00    -0.315 OA
BRANCH  19  20
ATOM     20  C   UNL d   1       5.732  -6.450  -1.127  0.00  0.00     0.293 C 
ATOM     21  O   UNL d   1       6.184  -5.677  -1.957  0.00  0.00    -0.259 OA
BRANCH  20  22
ATOM     22  C   UNL d   1       6.529  -7.534  -0.486  0.00  0.00     0.039 A 
ATOM     23  C   UNL d   1       7.864  -7.694  -0.875  0.00  0.00     0.018 A 
ATOM     24  C   UNL d   1       8.653  -8.698  -0.304  0.00  0.00     0.007 A 
ATOM     25  C   UNL d   1       8.119  -9.555   0.665  0.00  0.00    -0.062 A 
ATOM     26  C   UNL d   1       6.785  -9.390   1.059  0.00  0.00     0.007 A 
ATOM     27  C   UNL d   1       8.976 -10.627   1.272  0.00  0.00     0.048 C 
ATOM     28  C   UNL d   1       5.992  -8.390   0.485  0.00  0.00     0.018 A 
ENDBRANCH  20  22
ENDBRANCH  19  20
ENDBRANCH  18  19
ENDBRANCH   3  18
BRANCH   4  29
ATOM     29  O   UNL d   1       4.690  -4.457   1.732  0.00  0.00    -0.309 OA
BRANCH  29  30
ATOM     30  C   UNL d   1       4.665  -5.557   2.529  0.00  0.00     0.293 C 
ATOM     31  O   UNL d   1       3.713  -6.308   2.680  0.00  0.00    -0.259 OA
BRANCH  30  32
ATOM     32  C   UNL d   1       5.970  -5.756   3.218  0.00  0.00     0.039 A 
ATOM     33  C   UNL d   1       6.114  -6.868   4.060  0.00  0.00     0.018 A 
ATOM     34  C   UNL d   1       7.304  -7.071   4.766  0.00  0.00     0.007 A 
ATOM     35  C   UNL d   1       8.363  -6.165   4.643  0.00  0.00    -0.062 A 
ATOM     36  C   UNL d   1       8.229  -5.074   3.776  0.00  0.00     0.007 A 
ATOM     37  C   UNL d   1       9.616  -6.361   5.446  0.00  0.00     0.048 C 
ATOM     38  C   UNL d   1       7.041  -4.869   3.066  0.00  0.00     0.018 A 
ENDBRANCH  30  32
ENDBRANCH  29  30
ENDBRANCH   4  29
TORSDOF 8
