REMARK  3 active torsions:
REMARK  status: ('A' for Active; 'I' for Inactive)
REMARK    1  A    between atoms: C_15  and  C_4 
REMARK    2  A    between atoms: C_11  and  C_7 
REMARK    3  A    between atoms: C_21  and  C_15 
ROOT
ATOM      1  N   UNL d   1       0.297   0.609  -0.060  0.00  0.00    -0.257 N 
ATOM      2  C   UNL d   1       0.238  -0.764  -0.048  0.00  0.00     0.158 A 
ATOM      3  C   UNL d   1      -0.874   1.334  -0.097  0.00  0.00     0.262 A 
ATOM      4  C   UNL d   1      -2.140   0.515  -0.070  0.00  0.00     0.033 A 
ATOM      5  N   UNL d   1      -0.821  -1.492  -0.046  0.00  0.00    -0.339 N 
ATOM      6  HN  UNL d   1      -0.770  -2.511  -0.048  1.00  0.00     0.168 HD
ATOM      7  C   UNL d   1       1.595   1.101  -0.043  0.00  0.00     0.061 A 
ATOM      8  C   UNL d   1      -2.025  -0.830  -0.040  0.00  0.00     0.019 A 
ATOM      9  S   UNL d   1       1.855  -1.445  -0.027  0.00  0.00    -0.063 SA
ATOM     10  C   UNL d   1       2.541   0.147  -0.023  0.00  0.00     0.084 A 
ATOM     11  O   UNL d   1      -0.945   2.561  -0.145  0.00  0.00    -0.267 OA
ATOM     12  C   UNL d   1      -3.193  -1.785   0.000  0.00  0.00     0.069 C 
ENDROOT
BRANCH   7  13
ATOM     13  C   UNL d   1       1.979   2.512  -0.042  0.00  0.00    -0.008 A 
ATOM     14  C   UNL d   1       2.190   3.186  -1.253  0.00  0.00     0.015 A 
ATOM     15  C   UNL d   1       2.686   4.493  -1.256  0.00  0.00     0.024 A 
ATOM     16  C   UNL d   1       2.975   5.128  -0.050  0.00  0.00     0.034 A 
ATOM     17  C   UNL d   1       2.764   4.471   1.161  0.00  0.00     0.024 A 
ATOM     18 CL   UNL d   1       3.615   6.725  -0.056  0.00  0.00    -0.084 Cl
ATOM     19  C   UNL d   1       2.268   3.164   1.166  0.00  0.00     0.015 A 
ENDBRANCH   7  13
BRANCH   4  20
ATOM     20  C   UNL d   1      -3.433   1.299  -0.010  0.00  0.00     0.046 C 
BRANCH  20  21
ATOM     21  C   UNL d   1      -3.958   1.773  -1.371  0.00  0.00     0.000 C 
ATOM     22  C   UNL d   1      -4.422   0.646  -2.281  0.00  0.00     0.005 C 
ENDBRANCH  20  21
ENDBRANCH   4  20
TORSDOF 3
