REMARK  4 active torsions:
REMARK  status: ('A' for Active; 'I' for Inactive)
REMARK    1  A    between atoms: C_6  and  C_1 
REMARK    2  A    between atoms: C_9  and  N_2 
REMARK       I    between atoms: N_8  and  C_6 
REMARK    3  A    between atoms: C_13  and  N_8 
REMARK    4  A    between atoms: O_24  and  C_16 
ROOT
ATOM      1  C   UNL d   1      -0.209   1.125   0.220  0.00  0.00     0.073 C 
ATOM      2  N   UNL d   1       0.867  -0.830   0.228  0.00  0.00    -0.260 N 
ATOM      3  C   UNL d   1       1.055   0.552   0.366  0.00  0.00     0.048 C 
ATOM      4  N   UNL d   1      -0.446  -1.152   0.281  0.00  0.00    -0.304 N 
ATOM      5  HN  UNL d   1      -0.858  -2.079   0.385  1.00  0.00     0.186 HD
ATOM      6  C   UNL d   1      -1.076   0.009   0.168  0.00  0.00     0.126 C 
ATOM      7  C   UNL d   1       2.382   1.144   0.690  0.00  0.00     0.071 C 
ENDROOT
BRANCH   1   8
ATOM      8  C   UNL d   1      -0.719   2.499   0.176  0.00  0.00     0.259 C 
ATOM      9  N   UNL d   1       0.212   3.515   0.271  0.00  0.00    -0.323 N 
ATOM     10  H   UNL d   1       1.177   3.248   0.362  0.00  0.00     0.169 HD
ATOM     11  O   UNL d   1      -1.927   2.676   0.054  0.00  0.00    -0.267 OA
BRANCH   9  12
ATOM     12  C   UNL d   1      -0.040   4.908   0.239  0.00  0.00     0.035 A 
ATOM     13  C   UNL d   1      -1.306   5.474   0.053  0.00  0.00     0.032 A 
ATOM     14  C   UNL d   1      -1.467   6.863   0.003  0.00  0.00     0.044 A 
ATOM     15  C   UNL d   1      -0.364   7.689   0.145  0.00  0.00     0.116 A 
ATOM     16  C   UNL d   1       0.901   7.152   0.344  0.00  0.00     0.044 A 
ATOM     17  F   UNL d   1      -0.517   9.018   0.085  0.00  0.00    -0.206 F 
ATOM     18  C   UNL d   1       1.063   5.764   0.392  0.00  0.00     0.032 A 
ENDBRANCH   9  12
ENDBRANCH   1   8
BRANCH   2  19
ATOM     19  C   UNL d   1       1.808  -1.880   0.021  0.00  0.00     0.056 A 
ATOM     20  C   UNL d   1       1.461  -3.183   0.410  0.00  0.00     0.034 A 
ATOM     21  C   UNL d   1       2.325  -4.256   0.168  0.00  0.00     0.039 A 
ATOM     22  C   UNL d   1       3.531  -4.044  -0.497  0.00  0.00     0.068 A 
ATOM     23  C   UNL d   1       3.877  -2.747  -0.887  0.00  0.00     0.039 A 
ATOM     24  C   UNL d   1       3.026  -1.664  -0.632  0.00  0.00     0.034 A 
BRANCH  22  25
ATOM     25  O   UNL d   1       4.443  -5.009  -0.825  0.00  0.00    -0.356 OA
ATOM     26  C   UNL d   1       4.034  -6.360  -0.637  0.00  0.00     0.210 C 
ENDBRANCH  22  25
ENDBRANCH   2  19
TORSDOF 4
