REMARK  3 active torsions:
REMARK  status: ('A' for Active; 'I' for Inactive)
REMARK    1  A    between atoms: C_2  and  N_1 
REMARK    2  A    between atoms: S_6  and  C_5 
REMARK    3  A    between atoms: C_12  and  S_6 
ROOT
ATOM      1  C   UNL d   1       0.317  -0.417  -1.164  0.00  0.00     0.104 A 
ATOM      2  C   UNL d   1       0.865  -1.468  -1.906  0.00  0.00     0.061 A 
ATOM      3  C   UNL d   1       0.193  -1.935  -3.042  0.00  0.00     0.053 A 
ATOM      4  C   UNL d   1      -1.021  -1.352  -3.451  0.00  0.00     0.027 A 
ATOM      5  C   UNL d   1      -0.887   0.180  -1.558  0.00  0.00     0.037 A 
ATOM      6  C   UNL d   1      -1.549  -0.291  -2.698  0.00  0.00     0.023 A 
ATOM      7 CL   UNL d   1       0.926  -3.248  -3.899  0.00  0.00    -0.083 Cl
ENDROOT
BRANCH   4   8
ATOM      8  S   UNL d   1      -1.988  -1.971  -4.821  0.00  0.00    -0.089 SA
BRANCH   8   9
ATOM      9  C   UNL d   1      -1.578  -0.877  -6.170  0.00  0.00     0.005 A 
ATOM     10  C   UNL d   1      -0.285  -0.399  -6.404  0.00  0.00     0.019 A 
ATOM     11  C   UNL d   1      -0.015   0.404  -7.516  0.00  0.00     0.001 A 
ATOM     12  C   UNL d   1      -1.032   0.727  -8.411  0.00  0.00     0.000 A 
ATOM     13  C   UNL d   1      -2.322   0.250  -8.194  0.00  0.00     0.001 A 
ATOM     14  C   UNL d   1      -2.593  -0.549  -7.080  0.00  0.00     0.019 A 
ENDBRANCH   8   9
ENDBRANCH   4   8
BRANCH   1  15
ATOM     15  N   UNL d   1       1.002   0.051   0.048  0.00  0.00    -0.116 N 
ATOM     16  O   UNL d   1       2.059  -0.511   0.364  0.00  0.00    -0.532 OA
ATOM     17  O   UNL d   1       0.480   0.980   0.681  0.00  0.00    -0.532 OA
ENDBRANCH   1  15
TORSDOF 3
