REMARK  1 active torsions:
REMARK  status: ('A' for Active; 'I' for Inactive)
REMARK    1  A    between atoms: C_6  and  N_1 
ROOT
ATOM      1  N   UNL d   1       1.725  -0.734   0.090  0.00  0.00    -0.252 N 
ATOM      2  C   UNL d   1       1.790   0.641   0.166  0.00  0.00     0.232 C 
ATOM      3  C   UNL d   1       0.431  -1.165  -0.115  0.00  0.00     0.240 C 
ATOM      4  C   UNL d   1      -0.500   0.024  -0.073  0.00  0.00     0.050 C 
ATOM      5  C   UNL d   1       0.429   1.224  -0.088  0.00  0.00     0.123 C 
ATOM      6  O   UNL d   1       2.764   1.364   0.334  0.00  0.00    -0.273 OA
ATOM      7  O   UNL d   1       0.013  -2.311  -0.240  0.00  0.00    -0.272 OA
ATOM      8  C   UNL d   1      -1.514   0.007  -1.217  0.00  0.00     0.020 C 
ATOM      9  C   UNL d   1      -1.395  -0.017   1.169  0.00  0.00     0.020 C 
ATOM     10  C   UNL d   1      -2.615   0.824   0.804  0.00  0.00     0.001 C 
ATOM     11  C   UNL d   1      -2.683   0.850  -0.722  0.00  0.00     0.001 C 
ENDROOT
BRANCH   1  12
ATOM     12  C   UNL d   1       2.860  -1.605   0.179  0.00  0.00     0.045 A 
ATOM     13  C   UNL d   1       4.076  -1.176   0.737  0.00  0.00     0.031 A 
ATOM     14  C   UNL d   1       5.187  -2.027   0.824  0.00  0.00     0.020 A 
ATOM     15  C   UNL d   1       5.104  -3.329   0.346  0.00  0.00     0.006 A 
ATOM     16  C   UNL d   1       3.917  -3.783  -0.214  0.00  0.00     0.020 A 
ATOM     17  I   UNL d   1       6.747  -4.591   0.465  0.00  0.00    -0.045 I 
ATOM     18  C   UNL d   1       2.809  -2.929  -0.292  0.00  0.00     0.031 A 
ENDBRANCH   1  12
TORSDOF 1
