REMARK  10 active torsions:
REMARK  status: ('A' for Active; 'I' for Inactive)
REMARK    1  A    between atoms: C_2  and  C_1 
REMARK       I    between atoms: N_5  and  C_2 
REMARK    2  A    between atoms: C_4  and  C_3 
REMARK    3  A    between atoms: O_11  and  C_4 
REMARK    4  A    between atoms: C_9  and  N_5 
REMARK    5  A    between atoms: O_8  and  C_13 
REMARK    6  A    between atoms: C_12  and  O_8 
REMARK    7  A    between atoms: C_10  and  C_9 
REMARK    8  A    between atoms: C_13  and  C_10 
REMARK    9  A    between atoms: O_19  and  C_10 
REMARK   10  A    between atoms: O_22  and  C_14 
ROOT
ATOM      1  C   UNL d   1       2.361   1.906   2.475  0.00  0.00     0.252 C 
ATOM      2  N   UNL d   1       2.410   2.534   1.258  0.00  0.00    -0.354 N 
ATOM      3  O   UNL d   1       3.151   1.020   2.785  0.00  0.00    -0.268 OA
ATOM      4  H   UNL d   1       1.954   3.435   1.134  0.00  0.00     0.162 HD
ENDROOT
BRANCH   2   5
ATOM      5  C   UNL d   1       3.401   2.184   0.248  0.00  0.00     0.156 C 
BRANCH   5   6
ATOM      6  C   UNL d   1       4.615   3.123   0.261  0.00  0.00     0.160 C 
BRANCH   6   7
ATOM      7  C   UNL d   1       5.545   2.783  -0.919  0.00  0.00     0.209 C 
BRANCH   7   8
ATOM      8  O   UNL d   1       6.728   3.586  -0.859  0.00  0.00    -0.349 OA
BRANCH   8   9
ATOM      9  C   UNL d   1       7.624   3.423  -1.883  0.00  0.00     0.069 A 
ATOM     10  C   UNL d   1       7.326   2.939  -3.156  0.00  0.00     0.039 A 
ATOM     11  C   UNL d   1       8.325   2.843  -4.135  0.00  0.00     0.039 A 
ATOM     12  C   UNL d   1       9.634   3.225  -3.849  0.00  0.00     0.068 A 
ATOM     13  C   UNL d   1       9.931   3.719  -2.578  0.00  0.00     0.039 A 
ATOM     14  C   UNL d   1       8.931   3.826  -1.604  0.00  0.00     0.039 A 
BRANCH  12  15
ATOM     15  O   UNL d   1      10.693   3.167  -4.711  0.00  0.00    -0.356 OA
ATOM     16  C   UNL d   1      10.427   2.682  -6.023  0.00  0.00     0.210 C 
ENDBRANCH  12  15
ENDBRANCH   8   9
ENDBRANCH   7   8
ENDBRANCH   6   7
BRANCH   6  17
ATOM     17  O   UNL d   1       4.132   4.476   0.157  0.00  0.00    -0.392 OA
ATOM     18  H   UNL d   1       3.875   4.642  -0.766  0.00  0.00     0.210 HD
ENDBRANCH   6  17
ENDBRANCH   5   6
ENDBRANCH   2   5
BRANCH   1  19
ATOM     19  C   UNL d   1       1.258   2.269   3.412  0.00  0.00     0.048 A 
ATOM     20  C   UNL d   1      -0.032   2.696   3.051  0.00  0.00     0.053 A 
ATOM     21  C   UNL d   1      -0.996   2.891   4.066  0.00  0.00     0.019 A 
ATOM     22  C   UNL d   1      -0.692   2.673   5.409  0.00  0.00     0.001 A 
ATOM     23  C   UNL d   1       0.588   2.272   5.767  0.00  0.00     0.001 A 
ATOM     24  C   UNL d   1       1.550   2.069   4.776  0.00  0.00     0.018 A 
BRANCH  20  25
ATOM     25  C   UNL d   1      -0.532   3.000   1.684  0.00  0.00     0.177 C 
ATOM     26  O   UNL d   1      -1.310   3.916   1.478  0.00  0.00    -0.646 OA
BRANCH  25  27
ATOM     27  O   UNL d   1      -0.145   2.162   0.704  0.00  0.00    -0.773 OA
ATOM     28  H   UNL d   1       0.545   1.512   0.939  0.00  0.00     0.167 HD
ENDBRANCH  25  27
ENDBRANCH  20  25
ENDBRANCH   1  19
TORSDOF 10
