REMARK  8 active torsions:
REMARK  status: ('A' for Active; 'I' for Inactive)
REMARK    1  A    between atoms: N_2  and  C_1 
REMARK    2  A    between atoms: C_3  and  C_1 
REMARK    3  A    between atoms: C_5  and  C_1 
REMARK    4  A    between atoms: N_6  and  C_1 
REMARK       I    between atoms: C_4  and  N_2 
REMARK    5  A    between atoms: C_7  and  C_4 
REMARK    6  A    between atoms: O_16  and  C_5 
REMARK    7  A    between atoms: C_14  and  N_6 
REMARK    8  A    between atoms: C_27  and  O_16 
ROOT
ATOM      1  C   UNL d   1       0.822  -0.054  -0.069  0.00  0.00     0.297 C 
ENDROOT
BRANCH   1   2
ATOM      2  N   UNL d   1       0.305   0.241  -1.417  0.00  0.00    -0.315 N 
ATOM      3  C   UNL d   1       0.162  -0.701  -2.395  0.00  0.00     0.254 C 
ATOM      4  O   UNL d   1       0.460  -1.877  -2.256  0.00  0.00    -0.268 OA
ATOM      5  H   UNL d   1      -0.160   1.135  -1.521  0.00  0.00     0.166 HD
BRANCH   3   6
ATOM      6  C   UNL d   1      -0.451  -0.196  -3.653  0.00  0.00     0.033 A 
ATOM      7  C   UNL d   1      -0.048   1.032  -4.191  0.00  0.00     0.041 A 
ATOM      8  C   UNL d   1      -0.660   1.508  -5.349  0.00  0.00     0.035 A 
ATOM      9 CL   UNL d   1      -0.172   3.021  -6.007  0.00  0.00    -0.084 Cl
ATOM     10  C   UNL d   1      -1.665   0.771  -5.973  0.00  0.00     0.024 A 
ATOM     11  C   UNL d   1      -2.057  -0.460  -5.442  0.00  0.00     0.003 A 
ATOM     12  C   UNL d   1      -1.445  -0.949  -4.285  0.00  0.00     0.017 A 
ENDBRANCH   3   6
ENDBRANCH   1   2
BRANCH   1  13
ATOM     13  C   UNL d   1       0.172  -1.291   0.652  0.00  0.00     0.442 C 
ATOM     14  F   UNL d   1      -1.020  -1.642   0.109  0.00  0.00    -0.166 F 
ATOM     15  F   UNL d   1       0.982  -2.382   0.594  0.00  0.00    -0.166 F 
ATOM     16  F   UNL d   1      -0.068  -1.077   1.971  0.00  0.00    -0.166 F 
ENDBRANCH   1  13
BRANCH   1  17
ATOM     17  C   UNL d   1       0.396   1.125   0.832  0.00  0.00     0.318 C 
ATOM     18  O   UNL d   1      -0.568   1.844   0.580  0.00  0.00    -0.260 OA
BRANCH  17  19
ATOM     19  O   UNL d   1       1.228   1.306   1.899  0.00  0.00    -0.318 OA
BRANCH  19  20
ATOM     20  C   UNL d   1       0.947   2.429   2.743  0.00  0.00     0.174 C 
ATOM     21  C   UNL d   1       1.479   3.711   2.130  0.00  0.00     0.034 C 
ENDBRANCH  19  20
ENDBRANCH  17  19
ENDBRANCH   1  17
BRANCH   1  22
ATOM     22  N   UNL d   1       2.303  -0.155  -0.200  0.00  0.00    -0.348 N 
ATOM     23  H   UNL d   1       2.580  -1.107  -0.441  0.00  0.00     0.163 HD
BRANCH  22  24
ATOM     24  C   UNL d   1       3.170   0.811  -0.688  0.00  0.00     0.030 A 
ATOM     25  C   UNL d   1       2.800   2.116  -1.035  0.00  0.00     0.031 A 
ATOM     26  C   UNL d   1       3.745   3.060  -1.454  0.00  0.00     0.026 A 
ATOM     27  C   UNL d   1       5.090   2.720  -1.500  0.00  0.00     0.034 A 
ATOM     28  C   UNL d   1       5.497   1.446  -1.124  0.00  0.00     0.026 A 
ATOM     29 CL   UNL d   1       6.250   3.881  -2.011  0.00  0.00    -0.084 Cl
ATOM     30  C   UNL d   1       4.542   0.507  -0.716  0.00  0.00     0.031 A 
ENDBRANCH  22  24
ENDBRANCH   1  22
TORSDOF 8
