REMARK  6 active torsions:
REMARK  status: ('A' for Active; 'I' for Inactive)
REMARK    1  A    between atoms: C_3  and  C_1 
REMARK    2  A    between atoms: C_11  and  N_4 
REMARK    3  A    between atoms: C_5  and  C_6 
REMARK    4  A    between atoms: C_7  and  C_9 
REMARK       I    between atoms: N_10  and  C_7 
REMARK    5  A    between atoms: C_9  and  C_11 
REMARK    6  A    between atoms: C_16  and  N_10 
ROOT
ATOM      1  C   UNL d   1       4.818   1.468  -0.577  0.00  0.00     0.223 C 
ATOM      2  N   UNL d   1       5.698   1.286  -1.631  0.00  0.00    -0.327 N 
ATOM      3  O   UNL d   1       4.853   2.378   0.247  0.00  0.00    -0.273 OA
ATOM      4  H   UNL d   1       5.380   0.665  -2.373  0.00  0.00     0.169 HD
ENDROOT
BRANCH   1   5
ATOM      5  C   UNL d   1       3.759   0.396  -0.471  0.00  0.00     0.123 C 
BRANCH   5   6
ATOM      6  C   UNL d   1       2.350   0.990  -0.451  0.00  0.00     0.140 C 
BRANCH   6   7
ATOM      7  N   UNL d   1       1.812   1.646  -1.665  0.00  0.00    -0.324 N 
ATOM      8  C   UNL d   1       2.298   1.363  -2.948  0.00  0.00     0.262 A 
ATOM      9  C   UNL d   1       1.640   2.077  -4.079  0.00  0.00     0.115 A 
ATOM     10  O   UNL d   1       3.215   0.580  -3.164  0.00  0.00    -0.267 OA
ATOM     11  C   UNL d   1       0.556   2.834  -3.839  0.00  0.00     0.023 A 
ATOM     12  C   UNL d   1       0.036   2.992  -2.513  0.00  0.00     0.018 A 
ATOM     13  C   UNL d   1       0.677   2.425  -1.482  0.00  0.00     0.094 A 
BRANCH   9  14
ATOM     14  C   UNL d   1       2.230   1.931  -5.434  0.00  0.00     0.422 C 
ATOM     15  F   UNL d   1       3.390   1.235  -5.521  0.00  0.00    -0.166 F 
ATOM     16  F   UNL d   1       1.355   1.328  -6.286  0.00  0.00    -0.166 F 
ATOM     17  F   UNL d   1       2.490   3.154  -5.978  0.00  0.00    -0.166 F 
ENDBRANCH   9  14
ENDBRANCH   6   7
ENDBRANCH   5   6
ENDBRANCH   1   5
BRANCH   2  18
ATOM     18  C   UNL d   1       6.820   2.095  -1.919  0.00  0.00     0.035 A 
ATOM     19  C   UNL d   1       7.376   2.980  -0.989  0.00  0.00     0.045 A 
ATOM     20  C   UNL d   1       8.402   3.868  -1.352  0.00  0.00     0.050 A 
ATOM     21  C   UNL d   1       8.914   3.817  -2.655  0.00  0.00     0.016 A 
ATOM     22  C   UNL d   1       8.416   2.885  -3.567  0.00  0.00     0.003 A 
ATOM     23  C   UNL d   1       7.378   2.025  -3.200  0.00  0.00     0.029 A 
BRANCH  20  24
ATOM     24  C   UNL d   1       8.904   4.902  -0.375  0.00  0.00     0.417 C 
ATOM     25  F   UNL d   1       8.350   4.810   0.866  0.00  0.00    -0.166 F 
ATOM     26  F   UNL d   1      10.251   4.833  -0.185  0.00  0.00    -0.166 F 
ATOM     27  F   UNL d   1       8.654   6.173  -0.799  0.00  0.00    -0.166 F 
ENDBRANCH  20  24
ENDBRANCH   2  18
TORSDOF 6
