REMARK  4 active torsions:
REMARK  status: ('A' for Active; 'I' for Inactive)
REMARK    1  A    between atoms: C_5  and  C_1 
REMARK    2  A    between atoms: N_3  and  C_2 
REMARK       I    between atoms: C_4  and  N_3 
REMARK    3  A    between atoms: C_9  and  C_4 
REMARK    4  A    between atoms: O_10  and  C_5 
ROOT
ATOM      1  C   UNL d   1      -1.226   1.937   0.336  0.00  0.00     0.070 A 
ATOM      2  C   UNL d   1       0.163   1.640   0.333  0.00  0.00     0.052 A 
ATOM      3  C   UNL d   1      -2.164   0.927   0.659  0.00  0.00    -0.043 A 
ATOM      4  C   UNL d   1       0.585   0.334   0.599  0.00  0.00     0.030 A 
ATOM      5  C   UNL d   1      -0.338  -0.669   0.882  0.00  0.00     0.003 A 
ATOM      6  C   UNL d   1      -1.697  -0.372   0.924  0.00  0.00     0.008 A 
ATOM      7  C   UNL d   1      -3.651   1.139   0.777  0.00  0.00     0.049 C 
ENDROOT
BRANCH   2   8
ATOM      8  N   UNL d   1       1.113   2.649   0.044  0.00  0.00    -0.326 N 
ATOM      9  C   UNL d   1       2.406   2.725   0.555  0.00  0.00     0.226 C 
ATOM     10  O   UNL d   1       2.902   1.940   1.356  0.00  0.00    -0.273 OA
ATOM     11  H   UNL d   1       0.736   3.479  -0.406  0.00  0.00     0.169 HD
BRANCH   9  12
ATOM     12  C   UNL d   1       3.180   3.923   0.005  0.00  0.00     0.078 C 
ATOM     13  C   UNL d   1       3.969   3.499  -1.243  0.00  0.00     0.014 C 
ATOM     14  C   UNL d   1       5.367   2.961  -0.948  0.00  0.00     0.001 C 
ATOM     15  C   UNL d   1       6.146   3.901  -0.041  0.00  0.00     0.000 C 
ATOM     16  C   UNL d   1       5.421   4.064   1.286  0.00  0.00     0.001 C 
ATOM     17  C   UNL d   1       4.016   4.624   1.088  0.00  0.00     0.014 C 
ENDBRANCH   9  12
ENDBRANCH   2   8
BRANCH   1  18
ATOM     18  C   UNL d   1      -1.689   3.329   0.096  0.00  0.00     0.179 C 
ATOM     19  O   UNL d   1      -2.567   3.930   0.687  0.00  0.00    -0.646 OA
BRANCH  18  20
ATOM     20  O   UNL d   1      -1.036   3.915  -0.930  0.00  0.00    -0.773 OA
ATOM     21  H   UNL d   1      -1.519   4.765  -1.042  0.00  0.00     0.167 HD
ENDBRANCH  18  20
ENDBRANCH   1  18
TORSDOF 4
