REMARK  2 active torsions:
REMARK  status: ('A' for Active; 'I' for Inactive)
REMARK    1  A    between atoms: N_2  and  C_1 
REMARK    2  A    between atoms: C_3  and  C_8 
REMARK       I    between atoms: N_14  and  C_3 
ROOT
ATOM      1  N   UNL d   1       0.264  -2.159  -0.200  0.00  0.00    -0.378 N 
ATOM      2  C   UNL d   1       0.990  -4.836  -0.966  0.00  0.00     0.081 C 
ATOM      3  C   UNL d   1       0.866  -3.015   0.821  0.00  0.00     0.124 C 
ATOM      4  C   UNL d   1      -0.623  -2.873  -1.130  0.00  0.00     0.124 C 
ATOM      5  C   UNL d   1       1.745  -4.057   0.123  0.00  0.00     0.034 C 
ATOM      6  C   UNL d   1       0.233  -3.885  -1.905  0.00  0.00     0.034 C 
ENDROOT
BRANCH   1   7
ATOM      7  C   UNL d   1       0.095  -0.780  -0.018  0.00  0.00     0.077 A 
ATOM      8  C   UNL d   1       0.264   0.118  -1.105  0.00  0.00     0.077 A 
ATOM      9 CL   UNL d   1       0.712  -0.384  -2.705  0.00  0.00    -0.080 Cl
ATOM     10  C   UNL d   1       0.158   1.495  -0.908  0.00  0.00     0.113 A 
ATOM     11  N   UNL d   1      -0.082   2.078   0.283  0.00  0.00    -0.372 N 
ATOM     12  C   UNL d   1      -0.248   1.229   1.318  0.00  0.00     0.113 A 
ATOM     13  HN  UNL d   1      -0.136   3.090   0.394  1.00  0.00     0.164 HD
ATOM     14  C   UNL d   1      -0.192  -0.166   1.225  0.00  0.00     0.077 A 
ATOM     15 CL   UNL d   1      -0.570  -1.027   2.680  0.00  0.00    -0.080 Cl
ENDBRANCH   1   7
BRANCH   2  16
ATOM     16  C   UNL d   1       0.058  -5.890  -0.379  0.00  0.00     0.219 C 
ATOM     17  O   UNL d   1      -1.146  -5.950  -0.602  0.00  0.00    -0.273 OA
ATOM     18  N   UNL d   1       0.654  -6.827   0.411  0.00  0.00    -0.370 N 
ATOM     19  H   UNL d   1       1.655  -6.961   0.434  0.00  0.00     0.159 HD
ATOM     20  H   UNL d   1       0.068  -7.587   0.732  0.00  0.00     0.159 HD
ENDBRANCH   2  16
TORSDOF 2
