REMARK  1 active torsions:
REMARK  status: ('A' for Active; 'I' for Inactive)
REMARK    1  A    between atoms: C_2  and  C_1 
REMARK       I    between atoms: N_6  and  C_2 
ROOT
ATOM      1  C   UNL d   1      -0.876  -1.542   0.163  0.00  0.00     0.044 A 
ATOM      2  C   UNL d   1      -0.697  -0.116   0.142  0.00  0.00     0.007 A 
ATOM      3  C   UNL d   1       0.504   0.658   0.291  0.00  0.00     0.023 A 
ATOM      4  C   UNL d   1      -1.895   0.647  -0.025  0.00  0.00    -0.024 A 
ATOM      5 BR   UNL d   1       2.195  -0.062   0.797  0.00  0.00    -0.050 Br
ATOM      6  C   UNL d   1      -2.155  -2.132   0.109  0.00  0.00     0.018 A 
ATOM      7  C   UNL d   1      -3.291  -1.349  -0.005  0.00  0.00     0.002 A 
ATOM      8  C   UNL d   1      -0.670   2.751  -0.041  0.00  0.00     0.002 A 
ATOM      9  C   UNL d   1       0.510   2.058   0.175  0.00  0.00     0.020 A 
ATOM     10  C   UNL d   1      -1.862   2.046  -0.118  0.00  0.00     0.012 A 
ATOM     11  C   UNL d   1      -3.154   0.029  -0.087  0.00  0.00     0.012 A 
ENDROOT
BRANCH   1  12
ATOM     12  C   UNL d   1       0.209  -2.556   0.188  0.00  0.00     0.252 C 
ATOM     13  O   UNL d   1       0.207  -3.427   1.052  0.00  0.00    -0.268 OA
ATOM     14  N   UNL d   1       1.102  -2.517  -0.862  0.00  0.00    -0.361 N 
ATOM     15  C   UNL d   1       2.199  -3.450  -0.912  0.00  0.00     0.149 C 
ATOM     16  H   UNL d   1       1.129  -1.696  -1.451  0.00  0.00     0.162 HD
ENDBRANCH   1  12
TORSDOF 1
