REMARK  4 active torsions:
REMARK  status: ('A' for Active; 'I' for Inactive)
REMARK    1  A    between atoms: C_8  and  C_2 
REMARK    2  A    between atoms: S_19  and  C_5 
REMARK    3  A    between atoms: C_25  and  S_19 
REMARK    4  A    between atoms: C_23  and  C_25 
ROOT
ATOM      1  N   UNL d   1       0.837  -0.006  -0.003  0.00  0.00    -0.315 N 
ATOM      2  C   UNL d   1       0.002   1.091  -0.098  0.00  0.00     0.134 A 
ATOM      3  N   UNL d   1      -1.244   0.645  -0.133  0.00  0.00    -0.283 N 
ATOM      4  HN  UNL d   1      -2.082   1.227  -0.148  1.00  0.00     0.188 HD
ATOM      5  C   UNL d   1       0.024  -1.108  -0.085  0.00  0.00     0.162 A 
ATOM      6  N   UNL d   1      -1.228  -0.730  -0.147  0.00  0.00    -0.278 N 
ATOM      7  HN  UNL d   1      -2.042  -1.343  -0.198  1.00  0.00     0.189 HD
ATOM      8  C   UNL d   1       2.266  -0.032   0.186  0.00  0.00     0.160 C 
ENDROOT
BRANCH   2   9
ATOM      9  C   UNL d   1       0.378   2.515  -0.133  0.00  0.00     0.012 A 
ATOM     10  C   UNL d   1       1.512   2.945  -0.858  0.00  0.00     0.049 A 
ATOM     11  C   UNL d   1       1.779   4.328  -0.804  0.00  0.00     0.086 A 
ATOM     12  N   UNL d   1       2.792   5.011  -1.351  0.00  0.00    -0.240 N 
ATOM     13  C   UNL d   1       0.926   5.263  -0.090  0.00  0.00     0.085 A 
ATOM     14  O   UNL d   1       2.585   6.335  -0.994  0.00  0.00    -0.156 OA
ATOM     15  HN  UNL d   1       3.556   4.637  -1.913  1.00  0.00     0.197 HD
ATOM     16  N   UNL d   1       1.444   6.490  -0.225  0.00  0.00    -0.240 N 
ATOM     17  HN  UNL d   1       1.075   7.360   0.160  1.00  0.00     0.197 HD
ATOM     18  C   UNL d   1      -0.229   4.849   0.593  0.00  0.00     0.035 A 
ATOM     19  C   UNL d   1      -0.465   3.455   0.545  0.00  0.00     0.018 A 
ENDBRANCH   2   9
BRANCH   5  20
ATOM     20  S   UNL d   1       0.616  -2.734  -0.085  0.00  0.00    -0.088 SA
BRANCH  20  21
ATOM     21  C   UNL d   1      -0.766  -3.610  -0.875  0.00  0.00     0.121 C 
BRANCH  21  22
ATOM     22  C   UNL d   1      -0.499  -5.096  -0.956  0.00  0.00    -0.043 A 
ATOM     23  C   UNL d   1      -0.939  -5.957   0.064  0.00  0.00     0.050 A 
ATOM     24  C   UNL d   1      -0.683  -7.326  -0.015  0.00  0.00     0.119 A 
ATOM     25  F   UNL d   1      -1.121  -8.130   0.965  0.00  0.00    -0.206 F 
ATOM     26  C   UNL d   1       0.008  -7.870  -1.085  0.00  0.00     0.084 A 
ATOM     27  C   UNL d   1       0.454  -7.021  -2.087  0.00  0.00     0.119 A 
ATOM     28  C   UNL d   1       0.211  -5.647  -2.033  0.00  0.00     0.050 A 
ATOM     29  F   UNL d   1       1.131  -7.526  -3.126  0.00  0.00    -0.206 F 
ENDBRANCH  21  22
ENDBRANCH  20  21
ENDBRANCH   5  20
TORSDOF 4
