REMARK  3 active torsions:
REMARK  status: ('A' for Active; 'I' for Inactive)
REMARK       I    between atoms: N_2  and  C_1 
REMARK    1  A    between atoms: C_8  and  C_1 
REMARK    2  A    between atoms: C_3  and  N_2 
REMARK    3  A    between atoms: N_4  and  C_8 
ROOT
ATOM      1  C   UNL d   1       1.267   0.036   0.215  0.00  0.00     0.250 C 
ATOM      2  N   UNL d   1       1.998   0.048  -0.958  0.00  0.00    -0.323 N 
ATOM      3  O   UNL d   1       1.226   0.960   1.030  0.00  0.00    -0.271 OA
ATOM      4  H   UNL d   1       1.738  -0.638  -1.662  0.00  0.00     0.169 HD
ENDROOT
BRANCH   1   5
ATOM      5  C   UNL d   1       0.424  -1.224   0.415  0.00  0.00     0.375 C 
BRANCH   5   6
ATOM      6  N   UNL d   1       1.209  -2.454   0.168  0.00  0.00     0.100 N 
ATOM      7  C   UNL d   1       2.366  -2.550   1.088  0.00  0.00     0.303 C 
ATOM      8  C   UNL d   1       3.157  -3.861   0.876  0.00  0.00     0.302 C 
ATOM      9  N   UNL d   1       2.355  -5.091   1.014  0.00  0.00     0.087 N 
ATOM     10  C   UNL d   1       1.130  -4.972   0.198  0.00  0.00     0.302 C 
ATOM     11  C   UNL d   1       2.054  -5.381   2.415  0.00  0.00     0.310 C 
ATOM     12  C   UNL d   1       0.351  -3.643   0.363  0.00  0.00     0.303 C 
ENDBRANCH   5   6
ENDBRANCH   1   5
BRANCH   2  13
ATOM     13  C   UNL d   1       2.913   1.052  -1.333  0.00  0.00     0.073 A 
ATOM     14  C   UNL d   1       3.120   1.293  -2.695  0.00  0.00     0.145 A 
ATOM     15  C   UNL d   1       3.969   2.306  -3.126  0.00  0.00     0.086 A 
ATOM     16  F   UNL d   1       2.451   0.573  -3.607  0.00  0.00    -0.204 F 
ATOM     17  C   UNL d   1       4.658   3.052  -2.179  0.00  0.00     0.119 A 
ATOM     18  C   UNL d   1       4.512   2.796  -0.819  0.00  0.00     0.044 A 
ATOM     19  F   UNL d   1       5.480   4.030  -2.579  0.00  0.00    -0.206 F 
ATOM     20  C   UNL d   1       3.627   1.801  -0.394  0.00  0.00     0.036 A 
ENDBRANCH   2  13
TORSDOF 3
