REMARK  4 active torsions:
REMARK  status: ('A' for Active; 'I' for Inactive)
REMARK    1  A    between atoms: C_4  and  C_1 
REMARK    2  A    between atoms: N_13  and  C_1 
REMARK    3  A    between atoms: N_6  and  N_2 
REMARK       I    between atoms: C_5  and  N_6 
REMARK    4  A    between atoms: C_9  and  C_5 
ROOT
ATOM      1  C   UNL d   1       2.609  -0.588   0.914  0.00  0.00     0.121 C 
ATOM      2  N   UNL d   1       2.129  -1.680   1.436  0.00  0.00    -0.285 N 
ATOM      3  HN  UNL d   1       2.583  -2.140   2.225  1.00  0.00     0.188 HD
ENDROOT
BRANCH   2   4
ATOM      4  N   UNL d   1       0.988  -2.181   0.877  0.00  0.00    -0.265 N 
ATOM      5  C   UNL d   1       0.403  -3.308   1.438  0.00  0.00     0.270 C 
ATOM      6  O   UNL d   1       0.812  -3.855   2.460  0.00  0.00    -0.266 OA
ATOM      7  H   UNL d   1       0.784  -1.880  -0.066  0.00  0.00     0.190 HD
BRANCH   5   8
ATOM      8  C   UNL d   1      -0.789  -3.880   0.737  0.00  0.00     0.033 A 
ATOM      9  C   UNL d   1      -1.418  -3.265  -0.353  0.00  0.00     0.017 A 
ATOM     10  C   UNL d   1      -2.513  -3.878  -0.977  0.00  0.00     0.007 A 
ATOM     11  C   UNL d   1      -3.003  -5.106  -0.519  0.00  0.00    -0.062 A 
ATOM     12  C   UNL d   1      -2.403  -5.703   0.593  0.00  0.00     0.007 A 
ATOM     13  C   UNL d   1      -4.149  -5.768  -1.226  0.00  0.00     0.048 C 
ATOM     14  C   UNL d   1      -1.308  -5.094   1.215  0.00  0.00     0.017 A 
ENDBRANCH   5   8
ENDBRANCH   2   4
BRANCH   1  15
ATOM     15  C   UNL d   1       3.932  -0.091   1.423  0.00  0.00     0.087 A 
ATOM     16  N   UNL d   1       4.381   1.076   0.886  0.00  0.00    -0.361 N 
ATOM     17  C   UNL d   1       5.595   1.480   1.342  0.00  0.00     0.105 A 
ATOM     18  HN  UNL d   1       3.848   1.606   0.197  1.00  0.00     0.165 HD
ATOM     19  C   UNL d   1       6.313   0.769   2.292  0.00  0.00     0.104 A 
ATOM     20  N   UNL d   1       5.858  -0.384   2.835  0.00  0.00    -0.372 N 
ATOM     21  C   UNL d   1       4.648  -0.802   2.378  0.00  0.00     0.120 A 
ATOM     22  HN  UNL d   1       6.385  -0.902   3.537  1.00  0.00     0.164 HD
ENDBRANCH   1  15
BRANCH   1  23
ATOM     23  N   UNL d   1       1.961   0.149  -0.061  0.00  0.00    -0.286 NA
ATOM     24  H   UNL d   1       0.959   0.200   0.086  0.00  0.00     0.125 HD
ATOM     25  H   UNL d   1       2.362   1.089  -0.140  0.00  0.00     0.125 HD
ENDBRANCH   1  23
TORSDOF 4
