REMARK  5 active torsions:
REMARK  status: ('A' for Active; 'I' for Inactive)
REMARK    1  A    between atoms: C_4  and  S_1 
REMARK    2  A    between atoms: C_17  and  S_1 
REMARK       I    between atoms: C_2  and  N_5 
REMARK       I    between atoms: N_6  and  C_2 
REMARK    3  A    between atoms: N_5  and  C_3 
REMARK    4  A    between atoms: C_8  and  N_6 
REMARK    5  A    between atoms: O_18  and  C_12 
ROOT
ATOM      1  C   UNL d   1      -0.909  -0.695   5.997  0.00  0.00     0.325 C 
ATOM      2  N   UNL d   1      -0.850  -0.025   4.792  0.00  0.00    -0.306 N 
ATOM      3  N   UNL d   1      -1.442   0.124   6.988  0.00  0.00    -0.308 N 
ATOM      4  O   UNL d   1      -0.625  -1.878   6.146  0.00  0.00    -0.247 OA
ATOM      5  H   UNL d   1      -1.031   0.971   4.776  0.00  0.00     0.171 HD
ATOM      6  H   UNL d   1      -1.917   0.934   6.633  0.00  0.00     0.170 HD
ENDROOT
BRANCH   2   7
ATOM      7  C   UNL d   1      -0.707  -0.597   3.508  0.00  0.00     0.071 A 
ATOM      8  C   UNL d   1      -0.406  -1.941   3.279  0.00  0.00     0.055 A 
ATOM      9  C   UNL d   1      -0.388  -2.432   1.970  0.00  0.00     0.061 A 
ATOM     10  C   UNL d   1      -0.663  -1.593   0.885  0.00  0.00     0.026 A 
ATOM     11  C   UNL d   1      -0.925  -0.241   1.106  0.00  0.00     0.040 A 
ATOM     12  C   UNL d   1      -0.932   0.248   2.412  0.00  0.00     0.092 A 
BRANCH   9  13
ATOM     13  S   UNL d   1       0.050  -4.132   1.678  0.00  0.00     0.175 S 
ATOM     14  O   UNL d   1       1.430  -4.270   2.097  0.00  0.00    -0.223 OA
ATOM     15  O   UNL d   1      -0.348  -4.439   0.315  0.00  0.00    -0.223 OA
BRANCH  13  16
ATOM     16  C   UNL d   1      -0.984  -5.097   2.765  0.00  0.00     0.141 C 
ATOM     17  C   UNL d   1      -0.699  -6.581   2.612  0.00  0.00     0.021 C 
ENDBRANCH  13  16
ENDBRANCH   9  13
BRANCH  12  18
ATOM     18  O   UNL d   1      -1.186   1.575   2.656  0.00  0.00    -0.358 OA
ATOM     19  H   UNL d   1      -1.172   2.047   1.804  0.00  0.00     0.217 HD
ENDBRANCH  12  18
ENDBRANCH   2   7
BRANCH   3  20
ATOM     20  C   UNL d   1      -1.880  -0.363   8.251  0.00  0.00     0.047 A 
ATOM     21  C   UNL d   1      -3.061   0.172   8.851  0.00  0.00     0.001 A 
ATOM     22  C   UNL d   1      -3.569  -0.471  10.010  0.00  0.00    -0.024 A 
ATOM     23  C   UNL d   1      -3.800   1.276   8.351  0.00  0.00     0.014 A 
ATOM     24  C   UNL d   1      -4.780  -0.048  10.582  0.00  0.00     0.012 A 
ATOM     25  C   UNL d   1      -2.876  -1.547  10.582  0.00  0.00     0.012 A 
ATOM     26  C   UNL d   1      -5.494   1.022  10.047  0.00  0.00     0.001 A 
ATOM     27  C   UNL d   1      -4.996   1.694   8.941  0.00  0.00     0.001 A 
ATOM     28  C   UNL d   1      -1.683  -2.000  10.033  0.00  0.00     0.003 A 
ATOM     29  C   UNL d   1      -1.190  -1.413   8.874  0.00  0.00     0.030 A 
ENDBRANCH   3  20
TORSDOF 5
