REMARK  5 active torsions:
REMARK  status: ('A' for Active; 'I' for Inactive)
REMARK    1  A    between atoms: N_2  and  C_1 
REMARK    2  A    between atoms: N_4  and  C_1 
REMARK    3  A    between atoms: C_5  and  N_2 
REMARK    4  A    between atoms: C_6  and  N_4 
REMARK    5  A    between atoms: C_13  and  C_6 
ROOT
ATOM      1  C   UNL d   1       1.036   0.065  -0.053  0.00  0.00     0.172 C 
ATOM      2  S   UNL d   1       0.240  -0.591   1.259  0.00  0.00    -0.041 SA
ENDROOT
BRANCH   1   3
ATOM      3  N   UNL d   1       0.473   0.702  -1.128  0.00  0.00    -0.333 N 
ATOM      4  H   UNL d   1       0.837   0.389  -2.019  0.00  0.00     0.168 HD
BRANCH   3   5
ATOM      5  C   UNL d   1      -0.644   1.554  -1.173  0.00  0.00     0.034 A 
ATOM      6  C   UNL d   1      -1.048   2.317  -0.075  0.00  0.00     0.031 A 
ATOM      7  C   UNL d   1      -2.094   3.236  -0.200  0.00  0.00     0.021 A 
ATOM      8  C   UNL d   1      -2.740   3.386  -1.424  0.00  0.00     0.011 A 
ATOM      9  C   UNL d   1      -2.349   2.628  -2.525  0.00  0.00     0.021 A 
ATOM     10 BR   UNL d   1      -4.139   4.644  -1.597  0.00  0.00    -0.051 Br
ATOM     11  C   UNL d   1      -1.292   1.722  -2.402  0.00  0.00     0.031 A 
ENDBRANCH   3   5
ENDBRANCH   1   3
BRANCH   1  12
ATOM     12  N   UNL d   1       2.392  -0.103  -0.139  0.00  0.00    -0.363 N 
ATOM     13  H   UNL d   1       2.785  -0.634   0.630  0.00  0.00     0.162 HD
BRANCH  12  14
ATOM     14  C   UNL d   1       3.299   0.839  -0.773  0.00  0.00     0.160 C 
BRANCH  14  15
ATOM     15  C   UNL d   1       4.293   0.138  -1.655  0.00  0.00    -0.041 A 
ATOM     16  C   UNL d   1       3.898  -0.367  -2.902  0.00  0.00     0.009 A 
ATOM     17  C   UNL d   1       4.821  -1.000  -3.734  0.00  0.00     0.001 A 
ATOM     18  C   UNL d   1       6.146  -1.138  -3.328  0.00  0.00     0.000 A 
ATOM     19  C   UNL d   1       6.549  -0.647  -2.087  0.00  0.00     0.001 A 
ATOM     20  C   UNL d   1       5.627  -0.014  -1.252  0.00  0.00     0.009 A 
ENDBRANCH  14  15
ENDBRANCH  12  14
ENDBRANCH   1  12
TORSDOF 5
