REMARK  5 active torsions:
REMARK  status: ('A' for Active; 'I' for Inactive)
REMARK    1  A    between atoms: C_3  and  C_1 
REMARK    2  A    between atoms: N_2  and  C_6 
REMARK       I    between atoms: N_7  and  C_3 
REMARK    3  A    between atoms: S_8  and  C_4 
REMARK    4  A    between atoms: C_17  and  N_7 
REMARK    5  A    between atoms: C_13  and  S_8 
ROOT
ATOM      1  C   UNL d   1       1.420  -0.007  -0.171  0.00  0.00     0.051 A 
ATOM      2  C   UNL d   1       0.659  -1.203  -0.077  0.00  0.00     0.017 A 
ATOM      3  C   UNL d   1       0.733   1.224  -0.223  0.00  0.00     0.054 A 
ATOM      4  C   UNL d   1      -0.667   1.271  -0.115  0.00  0.00     0.103 A 
ATOM      5  C   UNL d   1      -0.745  -1.123   0.040  0.00  0.00     0.022 A 
ATOM      6  C   UNL d   1      -1.411   0.099   0.020  0.00  0.00     0.037 A 
ENDROOT
BRANCH   1   7
ATOM      7  C   UNL d   1       2.925   0.005  -0.249  0.00  0.00     0.257 C 
ATOM      8  N   UNL d   1       3.578   1.188   0.111  0.00  0.00    -0.323 N 
ATOM      9  H   UNL d   1       3.087   1.846   0.700  0.00  0.00     0.169 HD
ATOM     10  O   UNL d   1       3.531  -1.004  -0.579  0.00  0.00    -0.267 OA
BRANCH   8  11
ATOM     11  C   UNL d   1       4.989   1.332   0.058  0.00  0.00     0.037 A 
ATOM     12  C   UNL d   1       5.773   0.681  -0.892  0.00  0.00     0.046 A 
ATOM     13  C   UNL d   1       7.150   0.792  -0.804  0.00  0.00     0.090 A 
ATOM     14  N   UNL d   1       7.783   1.506   0.151  0.00  0.00    -0.375 N 
ATOM     15  C   UNL d   1       7.000   2.156   1.036  0.00  0.00     0.090 A 
ATOM     16  HN  UNL d   1       8.801   1.551   0.200  1.00  0.00     0.164 HD
ATOM     17  C   UNL d   1       5.613   2.131   1.011  0.00  0.00     0.046 A 
ENDBRANCH   8  11
ENDBRANCH   1   7
BRANCH   2  18
ATOM     18  S   UNL d   1       1.280  -2.879   0.064  0.00  0.00    -0.120 SA
BRANCH  18  19
ATOM     19  C   UNL d   1       1.229  -3.532  -1.683  0.00  0.00     0.002 C 
ATOM     20  C   UNL d   1       2.422  -2.982  -2.469  0.00  0.00     0.026 C 
ATOM     21  C   UNL d   1       1.347  -5.062  -1.565  0.00  0.00     0.026 C 
ATOM     22  C   UNL d   1      -0.073  -3.214  -2.433  0.00  0.00     0.026 C 
ENDBRANCH  18  19
ENDBRANCH   2  18
BRANCH   4  23
ATOM     23  N   UNL d   1      -1.363   2.564  -0.124  0.00  0.00    -0.116 N 
ATOM     24  O   UNL d   1      -0.656   3.578  -0.202  0.00  0.00    -0.532 OA
ATOM     25  O   UNL d   1      -2.593   2.555  -0.040  0.00  0.00    -0.532 OA
ENDBRANCH   4  23
TORSDOF 5
