REMARK  4 active torsions:
REMARK  status: ('A' for Active; 'I' for Inactive)
REMARK    1  A    between atoms: C_4  and  C_1 
REMARK       I    between atoms: N_9  and  C_4 
REMARK    2  A    between atoms: N_12  and  N_9 
REMARK    3  A    between atoms: C_10  and  C_11 
REMARK    4  A    between atoms: C_16  and  N_12 
ROOT
ATOM      1  C   UNL d   1       0.590  -1.650  -0.861  0.00  0.00     0.276 C 
ATOM      2  N   UNL d   1       1.138  -2.926  -0.735  0.00  0.00    -0.282 N 
ATOM      3  O   UNL d   1       0.982  -0.736  -0.128  0.00  0.00    -0.266 OA
ATOM      4  H   UNL d   1       0.621  -3.736  -1.057  0.00  0.00     0.184 HD
ENDROOT
BRANCH   2   5
ATOM      5  N   UNL d   1       1.987  -3.138   0.374  0.00  0.00    -0.203 NA
ATOM      6  H   UNL d   1       2.244  -2.236   0.798  0.00  0.00     0.153 HD
BRANCH   5   7
ATOM      7  C   UNL d   1       3.142  -3.913   0.100  0.00  0.00     0.027 A 
ATOM      8  C   UNL d   1       4.295  -3.699   0.864  0.00  0.00     0.026 A 
ATOM      9  C   UNL d   1       5.421  -4.525   0.736  0.00  0.00     0.010 A 
ATOM     10  C   UNL d   1       5.430  -5.624  -0.141  0.00  0.00    -0.051 A 
ATOM     11  C   UNL d   1       4.268  -5.838  -0.897  0.00  0.00     0.010 A 
ATOM     12  C   UNL d   1       3.142  -5.005  -0.771  0.00  0.00     0.026 A 
BRANCH  10  13
ATOM     13  C   UNL d   1       6.664  -6.543  -0.223  0.00  0.00    -0.024 C 
ATOM     14  C   UNL d   1       6.481  -7.746  -1.177  0.00  0.00     0.019 C 
ATOM     15  C   UNL d   1       7.882  -5.738  -0.724  0.00  0.00     0.019 C 
ATOM     16  C   UNL d   1       6.988  -7.122   1.173  0.00  0.00     0.019 C 
ENDBRANCH  10  13
ENDBRANCH   5   7
ENDBRANCH   2   5
BRANCH   1  17
ATOM     17  C   UNL d   1      -0.438  -1.474  -1.863  0.00  0.00     0.115 A 
ATOM     18  C   UNL d   1      -1.248  -0.378  -2.142  0.00  0.00     0.046 A 
ATOM     19  N   UNL d   1      -2.110  -0.557  -3.222  0.00  0.00    -0.298 N 
ATOM     20  C   UNL d   1      -1.310   0.936  -1.451  0.00  0.00     0.071 C 
ATOM     21  N   UNL d   1      -1.983  -1.752  -3.768  0.00  0.00    -0.269 N 
ATOM     22  HN  UNL d   1      -2.764   0.153  -3.552  1.00  0.00     0.187 HD
ATOM     23  S   UNL d   1      -0.836  -2.689  -3.007  0.00  0.00     0.009 SA
ATOM     24  HN  UNL d   1      -2.528  -2.067  -4.570  1.00  0.00     0.195 HD
ENDBRANCH   1  17
TORSDOF 4
