REMARK  3 active torsions:
REMARK  status: ('A' for Active; 'I' for Inactive)
REMARK    1  A    between atoms: C_2  and  S_1 
REMARK    2  A    between atoms: C_11  and  S_1 
REMARK    3  A    between atoms: C_3  and  C_4 
ROOT
ATOM      1  C   UNL d   1       0.479  -1.190   1.193  0.00  0.00     0.145 C 
ATOM      2  C   UNL d   1      -0.433  -0.805   2.106  0.00  0.00     0.054 C 
ATOM      3  C   UNL d   1       1.016  -0.328   0.204  0.00  0.00     0.112 C 
ATOM      4  N   UNL d   1       1.433   0.393  -0.600  0.00  0.00    -0.191 NA
ENDROOT
BRANCH   1   5
ATOM      5  S   UNL d   1       0.916  -2.865   1.151  0.00  0.00     0.216 S 
ATOM      6  O   UNL d   1       0.146  -3.519   0.109  0.00  0.00    -0.216 OA
ATOM      7  O   UNL d   1       0.889  -3.408   2.500  0.00  0.00    -0.216 OA
BRANCH   5   8
ATOM      8  C   UNL d   1       2.630  -2.941   0.634  0.00  0.00     0.065 A 
ATOM      9  C   UNL d   1       3.644  -3.052   1.594  0.00  0.00     0.025 A 
ATOM     10  C   UNL d   1       4.964  -3.271   1.183  0.00  0.00     0.025 A 
ATOM     11  C   UNL d   1       5.261  -3.385  -0.176  0.00  0.00     0.034 A 
ATOM     12  C   UNL d   1       4.251  -3.275  -1.131  0.00  0.00     0.025 A 
ATOM     13 CL   UNL d   1       6.877  -3.699  -0.675  0.00  0.00    -0.084 Cl
ATOM     14  C   UNL d   1       2.930  -3.062  -0.729  0.00  0.00     0.025 A 
ENDBRANCH   5   8
ENDBRANCH   1   5
BRANCH   2  15
ATOM     15  C   UNL d   1      -0.862   0.552   2.192  0.00  0.00     0.014 A 
ATOM     16  S   UNL d   1      -0.080   1.582   3.315  0.00  0.00    -0.089 SA
ATOM     17  C   UNL d   1      -0.922   2.972   2.771  0.00  0.00     0.016 A 
ATOM     18  C   UNL d   1      -0.751   4.295   3.225  0.00  0.00     0.019 A 
ATOM     19  C   UNL d   1      -1.846   2.649   1.778  0.00  0.00    -0.012 A 
ATOM     20  C   UNL d   1      -1.525   5.311   2.660  0.00  0.00     0.001 A 
ATOM     21  C   UNL d   1      -2.449   5.022   1.669  0.00  0.00     0.001 A 
ATOM     22  C   UNL d   1      -2.617   3.706   1.227  0.00  0.00     0.013 A 
ATOM     23  C   UNL d   1      -1.838   1.230   1.473  0.00  0.00    -0.033 A 
ATOM     24  C   UNL d   1      -2.758   0.624   0.457  0.00  0.00     0.050 C 
ENDBRANCH   2  15
TORSDOF 3
