REMARK  8 active torsions:
REMARK  status: ('A' for Active; 'I' for Inactive)
REMARK    1  A    between atoms: C_8  and  N_1 
REMARK    2  A    between atoms: S_9  and  C_2 
REMARK    3  A    between atoms: C_21  and  S_9 
REMARK    4  A    between atoms: C_10  and  N_12 
REMARK    5  A    between atoms: C_11  and  C_21 
REMARK       I    between atoms: N_12  and  C_11 
REMARK    6  A    between atoms: O_22  and  C_23 
REMARK    7  A    between atoms: C_26  and  O_22 
REMARK    8  A    between atoms: C_29  and  C_26 
ROOT
ATOM      1  N   UNL d   1      -0.439   1.020  -0.130  0.00  0.00    -0.286 N 
ATOM      2  C   UNL d   1      -0.599  -0.054   0.747  0.00  0.00     0.167 A 
ATOM      3  N   UNL d   1      -0.018  -1.130   0.261  0.00  0.00    -0.279 N 
ATOM      4  HN  UNL d   1      -0.009  -2.052   0.698  1.00  0.00     0.189 HD
ATOM      5  N   UNL d   1       0.568  -0.804  -0.924  0.00  0.00    -0.294 N 
ATOM      6  HN  UNL d   1       1.095  -1.432  -1.530  1.00  0.00     0.187 HD
ATOM      7  C   UNL d   1       0.328   0.466  -1.140  0.00  0.00     0.207 A 
ENDROOT
BRANCH   1   8
ATOM      8  C   UNL d   1      -0.898   2.380  -0.099  0.00  0.00     0.042 A 
ATOM      9  C   UNL d   1      -1.754   2.860   0.896  0.00  0.00     0.033 A 
ATOM     10  C   UNL d   1      -2.175   4.196   0.921  0.00  0.00     0.039 A 
ATOM     11  C   UNL d   1      -1.762   5.086  -0.061  0.00  0.00     0.069 A 
ATOM     12  C   UNL d   1      -0.917   4.626  -1.066  0.00  0.00     0.039 A 
ATOM     13  C   UNL d   1      -0.493   3.289  -1.093  0.00  0.00     0.033 A 
BRANCH  11  14
ATOM     14  O   UNL d   1      -2.088   6.411  -0.123  0.00  0.00    -0.347 OA
BRANCH  14  15
ATOM     15  C   UNL d   1      -3.242   6.814   0.618  0.00  0.00     0.214 C 
BRANCH  15  16
ATOM     16  C   UNL d   1      -3.410   8.313   0.555  0.00  0.00    -0.034 A 
ATOM     17  C   UNL d   1      -4.694   8.875   0.500  0.00  0.00     0.009 A 
ATOM     18  C   UNL d   1      -4.862  10.260   0.526  0.00  0.00     0.001 A 
ATOM     19  C   UNL d   1      -3.750  11.097   0.613  0.00  0.00     0.000 A 
ATOM     20  C   UNL d   1      -2.470  10.550   0.678  0.00  0.00     0.001 A 
ATOM     21  C   UNL d   1      -2.301   9.166   0.655  0.00  0.00     0.009 A 
ENDBRANCH  15  16
ENDBRANCH  14  15
ENDBRANCH  11  14
ENDBRANCH   1   8
BRANCH   2  22
ATOM     22  S   UNL d   1      -1.376  -0.054   2.303  0.00  0.00    -0.083 SA
BRANCH  22  23
ATOM     23  C   UNL d   1      -1.143  -1.779   2.803  0.00  0.00     0.185 C 
BRANCH  23  24
ATOM     24  C   UNL d   1      -1.726  -2.134   4.163  0.00  0.00     0.231 C 
ATOM     25  N   UNL d   1      -2.459  -1.158   4.815  0.00  0.00    -0.326 N 
ATOM     26  H   UNL d   1      -2.632  -0.310   4.285  0.00  0.00     0.169 HD
ATOM     27  O   UNL d   1      -1.549  -3.274   4.597  0.00  0.00    -0.272 OA
BRANCH  25  28
ATOM     28  C   UNL d   1      -3.078  -1.266   6.081  0.00  0.00     0.037 A 
ATOM     29  C   UNL d   1      -2.819  -2.307   6.980  0.00  0.00     0.053 A 
ATOM     30  C   UNL d   1      -3.495  -2.377   8.199  0.00  0.00     0.037 A 
ATOM     31 CL   UNL d   1      -3.162  -3.669   9.287  0.00  0.00    -0.084 Cl
ATOM     32  C   UNL d   1      -4.437  -1.413   8.546  0.00  0.00     0.048 A 
ATOM     33  C   UNL d   1      -4.680  -0.365   7.667  0.00  0.00     0.037 A 
ATOM     34  C   UNL d   1      -3.999  -0.277   6.446  0.00  0.00     0.053 A 
ATOM     35 CL   UNL d   1      -5.846   0.833   8.079  0.00  0.00    -0.084 Cl
ENDBRANCH  25  28
ENDBRANCH  23  24
ENDBRANCH  22  23
ENDBRANCH   2  22
TORSDOF 8
