REMARK  3 active torsions:
REMARK  status: ('A' for Active; 'I' for Inactive)
REMARK    1  A    between atoms: C_2  and  C_1 
REMARK       I    between atoms: N_3  and  C_2 
REMARK    2  A    between atoms: N_4  and  N_3 
REMARK    3  A    between atoms: C_5  and  N_4 
ROOT
ATOM      1  C   UNL d   1       0.211   2.093   0.397  0.00  0.00     0.271 C 
ATOM      2  N   UNL d   1       1.427   2.760   0.442  0.00  0.00    -0.282 N 
ATOM      3  O   UNL d   1       0.063   1.093  -0.300  0.00  0.00    -0.266 OA
ATOM      4  H   UNL d   1       1.535   3.703   0.816  0.00  0.00     0.184 HD
ENDROOT
BRANCH   2   5
ATOM      5  N   UNL d   1       2.410   2.336  -0.470  0.00  0.00    -0.200 NA
ATOM      6  H   UNL d   1       2.146   1.423  -0.864  0.00  0.00     0.153 HD
BRANCH   5   7
ATOM      7  C   UNL d   1       3.725   2.323   0.062  0.00  0.00     0.066 A 
ATOM      8  C   UNL d   1       4.208   3.286   0.965  0.00  0.00     0.139 A 
ATOM      9  F   UNL d   1       3.389   4.236   1.449  0.00  0.00    -0.204 F 
ATOM     10  C   UNL d   1       5.541   3.302   1.376  0.00  0.00     0.044 A 
ATOM     11  C   UNL d   1       6.433   2.359   0.872  0.00  0.00     0.003 A 
ATOM     12  C   UNL d   1       5.989   1.412  -0.048  0.00  0.00     0.002 A 
ATOM     13  C   UNL d   1       4.651   1.404  -0.459  0.00  0.00     0.028 A 
ENDBRANCH   5   7
ENDBRANCH   2   5
BRANCH   1  14
ATOM     14  C   UNL d   1      -0.898   2.647   1.222  0.00  0.00     0.093 A 
ATOM     15  C   UNL d   1      -0.915   4.011   1.543  0.00  0.00     0.133 A 
ATOM     16  F   UNL d   1       0.063   4.829   1.126  0.00  0.00    -0.205 F 
ATOM     17  C   UNL d   1      -1.942   4.577   2.299  0.00  0.00     0.043 A 
ATOM     18  C   UNL d   1      -2.988   3.782   2.751  0.00  0.00     0.005 A 
ATOM     19  C   UNL d   1      -2.995   2.423   2.444  0.00  0.00     0.025 A 
ATOM     20  C   UNL d   1      -1.959   1.851   1.686  0.00  0.00     0.052 A 
ATOM     21 CL   UNL d   1      -2.070   0.143   1.437  0.00  0.00    -0.083 Cl
ENDBRANCH   1  14
TORSDOF 3
