REMARK  7 active torsions:
REMARK  status: ('A' for Active; 'I' for Inactive)
REMARK    1  A    between atoms: C_17  and  C_1 
REMARK    2  A    between atoms: C_4  and  C_16 
REMARK       I    between atoms: N_10  and  C_4 
REMARK    3  A    between atoms: N_5  and  N_10 
REMARK    4  A    between atoms: C_7  and  C_14 
REMARK    5  A    between atoms: O_18  and  C_13 
REMARK    6  A    between atoms: S_15  and  C_17 
REMARK    7  A    between atoms: C_16  and  S_15 
ROOT
ATOM      1  C   UNL d   1       5.398   0.230  -1.312  0.00  0.00     0.245 C 
ATOM      2  N   UNL d   1       4.608   1.290  -1.733  0.00  0.00    -0.270 N 
ATOM      3  O   UNL d   1       6.159  -0.397  -2.046  0.00  0.00    -0.271 OA
ATOM      4  H   UNL d   1       4.000   1.763  -1.072  0.00  0.00     0.190 HD
ENDROOT
BRANCH   1   5
ATOM      5  C   UNL d   1       5.339  -0.065   0.180  0.00  0.00     0.178 C 
BRANCH   5   6
ATOM      6  S   UNL d   1       3.693   0.169   0.931  0.00  0.00    -0.155 SA
BRANCH   6   7
ATOM      7  C   UNL d   1       2.782  -1.128   0.033  0.00  0.00     0.114 C 
BRANCH   7   8
ATOM      8  C   UNL d   1       1.359  -1.317   0.529  0.00  0.00    -0.037 A 
ATOM      9  C   UNL d   1       0.312  -0.475   0.079  0.00  0.00    -0.054 A 
ATOM     10  C   UNL d   1      -1.023  -0.796   0.392  0.00  0.00     0.014 A 
ATOM     11  C   UNL d   1       0.523   0.771  -0.739  0.00  0.00     0.049 C 
ATOM     12  C   UNL d   1      -1.344  -1.917   1.158  0.00  0.00    -0.061 A 
ATOM     13  C   UNL d   1      -0.306  -2.679   1.691  0.00  0.00     0.014 A 
ATOM     14  C   UNL d   1      -2.778  -2.267   1.424  0.00  0.00     0.048 C 
ATOM     15  C   UNL d   1       1.040  -2.383   1.409  0.00  0.00    -0.054 A 
ATOM     16  C   UNL d   1       2.088  -3.272   2.027  0.00  0.00     0.049 C 
ENDBRANCH   7   8
ENDBRANCH   6   7
ENDBRANCH   5   6
ENDBRANCH   1   5
BRANCH   2  17
ATOM     17  N   UNL d   1       4.691   1.706  -3.027  0.00  0.00    -0.308 N 
ATOM     18  C   UNL d   1       3.931   2.696  -3.368  0.00  0.00     0.121 C 
ATOM     19  HN  UNL d   1       5.322   1.260  -3.693  1.00  0.00     0.186 HD
BRANCH  18  20
ATOM     20  C   UNL d   1       4.010   3.271  -4.730  0.00  0.00     0.014 A 
ATOM     21  C   UNL d   1       4.850   2.739  -5.717  0.00  0.00     0.077 A 
ATOM     22  C   UNL d   1       4.944   3.352  -6.965  0.00  0.00     0.037 A 
ATOM     23  C   UNL d   1       4.207   4.505  -7.233  0.00  0.00     0.003 A 
ATOM     24  C   UNL d   1       3.356   5.032  -6.260  0.00  0.00     0.001 A 
ATOM     25  C   UNL d   1       3.251   4.414  -5.010  0.00  0.00     0.015 A 
BRANCH  21  26
ATOM     26  O   UNL d   1       5.622   1.625  -5.530  0.00  0.00    -0.360 OA
ATOM     27  H   UNL d   1       5.521   1.328  -4.597  0.00  0.00     0.217 HD
ENDBRANCH  21  26
ENDBRANCH  18  20
ENDBRANCH   2  17
TORSDOF 7
