REMARK  8 active torsions:
REMARK  status: ('A' for Active; 'I' for Inactive)
REMARK    1  A    between atoms: C_2  and  C_4 
REMARK    2  A    between atoms: C_3  and  C_5 
REMARK    3  A    between atoms: C_24  and  N_6 
REMARK    4  A    between atoms: C_7  and  N_16 
REMARK    5  A    between atoms: N_11  and  C_7 
REMARK    6  A    between atoms: C_10  and  N_11 
REMARK    7  A    between atoms: N_16  and  C_26 
REMARK    8  A    between atoms: C_26  and  C_24 
ROOT
ATOM      1  N   UNL d   1      -4.530  -2.840  -1.500  0.00  0.00    -0.333 N 
ATOM      2  H   UNL d   1      -5.336  -2.971  -2.104  0.00  0.00     0.168 HD
ENDROOT
BRANCH   1   3
ATOM      3  C   UNL d   1      -4.675  -1.819  -0.544  0.00  0.00     0.035 A 
ATOM      4  C   UNL d   1      -5.418  -0.701  -0.925  0.00  0.00     0.045 A 
ATOM      5  C   UNL d   1      -5.749   0.301  -0.001  0.00  0.00     0.050 A 
ATOM      6  C   UNL d   1      -5.363   0.134   1.336  0.00  0.00     0.032 A 
ATOM      7  C   UNL d   1      -4.644  -1.001   1.744  0.00  0.00     0.050 A 
ATOM      8  C   UNL d   1      -4.257  -1.959   0.783  0.00  0.00     0.045 A 
BRANCH   5   9
ATOM      9  C   UNL d   1      -6.528   1.510  -0.460  0.00  0.00     0.417 C 
ATOM     10  F   UNL d   1      -6.928   2.320   0.558  0.00  0.00    -0.166 F 
ATOM     11  F   UNL d   1      -5.806   2.294  -1.306  0.00  0.00    -0.166 F 
ATOM     12  F   UNL d   1      -7.659   1.171  -1.137  0.00  0.00    -0.166 F 
ENDBRANCH   5   9
BRANCH   7  13
ATOM     13  C   UNL d   1      -4.351  -1.242   3.209  0.00  0.00     0.417 C 
ATOM     14  F   UNL d   1      -4.903  -0.304   4.028  0.00  0.00    -0.166 F 
ATOM     15  F   UNL d   1      -4.834  -2.439   3.642  0.00  0.00    -0.166 F 
ATOM     16  F   UNL d   1      -3.021  -1.246   3.486  0.00  0.00    -0.166 F 
ENDBRANCH   7  13
ENDBRANCH   1   3
BRANCH   1  17
ATOM     17  C   UNL d   1      -3.656  -3.890  -1.550  0.00  0.00     0.172 C 
ATOM     18  S   UNL d   1      -4.215  -5.340  -2.162  0.00  0.00    -0.041 SA
BRANCH  17  19
ATOM     19  N   UNL d   1      -2.357  -3.593  -1.229  0.00  0.00    -0.365 N 
ATOM     20  H   UNL d   1      -2.172  -2.612  -1.048  0.00  0.00     0.161 HD
BRANCH  19  21
ATOM     21  C   UNL d   1      -1.183  -4.353  -1.680  0.00  0.00     0.142 C 
BRANCH  21  22
ATOM     22  C   UNL d   1      -0.917  -4.236  -3.194  0.00  0.00     0.147 C 
BRANCH  22  23
ATOM     23  N   UNL d   1      -0.692  -2.864  -3.613  0.00  0.00    -0.331 N 
ATOM     24  C   UNL d   1       0.515  -2.192  -3.494  0.00  0.00     0.318 C 
ATOM     25  N   UNL d   1       0.318  -0.902  -3.966  0.00  0.00    -0.341 N 
ATOM     26  O   UNL d   1       1.555  -2.620  -3.031  0.00  0.00    -0.247 OA
ATOM     27  C   UNL d   1      -1.086  -0.646  -4.149  0.00  0.00     0.144 C 
ATOM     28  H   UNL d   1       1.032  -0.206  -3.797  0.00  0.00     0.164 HD
ATOM     29  C   UNL d   1      -1.689  -2.040  -4.259  0.00  0.00     0.147 C 
ENDBRANCH  22  23
ENDBRANCH  21  22
ENDBRANCH  19  21
ENDBRANCH  17  19
ENDBRANCH   1  17
TORSDOF 8
