REMARK  2 active torsions:
REMARK  status: ('A' for Active; 'I' for Inactive)
REMARK    1  A    between atoms: C_6  and  C_1 
REMARK       I    between atoms: N_8  and  C_6 
REMARK    2  A    between atoms: C_11  and  N_8 
ROOT
ATOM      1  C   UNL d   1      -0.370  -2.551  -0.014  0.00  0.00     0.275 C 
ATOM      2  N   UNL d   1      -1.651  -3.084   0.083  0.00  0.00    -0.322 N 
ATOM      3  O   UNL d   1      -0.119  -1.366  -0.200  0.00  0.00    -0.266 OA
ATOM      4  H   UNL d   1      -1.690  -4.059   0.367  0.00  0.00     0.169 HD
ENDROOT
BRANCH   1   5
ATOM      5  C   UNL d   1       0.702  -3.557   0.146  0.00  0.00     0.131 A 
ATOM      6  C   UNL d   1       2.125  -3.290   0.145  0.00  0.00     0.096 A 
ATOM      7  C   UNL d   1       2.821  -4.468   0.259  0.00  0.00     0.115 A 
ATOM      8 CL   UNL d   1       2.846  -1.742   0.014  0.00  0.00    -0.079 Cl
ATOM      9 CL   UNL d   1       4.514  -4.730   0.288  0.00  0.00    -0.073 Cl
ATOM     10  S   UNL d   1       1.748  -5.766   0.374  0.00  0.00     0.000 SA
ATOM     11  N   UNL d   1       0.363  -4.853   0.289  0.00  0.00    -0.319 N 
ATOM     12  HN  UNL d   1      -0.589  -5.215   0.337  1.00  0.00     0.174 HD
ENDBRANCH   1   5
BRANCH   2  13
ATOM     13  C   UNL d   1      -2.864  -2.405  -0.160  0.00  0.00     0.036 A 
ATOM     14  C   UNL d   1      -2.928  -1.145  -0.768  0.00  0.00     0.056 A 
ATOM     15  C   UNL d   1      -4.162  -0.535  -1.008  0.00  0.00     0.074 A 
ATOM     16 CL   UNL d   1      -4.209   1.001  -1.785  0.00  0.00    -0.081 Cl
ATOM     17  C   UNL d   1      -5.337  -1.177  -0.634  0.00  0.00     0.138 A 
ATOM     18  C   UNL d   1      -5.292  -2.429  -0.029  0.00  0.00     0.046 A 
ATOM     19  F   UNL d   1      -6.530  -0.608  -0.854  0.00  0.00    -0.204 F 
ATOM     20  C   UNL d   1      -4.057  -3.047   0.199  0.00  0.00     0.032 A 
ENDBRANCH   2  13
TORSDOF 2
