REMARK  4 active torsions:
REMARK  status: ('A' for Active; 'I' for Inactive)
REMARK    1  A    between atoms: C_9  and  N_1 
REMARK       I    between atoms: C_7  and  N_10 
REMARK       I    between atoms: N_11  and  C_7 
REMARK    2  A    between atoms: C_8  and  C_9 
REMARK       I    between atoms: N_12  and  C_8 
REMARK    3  A    between atoms: N_10  and  N_12 
REMARK    4  A    between atoms: C_15  and  N_11 
ROOT
ATOM      1  C   UNL d   1       1.389  -2.714   2.133  0.00  0.00     0.254 C 
ATOM      2  N   UNL d   1       2.338  -1.739   2.364  0.00  0.00    -0.265 N 
ATOM      3  O   UNL d   1       1.534  -3.866   2.558  0.00  0.00    -0.270 OA
ATOM      4  H   UNL d   1       2.335  -0.865   1.833  0.00  0.00     0.190 HD
ENDROOT
BRANCH   1   5
ATOM      5  C   UNL d   1       0.093  -2.299   1.429  0.00  0.00     0.234 C 
BRANCH   5   6
ATOM      6  N   UNL d   1       0.177  -1.089   0.585  0.00  0.00    -0.336 N 
ATOM      7  C   UNL d   1       1.155  -0.990  -0.436  0.00  0.00     0.052 A 
ATOM      8  C   UNL d   1       1.504   0.283  -0.949  0.00  0.00     0.032 A 
ATOM      9  C   UNL d   1       1.774  -2.115  -1.005  0.00  0.00     0.031 A 
ATOM     10  C   UNL d   1       2.458   0.414  -1.964  0.00  0.00     0.021 A 
ATOM     11  S   UNL d   1       0.732   1.771  -0.316  0.00  0.00    -0.086 SA
ATOM     12  C   UNL d   1       3.055  -0.718  -2.510  0.00  0.00     0.002 A 
ATOM     13  C   UNL d   1       2.708  -1.979  -2.037  0.00  0.00     0.002 A 
ATOM     14  C   UNL d   1      -0.865   1.085   0.111  0.00  0.00     0.032 A 
ATOM     15  C   UNL d   1      -0.982  -0.261   0.529  0.00  0.00     0.052 A 
ATOM     16  C   UNL d   1      -1.994   1.906  -0.003  0.00  0.00     0.021 A 
ATOM     17  C   UNL d   1      -2.276  -0.750   0.784  0.00  0.00     0.031 A 
ATOM     18  C   UNL d   1      -3.404   0.066   0.643  0.00  0.00     0.002 A 
ATOM     19  C   UNL d   1      -3.263   1.394   0.258  0.00  0.00     0.002 A 
ENDBRANCH   5   6
ENDBRANCH   1   5
BRANCH   2  20
ATOM     20  N   UNL d   1       3.592  -2.189   2.821  0.00  0.00    -0.249 N 
ATOM     21  C   UNL d   1       4.715  -1.396   2.648  0.00  0.00     0.339 C 
ATOM     22  N   UNL d   1       5.844  -2.041   3.119  0.00  0.00    -0.308 N 
ATOM     23  O   UNL d   1       4.663  -0.300   2.107  0.00  0.00    -0.245 OA
ATOM     24  H   UNL d   1       5.734  -3.032   3.279  0.00  0.00     0.170 HD
ATOM     25  H   UNL d   1       3.558  -2.899   3.545  0.00  0.00     0.192 HD
BRANCH  22  26
ATOM     26  C   UNL d   1       7.156  -1.534   3.197  0.00  0.00     0.036 A 
ATOM     27  C   UNL d   1       7.475  -0.186   3.023  0.00  0.00     0.031 A 
ATOM     28  C   UNL d   1       8.803   0.247   3.128  0.00  0.00     0.026 A 
ATOM     29  C   UNL d   1       9.815  -0.667   3.406  0.00  0.00     0.034 A 
ATOM     30  C   UNL d   1       9.511  -2.014   3.587  0.00  0.00     0.026 A 
ATOM     31 CL   UNL d   1      11.445  -0.135   3.528  0.00  0.00    -0.084 Cl
ATOM     32  C   UNL d   1       8.183  -2.444   3.489  0.00  0.00     0.031 A 
ENDBRANCH  22  26
ENDBRANCH   2  20
TORSDOF 4
