REMARK  5 active torsions:
REMARK  status: ('A' for Active; 'I' for Inactive)
REMARK       I    between atoms: N_5  and  C_1 
REMARK    1  A    between atoms: O_13  and  C_1 
REMARK    2  A    between atoms: N_2  and  N_5 
REMARK    3  A    between atoms: O_15  and  C_6 
REMARK    4  A    between atoms: C_11  and  C_10 
REMARK    5  A    between atoms: C_16  and  O_13 
ROOT
ATOM      1  N   UNL d   1      -0.918  -0.461  -3.700  0.00  0.00    -0.307 N 
ATOM      2  HN  UNL d   1      -1.156  -0.162  -4.645  1.00  0.00     0.186 HD
ATOM      3  C   UNL d   1       0.067  -1.266  -3.465  0.00  0.00     0.118 C 
ENDROOT
BRANCH   3   4
ATOM      4  C   UNL d   1       0.896  -1.785  -4.574  0.00  0.00    -0.018 A 
ATOM      5  C   UNL d   1       1.959  -2.648  -4.307  0.00  0.00     0.034 A 
ATOM      6  C   UNL d   1       2.767  -3.139  -5.354  0.00  0.00     0.045 A 
ATOM      7 BR   UNL d   1       4.149  -4.312  -4.778  0.00  0.00    -0.048 Br
ATOM      8  C   UNL d   1       2.504  -2.759  -6.679  0.00  0.00     0.085 A 
ATOM      9  C   UNL d   1       1.420  -1.896  -6.918  0.00  0.00     0.039 A 
ATOM     10  C   UNL d   1       0.621  -1.411  -5.885  0.00  0.00     0.015 A 
BRANCH   8  11
ATOM     11  O   UNL d   1       3.116  -3.081  -7.856  0.00  0.00    -0.355 OA
ATOM     12  C   UNL d   1       4.293  -3.861  -7.900  0.00  0.00     0.210 C 
ENDBRANCH   8  11
ENDBRANCH   3   4
BRANCH   1  13
ATOM     13  N   UNL d   1      -1.618  -0.035  -2.613  0.00  0.00    -0.246 N 
ATOM     14  C   UNL d   1      -2.711   0.799  -2.717  0.00  0.00     0.379 C 
ATOM     15  O   UNL d   1      -3.349   1.151  -1.731  0.00  0.00    -0.237 OA
ATOM     16  H   UNL d   1      -1.371  -0.340  -1.680  0.00  0.00     0.192 HD
BRANCH  14  17
ATOM     17  O   UNL d   1      -2.989   1.168  -3.999  0.00  0.00    -0.303 OA
BRANCH  17  18
ATOM     18  C   UNL d   1      -4.147   1.992  -4.182  0.00  0.00     0.176 C 
ATOM     19  C   UNL d   1      -3.806   3.454  -3.964  0.00  0.00     0.034 C 
ENDBRANCH  17  18
ENDBRANCH  14  17
ENDBRANCH   1  13
TORSDOF 5
