REMARK  5 active torsions:
REMARK  status: ('A' for Active; 'I' for Inactive)
REMARK       I    between atoms: C_3  and  N_1 
REMARK    1  A    between atoms: C_9  and  C_3 
REMARK    2  A    between atoms: C_15  and  N_7 
REMARK    3  A    between atoms: O_19  and  C_10 
REMARK    4  A    between atoms: O_20  and  C_11 
REMARK    5  A    between atoms: O_21  and  C_12 
ROOT
ATOM      1  N   UNL d   1       1.059   0.512   0.161  0.00  0.00    -0.280 N 
ATOM      2  C   UNL d   1       0.668  -0.840   0.317  0.00  0.00     0.155 C 
ATOM      3  C   UNL d   1       2.322   0.919   0.603  0.00  0.00     0.261 C 
ATOM      4  S   UNL d   1      -1.066  -0.850   0.595  0.00  0.00    -0.057 SA
ATOM      5  C   UNL d   1       0.097   1.145  -0.813  0.00  0.00     0.068 C 
ATOM      6  C   UNL d   1      -1.260   0.598  -0.331  0.00  0.00     0.005 C 
ATOM      7  N   UNL d   1       1.435  -1.870   0.127  0.00  0.00    -0.335 N 
ATOM      8  HN  UNL d   1       2.435  -1.720  -0.002  1.00  0.00     0.168 HD
ATOM      9  O   UNL d   1       3.171   0.143   1.050  0.00  0.00    -0.267 OA
ATOM     10  C   UNL d   1      -2.487   1.130  -0.473  0.00  0.00     0.029 C 
ATOM     11  C   UNL d   1       0.002   2.666  -0.965  0.00  0.00     0.044 C 
ATOM     12  C   UNL d   1       0.432   0.630  -2.238  0.00  0.00     0.044 C 
ENDROOT
BRANCH   3  13
ATOM     13  C   UNL d   1       2.723   2.358   0.686  0.00  0.00     0.038 C 
ATOM     14  C   UNL d   1       1.855   3.358   1.136  0.00  0.00     0.057 C 
ATOM     15  C   UNL d   1       2.188   4.715   0.983  0.00  0.00     0.105 C 
ATOM     16  C   UNL d   1       3.501   5.073   0.619  0.00  0.00     0.135 C 
ATOM     17  C   UNL d   1       4.458   4.051   0.475  0.00  0.00     0.105 C 
ATOM     18  C   UNL d   1       4.056   2.709   0.437  0.00  0.00     0.057 C 
BRANCH  15  19
ATOM     19  O   UNL d   1       1.266   5.719   1.093  0.00  0.00    -0.353 OA
ATOM     20  C   UNL d   1       0.038   5.490   1.761  0.00  0.00     0.210 C 
ENDBRANCH  15  19
BRANCH  16  21
ATOM     21  O   UNL d   1       3.969   6.341   0.390  0.00  0.00    -0.351 OA
ATOM     22  C   UNL d   1       3.071   7.427   0.239  0.00  0.00     0.210 C 
ENDBRANCH  16  21
BRANCH  17  23
ATOM     23  O   UNL d   1       5.809   4.248   0.303  0.00  0.00    -0.353 OA
ATOM     24  C   UNL d   1       6.368   5.314   1.077  0.00  0.00     0.210 C 
ENDBRANCH  17  23
ENDBRANCH   3  13
BRANCH   7  25
ATOM     25  C   UNL d   1       0.933  -3.201   0.092  0.00  0.00     0.056 A 
ATOM     26  C   UNL d   1       1.547  -4.239   0.813  0.00  0.00     0.060 A 
ATOM     27 CL   UNL d   1       2.954  -3.956   1.776  0.00  0.00    -0.082 Cl
ATOM     28  C   UNL d   1       1.055  -5.554   0.760  0.00  0.00     0.026 A 
ATOM     29  C   UNL d   1      -0.064  -5.861  -0.017  0.00  0.00     0.002 A 
ATOM     30  C   UNL d   1      -0.655  -4.864  -0.780  0.00  0.00     0.002 A 
ATOM     31  C   UNL d   1      -0.134  -3.563  -0.755  0.00  0.00     0.031 A 
ENDBRANCH   7  25
TORSDOF 5
