REMARK  3 active torsions:
REMARK  status: ('A' for Active; 'I' for Inactive)
REMARK    1  A    between atoms: C_15  and  C_1 
REMARK    2  A    between atoms: C_4  and  C_6 
REMARK       I    between atoms: C_6  and  N_12 
REMARK    3  A    between atoms: N_12  and  C_23 
ROOT
ATOM      1  C   UNL d   1      -3.862  -0.701  -0.231  0.00  0.00    -0.002 A 
ATOM      2  C   UNL d   1      -4.752   0.075  -0.983  0.00  0.00     0.016 A 
ATOM      3  C   UNL d   1      -4.399  -1.677   0.622  0.00  0.00     0.016 A 
ATOM      4  C   UNL d   1      -6.662  -1.027   0.059  0.00  0.00     0.035 A 
ATOM      5  C   UNL d   1      -6.137  -0.089  -0.840  0.00  0.00     0.030 A 
ATOM      6  C   UNL d   1      -5.780  -1.845   0.760  0.00  0.00     0.030 A 
ENDROOT
BRANCH   4   7
ATOM      7  N   UNL d   1      -8.064  -1.067   0.213  0.00  0.00    -0.323 N 
ATOM      8  C   UNL d   1      -8.780  -1.832   1.111  0.00  0.00     0.254 C 
ATOM      9  O   UNL d   1      -8.302  -2.572   1.965  0.00  0.00    -0.268 OA
ATOM     10  H   UNL d   1      -8.572  -0.400  -0.347  0.00  0.00     0.169 HD
BRANCH   8  11
ATOM     11  C   UNL d   1     -10.271  -1.679   1.045  0.00  0.00     0.035 C 
ATOM     12  C   UNL d   1     -10.931  -1.167  -0.005  0.00  0.00     0.029 C 
ATOM     13  C   UNL d   1     -12.389  -1.153   0.050  0.00  0.00    -0.000 A 
ATOM     14  C   UNL d   1     -13.136  -0.481  -0.923  0.00  0.00     0.038 A 
ATOM     15  C   UNL d   1     -13.048  -1.889   1.038  0.00  0.00     0.079 A 
ATOM     16  C   UNL d   1     -14.528  -0.577  -0.916  0.00  0.00     0.035 A 
ATOM     17 CL   UNL d   1     -15.443   0.239  -2.123  0.00  0.00    -0.084 Cl
ATOM     18  C   UNL d   1     -15.182  -1.342   0.049  0.00  0.00     0.026 A 
ATOM     19  C   UNL d   1     -14.439  -1.999   1.029  0.00  0.00     0.039 A 
ATOM     20  O   UNL d   1     -12.391  -2.578   2.017  0.00  0.00    -0.346 OA
ATOM     21  C   UNL d   1     -11.015  -2.215   2.244  0.00  0.00     0.220 C 
ENDBRANCH   8  11
ENDBRANCH   4   7
BRANCH   1  22
ATOM     22  C   UNL d   1      -2.406  -0.486  -0.214  0.00  0.00     0.085 A 
ATOM     23  N   UNL d   1      -1.661  -0.754   0.837  0.00  0.00    -0.349 N 
ATOM     24  C   UNL d   1      -0.345  -0.420   0.599  0.00  0.00     0.050 A 
ATOM     25  HN  UNL d   1      -2.009  -1.155   1.708  1.00  0.00     0.166 HD
ATOM     26  C   UNL d   1       0.711  -0.542   1.521  0.00  0.00     0.031 A 
ATOM     27  C   UNL d   1      -0.077   0.080  -0.674  0.00  0.00     0.034 A 
ATOM     28  C   UNL d   1       2.005  -0.170   1.147  0.00  0.00     0.009 A 
ATOM     29  C   UNL d   1       2.266   0.322  -0.134  0.00  0.00    -0.061 A 
ATOM     30  C   UNL d   1       1.221   0.454  -1.064  0.00  0.00     0.028 A 
ATOM     31  C   UNL d   1       3.674   0.694  -0.509  0.00  0.00     0.048 C 
ATOM     32  S   UNL d   1      -1.549   0.134  -1.570  0.00  0.00    -0.070 SA
ENDBRANCH   1  22
TORSDOF 3
