REMARK  3 active torsions:
REMARK  status: ('A' for Active; 'I' for Inactive)
REMARK    1  A    between atoms: C_13  and  C_2 
REMARK       I    between atoms: C_3  and  N_5 
REMARK    2  A    between atoms: C_9  and  C_3 
REMARK    3  A    between atoms: N_7  and  C_6 
ROOT
ATOM      1  C   UNL d   1      -2.284  -6.883   0.048  0.00  0.00     0.253 C 
ATOM      2  N   UNL d   1      -2.537  -5.580   0.480  0.00  0.00    -0.346 N 
ATOM      3  N   UNL d   1      -2.057  -2.717   0.294  0.00  0.00    -0.280 NA
ATOM      4  C   UNL d   1      -3.422  -4.724  -0.335  0.00  0.00     0.141 C 
ATOM      5  C   UNL d   1      -1.915  -4.848   1.591  0.00  0.00     0.141 C 
ATOM      6  C   UNL d   1      -1.176  -3.597   1.097  0.00  0.00     0.115 C 
ATOM      7  C   UNL d   1      -2.709  -3.440  -0.833  0.00  0.00     0.115 C 
ATOM      8  O   UNL d   1      -2.793  -7.343  -0.973  0.00  0.00    -0.267 OA
ENDROOT
BRANCH   3   9
ATOM      9  C   UNL d   1      -1.460  -1.496  -0.139  0.00  0.00     0.023 A 
ATOM     10  C   UNL d   1      -2.192  -0.254  -0.284  0.00  0.00     0.014 A 
ATOM     11  C   UNL d   1      -3.591   0.133  -0.033  0.00  0.00    -0.006 A 
ATOM     12  C   UNL d   1      -1.475   0.870  -0.740  0.00  0.00     0.017 A 
ATOM     13  C   UNL d   1      -3.817   1.467  -0.325  0.00  0.00     0.063 A 
ATOM     14  S   UNL d   1      -2.453   2.272  -0.910  0.00  0.00    -0.100 SA
ATOM     15  C   UNL d   1      -0.097   0.845  -1.025  0.00  0.00     0.020 A 
ATOM     16  C   UNL d   1       0.601  -0.334  -0.860  0.00  0.00     0.003 A 
ATOM     17  C   UNL d   1      -0.069  -1.471  -0.442  0.00  0.00     0.024 A 
BRANCH  11  18
ATOM     18  C   UNL d   1      -4.715  -0.646   0.501  0.00  0.00    -0.025 A 
ATOM     19  C   UNL d   1      -4.554  -1.476   1.613  0.00  0.00     0.012 A 
ATOM     20  C   UNL d   1      -5.635  -2.195   2.133  0.00  0.00     0.001 A 
ATOM     21  C   UNL d   1      -6.902  -2.060   1.568  0.00  0.00     0.000 A 
ATOM     22  C   UNL d   1      -7.090  -1.209   0.483  0.00  0.00     0.001 A 
ATOM     23  C   UNL d   1      -6.003  -0.514  -0.053  0.00  0.00     0.012 A 
ENDBRANCH  11  18
ENDBRANCH   3   9
BRANCH   1  24
ATOM     24  C   UNL d   1      -1.327  -7.780   0.764  0.00  0.00     0.033 A 
ATOM     25  C   UNL d   1      -1.245  -7.880   2.154  0.00  0.00     0.042 A 
ATOM     26  C   UNL d   1      -0.272  -8.693   2.751  0.00  0.00     0.056 A 
ATOM     27 CL   UNL d   1      -0.143  -8.648   4.475  0.00  0.00    -0.083 Cl
ATOM     28  C   UNL d   1       0.569  -9.486   1.962  0.00  0.00     0.055 A 
ATOM     29  C   UNL d   1       0.425  -9.468   0.574  0.00  0.00     0.026 A 
ATOM     30 CL   UNL d   1       1.791 -10.504   2.634  0.00  0.00    -0.083 Cl
ATOM     31  C   UNL d   1      -0.512  -8.617  -0.021  0.00  0.00     0.019 A 
ENDBRANCH   1  24
TORSDOF 3
