REMARK  6 active torsions:
REMARK  status: ('A' for Active; 'I' for Inactive)
REMARK    1  A    between atoms: N_2  and  S_1 
REMARK    2  A    between atoms: C_3  and  S_1 
REMARK    3  A    between atoms: N_5  and  C_6 
REMARK       I    between atoms: C_14  and  N_5 
REMARK    4  A    between atoms: C_21  and  N_8 
REMARK    5  A    between atoms: N_13  and  C_22 
REMARK    6  A    between atoms: C_22  and  C_21 
ROOT
ATOM      1  S   UNL d   1       1.110  -0.171  -0.182  0.00  0.00     0.243 S 
ATOM      2  O   UNL d   1       2.400  -0.521   0.342  0.00  0.00    -0.206 OA
ATOM      3  O   UNL d   1       0.930   0.238  -1.552  0.00  0.00    -0.206 OA
ENDROOT
BRANCH   1   4
ATOM      4  N   UNL d   1       0.413   1.016   0.871  0.00  0.00    -0.203 NA
ATOM      5  C   UNL d   1      -0.579   1.949   0.247  0.00  0.00     0.138 C 
ATOM      6  C   UNL d   1       0.138   3.027  -0.603  0.00  0.00     0.288 C 
ATOM      7  N   UNL d   1       1.139   3.836   0.124  0.00  0.00     0.092 N 
ATOM      8  C   UNL d   1       2.044   2.955   0.893  0.00  0.00     0.288 C 
ATOM      9  C   UNL d   1       1.373   1.820   1.699  0.00  0.00     0.138 C 
BRANCH   7  10
ATOM     10  C   UNL d   1       0.536   4.946   0.881  0.00  0.00     0.302 C 
BRANCH  10  11
ATOM     11  C   UNL d   1       1.603   5.987   1.309  0.00  0.00     0.302 C 
BRANCH  11  12
ATOM     12  N   UNL d   1       1.097   7.207   1.970  0.00  0.00     0.094 N 
ATOM     13  C   UNL d   1       2.244   8.038   2.429  0.00  0.00     0.298 C 
ATOM     14  C   UNL d   1       3.025   8.708   1.281  0.00  0.00     0.198 C 
ATOM     15  O   UNL d   1       2.163   9.500   0.455  0.00  0.00    -0.388 OA
ATOM     16  C   UNL d   1       1.079   8.716  -0.060  0.00  0.00     0.198 C 
ATOM     17  C   UNL d   1       0.278   8.057   1.076  0.00  0.00     0.298 C 
ENDBRANCH  11  12
ENDBRANCH  10  11
ENDBRANCH   7  10
ENDBRANCH   1   4
BRANCH   1  18
ATOM     18  C   UNL d   1       0.050  -1.599   0.044  0.00  0.00     0.076 A 
ATOM     19  C   UNL d   1      -1.143  -1.726  -0.664  0.00  0.00     0.050 A 
ATOM     20  C   UNL d   1      -1.986  -2.823  -0.415  0.00  0.00     0.062 A 
ATOM     21 CL   UNL d   1      -3.560  -2.812  -1.133  0.00  0.00    -0.082 Cl
ATOM     22  C   UNL d   1      -1.586  -3.883   0.431  0.00  0.00     0.056 A 
ATOM     23  C   UNL d   1      -0.324  -3.789   1.025  0.00  0.00     0.033 A 
ATOM     24  C   UNL d   1       0.480  -2.647   0.864  0.00  0.00     0.027 A 
BRANCH  22  25
ATOM     25  N   UNL d   1      -2.458  -4.991   0.650  0.00  0.00    -0.326 N 
ATOM     26  C   UNL d   1      -2.197  -6.125   1.411  0.00  0.00     0.218 C 
ATOM     27  O   UNL d   1      -1.164  -6.350   2.032  0.00  0.00    -0.274 OA
ATOM     28  C   UNL d   1      -3.307  -7.144   1.423  0.00  0.00     0.117 C 
ATOM     29  H   UNL d   1      -3.361  -4.927   0.189  0.00  0.00     0.169 HD
ENDBRANCH  22  25
ENDBRANCH   1  18
TORSDOF 6
