REMARK  2 active torsions:
REMARK  status: ('A' for Active; 'I' for Inactive)
REMARK    1  A    between atoms: C_4  and  C_2 
REMARK    2  A    between atoms: S_11  and  C_3 
ROOT
ATOM      1  C   UNL d   1      -0.695   1.285   0.002  0.00  0.00     0.092 A 
ATOM      2  C   UNL d   1      -1.419   0.080  -0.004  0.00  0.00     0.073 A 
ATOM      3  C   UNL d   1       0.702   1.220   0.007  0.00  0.00     0.089 A 
ATOM      4  N   UNL d   1       1.373   0.041   0.009  0.00  0.00    -0.353 N 
ATOM      5  HN  UNL d   1       2.393   0.029   0.013  1.00  0.00     0.166 HD
ATOM      6  C   UNL d   1      -1.349   2.558   0.001  0.00  0.00     0.103 C 
ATOM      7  N   UNL d   1      -1.834   3.611   0.001  0.00  0.00    -0.191 NA
ATOM      8  C   UNL d   1      -0.708  -1.133   0.000  0.00  0.00     0.042 A 
ATOM      9  C   UNL d   1       0.677  -1.114   0.006  0.00  0.00     0.007 A 
ATOM     10  C   UNL d   1       1.462  -2.391   0.006  0.00  0.00     0.068 C 
ENDROOT
BRANCH   2  11
ATOM     11  C   UNL d   1      -2.926   0.005  -0.023  0.00  0.00     0.419 C 
ATOM     12  F   UNL d   1      -3.567   1.198  -0.010  0.00  0.00    -0.166 F 
ATOM     13  F   UNL d   1      -3.382  -0.649  -1.127  0.00  0.00    -0.166 F 
ATOM     14  F   UNL d   1      -3.411  -0.688   1.044  0.00  0.00    -0.166 F 
ENDBRANCH   2  11
BRANCH   3  15
ATOM     15  S   UNL d   1       1.789   2.638   0.007  0.00  0.00    -0.124 SA
ATOM     16  H   UNL d   1       0.868   3.613   0.008  0.00  0.00     0.108 HD
ENDBRANCH   3  15
TORSDOF 2
