REMARK  5 active torsions:
REMARK  status: ('A' for Active; 'I' for Inactive)
REMARK    1  A    between atoms: C_3  and  C_1 
REMARK    2  A    between atoms: C_2  and  C_9 
REMARK    3  A    between atoms: N_4  and  N_13 
REMARK    4  A    between atoms: O_19  and  C_6 
REMARK    5  A    between atoms: N_13  and  C_16 
ROOT
ATOM      1  N   UNL d   1      -0.375   0.205   4.811  0.00  0.00    -0.311 N 
ATOM      2  HN  UNL d   1      -0.061  -0.545   4.195  1.00  0.00     0.186 HD
ATOM      3  C   UNL d   1      -0.729  -0.019   6.037  0.00  0.00     0.121 C 
ENDROOT
BRANCH   1   4
ATOM      4  N   UNL d   1      -0.444   1.489   4.396  0.00  0.00    -0.301 N 
ATOM      5  H   UNL d   1      -0.464   2.265   5.054  0.00  0.00     0.187 HD
BRANCH   4   6
ATOM      6  C   UNL d   1       0.000   1.805   3.096  0.00  0.00     0.048 A 
ATOM      7  C   UNL d   1       0.464   0.824   2.207  0.00  0.00     0.047 A 
ATOM      8  C   UNL d   1       0.844   1.135   0.892  0.00  0.00     0.050 A 
ATOM      9  C   UNL d   1       0.716   2.456   0.448  0.00  0.00     0.016 A 
ATOM     10  C   UNL d   1       0.229   3.441   1.307  0.00  0.00     0.003 A 
ATOM     11  C   UNL d   1      -0.127   3.115   2.620  0.00  0.00     0.031 A 
BRANCH   8  12
ATOM     12  C   UNL d   1       1.382   0.065  -0.024  0.00  0.00     0.417 C 
ATOM     13  F   UNL d   1       1.489  -1.161   0.559  0.00  0.00    -0.166 F 
ATOM     14  F   UNL d   1       2.628   0.362  -0.490  0.00  0.00    -0.166 F 
ATOM     15  F   UNL d   1       0.606  -0.114  -1.130  0.00  0.00    -0.166 F 
ENDBRANCH   8  12
ENDBRANCH   4   6
ENDBRANCH   1   4
BRANCH   3  16
ATOM     16  C   UNL d   1      -0.753  -1.401   6.563  0.00  0.00     0.015 A 
ATOM     17  C   UNL d   1      -0.378  -2.499   5.774  0.00  0.00     0.077 A 
ATOM     18  C   UNL d   1      -0.445  -3.793   6.282  0.00  0.00     0.039 A 
ATOM     19  C   UNL d   1      -0.899  -4.001   7.583  0.00  0.00     0.026 A 
ATOM     20  C   UNL d   1      -1.273  -2.910   8.369  0.00  0.00     0.035 A 
ATOM     21  C   UNL d   1      -1.198  -1.608   7.870  0.00  0.00     0.039 A 
ATOM     22 CL   UNL d   1      -1.848  -3.173   9.970  0.00  0.00    -0.084 Cl
BRANCH  17  23
ATOM     23  O   UNL d   1       0.058  -2.377   4.484  0.00  0.00    -0.360 OA
ATOM     24  H   UNL d   1       0.004  -1.423   4.253  0.00  0.00     0.217 HD
ENDBRANCH  17  23
ENDBRANCH   3  16
TORSDOF 5
