REMARK  3 active torsions:
REMARK  status: ('A' for Active; 'I' for Inactive)
REMARK    1  A    between atoms: N_6  and  C_4 
REMARK    2  A    between atoms: O_11  and  C_5 
REMARK    3  A    between atoms: C_9  and  N_6 
ROOT
ATOM      1  S   UNL d   1      -1.389  -0.355  -0.258  0.00  0.00     0.148 S 
ATOM      2  C   UNL d   1       0.280  -0.940  -0.296  0.00  0.00     0.162 C 
ATOM      3  C   UNL d   1      -1.055   1.196   0.528  0.00  0.00     0.173 C 
ATOM      4  C   UNL d   1       1.185   0.262  -0.020  0.00  0.00     0.104 C 
ATOM      5  C   UNL d   1       0.333   1.558   0.042  0.00  0.00     0.151 C 
ATOM      6  O   UNL d   1      -1.805  -0.089  -1.620  0.00  0.00    -0.228 OA
ATOM      7  O   UNL d   1      -2.164  -1.179   0.643  0.00  0.00    -0.228 OA
ENDROOT
BRANCH   4   8
ATOM      8  N   UNL d   1       2.207   0.398  -1.070  0.00  0.00    -0.285 NA
ATOM      9  H   UNL d   1       2.325   1.370  -1.368  0.00  0.00     0.128 HD
BRANCH   8  10
ATOM     10  C   UNL d   1       3.437  -0.253  -0.926  0.00  0.00     0.009 A 
ATOM     11  C   UNL d   1       3.586  -1.464  -0.238  0.00  0.00     0.030 A 
ATOM     12  C   UNL d   1       4.826  -2.110  -0.139  0.00  0.00    -0.060 A 
ATOM     13  C   UNL d   1       4.956  -3.388   0.636  0.00  0.00     0.048 C 
ATOM     14  C   UNL d   1       5.935  -1.554  -0.779  0.00  0.00     0.007 A 
ATOM     15  C   UNL d   1       5.798  -0.382  -1.518  0.00  0.00     0.002 A 
ATOM     16  C   UNL d   1       4.555   0.251  -1.602  0.00  0.00     0.023 A 
ENDBRANCH   8  10
ENDBRANCH   4   8
BRANCH   5  17
ATOM     17  O   UNL d   1       0.275   2.232  -1.220  0.00  0.00    -0.393 OA
ATOM     18  H   UNL d   1       0.022   1.590  -1.915  0.00  0.00     0.210 HD
ENDBRANCH   5  17
TORSDOF 3
