REMARK  8 active torsions:
REMARK  status: ('A' for Active; 'I' for Inactive)
REMARK    1  A    between atoms: C_2  and  N_1 
REMARK       I    between atoms: C_4  and  N_1 
REMARK    2  A    between atoms: N_9  and  C_2 
REMARK    3  A    between atoms: N_3  and  C_5 
REMARK    4  A    between atoms: C_6  and  C_4 
REMARK    5  A    between atoms: C_16  and  N_9 
REMARK    6  A    between atoms: C_17  and  N_9 
REMARK    7  A    between atoms: C_18  and  C_16 
REMARK    8  A    between atoms: C_19  and  C_17 
ROOT
ATOM      1  N   UNL d   1       0.946  -2.329   1.020  0.00  0.00    -0.300 N 
ATOM      2  C   UNL d   1       2.215  -2.790   1.351  0.00  0.00     0.257 C 
ATOM      3  O   UNL d   1       2.956  -2.276   2.178  0.00  0.00    -0.267 OA
ATOM      4  H   UNL d   1       0.344  -2.971   0.534  0.00  0.00     0.171 HD
ENDROOT
BRANCH   1   5
ATOM      5  C   UNL d   1       0.477  -1.011   0.945  0.00  0.00     0.176 C 
ATOM      6  S   UNL d   1       1.454   0.349   0.978  0.00  0.00    -0.041 SA
BRANCH   5   7
ATOM      7  N   UNL d   1      -0.928  -0.976   0.786  0.00  0.00    -0.358 N 
BRANCH   7   8
ATOM      8  C   UNL d   1      -1.580   0.010  -0.101  0.00  0.00     0.125 C 
BRANCH   8   9
ATOM      9  C   UNL d   1      -2.603   0.953   0.540  0.00  0.00     0.015 C 
ATOM     10  C   UNL d   1      -1.998   1.960   1.502  0.00  0.00     0.006 C 
ENDBRANCH   8   9
ENDBRANCH   7   8
BRANCH   7  11
ATOM     11  C   UNL d   1      -1.776  -1.799   1.666  0.00  0.00     0.125 C 
BRANCH  11  12
ATOM     12  C   UNL d   1      -2.772  -2.707   0.945  0.00  0.00     0.015 C 
ATOM     13  C   UNL d   1      -2.101  -3.789   0.114  0.00  0.00     0.006 C 
ENDBRANCH  11  12
ENDBRANCH   7  11
ENDBRANCH   5   7
ENDBRANCH   1   5
BRANCH   2  14
ATOM     14  C   UNL d   1       2.595  -4.119   0.788  0.00  0.00     0.034 A 
ATOM     15  C   UNL d   1       2.272  -4.499  -0.521  0.00  0.00     0.053 A 
ATOM     16  C   UNL d   1       2.716  -5.746  -1.000  0.00  0.00     0.103 A 
ATOM     17  C   UNL d   1       3.466  -6.607  -0.186  0.00  0.00     0.036 A 
ATOM     18  C   UNL d   1       3.783  -6.220   1.114  0.00  0.00     0.003 A 
ATOM     19  C   UNL d   1       3.355  -4.980   1.595  0.00  0.00     0.017 A 
BRANCH  16  20
ATOM     20  N   UNL d   1       2.400  -6.152  -2.376  0.00  0.00    -0.116 N 
ATOM     21  O   UNL d   1       1.649  -5.415  -3.030  0.00  0.00    -0.532 OA
ATOM     22  O   UNL d   1       2.892  -7.208  -2.795  0.00  0.00    -0.532 OA
ENDBRANCH  16  20
ENDBRANCH   2  14
TORSDOF 8
