REMARK  2 active torsions:
REMARK  status: ('A' for Active; 'I' for Inactive)
REMARK    1  A    between atoms: C_2  and  C_1 
REMARK    2  A    between atoms: C_13  and  C_7 
ROOT
ATOM      1  C   UNL d   1       3.961   0.127   0.103  0.00  0.00     0.057 A 
ATOM      2  N   UNL d   1       4.760  -0.517  -0.827  0.00  0.00    -0.348 N 
ATOM      3  HN  UNL d   1       4.407  -1.056  -1.618  1.00  0.00     0.166 HD
ATOM      4  C   UNL d   1       6.039  -0.341  -0.554  0.00  0.00     0.084 A 
ATOM      5  S   UNL d   1       6.348   0.657   0.816  0.00  0.00    -0.081 SA
ATOM      6  C   UNL d   1       4.668   0.819   1.069  0.00  0.00     0.082 A 
ENDROOT
BRANCH   1   7
ATOM      7  C   UNL d   1       2.447   0.085   0.062  0.00  0.00     0.039 A 
ATOM      8  S   UNL d   1       1.508   0.990   1.172  0.00  0.00    -0.087 SA
ATOM      9  C   UNL d   1       0.026   0.466   0.511  0.00  0.00     0.016 A 
ATOM     10  C   UNL d   1      -1.262   0.841   0.943  0.00  0.00     0.021 A 
ATOM     11  C   UNL d   1       0.228  -0.417  -0.549  0.00  0.00    -0.010 A 
ATOM     12  C   UNL d   1      -2.375   0.307   0.293  0.00  0.00     0.025 A 
ATOM     13  C   UNL d   1      -2.206  -0.580  -0.758  0.00  0.00     0.035 A 
ATOM     14  C   UNL d   1      -0.925  -0.946  -1.187  0.00  0.00     0.037 A 
ATOM     15 CL   UNL d   1      -3.588  -1.238  -1.546  0.00  0.00    -0.084 Cl
ATOM     16  C   UNL d   1       1.648  -0.640  -0.815  0.00  0.00    -0.031 A 
ATOM     17  C   UNL d   1       2.090  -1.562  -1.913  0.00  0.00     0.050 C 
ENDBRANCH   1   7
BRANCH   4  18
ATOM     18  C   UNL d   1       7.149  -0.892  -1.351  0.00  0.00    -0.002 A 
ATOM     19  C   UNL d   1       6.971  -1.101  -2.727  0.00  0.00     0.014 A 
ATOM     20  C   UNL d   1       8.003  -1.622  -3.514  0.00  0.00     0.001 A 
ATOM     21  C   UNL d   1       9.226  -1.949  -2.933  0.00  0.00     0.000 A 
ATOM     22  C   UNL d   1       9.418  -1.759  -1.567  0.00  0.00     0.001 A 
ATOM     23  C   UNL d   1       8.387  -1.236  -0.782  0.00  0.00     0.014 A 
ENDBRANCH   4  18
TORSDOF 2
