REMARK  9 active torsions:
REMARK  status: ('A' for Active; 'I' for Inactive)
REMARK    1  A    between atoms: N_2  and  C_1 
REMARK    2  A    between atoms: C_3  and  C_1 
REMARK    3  A    between atoms: N_4  and  C_1 
REMARK    4  A    between atoms: C_5  and  C_1 
REMARK       I    between atoms: C_6  and  N_2 
REMARK    5  A    between atoms: C_7  and  N_4 
REMARK    6  A    between atoms: O_15  and  C_5 
REMARK    7  A    between atoms: O_14  and  C_6 
REMARK    8  A    between atoms: C_19  and  O_14 
REMARK    9  A    between atoms: C_20  and  O_15 
ROOT
ATOM      1  C   UNL d   1       1.116  -0.061   0.033  0.00  0.00     0.298 C 
ENDROOT
BRANCH   1   2
ATOM      2  N   UNL d   1       0.631  -1.350  -0.448  0.00  0.00    -0.294 N 
ATOM      3  C   UNL d   1      -0.485  -1.961  -0.022  0.00  0.00     0.363 C 
ATOM      4  O   UNL d   1      -1.346  -1.468   0.693  0.00  0.00    -0.238 OA
ATOM      5  H   UNL d   1       1.246  -1.890  -1.040  0.00  0.00     0.168 HD
BRANCH   3   6
ATOM      6  O   UNL d   1      -0.423  -3.260  -0.402  0.00  0.00    -0.304 OA
BRANCH   6   7
ATOM      7  C   UNL d   1      -1.132  -4.173   0.444  0.00  0.00     0.176 C 
ATOM      8  C   UNL d   1      -0.225  -4.545   1.605  0.00  0.00     0.034 C 
ENDBRANCH   6   7
ENDBRANCH   3   6
ENDBRANCH   1   2
BRANCH   1   9
ATOM      9  C   UNL d   1       0.817   0.244   1.562  0.00  0.00     0.442 C 
ATOM     10  F   UNL d   1       0.563  -0.873   2.288  0.00  0.00    -0.166 F 
ATOM     11  F   UNL d   1       1.850   0.854   2.201  0.00  0.00    -0.166 F 
ATOM     12  F   UNL d   1      -0.242   1.083   1.706  0.00  0.00    -0.166 F 
ENDBRANCH   1   9
BRANCH   1  13
ATOM     13  N   UNL d   1       0.551   0.956  -0.904  0.00  0.00    -0.345 N 
ATOM     14  H   UNL d   1       0.427   1.855  -0.441  0.00  0.00     0.163 HD
BRANCH  13  15
ATOM     15  C   UNL d   1       0.934   1.108  -2.242  0.00  0.00     0.069 A 
ATOM     16  C   UNL d   1       1.700   0.200  -2.995  0.00  0.00     0.142 A 
ATOM     17  F   UNL d   1       2.205  -0.913  -2.442  0.00  0.00    -0.204 F 
ATOM     18  C   UNL d   1       1.994   0.413  -4.344  0.00  0.00     0.044 A 
ATOM     19  C   UNL d   1       1.488   1.530  -4.996  0.00  0.00     0.003 A 
ATOM     20  C   UNL d   1       0.679   2.422  -4.296  0.00  0.00     0.002 A 
ATOM     21  C   UNL d   1       0.402   2.204  -2.941  0.00  0.00     0.032 A 
ENDBRANCH  13  15
ENDBRANCH   1  13
BRANCH   1  22
ATOM     22  C   UNL d   1       2.664  -0.019   0.042  0.00  0.00     0.318 C 
ATOM     23  O   UNL d   1       3.336   1.008  -0.029  0.00  0.00    -0.260 OA
BRANCH  22  24
ATOM     24  O   UNL d   1       3.193  -1.270   0.224  0.00  0.00    -0.318 OA
BRANCH  24  25
ATOM     25  C   UNL d   1       4.623  -1.325   0.301  0.00  0.00     0.174 C 
ATOM     26  C   UNL d   1       5.096  -0.928   1.689  0.00  0.00     0.034 C 
ENDBRANCH  24  25
ENDBRANCH  22  24
ENDBRANCH   1  22
TORSDOF 9
