REMARK  2 active torsions:
REMARK  status: ('A' for Active; 'I' for Inactive)
REMARK    1  A    between atoms: C_7  and  C_1 
REMARK    2  A    between atoms: O_19  and  C_14 
ROOT
ATOM      1  C   UNL d   1      -3.171   0.673  -0.013  0.00  0.00     0.090 A 
ATOM      2  C   UNL d   1      -3.036  -0.660  -0.008  0.00  0.00     0.093 A 
ATOM      3  C   UNL d   1      -0.565  -0.312  -0.041  0.00  0.00     0.050 A 
ATOM      4  C   UNL d   1      -1.696  -1.246  -0.041  0.00  0.00     0.187 A 
ATOM      5  O   UNL d   1      -2.105   1.560  -0.063  0.00  0.00    -0.309 OA
ATOM      6  C   UNL d   1      -0.833   1.055  -0.056  0.00  0.00     0.090 A 
ATOM      7  C   UNL d   1       0.748  -0.784  -0.016  0.00  0.00     0.042 A 
ATOM      8  O   UNL d   1      -1.538  -2.460  -0.048  0.00  0.00    -0.287 OA
ATOM      9  C   UNL d   1       0.218   1.969  -0.053  0.00  0.00     0.040 A 
ATOM     10  C   UNL d   1       1.793   0.134  -0.012  0.00  0.00     0.035 A 
ATOM     11  C   UNL d   1       1.535   1.507  -0.031  0.00  0.00     0.026 A 
ATOM     12 CL   UNL d   1       3.418  -0.425   0.017  0.00  0.00    -0.084 Cl
ENDROOT
BRANCH   1  13
ATOM     13  C   UNL d   1      -4.494   1.320   0.073  0.00  0.00    -0.002 A 
ATOM     14  C   UNL d   1      -4.620   2.575   0.688  0.00  0.00     0.017 A 
ATOM     15  C   UNL d   1      -5.863   3.207   0.786  0.00  0.00     0.037 A 
ATOM     16  C   UNL d   1      -7.001   2.590   0.269  0.00  0.00     0.068 A 
ATOM     17  C   UNL d   1      -6.883   1.356  -0.367  0.00  0.00     0.037 A 
ATOM     18  C   UNL d   1      -5.644   0.721  -0.458  0.00  0.00     0.017 A 
BRANCH  16  19
ATOM     19  O   UNL d   1      -8.261   3.118   0.286  0.00  0.00    -0.356 OA
ATOM     20  C   UNL d   1      -8.554   3.962   1.393  0.00  0.00     0.210 C 
ENDBRANCH  16  19
ENDBRANCH   1  13
TORSDOF 2
