REMARK  2 active torsions:
REMARK  status: ('A' for Active; 'I' for Inactive)
REMARK    1  A    between atoms: C_6  and  C_2 
REMARK    2  A    between atoms: C_7  and  C_9 
ROOT
ATOM      1  C   UNL d   1      -1.095  -0.952  -0.473  0.00  0.00     0.132 C 
ATOM      2  C   UNL d   1       1.041  -1.196  -0.717  0.00  0.00     0.132 C 
ATOM      3  C   UNL d   1      -0.686   0.415  -1.019  0.00  0.00     0.026 C 
ATOM      4  C   UNL d   1       0.848   0.243  -1.194  0.00  0.00     0.026 C 
ATOM      5  C   UNL d   1      -0.606  -0.909   0.977  0.00  0.00     0.027 A 
ATOM      6  C   UNL d   1       0.919  -1.082   0.803  0.00  0.00     0.027 A 
ATOM      7  C   UNL d   1       1.132   0.393   1.179  0.00  0.00     0.002 A 
ATOM      8  C   UNL d   1      -0.399   0.564   1.356  0.00  0.00     0.002 A 
ATOM      9  C   UNL d   1       1.413   1.177  -0.114  0.00  0.00    -0.002 C 
ATOM     10  C   UNL d   1      -0.802   1.417   0.139  0.00  0.00    -0.002 C 
ATOM     11  O   UNL d   1      -0.174  -1.843  -1.118  0.00  0.00    -0.379 OA
ATOM     12  C   UNL d   1       0.407   2.324  -0.059  0.00  0.00     0.011 C 
ENDROOT
TORSDOF 2
