REMARK  2 active torsions:
REMARK  status: ('A' for Active; 'I' for Inactive)
REMARK    1  A    between atoms: C_6  and  C_2 
REMARK    2  A    between atoms: O_7  and  C_6 
ROOT
ATOM      1  C   UNL d   1       0.005   0.708   0.053  0.00  0.00     0.110 A 
ATOM      2  C   UNL d   1      -1.190   1.444   0.098  0.00  0.00     0.001 A 
ATOM      3  C   UNL d   1      -0.026  -0.696  -0.016  0.00  0.00     0.102 A 
ATOM      4  O   UNL d   1       1.192   1.403   0.092  0.00  0.00    -0.346 OA
ATOM      5  O   UNL d   1       1.099  -1.482  -0.037  0.00  0.00    -0.346 OA
ATOM      6  C   UNL d   1      -2.407   0.734   0.046  0.00  0.00     0.012 A 
ATOM      7  C   UNL d   1      -2.433  -0.659  -0.048  0.00  0.00     0.003 A 
ATOM      8  C   UNL d   1      -1.240  -1.374  -0.080  0.00  0.00     0.040 A 
ATOM      9  C   UNL d   1       2.295   0.600  -0.341  0.00  0.00     0.202 C 
ATOM     10  C   UNL d   1       2.266  -0.751   0.348  0.00  0.00     0.202 C 
ENDROOT
BRANCH   2  11
ATOM     11  C   UNL d   1      -1.286   2.954   0.186  0.00  0.00     0.205 C 
BRANCH  11  12
ATOM     12  O   UNL d   1      -0.069   3.684   0.206  0.00  0.00    -0.396 OA
ATOM     13  H   UNL d   1       0.657   3.035   0.241  0.00  0.00     0.209 HD
ENDBRANCH  11  12
ENDBRANCH   2  11
TORSDOF 2
