REMARK  8 active torsions:
REMARK  status: ('A' for Active; 'I' for Inactive)
REMARK    1  A    between atoms: C_3  and  C_1 
REMARK    2  A    between atoms: C_4  and  C_2 
REMARK    3  A    between atoms: O_12  and  C_3 
REMARK    4  A    between atoms: O_11  and  C_4 
REMARK    5  A    between atoms: C_14  and  C_10 
REMARK    6  A    between atoms: C_16  and  O_11 
REMARK    7  A    between atoms: C_15  and  O_12 
REMARK    8  A    between atoms: O_13  and  C_14 
ROOT
ATOM      1  C   UNL d   1       1.393  -0.267   0.055  0.00  0.00     0.041 A 
ATOM      2  C   UNL d   1      -0.873  -1.131   0.020  0.00  0.00     0.041 A 
ATOM      3  C   UNL d   1       0.509  -1.351  -0.001  0.00  0.00     0.035 A 
ATOM      4  C   UNL d   1      -1.368   0.178   0.073  0.00  0.00     0.027 A 
ATOM      5  C   UNL d   1       0.888   1.038   0.124  0.00  0.00     0.027 A 
ATOM      6  C   UNL d   1      -0.494   1.273   0.126  0.00  0.00    -0.033 A 
ENDROOT
BRANCH   1   7
ATOM      7  C   UNL d   1       2.867  -0.449   0.009  0.00  0.00     0.293 C 
ATOM      8  O   UNL d   1       3.655   0.475  -0.110  0.00  0.00    -0.259 OA
BRANCH   7   9
ATOM      9  O   UNL d   1       3.177  -1.768   0.036  0.00  0.00    -0.318 OA
BRANCH   9  10
ATOM     10  C   UNL d   1       4.528  -2.095  -0.315  0.00  0.00     0.174 C 
ATOM     11  C   UNL d   1       4.598  -2.278  -1.820  0.00  0.00     0.034 C 
ENDBRANCH   9  10
ENDBRANCH   7   9
ENDBRANCH   1   7
BRANCH   2  12
ATOM     12  C   UNL d   1      -1.850  -2.249   0.082  0.00  0.00     0.293 C 
ATOM     13  O   UNL d   1      -3.061  -2.090   0.076  0.00  0.00    -0.259 OA
BRANCH  12  14
ATOM     14  O   UNL d   1      -1.195  -3.419   0.274  0.00  0.00    -0.318 OA
BRANCH  14  15
ATOM     15  C   UNL d   1      -1.977  -4.477   0.842  0.00  0.00     0.174 C 
ATOM     16  C   UNL d   1      -1.886  -4.362   2.353  0.00  0.00     0.034 C 
ENDBRANCH  14  15
ENDBRANCH  12  14
ENDBRANCH   2  12
BRANCH   6  17
ATOM     17  C   UNL d   1      -1.029   2.667   0.271  0.00  0.00     0.202 C 
BRANCH  17  18
ATOM     18  O   UNL d   1      -1.097   2.963   1.657  0.00  0.00    -0.396 OA
ATOM     19  H   UNL d   1      -1.445   3.866   1.734  0.00  0.00     0.209 HD
ENDBRANCH  17  18
ENDBRANCH   6  17
TORSDOF 8
