REMARK  4 active torsions:
REMARK  status: ('A' for Active; 'I' for Inactive)
REMARK    1  A    between atoms: C_9  and  N_1 
REMARK    2  A    between atoms: C_3  and  C_6 
REMARK    3  A    between atoms: C_7  and  C_9 
REMARK    4  A    between atoms: O_18  and  C_8 
ROOT
ATOM      1  N   UNL d   1       1.389  -0.086   0.700  0.00  0.00     0.092 N 
ATOM      2  C   UNL d   1      -1.460   0.060  -0.287  0.00  0.00     0.025 C 
ATOM      3  C   UNL d   1      -0.751   1.279   0.327  0.00  0.00     0.040 C 
ATOM      4  C   UNL d   1      -0.851  -1.205   0.323  0.00  0.00     0.040 C 
ATOM      5  C   UNL d   1       0.782   1.214   0.369  0.00  0.00     0.273 C 
ATOM      6  C   UNL d   1       0.664  -1.250   0.156  0.00  0.00     0.273 C 
ENDROOT
BRANCH   1   7
ATOM      7  C   UNL d   1       2.783  -0.165   0.204  0.00  0.00     0.311 C 
BRANCH   7   8
ATOM      8  C   UNL d   1       3.768   0.824   0.790  0.00  0.00    -0.029 A 
ATOM      9  C   UNL d   1       4.420   1.750  -0.042  0.00  0.00     0.034 A 
ATOM     10  C   UNL d   1       5.432   2.577   0.459  0.00  0.00     0.056 A 
ATOM     11 CL   UNL d   1       6.204   3.660  -0.645  0.00  0.00    -0.083 Cl
ATOM     12  C   UNL d   1       5.798   2.489   1.804  0.00  0.00     0.055 A 
ATOM     13  C   UNL d   1       5.139   1.587   2.644  0.00  0.00     0.026 A 
ATOM     14 CL   UNL d   1       7.068   3.444   2.483  0.00  0.00    -0.083 Cl
ATOM     15  C   UNL d   1       4.127   0.763   2.142  0.00  0.00     0.011 A 
ENDBRANCH   7   8
ENDBRANCH   1   7
BRANCH   2  16
ATOM     16  C   UNL d   1      -1.549   0.005  -1.818  0.00  0.00    -0.021 A 
ATOM     17  C   UNL d   1      -2.736  -0.412  -2.467  0.00  0.00     0.074 A 
ATOM     18  C   UNL d   1      -2.779  -0.515  -3.867  0.00  0.00     0.037 A 
ATOM     19  C   UNL d   1      -1.676  -0.174  -4.644  0.00  0.00     0.003 A 
ATOM     20  C   UNL d   1      -0.513   0.260  -4.025  0.00  0.00     0.001 A 
ATOM     21  C   UNL d   1      -0.453   0.337  -2.634  0.00  0.00     0.010 A 
BRANCH  17  22
ATOM     22  O   UNL d   1      -3.812  -0.731  -1.672  0.00  0.00    -0.355 OA
ATOM     23  C   UNL d   1      -5.091  -0.659  -2.289  0.00  0.00     0.210 C 
ENDBRANCH  17  22
ENDBRANCH   2  16
TORSDOF 4
