REMARK  6 active torsions:
REMARK  status: ('A' for Active; 'I' for Inactive)
REMARK    1  A    between atoms: N_3  and  C_1 
REMARK    2  A    between atoms: C_2  and  N_3 
REMARK    3  A    between atoms: C_11  and  N_7 
REMARK    4  A    between atoms: C_8  and  C_11 
REMARK    5  A    between atoms: C_16  and  C_8 
REMARK    6  A    between atoms: O_10  and  C_16 
ROOT
ATOM      1  N   UNL d   1       0.369   0.610  -1.042  0.00  0.00    -0.332 N 
ATOM      2  H   UNL d   1      -0.638   0.637  -0.925  0.00  0.00     0.168 HD
ENDROOT
BRANCH   1   3
ATOM      3  C   UNL d   1       0.868   1.026  -2.301  0.00  0.00     0.046 C 
ATOM      4  C   UNL d   1       2.013   0.435  -2.890  0.00  0.00    -0.035 C 
ATOM      5  C   UNL d   1       2.614   1.063  -3.993  0.00  0.00     0.009 C 
ATOM      6  C   UNL d   1       2.621  -0.866  -2.438  0.00  0.00     0.050 C 
ATOM      7  C   UNL d   1       2.066   2.211  -4.548  0.00  0.00     0.001 C 
ATOM      8  C   UNL d   1       0.854   2.695  -4.062  0.00  0.00     0.009 C 
ATOM      9  C   UNL d   1       0.218   2.088  -2.967  0.00  0.00    -0.035 C 
ATOM     10  C   UNL d   1      -1.104   2.678  -2.546  0.00  0.00     0.050 C 
ENDBRANCH   1   3
BRANCH   1  11
ATOM     11  C   UNL d   1       1.024   0.132   0.038  0.00  0.00     0.172 C 
ATOM     12  S   UNL d   1       0.224  -0.882   1.098  0.00  0.00    -0.041 SA
ATOM     13  N   UNL d   1       2.294   0.503   0.336  0.00  0.00    -0.367 N 
ATOM     14  H   UNL d   1       2.652   0.032   1.160  0.00  0.00     0.161 HD
BRANCH  13  15
ATOM     15  C   UNL d   1       2.974   1.749  -0.007  0.00  0.00     0.124 C 
BRANCH  15  16
ATOM     16  C   UNL d   1       2.802   2.811   1.079  0.00  0.00     0.046 C 
BRANCH  16  17
ATOM     17  C   UNL d   1       3.532   4.099   0.707  0.00  0.00     0.168 C 
BRANCH  17  18
ATOM     18  O   UNL d   1       2.983   4.623  -0.500  0.00  0.00    -0.396 OA
ATOM     19  C   UNL d   1       3.670   5.787  -0.937  0.00  0.00     0.201 C 
ENDBRANCH  17  18
ENDBRANCH  16  17
ENDBRANCH  15  16
ENDBRANCH  13  15
ENDBRANCH   1  11
TORSDOF 6
