REMARK  10 active torsions:
REMARK  status: ('A' for Active; 'I' for Inactive)
REMARK    1  A    between atoms: C_6  and  N_1 
REMARK    2  A    between atoms: N_2  and  C_16 
REMARK    3  A    between atoms: C_15  and  N_4 
REMARK    4  A    between atoms: N_10  and  C_9 
REMARK    5  A    between atoms: C_21  and  N_10 
REMARK    6  A    between atoms: C_22  and  N_10 
REMARK    7  A    between atoms: C_23  and  C_21 
REMARK    8  A    between atoms: C_24  and  C_22 
REMARK    9  A    between atoms: C_26  and  C_23 
REMARK   10  A    between atoms: C_25  and  C_24 
ROOT
ATOM      1  C   UNL d   1      -3.481   1.278   9.520  0.00  0.00     0.030 A 
ATOM      2  C   UNL d   1      -3.747   0.224   8.630  0.00  0.00     0.031 A 
ATOM      3  C   UNL d   1      -2.572   2.245   9.064  0.00  0.00     0.031 A 
ATOM      4  C   UNL d   1      -2.258   1.115   6.926  0.00  0.00     0.048 A 
ATOM      5  C   UNL d   1      -3.144   0.135   7.367  0.00  0.00     0.033 A 
ATOM      6  C   UNL d   1      -1.968   2.167   7.797  0.00  0.00     0.033 A 
ENDROOT
BRANCH   4   7
ATOM      7  N   UNL d   1      -1.688   0.971   5.644  0.00  0.00    -0.300 N 
ATOM      8  N   UNL d   1      -1.566   2.070   5.063  0.00  0.00    -0.300 N 
ATOM      9  HN  UNL d   1      -1.778   2.964   5.505  1.00  0.00     0.187 HD
ATOM     10  HN  UNL d   1      -1.408   0.077   5.240  1.00  0.00     0.187 HD
BRANCH   8  11
ATOM     11  C   UNL d   1      -1.106   1.950   3.735  0.00  0.00     0.048 A 
ATOM     12  C   UNL d   1      -1.376   3.016   2.865  0.00  0.00     0.033 A 
ATOM     13  C   UNL d   1      -0.962   2.988   1.528  0.00  0.00     0.038 A 
ATOM     14  C   UNL d   1      -0.259   1.879   1.050  0.00  0.00     0.103 A 
ATOM     15  C   UNL d   1       0.035   0.807   1.902  0.00  0.00     0.038 A 
ATOM     16  C   UNL d   1      -0.385   0.851   3.238  0.00  0.00     0.033 A 
BRANCH  14  17
ATOM     17  N   UNL d   1       0.176   1.837  -0.351  0.00  0.00    -0.116 N 
ATOM     18  O   UNL d   1       0.804   0.841  -0.732  0.00  0.00    -0.532 OA
ATOM     19  O   UNL d   1      -0.112   2.806  -1.072  0.00  0.00    -0.532 OA
ENDBRANCH  14  17
ENDBRANCH   8  11
ENDBRANCH   4   7
BRANCH   1  20
ATOM     20  N   UNL d   1      -4.074   1.347  10.776  0.00  0.00    -0.381 N 
BRANCH  20  21
ATOM     21  C   UNL d   1      -4.227   2.623  11.495  0.00  0.00     0.123 C 
BRANCH  21  22
ATOM     22  C   UNL d   1      -5.118   3.648  10.775  0.00  0.00     0.019 C 
BRANCH  22  23
ATOM     23  C   UNL d   1      -6.558   3.193  10.527  0.00  0.00    -0.003 C 
ATOM     24  C   UNL d   1      -7.371   4.314   9.887  0.00  0.00     0.005 C 
ENDBRANCH  22  23
ENDBRANCH  21  22
ENDBRANCH  20  21
BRANCH  20  25
ATOM     25  C   UNL d   1      -4.586   0.140  11.448  0.00  0.00     0.123 C 
BRANCH  25  26
ATOM     26  C   UNL d   1      -3.517  -0.935  11.700  0.00  0.00     0.019 C 
BRANCH  26  27
ATOM     27  C   UNL d   1      -2.381  -0.491  12.622  0.00  0.00    -0.003 C 
ATOM     28  C   UNL d   1      -1.392  -1.629  12.850  0.00  0.00     0.005 C 
ENDBRANCH  26  27
ENDBRANCH  25  26
ENDBRANCH  20  25
ENDBRANCH   1  20
TORSDOF 10
