REMARK  6 active torsions:
REMARK  status: ('A' for Active; 'I' for Inactive)
REMARK    1  A    between atoms: C_2  and  C_1 
REMARK    2  A    between atoms: N_19  and  C_4 
REMARK    3  A    between atoms: S_18  and  C_10 
REMARK    4  A    between atoms: C_20  and  C_16 
REMARK    5  A    between atoms: C_22  and  S_18 
REMARK    6  A    between atoms: C_24  and  C_22 
ROOT
ATOM      1  C   UNL d   1       2.415   0.001   0.012  0.00  0.00     0.150 A 
ATOM      2  C   UNL d   1       1.693   1.185  -0.070  0.00  0.00     0.079 A 
ATOM      3  C   UNL d   1       0.305   0.854  -0.064  0.00  0.00     0.050 A 
ATOM      4  C   UNL d   1       0.274  -0.543  -0.058  0.00  0.00     0.162 A 
ATOM      5  O   UNL d   1       1.537  -1.049  -0.026  0.00  0.00    -0.287 OA
ATOM      6  N   UNL d   1      -0.806  -1.343  -0.075  0.00  0.00    -0.335 N 
ATOM      7  HN  UNL d   1      -0.740  -2.361  -0.078  1.00  0.00     0.168 HD
ATOM      8  C   UNL d   1      -0.935   1.527  -0.048  0.00  0.00    -0.043 A 
ATOM      9  C   UNL d   1      -1.988  -0.687  -0.089  0.00  0.00     0.044 A 
ATOM     10  C   UNL d   1      -2.082   0.708  -0.058  0.00  0.00     0.038 A 
ATOM     11  C   UNL d   1      -1.143   3.013  -0.001  0.00  0.00     0.049 C 
ENDROOT
BRANCH   1  12
ATOM     12  C   UNL d   1       3.829  -0.179   0.156  0.00  0.00     0.161 A 
ATOM     13  N   UNL d   1       4.590  -1.203  -0.353  0.00  0.00    -0.314 N 
ATOM     14  C   UNL d   1       5.837  -1.031   0.185  0.00  0.00     0.163 A 
ATOM     15  C   UNL d   1       4.187  -2.206  -1.303  0.00  0.00     0.160 C 
ATOM     16  N   UNL d   1       5.870   0.074   0.891  0.00  0.00    -0.278 N 
ATOM     17  N   UNL d   1       4.611   0.626   0.854  0.00  0.00    -0.281 N 
ATOM     18  HN  UNL d   1       6.682   0.455   1.378  1.00  0.00     0.189 HD
ATOM     19  HN  UNL d   1       4.329   1.504   1.289  1.00  0.00     0.188 HD
BRANCH  14  20
ATOM     20  S   UNL d   1       7.149  -2.133  -0.050  0.00  0.00    -0.088 SA
BRANCH  20  21
ATOM     21  C   UNL d   1       8.088  -1.845   1.482  0.00  0.00     0.121 C 
BRANCH  21  22
ATOM     22  C   UNL d   1       9.343  -2.688   1.538  0.00  0.00    -0.048 A 
ATOM     23  C   UNL d   1      10.578  -2.148   1.151  0.00  0.00     0.009 A 
ATOM     24  C   UNL d   1      11.741  -2.922   1.204  0.00  0.00     0.024 A 
ATOM     25  C   UNL d   1      11.673  -4.244   1.637  0.00  0.00     0.034 A 
ATOM     26  C   UNL d   1      10.454  -4.799   2.016  0.00  0.00     0.024 A 
ATOM     27 CL   UNL d   1      13.105  -5.197   1.702  0.00  0.00    -0.084 Cl
ATOM     28  C   UNL d   1       9.291  -4.024   1.966  0.00  0.00     0.009 A 
ENDBRANCH  21  22
ENDBRANCH  20  21
ENDBRANCH  14  20
ENDBRANCH   1  12
BRANCH   2  29
ATOM     29  N   UNL d   1       2.244   2.414  -0.140  0.00  0.00    -0.396 N 
ATOM     30  H   UNL d   1       3.250   2.548  -0.030  0.00  0.00     0.156 HD
ATOM     31  H   UNL d   1       1.723   3.276  -0.233  0.00  0.00     0.156 HD
ENDBRANCH   2  29
BRANCH   9  32
ATOM     32  C   UNL d   1      -3.197  -1.544  -0.141  0.00  0.00    -0.009 A 
ATOM     33  C   UNL d   1      -3.229  -2.795   0.501  0.00  0.00     0.013 A 
ATOM     34  C   UNL d   1      -4.367  -3.608   0.459  0.00  0.00     0.001 A 
ATOM     35  C   UNL d   1      -5.499  -3.189  -0.233  0.00  0.00     0.000 A 
ATOM     36  C   UNL d   1      -5.494  -1.960  -0.884  0.00  0.00     0.001 A 
ATOM     37  C   UNL d   1      -4.355  -1.150  -0.840  0.00  0.00     0.013 A 
ENDBRANCH   9  32
TORSDOF 6
