REMARK  2 active torsions:
REMARK  status: ('A' for Active; 'I' for Inactive)
REMARK       I    between atoms: N_3  and  C_1 
REMARK    1  A    between atoms: C_6  and  C_1 
REMARK    2  A    between atoms: C_2  and  N_4 
ROOT
ATOM      1  C   UNL d   1      -0.951  -4.355   2.903  0.00  0.00     0.124 A 
ATOM      2  C   UNL d   1      -1.212  -4.248   4.281  0.00  0.00     0.088 A 
ATOM      3  C   UNL d   1      -1.043  -3.018   4.990  0.00  0.00     0.103 C 
ATOM      4  N   UNL d   1      -0.892  -2.028   5.583  0.00  0.00    -0.191 NA
ATOM      5  N   UNL d   1      -1.234  -5.498   2.239  0.00  0.00    -0.351 N 
ATOM      6  HN  UNL d   1      -1.066  -5.571   1.236  1.00  0.00     0.166 HD
ATOM      7  C   UNL d   1      -1.733  -5.346   4.973  0.00  0.00     0.028 A 
ATOM      8  C   UNL d   1      -1.746  -6.546   2.930  0.00  0.00     0.090 A 
ATOM      9  C   UNL d   1      -2.004  -6.519   4.287  0.00  0.00     0.019 A 
ENDROOT
BRANCH   1  10
ATOM     10  N   UNL d   1      -0.492  -3.275   2.174  0.00  0.00    -0.363 N 
ATOM     11  C   UNL d   1      -0.809  -3.189   0.744  0.00  0.00     0.144 C 
ATOM     12  C   UNL d   1      -0.913  -1.690   0.369  0.00  0.00     0.146 C 
ATOM     13  N   UNL d   1       0.265  -0.915   0.819  0.00  0.00    -0.343 N 
ATOM     14  C   UNL d   1       0.965   0.020   0.060  0.00  0.00     0.277 C 
ATOM     15  C   UNL d   1       0.689  -1.159   2.209  0.00  0.00     0.146 C 
ATOM     16  O   UNL d   1       2.065   0.428   0.436  0.00  0.00    -0.265 OA
ATOM     17  C   UNL d   1       0.807  -2.663   2.501  0.00  0.00     0.144 C 
BRANCH  14  18
ATOM     18  C   UNL d   1       0.393   0.484  -1.191  0.00  0.00     0.142 A 
ATOM     19  O   UNL d   1      -0.964   0.596  -1.347  0.00  0.00    -0.317 OA
ATOM     20  C   UNL d   1      -1.188   1.097  -2.588  0.00  0.00     0.143 A 
ATOM     21  C   UNL d   1      -0.000   1.327  -3.237  0.00  0.00     0.027 A 
ATOM     22  C   UNL d   1       1.019   0.954  -2.330  0.00  0.00     0.045 A 
ENDBRANCH  14  18
ENDBRANCH   1  10
TORSDOF 2
