REMARK  2 active torsions:
REMARK  status: ('A' for Active; 'I' for Inactive)
REMARK       I    between atoms: N_5  and  C_1 
REMARK       I    between atoms: N_11  and  C_1 
REMARK    1  A    between atoms: N_2  and  N_7 
REMARK    2  A    between atoms: C_13  and  C_12 
ROOT
ATOM      1  N   UNL d   1      -1.076  -0.423  -1.563  0.00  0.00    -0.309 N 
ATOM      2  HN  UNL d   1      -1.554   0.477  -1.575  1.00  0.00     0.186 HD
ATOM      3  C   UNL d   1      -1.715  -1.546  -1.633  0.00  0.00     0.118 C 
ENDROOT
BRANCH   1   4
ATOM      4  N   UNL d   1       0.283  -0.525  -1.474  0.00  0.00    -0.277 N 
ATOM      5  C   UNL d   1       1.077   0.571  -1.306  0.00  0.00     0.163 C 
ATOM      6  N   UNL d   1       0.652   1.786  -1.298  0.00  0.00    -0.375 N 
ATOM      7  N   UNL d   1       2.392   0.310  -1.154  0.00  0.00    -0.273 NA
ATOM      8  H   UNL d   1      -0.367   1.688  -1.427  0.00  0.00     0.158 HD
ATOM      9  HN  UNL d   1       1.194   2.644  -1.189  1.00  0.00     0.158 HD
ATOM     10  H   UNL d   1       2.893   1.196  -1.159  0.00  0.00     0.127 HD
ATOM     11  H   UNL d   1       2.764  -0.295  -1.875  0.00  0.00     0.127 HD
ATOM     12  H   UNL d   1       0.696  -1.384  -1.121  0.00  0.00     0.189 HD
ENDBRANCH   1   4
BRANCH   3  13
ATOM     13  C   UNL d   1      -3.191  -1.573  -1.699  0.00  0.00    -0.018 A 
ATOM     14  C   UNL d   1      -3.924  -0.380  -1.680  0.00  0.00     0.038 A 
ATOM     15  C   UNL d   1      -5.320  -0.418  -1.711  0.00  0.00     0.056 A 
ATOM     16 CL   UNL d   1      -6.165   1.089  -1.677  0.00  0.00    -0.083 Cl
ATOM     17  C   UNL d   1      -5.983  -1.649  -1.761  0.00  0.00     0.055 A 
ATOM     18  C   UNL d   1      -5.245  -2.839  -1.790  0.00  0.00     0.026 A 
ATOM     19 CL   UNL d   1      -7.706  -1.774  -1.784  0.00  0.00    -0.083 Cl
ATOM     20  C   UNL d   1      -3.848  -2.803  -1.760  0.00  0.00     0.014 A 
ENDBRANCH   3  13
TORSDOF 2
