REMARK  6 active torsions:
REMARK  status: ('A' for Active; 'I' for Inactive)
REMARK    1  A    between atoms: C_7  and  N_1 
REMARK    2  A    between atoms: C_8  and  N_3 
REMARK    3  A    between atoms: N_13  and  C_4 
REMARK    4  A    between atoms: C_18  and  C_8 
REMARK    5  A    between atoms: C_9  and  C_12 
REMARK    6  A    between atoms: O_19  and  C_9 
ROOT
ATOM      1  N   UNL d   1      -0.614   1.242   0.073  0.00  0.00    -0.254 N 
ATOM      2  C   UNL d   1      -1.387   0.059   0.101  0.00  0.00     0.338 A 
ATOM      3  N   UNL d   1      -0.680  -1.142   0.065  0.00  0.00    -0.262 N 
ATOM      4  C   UNL d   1       0.778   1.221  -0.050  0.00  0.00     0.094 A 
ATOM      5  C   UNL d   1       0.689  -1.225  -0.001  0.00  0.00     0.254 A 
ATOM      6  C   UNL d   1       1.414   0.044  -0.066  0.00  0.00     0.117 A 
ATOM      7  O   UNL d   1      -2.622   0.060   0.114  0.00  0.00    -0.246 OA
ATOM      8  O   UNL d   1       1.334  -2.271  -0.049  0.00  0.00    -0.268 OA
ENDROOT
BRANCH   3   9
ATOM      9  C   UNL d   1      -1.434  -2.378  -0.087  0.00  0.00     0.175 C 
BRANCH   9  10
ATOM     10  C   UNL d   1      -1.722  -3.128   1.198  0.00  0.00    -0.040 A 
ATOM     11  C   UNL d   1      -2.878  -2.847   1.940  0.00  0.00     0.010 A 
ATOM     12  C   UNL d   1      -3.230  -3.648   3.033  0.00  0.00     0.018 A 
ATOM     13  C   UNL d   1      -2.432  -4.739   3.394  0.00  0.00     0.039 A 
ATOM     14  C   UNL d   1      -1.246  -4.990   2.697  0.00  0.00     0.018 A 
ATOM     15  C   UNL d   1      -0.890  -4.181   1.612  0.00  0.00     0.010 A 
BRANCH  13  16
ATOM     16  C   UNL d   1      -2.890  -5.607   4.509  0.00  0.00     0.292 C 
ATOM     17  O   UNL d   1      -3.658  -5.228   5.382  0.00  0.00    -0.259 OA
BRANCH  16  18
ATOM     18  O   UNL d   1      -2.399  -6.863   4.370  0.00  0.00    -0.323 OA
ATOM     19  C   UNL d   1      -2.872  -7.780   5.361  0.00  0.00     0.213 C 
ENDBRANCH  16  18
ENDBRANCH  13  16
ENDBRANCH   9  10
ENDBRANCH   3   9
BRANCH   1  20
ATOM     20  C   UNL d   1      -1.341   2.488   0.072  0.00  0.00     0.051 A 
ATOM     21  C   UNL d   1      -2.174   2.870   1.144  0.00  0.00    -0.035 A 
ATOM     22  C   UNL d   1      -2.356   2.057   2.396  0.00  0.00     0.050 C 
ATOM     23  C   UNL d   1      -2.863   4.096   1.069  0.00  0.00     0.009 A 
ATOM     24  C   UNL d   1      -2.718   4.940  -0.032  0.00  0.00     0.001 A 
ATOM     25  C   UNL d   1      -1.880   4.572  -1.078  0.00  0.00     0.002 A 
ATOM     26  C   UNL d   1      -1.196   3.358  -1.026  0.00  0.00     0.031 A 
ENDBRANCH   1  20
BRANCH   4  27
ATOM     27  N   UNL d   1       1.540   2.380  -0.121  0.00  0.00    -0.288 NA
ATOM     28  H   UNL d   1       1.090   3.172   0.333  0.00  0.00     0.125 HD
ATOM     29  H   UNL d   1       2.508   2.272   0.168  0.00  0.00     0.125 HD
ENDBRANCH   4  27
TORSDOF 6
