REMARK  4 active torsions:
REMARK  status: ('A' for Active; 'I' for Inactive)
REMARK    1  A    between atoms: N_9  and  C_1 
REMARK    2  A    between atoms: C_21  and  C_6 
REMARK    3  A    between atoms: N_7  and  N_9 
REMARK    4  A    between atoms: C_10  and  C_12 
ROOT
ATOM      1  C   UNL d   1       2.374  -0.653  -0.021  0.00  0.00     0.145 A 
ATOM      2  N   UNL d   1       1.193  -1.339   0.040  0.00  0.00    -0.338 N 
ATOM      3  HN  UNL d   1       1.199  -2.359   0.068  1.00  0.00     0.167 HD
ATOM      4  N   UNL d   1       1.115   1.435   0.025  0.00  0.00    -0.355 N 
ATOM      5  HN  UNL d   1       1.092   2.455   0.040  1.00  0.00     0.166 HD
ATOM      6  C   UNL d   1       2.308   0.763  -0.024  0.00  0.00     0.055 A 
ATOM      7  C   UNL d   1       0.021  -0.676   0.062  0.00  0.00     0.060 A 
ATOM      8  C   UNL d   1      -0.016   0.725   0.051  0.00  0.00     0.059 A 
ATOM      9  C   UNL d   1      -1.180  -1.374   0.068  0.00  0.00     0.032 A 
ATOM     10  C   UNL d   1      -1.242   1.381   0.050  0.00  0.00     0.032 A 
ATOM     11  C   UNL d   1      -2.443   0.671   0.051  0.00  0.00     0.002 A 
ATOM     12  C   UNL d   1      -2.412  -0.716   0.060  0.00  0.00     0.002 A 
ENDROOT
BRANCH   1  13
ATOM     13  N   UNL d   1       3.555  -1.435  -0.158  0.00  0.00    -0.280 N 
ATOM     14  C   UNL d   1       4.858  -0.895   0.218  0.00  0.00     0.179 C 
BRANCH  13  15
ATOM     15  N   UNL d   1       3.529  -2.799   0.062  0.00  0.00    -0.308 N 
ATOM     16  C   UNL d   1       2.770  -3.534  -0.689  0.00  0.00     0.120 C 
ATOM     17  HN  UNL d   1       4.095  -3.219   0.800  1.00  0.00     0.186 HD
BRANCH  16  18
ATOM     18  C   UNL d   1       2.844  -5.011  -0.588  0.00  0.00     0.003 A 
ATOM     19  C   UNL d   1       1.873  -5.851  -1.143  0.00  0.00     0.047 A 
ATOM     20  C   UNL d   1       2.048  -7.241  -1.107  0.00  0.00     0.048 A 
ATOM     21 CL   UNL d   1       0.427  -5.252  -1.874  0.00  0.00    -0.083 Cl
ATOM     22  C   UNL d   1       3.191  -7.786  -0.522  0.00  0.00     0.035 A 
ATOM     23  C   UNL d   1       4.155  -6.960   0.047  0.00  0.00     0.025 A 
ATOM     24 CL   UNL d   1       3.420  -9.491  -0.514  0.00  0.00    -0.084 Cl
ATOM     25  C   UNL d   1       3.978  -5.576   0.019  0.00  0.00     0.016 A 
ENDBRANCH  16  18
ENDBRANCH  13  15
ENDBRANCH   1  13
BRANCH   6  26
ATOM     26  C   UNL d   1       3.500   1.687  -0.110  0.00  0.00     0.056 C 
ATOM     27  C   UNL d   1       3.188   3.184  -0.110  0.00  0.00     0.011 C 
ENDBRANCH   6  26
TORSDOF 4
