REMARK  6 active torsions:
REMARK  status: ('A' for Active; 'I' for Inactive)
REMARK    1  A    between atoms: N_2  and  C_1 
REMARK    2  A    between atoms: N_11  and  C_1 
REMARK    3  A    between atoms: C_3  and  N_2 
REMARK    4  A    between atoms: N_6  and  N_11 
REMARK    5  A    between atoms: O_21  and  C_9 
REMARK    6  A    between atoms: C_19  and  C_18 
ROOT
ATOM      1  N   UNL d   1       3.061  -0.192  -0.292  0.00  0.00    -0.277 N 
ATOM      2  H   UNL d   1       3.639   0.312  -0.956  0.00  0.00     0.189 HD
ENDROOT
BRANCH   1   3
ATOM      3  N   UNL d   1       3.625  -0.841   0.779  0.00  0.00    -0.309 N 
ATOM      4  C   UNL d   1       4.921  -0.818   0.842  0.00  0.00     0.118 C 
ATOM      5  HN  UNL d   1       3.058  -1.313   1.483  1.00  0.00     0.186 HD
BRANCH   4   6
ATOM      6  C   UNL d   1       5.652  -1.441   1.975  0.00  0.00    -0.017 A 
ATOM      7  C   UNL d   1       7.056  -1.479   1.978  0.00  0.00     0.050 A 
ATOM      8  C   UNL d   1       7.737  -2.058   3.059  0.00  0.00     0.074 A 
ATOM      9  C   UNL d   1       7.009  -2.577   4.149  0.00  0.00    -0.029 A 
ATOM     10  C   UNL d   1       5.609  -2.543   4.126  0.00  0.00     0.010 A 
ATOM     11  C   UNL d   1       7.714  -3.206   5.322  0.00  0.00     0.051 C 
ATOM     12  C   UNL d   1       4.933  -1.979   3.046  0.00  0.00     0.013 A 
BRANCH   8  13
ATOM     13  O   UNL d   1       9.097  -2.179   3.174  0.00  0.00    -0.355 OA
ATOM     14  C   UNL d   1       9.914  -1.724   2.107  0.00  0.00     0.210 C 
ENDBRANCH   8  13
ENDBRANCH   4   6
ENDBRANCH   1   3
BRANCH   1  15
ATOM     15  C   UNL d   1       1.691  -0.228  -0.506  0.00  0.00     0.186 C 
ATOM     16  S   UNL d   1       1.011   0.554  -1.807  0.00  0.00    -0.040 SA
BRANCH  15  17
ATOM     17  N   UNL d   1       1.035  -0.965   0.436  0.00  0.00    -0.361 N 
ATOM     18  H   UNL d   1       1.727  -1.439   1.015  0.00  0.00     0.162 HD
BRANCH  17  19
ATOM     19  C   UNL d   1      -0.299  -1.572   0.391  0.00  0.00     0.092 C 
ATOM     20  C   UNL d   1      -0.478  -2.656  -0.728  0.00  0.00     0.031 C 
ATOM     21  C   UNL d   1       0.759  -3.520  -0.727  0.00  0.00    -0.024 C 
ATOM     22  C   UNL d   1      -1.440  -3.658  -0.074  0.00  0.00     0.019 C 
ATOM     23  C   UNL d   1       0.751  -4.194   0.439  0.00  0.00    -0.026 C 
ATOM     24  C   UNL d   1      -0.546  -3.861   1.151  0.00  0.00     0.010 C 
ATOM     25  C   UNL d   1      -0.515  -2.415   1.687  0.00  0.00     0.034 C 
ENDBRANCH  17  19
ENDBRANCH  15  17
ENDBRANCH   1  15
TORSDOF 6
