REMARK  4 active torsions:
REMARK  status: ('A' for Active; 'I' for Inactive)
REMARK    1  A    between atoms: C_2  and  C_1 
REMARK       I    between atoms: N_3  and  C_2 
REMARK    2  A    between atoms: C_4  and  N_3 
REMARK    3  A    between atoms: O_18  and  C_6 
REMARK    4  A    between atoms: O_19  and  C_13 
ROOT
ATOM      1  C   UNL d   1       2.915  -0.262   0.288  0.00  0.00     0.259 C 
ATOM      2  N   UNL d   1       3.649   0.487  -0.625  0.00  0.00    -0.320 N 
ATOM      3  O   UNL d   1       3.359  -0.798   1.294  0.00  0.00    -0.267 OA
ATOM      4  H   UNL d   1       3.137   1.121  -1.224  0.00  0.00     0.169 HD
ENDROOT
BRANCH   1   5
ATOM      5  C   UNL d   1       1.448  -0.256   0.074  0.00  0.00     0.068 A 
ATOM      6  C   UNL d   1       0.634  -1.397   0.058  0.00  0.00     0.084 A 
ATOM      7  C   UNL d   1      -0.759  -1.214  -0.032  0.00  0.00     0.040 A 
ATOM      8  C   UNL d   1      -1.338   0.057  -0.104  0.00  0.00     0.039 A 
ATOM      9  C   UNL d   1      -0.526   1.181  -0.078  0.00  0.00     0.069 A 
ATOM     10  C   UNL d   1       0.856   1.023  -0.001  0.00  0.00     0.056 A 
BRANCH   6  11
ATOM     11  O   UNL d   1       0.946  -2.725   0.106  0.00  0.00    -0.355 OA
ATOM     12  C   UNL d   1       2.293  -3.163   0.037  0.00  0.00     0.210 C 
ENDBRANCH   6  11
BRANCH   9  13
ATOM     13  O   UNL d   1      -0.964   2.474  -0.141  0.00  0.00    -0.356 OA
ATOM     14  C   UNL d   1      -2.230   2.710   0.468  0.00  0.00     0.210 C 
ENDBRANCH   9  13
ENDBRANCH   1   5
BRANCH   2  15
ATOM     15  C   UNL d   1       5.046   0.672  -0.540  0.00  0.00     0.074 A 
ATOM     16  C   UNL d   1       5.936  -0.323  -0.106  0.00  0.00     0.146 A 
ATOM     17  C   UNL d   1       7.300  -0.069   0.003  0.00  0.00     0.086 A 
ATOM     18  F   UNL d   1       5.515  -1.576   0.119  0.00  0.00    -0.204 F 
ATOM     19  C   UNL d   1       7.780   1.189  -0.330  0.00  0.00     0.119 A 
ATOM     20  C   UNL d   1       6.926   2.182  -0.799  0.00  0.00     0.044 A 
ATOM     21  F   UNL d   1       9.088   1.448  -0.214  0.00  0.00    -0.206 F 
ATOM     22  C   UNL d   1       5.559   1.918  -0.924  0.00  0.00     0.036 A 
ENDBRANCH   2  15
TORSDOF 4
