REMARK  6 active torsions:
REMARK  status: ('A' for Active; 'I' for Inactive)
REMARK    1  A    between atoms: C_3  and  C_1 
REMARK    2  A    between atoms: C_8  and  N_4 
REMARK    3  A    between atoms: C_5  and  C_7 
REMARK    4  A    between atoms: S_12  and  C_5 
REMARK    5  A    between atoms: C_7  and  C_8 
REMARK    6  A    between atoms: C_17  and  S_12 
ROOT
ATOM      1  C   UNL d   1      -0.206  -1.695   0.317  0.00  0.00     0.115 A 
ATOM      2  C   UNL d   1       1.162  -1.141   0.084  0.00  0.00     0.262 A 
ATOM      3  N   UNL d   1       1.337   0.219   0.377  0.00  0.00    -0.324 N 
ATOM      4  C   UNL d   1      -1.194  -0.875   0.722  0.00  0.00     0.023 A 
ATOM      5  C   UNL d   1       0.274   1.008   0.808  0.00  0.00     0.094 A 
ATOM      6  O   UNL d   1       2.058  -1.849  -0.361  0.00  0.00    -0.267 OA
ATOM      7  C   UNL d   1      -0.953   0.513   0.979  0.00  0.00     0.018 A 
ENDROOT
BRANCH   3   8
ATOM      8  C   UNL d   1       2.513   0.976  -0.084  0.00  0.00     0.140 C 
BRANCH   8   9
ATOM      9  C   UNL d   1       3.907   0.343  -0.204  0.00  0.00     0.111 C 
BRANCH   9  10
ATOM     10  C   UNL d   1       4.827   1.443  -0.720  0.00  0.00     0.192 C 
ATOM     11  O   UNL d   1       4.388   2.538  -1.054  0.00  0.00    -0.285 OA
BRANCH  10  12
ATOM     12  S   UNL d   1       6.529   1.021  -0.848  0.00  0.00    -0.053 SA
BRANCH  12  13
ATOM     13  C   UNL d   1       7.462   2.518  -1.191  0.00  0.00     0.008 A 
ATOM     14  C   UNL d   1       6.938   3.787  -1.475  0.00  0.00     0.019 A 
ATOM     15  C   UNL d   1       7.770   4.886  -1.709  0.00  0.00     0.001 A 
ATOM     16  C   UNL d   1       9.150   4.745  -1.683  0.00  0.00     0.000 A 
ATOM     17  C   UNL d   1       9.698   3.492  -1.425  0.00  0.00     0.001 A 
ATOM     18  C   UNL d   1       8.863   2.394  -1.185  0.00  0.00     0.019 A 
ENDBRANCH  12  13
ENDBRANCH  10  12
ENDBRANCH   9  10
ENDBRANCH   8   9
ENDBRANCH   3   8
BRANCH   1  19
ATOM     19  C   UNL d   1      -0.452  -3.135   0.055  0.00  0.00     0.422 C 
ATOM     20  F   UNL d   1       0.637  -3.912  -0.144  0.00  0.00    -0.166 F 
ATOM     21  F   UNL d   1      -1.127  -3.701   1.099  0.00  0.00    -0.166 F 
ATOM     22  F   UNL d   1      -1.258  -3.302  -1.030  0.00  0.00    -0.166 F 
ENDBRANCH   1  19
TORSDOF 6
