REMARK  7 active torsions:
REMARK  status: ('A' for Active; 'I' for Inactive)
REMARK    1  A    between atoms: C_4  and  CA_1 
REMARK    2  A    between atoms: N_5  and  CA_1 
REMARK    3  A    between atoms: C_3  and  C_2 
REMARK    4  A    between atoms: OXT_12  and  C_4 
REMARK       I    between atoms: C_8  and  N_5 
REMARK    5  A    between atoms: O_13  and  C_6 
REMARK    6  A    between atoms: O_9  and  C_7 
REMARK    7  A    between atoms: C_14  and  O_9 
ROOT
ATOM      1  C   UNL d   1       1.137   2.260  -1.293  0.00  0.00     0.002 A 
ATOM      2  C   UNL d   1       2.041   1.590  -2.147  0.00  0.00     0.111 A 
ATOM      3  C   UNL d   1       2.708   2.292  -3.179  0.00  0.00     0.103 A 
ATOM      4  C   UNL d   1       0.945   3.641  -1.468  0.00  0.00     0.014 A 
ATOM      5  C   UNL d   1       2.488   3.668  -3.319  0.00  0.00     0.040 A 
ATOM      6  C   UNL d   1       1.610   4.339  -2.474  0.00  0.00     0.004 A 
ENDROOT
BRANCH   1   7
ATOM      7  C   UNL d   1       0.486   1.623  -0.127  0.00  0.00     0.051 C 
ATOM      8  CA  UNL d   1      -0.806   1.724   0.252  0.00  0.00     0.110 C 
BRANCH   8   9
ATOM      9  C   UNL d   1      -1.224   1.306   1.630  0.00  0.00     0.193 C 
ATOM     10  O   UNL d   1      -2.182   1.830   2.184  0.00  0.00    -0.645 OA
BRANCH   9  11
ATOM     11  OXT UNL d   1      -0.540   0.283   2.178  0.00  0.00    -0.772 OA
ATOM     12  HXT UNL d   1       0.062  -0.182   1.568  0.00  0.00     0.167 HD
ENDBRANCH   9  11
ENDBRANCH   8   9
BRANCH   8  13
ATOM     13  N   UNL d   1      -1.829   2.343  -0.456  0.00  0.00    -0.322 N 
ATOM     14  C   UNL d   1      -2.037   2.308  -1.819  0.00  0.00     0.218 C 
ATOM     15  O   UNL d   1      -1.444   1.584  -2.611  0.00  0.00    -0.274 OA
ATOM     16  C   UNL d   1      -3.139   3.229  -2.276  0.00  0.00     0.117 C 
ATOM     17  H   UNL d   1      -2.640   2.576   0.116  0.00  0.00     0.169 HD
ENDBRANCH   8  13
ENDBRANCH   1   7
BRANCH   2  18
ATOM     18  O   UNL d   1       2.410   0.279  -1.939  0.00  0.00    -0.352 OA
ATOM     19  C   UNL d   1       1.337  -0.649  -2.076  0.00  0.00     0.210 C 
ENDBRANCH   2  18
BRANCH   3  20
ATOM     20  O   UNL d   1       3.563   1.570  -3.980  0.00  0.00    -0.343 OA
BRANCH  20  21
ATOM     21  C   UNL d   1       4.018   2.174  -5.186  0.00  0.00     0.129 C 
ATOM     22  C   UNL d   1       4.348   1.105  -6.226  0.00  0.00     0.032 C 
ATOM     23  C   UNL d   1       5.284   1.806  -7.208  0.00  0.00     0.002 C 
ATOM     24  C   UNL d   1       5.899   2.978  -6.441  0.00  0.00     0.002 C 
ATOM     25  C   UNL d   1       5.373   2.858  -5.017  0.00  0.00     0.032 C 
ENDBRANCH  20  21
ENDBRANCH   3  20
TORSDOF 7
