REMARK  1 active torsions:
REMARK  status: ('A' for Active; 'I' for Inactive)
REMARK    1  A    between atoms: O_12  and  C_10 
ROOT
ATOM      1  C   UNL d   1      -0.176  -0.751  -0.004  0.00  0.00     0.069 A 
ATOM      2  S   UNL d   1       2.137  -0.065   0.033  0.00  0.00     0.068 SA
ATOM      3  C   UNL d   1      -0.131   0.753   0.014  0.00  0.00     0.067 A 
ATOM      4  N   UNL d   1       1.042  -1.315   0.006  0.00  0.00    -0.310 N 
ATOM      5  HN  UNL d   1       1.253  -2.313  -0.002  1.00  0.00     0.176 HD
ATOM      6  C   UNL d   1      -1.413  -1.436  -0.029  0.00  0.00     0.069 A 
ATOM      7  N   UNL d   1       1.116   1.246   0.035  0.00  0.00    -0.310 N 
ATOM      8  HN  UNL d   1       1.385   2.230   0.050  1.00  0.00     0.176 HD
ATOM      9  C   UNL d   1      -1.324   1.512   0.008  0.00  0.00     0.035 A 
ATOM     10  C   UNL d   1      -2.576  -0.640  -0.037  0.00  0.00     0.070 A 
ATOM     11  C   UNL d   1      -2.528   0.777  -0.018  0.00  0.00     0.039 A 
ENDROOT
BRANCH  10  12
ATOM     12  O   UNL d   1      -3.733  -1.381  -0.068  0.00  0.00    -0.356 OA
ATOM     13  C   UNL d   1      -4.965  -0.671  -0.087  0.00  0.00     0.210 C 
ENDBRANCH  10  12
TORSDOF 1
