REMARK  1 active torsions:
REMARK  status: ('A' for Active; 'I' for Inactive)
REMARK    1  A    between atoms: C_15  and  C_10 
ROOT
ATOM      1  C   UNL d   1       2.623   0.584  -0.273  0.00  0.00     0.137 A 
ATOM      2  C   UNL d   1       2.276   0.543  -1.595  0.00  0.00     0.133 A 
ATOM      3  C   UNL d   1       2.197   2.003  -1.692  0.00  0.00     0.254 A 
ATOM      4  C   UNL d   1       2.624   2.055  -0.260  0.00  0.00     0.254 A 
ATOM      5  N   UNL d   1       2.866  -0.361   0.620  0.00  0.00    -0.289 N 
ATOM      6  N   UNL d   1       2.100  -0.473  -2.409  0.00  0.00    -0.306 N 
ATOM      7  N   UNL d   1       2.191  -1.579   0.524  0.00  0.00    -0.290 N 
ATOM      8  HN  UNL d   1       1.880  -2.055   1.370  1.00  0.00     0.188 HD
ATOM      9  N   UNL d   1       2.493  -1.724  -1.891  0.00  0.00    -0.190 NA
ATOM     10  C   UNL d   1       1.953  -2.113  -0.650  0.00  0.00     0.089 C 
ATOM     11  O   UNL d   1       1.950   2.852  -2.515  0.00  0.00    -0.281 OA
ATOM     12  O   UNL d   1       2.829   2.965   0.505  0.00  0.00    -0.281 OA
ATOM     13  C   UNL d   1       3.262  -0.010   1.984  0.00  0.00     0.178 C 
ATOM     14  C   UNL d   1       1.868  -0.354  -3.839  0.00  0.00     0.172 C 
ATOM     15  H   UNL d   1       3.507  -1.690  -1.752  0.00  0.00     0.154 HD
ENDROOT
BRANCH  10  16
ATOM     16  C   UNL d   1       1.018  -3.315  -0.732  0.00  0.00     0.069 C 
ATOM     17  C   UNL d   1       0.212  -3.574   0.527  0.00  0.00     0.012 C 
ENDBRANCH  10  16
TORSDOF 1
