REMARK  8 active torsions:
REMARK  status: ('A' for Active; 'I' for Inactive)
REMARK    1  A    between atoms: C3_5  and  C1_1 
REMARK    2  A    between atoms: O3_7  and  C1_1 
REMARK       I    between atoms: C2_2  and  N1_6 
REMARK    3  A    between atoms: N2_8  and  C3_5 
REMARK    4  A    between atoms: C6_11  and  C3_5 
REMARK    5  A    between atoms: N1_6  and  C5_10 
REMARK    6  A    between atoms: C5_10  and  C7_12 
REMARK    7  A    between atoms: C8_13  and  C6_11 
REMARK    8  A    between atoms: C7_12  and  C8_13 
ROOT
ATOM      1  C6  <1> d   1      -1.182   0.538  -0.829  0.00  0.00     0.035 C 
ENDROOT
BRANCH   1   2
ATOM      2  C3  <1> d   1      -1.414  -0.984  -0.825  0.00  0.00     0.173 C 
BRANCH   2   3
ATOM      3  C1  <1> d   1      -0.514  -1.617   0.255  0.00  0.00     0.163 C 
ATOM      4  O1  <1> d   1       0.706  -1.545   0.262  0.00  0.00    -0.648 OA
BRANCH   3   5
ATOM      5  O3  <1> d   1      -1.205  -2.262   1.227  0.00  0.00    -0.775 OA
ATOM      6  H3  <1> d   1      -2.164  -2.163   1.060  0.00  0.00     0.167 HD
ENDBRANCH   3   5
ENDBRANCH   2   3
BRANCH   2   7
ATOM      7  N2  <1> d   1      -2.817  -1.364  -0.645  0.00  0.00    -0.418 N 
ATOM      8  H4  <1> d   1      -3.341  -0.901   0.104  0.00  0.00     0.150 HD
ATOM      9  H5  <1> d   1      -3.016  -2.357  -0.725  0.00  0.00     0.150 HD
ENDBRANCH   2   7
ENDBRANCH   1   2
BRANCH   1  10
ATOM     10  C8  <1> d   1      -1.979   1.356  -1.859  0.00  0.00     0.004 C 
BRANCH  10  11
ATOM     11  C7  <1> d   1      -3.497   1.428  -1.663  0.00  0.00     0.020 C 
BRANCH  11  12
ATOM     12  C5  <1> d   1      -3.910   1.931  -0.281  0.00  0.00     0.122 C 
BRANCH  12  13
ATOM     13  N1  <1> d   1      -5.318   1.714  -0.029  0.00  0.00    -0.361 N 
ATOM     14  C2  <1> d   1      -5.776   0.566   0.584  0.00  0.00     0.213 C 
ATOM     15  O2  <1> d   1      -5.038  -0.335   0.975  0.00  0.00    -0.274 OA
ATOM     16  C4  <1> d   1      -7.271   0.508   0.743  0.00  0.00     0.117 C 
ATOM     17  H2  <1> d   1      -5.982   2.385  -0.392  0.00  0.00     0.162 HD
ENDBRANCH  12  13
ENDBRANCH  11  12
ENDBRANCH  10  11
ENDBRANCH   1  10
TORSDOF 8
