REMARK  4 active torsions:
REMARK  status: ('A' for Active; 'I' for Inactive)
REMARK    1  A    between atoms: C_14  and  N_1 
REMARK    2  A    between atoms: C_16  and  C_14 
REMARK    3  A    between atoms: O_22  and  C_16 
REMARK    4  A    between atoms: C_23  and  O_22 
ROOT
ATOM      1  N   UNL d   1       2.989   0.597   0.136  0.00  0.00    -0.245 N 
ATOM      2  N   UNL d   1       1.806   1.374  -0.189  0.00  0.00    -0.289 N 
ATOM      3  C   UNL d   1      -0.647   0.484  -0.103  0.00  0.00     0.062 A 
ATOM      4  C   UNL d   1       0.768   0.444  -0.100  0.00  0.00     0.083 A 
ATOM      5  C   UNL d   1       1.279  -0.864   0.062  0.00  0.00     0.078 A 
ATOM      6  C   UNL d   1       2.711  -0.786   0.171  0.00  0.00     0.276 C 
ATOM      7  C   UNL d   1      -1.315  -0.713  -0.033  0.00  0.00     0.136 A 
ATOM      8  N   UNL d   1      -2.800   1.025  -0.115  0.00  0.00    -0.301 N 
ATOM      9  HN  UNL d   1      -3.682   1.538  -0.135  1.00  0.00     0.187 HD
ATOM     10  N   UNL d   1      -2.626  -0.322  -0.069  0.00  0.00    -0.280 N 
ATOM     11  C   UNL d   1      -1.548   1.536  -0.129  0.00  0.00     0.038 A 
ATOM     12  N   UNL d   1      -0.827  -1.961   0.060  0.00  0.00    -0.349 N 
ATOM     13  HN  UNL d   1      -1.421  -2.790   0.079  1.00  0.00     0.167 HD
ATOM     14  C   UNL d   1       0.520  -2.020   0.125  0.00  0.00     0.109 A 
ATOM     15  O   UNL d   1       3.556  -1.670   0.266  0.00  0.00    -0.266 OA
ATOM     16  C   UNL d   1       1.767   2.766   0.211  0.00  0.00     0.178 C 
ATOM     17  C   UNL d   1      -3.781  -1.185  -0.037  0.00  0.00     0.179 C 
ATOM     18  C   UNL d   1      -1.414   3.006  -0.129  0.00  0.00     0.071 C 
ENDROOT
BRANCH   1  19
ATOM     19  C   UNL d   1       4.344   1.084  -0.029  0.00  0.00     0.263 C 
BRANCH  19  20
ATOM     20  C   UNL d   1       5.122   1.119   1.284  0.00  0.00     0.278 C 
ATOM     21  O   UNL d   1       6.277   1.524   1.360  0.00  0.00    -0.263 OA
BRANCH  20  22
ATOM     22  O   UNL d   1       4.404   0.636   2.337  0.00  0.00    -0.321 OA
BRANCH  22  23
ATOM     23  C   UNL d   1       5.115   0.458   3.571  0.00  0.00     0.174 C 
ATOM     24  C   UNL d   1       5.826  -0.883   3.565  0.00  0.00     0.034 C 
ENDBRANCH  22  23
ENDBRANCH  20  22
ENDBRANCH  19  20
ENDBRANCH   1  19
TORSDOF 4
