REMARK  5 active torsions:
REMARK  status: ('A' for Active; 'I' for Inactive)
REMARK    1  A    between atoms: N_2  and  S_1 
REMARK    2  A    between atoms: C_7  and  S_1 
REMARK    3  A    between atoms: C_3  and  N_2 
REMARK    4  A    between atoms: O_15  and  C_6 
REMARK    5  A    between atoms: O_16  and  C_9 
ROOT
ATOM      1  N   UNL d   1       0.648   1.560   0.779  0.00  0.00    -0.179 NA
ATOM      2  H   UNL d   1       1.186   0.831   0.304  0.00  0.00     0.146 HD
ENDROOT
BRANCH   1   3
ATOM      3  S   UNL d   1       0.762   2.958  -0.176  0.00  0.00     0.245 S 
ATOM      4  O   UNL d   1       0.968   2.498  -1.533  0.00  0.00    -0.206 OA
ATOM      5  O   UNL d   1       1.666   3.903   0.443  0.00  0.00    -0.206 OA
BRANCH   3   6
ATOM      6  C   UNL d   1      -0.881   3.634  -0.116  0.00  0.00     0.074 A 
ATOM      7  C   UNL d   1      -1.091   4.900   0.434  0.00  0.00     0.025 A 
ATOM      8  C   UNL d   1      -2.363   5.474   0.381  0.00  0.00     0.008 A 
ATOM      9  C   UNL d   1      -3.429   4.789  -0.218  0.00  0.00    -0.062 A 
ATOM     10  C   UNL d   1      -3.208   3.512  -0.756  0.00  0.00     0.008 A 
ATOM     11  C   UNL d   1      -4.779   5.440  -0.303  0.00  0.00     0.048 C 
ATOM     12  C   UNL d   1      -1.937   2.934  -0.710  0.00  0.00     0.025 A 
ENDBRANCH   3   6
ENDBRANCH   1   3
BRANCH   1  13
ATOM     13  C   UNL d   1       0.979   1.693   2.166  0.00  0.00     0.059 A 
ATOM     14  C   UNL d   1      -0.023   2.012   3.080  0.00  0.00     0.065 A 
ATOM     15  C   UNL d   1       0.256   2.139   4.453  0.00  0.00     0.091 A 
ATOM     16  C   UNL d   1       1.581   1.964   4.881  0.00  0.00     0.070 A 
ATOM     17  C   UNL d   1       2.594   1.678   3.947  0.00  0.00     0.065 A 
ATOM     18 CL   UNL d   1       2.122   2.033   6.523  0.00  0.00    -0.081 Cl
ATOM     19  C   UNL d   1       2.305   1.538   2.591  0.00  0.00     0.092 A 
BRANCH  15  20
ATOM     20  O   UNL d   1      -0.880   2.408   5.164  0.00  0.00    -0.354 OA
ATOM     21  C   UNL d   1      -0.821   2.664   6.556  0.00  0.00     0.210 C 
ENDBRANCH  15  20
BRANCH  19  22
ATOM     22  O   UNL d   1       3.220   1.213   1.620  0.00  0.00    -0.354 OA
ATOM     23  C   UNL d   1       4.593   1.270   1.992  0.00  0.00     0.210 C 
ENDBRANCH  19  22
ENDBRANCH   1  13
TORSDOF 5
