REMARK  7 active torsions:
REMARK  status: ('A' for Active; 'I' for Inactive)
REMARK    1  A    between atoms: C_3  and  N_8 
REMARK    2  A    between atoms: N_13  and  C_3 
REMARK    3  A    between atoms: N_8  and  C_10 
REMARK    4  A    between atoms: C_17  and  N_13 
REMARK    5  A    between atoms: C_15  and  C_17 
REMARK    6  A    between atoms: C_18  and  C_15 
REMARK    7  A    between atoms: O_16  and  C_18 
ROOT
ATOM      1  N   UNL d   1      -2.189   0.619   1.681  0.00  0.00    -0.311 N 
ATOM      2  HN  UNL d   1      -3.178   0.818   1.833  1.00  0.00     0.186 HD
ATOM      3  C   UNL d   1      -0.018   0.830   1.029  0.00  0.00     0.061 A 
ATOM      4  N   UNL d   1      -1.270   1.385   1.072  0.00  0.00    -0.300 N 
ATOM      5  C   UNL d   1      -0.139  -0.401   1.655  0.00  0.00     0.009 A 
ATOM      6  C   UNL d   1       1.194   1.301   0.513  0.00  0.00     0.061 A 
ATOM      7  C   UNL d   1       2.329   0.484   0.628  0.00  0.00     0.036 A 
ATOM      8  C   UNL d   1      -1.497  -0.468   2.040  0.00  0.00     0.120 A 
ATOM      9  C   UNL d   1       0.997  -1.215   1.777  0.00  0.00     0.017 A 
ATOM     10  C   UNL d   1       2.224  -0.758   1.261  0.00  0.00     0.030 A 
ATOM     11  H   UNL d   1      -1.559   2.288   0.709  0.00  0.00     0.187 HD
ENDROOT
BRANCH   7  12
ATOM     12  N   UNL d   1       3.541   1.038   0.168  0.00  0.00    -0.333 N 
ATOM     13  H   UNL d   1       3.477   2.014  -0.115  0.00  0.00     0.168 HD
BRANCH  12  14
ATOM     14  C   UNL d   1       4.788   0.503  -0.030  0.00  0.00     0.172 C 
ATOM     15  S   UNL d   1       5.209  -1.075  -0.365  0.00  0.00    -0.041 SA
BRANCH  14  16
ATOM     16  N   UNL d   1       5.810   1.423   0.021  0.00  0.00    -0.367 N 
ATOM     17  H   UNL d   1       6.726   1.014  -0.126  0.00  0.00     0.161 HD
BRANCH  16  18
ATOM     18  C   UNL d   1       5.762   2.716   0.691  0.00  0.00     0.124 C 
BRANCH  18  19
ATOM     19  C   UNL d   1       5.894   3.896  -0.265  0.00  0.00     0.046 C 
BRANCH  19  20
ATOM     20  C   UNL d   1       4.864   3.918  -1.390  0.00  0.00     0.168 C 
BRANCH  20  21
ATOM     21  O   UNL d   1       3.540   3.849  -0.857  0.00  0.00    -0.396 OA
ATOM     22  C   UNL d   1       2.572   3.891  -1.905  0.00  0.00     0.201 C 
ENDBRANCH  20  21
ENDBRANCH  19  20
ENDBRANCH  18  19
ENDBRANCH  16  18
ENDBRANCH  14  16
ENDBRANCH  12  14
ENDBRANCH   7  12
TORSDOF 7
