REMARK  9 active torsions:
REMARK  status: ('A' for Active; 'I' for Inactive)
REMARK    1  A    between atoms: C_2  and  N_1 
REMARK    2  A    between atoms: C_3  and  C_23 
REMARK       I    between atoms: N_11  and  C_3 
REMARK    3  A    between atoms: C_4  and  C_10 
REMARK    4  A    between atoms: N_5  and  N_11 
REMARK    5  A    between atoms: C_24  and  N_7 
REMARK    6  A    between atoms: S_21  and  C_28 
REMARK    7  A    between atoms: C_23  and  S_21 
REMARK    8  A    between atoms: C_25  and  C_24 
REMARK    9  A    between atoms: C_28  and  C_25 
ROOT
ATOM      1  C   UNL d   1       4.762  -6.041  -8.553  0.00  0.00     0.040 C 
ENDROOT
BRANCH   1   2
ATOM      2  C   UNL d   1       5.120  -6.442  -9.986  0.00  0.00     0.273 C 
BRANCH   2   3
ATOM      3  N   UNL d   1       5.792  -7.742 -10.130  0.00  0.00     0.091 N 
ATOM      4  C   UNL d   1       4.998  -8.876  -9.596  0.00  0.00     0.292 C 
ATOM      5  C   UNL d   1       3.667  -9.146 -10.336  0.00  0.00     0.153 C 
ATOM      6  N   UNL d   1       3.907  -9.300 -11.779  0.00  0.00    -0.377 N 
ATOM      7  C   UNL d   1       4.776  -8.298 -12.416  0.00  0.00     0.153 C 
ATOM      8  C   UNL d   1       6.045  -8.029 -11.569  0.00  0.00     0.292 C 
BRANCH   6   9
ATOM      9  C   UNL d   1       3.468 -10.433 -12.435  0.00  0.00     0.031 A 
ATOM     10  C   UNL d   1       4.259 -11.094 -13.383  0.00  0.00     0.053 A 
ATOM     11  C   UNL d   1       3.809 -12.253 -14.019  0.00  0.00     0.036 A 
ATOM     12 CL   UNL d   1       4.826 -13.048 -15.158  0.00  0.00    -0.084 Cl
ATOM     13  C   UNL d   1       2.554 -12.779 -13.731  0.00  0.00     0.024 A 
ATOM     14  C   UNL d   1       1.746 -12.137 -12.800  0.00  0.00     0.004 A 
ATOM     15  C   UNL d   1       2.203 -10.980 -12.161  0.00  0.00     0.029 A 
ENDBRANCH   6   9
ENDBRANCH   2   3
ENDBRANCH   1   2
BRANCH   1  16
ATOM     16  C   UNL d   1       5.973  -5.905  -7.636  0.00  0.00     0.076 C 
BRANCH  16  17
ATOM     17  S   UNL d   1       5.462  -5.574  -5.908  0.00  0.00    -0.160 SA
BRANCH  17  18
ATOM     18  C   UNL d   1       4.535  -4.022  -6.161  0.00  0.00     0.178 C 
BRANCH  18  19
ATOM     19  C   UNL d   1       4.088  -3.378  -4.862  0.00  0.00     0.245 C 
ATOM     20  N   UNL d   1       3.593  -4.269  -3.923  0.00  0.00    -0.270 N 
ATOM     21  H   UNL d   1       3.582  -5.261  -4.140  0.00  0.00     0.190 HD
ATOM     22  O   UNL d   1       4.078  -2.154  -4.742  0.00  0.00    -0.271 OA
BRANCH  20  23
ATOM     23  N   UNL d   1       3.062  -3.800  -2.766  0.00  0.00    -0.308 N 
ATOM     24  C   UNL d   1       2.619  -4.615  -1.852  0.00  0.00     0.126 C 
ATOM     25  HN  UNL d   1       3.008  -2.793  -2.610  1.00  0.00     0.186 HD
BRANCH  24  26
ATOM     26  C   UNL d   1       2.666  -6.059  -1.811  0.00  0.00     0.021 A 
ATOM     27  S   UNL d   1       1.417  -6.865  -0.952  0.00  0.00    -0.101 SA
ATOM     28  C   UNL d   1       2.060  -8.403  -1.321  0.00  0.00     0.050 A 
ATOM     29  C   UNL d   1       3.224  -8.313  -2.049  0.00  0.00     0.008 A 
ATOM     30  C   UNL d   1       3.591  -6.958  -2.305  0.00  0.00     0.021 A 
ENDBRANCH  24  26
ENDBRANCH  20  23
ENDBRANCH  18  19
ENDBRANCH  17  18
ENDBRANCH  16  17
ENDBRANCH   1  16
TORSDOF 9
