REMARK  6 active torsions:
REMARK  status: ('A' for Active; 'I' for Inactive)
REMARK    1  A    between atoms: C_9  and  C_1 
REMARK    2  A    between atoms: S_14  and  C_5 
REMARK    3  A    between atoms: C_8  and  C_10 
REMARK    4  A    between atoms: C_12  and  C_13 
REMARK    5  A    between atoms: C_13  and  C_17 
REMARK    6  A    between atoms: C_17  and  S_14 
ROOT
ATOM      1  C   UNL d   1      -0.239   1.189  -0.067  0.00  0.00     0.119 A 
ATOM      2  S   UNL d   1      -1.213  -0.229   0.068  0.00  0.00    -0.043 SA
ATOM      3  N   UNL d   1       1.042   0.965   0.174  0.00  0.00    -0.290 N 
ATOM      4  HN  UNL d   1       1.753   1.696   0.174  1.00  0.00     0.187 HD
ATOM      5  C   UNL d   1       0.224  -1.102   0.380  0.00  0.00     0.129 A 
ATOM      6  N   UNL d   1       1.311  -0.364   0.424  0.00  0.00    -0.287 N 
ATOM      7  HN  UNL d   1       2.242  -0.731   0.620  1.00  0.00     0.188 HD
ENDROOT
BRANCH   5   8
ATOM      8  S   UNL d   1       0.258  -2.833   0.598  0.00  0.00    -0.096 SA
BRANCH   8   9
ATOM      9  C   UNL d   1       1.967  -3.188   0.084  0.00  0.00     0.165 C 
BRANCH   9  10
ATOM     10  C   UNL d   1       2.260  -4.680   0.083  0.00  0.00     0.169 C 
ATOM     11  O   UNL d   1       1.481  -5.529   0.519  0.00  0.00    -0.291 OA
BRANCH  10  12
ATOM     12  C   UNL d   1       3.570  -5.149  -0.476  0.00  0.00     0.011 A 
ATOM     13  C   UNL d   1       4.552  -4.270  -0.954  0.00  0.00     0.031 A 
ATOM     14  C   UNL d   1       5.746  -4.765  -1.515  0.00  0.00     0.048 A 
ATOM     15  C   UNL d   1       5.955  -6.152  -1.567  0.00  0.00     0.016 A 
ATOM     16  C   UNL d   1       4.991  -7.030  -1.076  0.00  0.00     0.002 A 
ATOM     17  C   UNL d   1       3.805  -6.531  -0.538  0.00  0.00     0.015 A 
BRANCH  14  18
ATOM     18  C   UNL d   1       6.791  -3.832  -2.084  0.00  0.00     0.417 C 
ATOM     19  F   UNL d   1       6.465  -2.516  -1.955  0.00  0.00    -0.166 F 
ATOM     20  F   UNL d   1       8.005  -3.979  -1.488  0.00  0.00    -0.166 F 
ATOM     21  F   UNL d   1       6.996  -4.037  -3.414  0.00  0.00    -0.166 F 
ENDBRANCH  14  18
ENDBRANCH  10  12
ENDBRANCH   9  10
ENDBRANCH   8   9
ENDBRANCH   5   8
BRANCH   1  22
ATOM     22  C   UNL d   1      -0.805   2.486  -0.447  0.00  0.00     0.083 A 
ATOM     23  N   UNL d   1      -2.132   2.545  -0.741  0.00  0.00    -0.361 N 
ATOM     24  C   UNL d   1      -2.596   3.755  -1.138  0.00  0.00     0.105 A 
ATOM     25  HN  UNL d   1      -2.740   1.730  -0.667  1.00  0.00     0.165 HD
ATOM     26  C   UNL d   1      -1.781   4.870  -1.242  0.00  0.00     0.104 A 
ATOM     27  N   UNL d   1      -0.464   4.828  -0.946  0.00  0.00    -0.372 N 
ATOM     28  C   UNL d   1       0.003   3.616  -0.547  0.00  0.00     0.120 A 
ATOM     29  HN  UNL d   1       0.138   5.648  -1.017  1.00  0.00     0.164 HD
ENDBRANCH   1  22
TORSDOF 6
