REMARK  5 active torsions:
REMARK  status: ('A' for Active; 'I' for Inactive)
REMARK       I    between atoms: C_2  and  N_1 
REMARK    1  A    between atoms: C_3  and  N_1 
REMARK    2  A    between atoms: C_8  and  C_2 
REMARK    3  A    between atoms: C_4  and  C_9 
REMARK    4  A    between atoms: O_11  and  C_4 
REMARK    5  A    between atoms: C_9  and  C_8 
ROOT
ATOM      1  N   UNL d   1       0.982  -0.240  -0.167  0.00  0.00    -0.325 N 
ATOM      2  C   UNL d   1       0.232  -1.361   0.114  0.00  0.00     0.222 C 
ATOM      3  O   UNL d   1       0.652  -2.446   0.511  0.00  0.00    -0.273 OA
ATOM      4  H   UNL d   1       0.501   0.651  -0.106  0.00  0.00     0.169 HD
ENDROOT
BRANCH   1   5
ATOM      5  C   UNL d   1       2.393  -0.174  -0.144  0.00  0.00     0.073 A 
ATOM      6  C   UNL d   1       3.242  -1.250  -0.429  0.00  0.00     0.143 A 
ATOM      7  F   UNL d   1       2.762  -2.426  -0.856  0.00  0.00    -0.204 F 
ATOM      8  C   UNL d   1       4.626  -1.106  -0.365  0.00  0.00     0.044 A 
ATOM      9  C   UNL d   1       5.187   0.123  -0.022  0.00  0.00     0.003 A 
ATOM     10  C   UNL d   1       4.356   1.211   0.237  0.00  0.00     0.002 A 
ATOM     11  C   UNL d   1       2.968   1.066   0.166  0.00  0.00     0.033 A 
ENDBRANCH   1   5
BRANCH   2  12
ATOM     12  C   UNL d   1      -1.264  -1.113   0.056  0.00  0.00     0.113 C 
BRANCH  12  13
ATOM     13  C   UNL d   1      -1.923  -1.746   1.274  0.00  0.00     0.119 C 
BRANCH  13  14
ATOM     14  C   UNL d   1      -1.366  -1.144   2.540  0.00  0.00     0.139 C 
ATOM     15  O   UNL d   1      -1.838  -0.152   3.075  0.00  0.00    -0.650 OA
BRANCH  14  16
ATOM     16  O   UNL d   1      -0.246  -1.750   2.989  0.00  0.00    -0.776 OA
ATOM     17  H   UNL d   1       0.120  -2.431   2.374  0.00  0.00     0.167 HD
ENDBRANCH  14  16
ENDBRANCH  13  14
ENDBRANCH  12  13
ENDBRANCH   2  12
TORSDOF 5
