REMARK  2 active torsions:
REMARK  status: ('A' for Active; 'I' for Inactive)
REMARK    1  A    between atoms: C_3  and  C_1 
REMARK    2  A    between atoms: O_9  and  C_3 
ROOT
ATOM      1  C   UNL d   1       2.245   0.661  -0.409  0.00  0.00     0.250 C 
ATOM      2  O   UNL d   1       1.099   1.447  -0.054  0.00  0.00    -0.330 OA
ATOM      3  O   UNL d   1       1.067  -1.458  -0.045  0.00  0.00    -0.345 OA
ATOM      4  C   UNL d   1      -0.051   0.702   0.011  0.00  0.00     0.103 A 
ATOM      5  C   UNL d   1       2.238  -0.700   0.270  0.00  0.00     0.219 C 
ATOM      6  C   UNL d   1      -0.066  -0.694  -0.007  0.00  0.00     0.102 A 
ATOM      7  C   UNL d   1      -1.249   1.412   0.071  0.00  0.00     0.040 A 
ATOM      8  C   UNL d   1      -1.280  -1.378  -0.011  0.00  0.00     0.039 A 
ATOM      9  C   UNL d   1      -2.464   0.725   0.077  0.00  0.00     0.003 A 
ATOM     10  C   UNL d   1      -2.480  -0.669   0.028  0.00  0.00     0.003 A 
ENDROOT
BRANCH   1  11
ATOM     11  C   UNL d   1       2.402   0.547  -1.926  0.00  0.00     0.172 C 
ATOM     12  O   UNL d   1       3.106  -0.272  -2.496  0.00  0.00    -0.648 OA
BRANCH  11  13
ATOM     13  O   UNL d   1       1.734   1.522  -2.596  0.00  0.00    -0.774 OA
ATOM     14  H   UNL d   1       1.206   2.071  -1.977  0.00  0.00     0.167 HD
ENDBRANCH  11  13
ENDBRANCH   1  11
TORSDOF 2
