REMARK  10 active torsions:
REMARK  status: ('A' for Active; 'I' for Inactive)
REMARK       I    between atoms: C_3  and  N_6 
REMARK       I    between atoms: N_14  and  C_3 
REMARK    1  A    between atoms: C_9  and  C_4 
REMARK    2  A    between atoms: C_8  and  C_5 
REMARK    3  A    between atoms: N_6  and  C_15 
REMARK    4  A    between atoms: S_10  and  C_7 
REMARK    5  A    between atoms: O_25  and  C_8 
REMARK    6  A    between atoms: O_26  and  C_9 
REMARK    7  A    between atoms: C_16  and  S_10 
REMARK    8  A    between atoms: C_13  and  N_14 
REMARK    9  A    between atoms: C_32  and  O_25 
REMARK   10  A    between atoms: C_31  and  O_26 
ROOT
ATOM      1  C   UNL d   1       4.981   1.654   2.426  0.00  0.00     0.053 C 
ATOM      2  C   UNL d   1       3.756   1.788   1.692  0.00  0.00     0.032 C 
ATOM      3  C   UNL d   1       5.925   2.706   2.475  0.00  0.00     0.031 C 
ATOM      4  C   UNL d   1       3.465   3.057   1.166  0.00  0.00     0.021 C 
ATOM      5  C   UNL d   1       5.596   3.955   1.938  0.00  0.00     0.002 C 
ATOM      6  C   UNL d   1       4.360   4.134   1.315  0.00  0.00     0.002 C 
ENDROOT
BRANCH   2   7
ATOM      7  S   UNL d   1       2.489   0.483   1.826  0.00  0.00    -0.088 SA
BRANCH   7   8
ATOM      8  C   UNL d   1       1.768  -0.097   0.278  0.00  0.00     0.010 A 
ATOM      9  C   UNL d   1       1.286   0.743  -0.721  0.00  0.00     0.054 A 
ATOM     10  C   UNL d   1       0.552   0.185  -1.780  0.00  0.00     0.110 A 
ATOM     11  N   UNL d   1       0.307  -1.141  -1.931  0.00  0.00    -0.346 N 
ATOM     12  C   UNL d   1       0.746  -1.961  -0.959  0.00  0.00     0.110 A 
ATOM     13  HN  UNL d   1      -0.188  -1.500  -2.747  1.00  0.00     0.166 HD
ATOM     14  C   UNL d   1       1.446  -1.475   0.163  0.00  0.00     0.054 A 
BRANCH  10  15
ATOM     15  C   UNL d   1      -0.134   1.111  -2.734  0.00  0.00     0.310 C 
ATOM     16  O   UNL d   1      -0.177   2.310  -2.601  0.00  0.00    -0.258 OA
BRANCH  15  17
ATOM     17  O   UNL d   1      -0.770   0.379  -3.699  0.00  0.00    -0.317 OA
BRANCH  17  18
ATOM     18  C   UNL d   1      -1.779   1.047  -4.451  0.00  0.00     0.175 C 
ATOM     19  C   UNL d   1      -3.117   0.817  -3.768  0.00  0.00     0.034 C 
ENDBRANCH  17  18
ENDBRANCH  15  17
ENDBRANCH  10  15
BRANCH  12  20
ATOM     20  C   UNL d   1       0.474  -3.447  -1.117  0.00  0.00     0.310 C 
ATOM     21  O   UNL d   1       0.730  -4.254  -0.251  0.00  0.00    -0.258 OA
BRANCH  20  22
ATOM     22  O   UNL d   1      -0.009  -3.756  -2.362  0.00  0.00    -0.317 OA
BRANCH  22  23
ATOM     23  C   UNL d   1       0.043  -5.145  -2.761  0.00  0.00     0.175 C 
ATOM     24  C   UNL d   1      -1.251  -5.899  -2.490  0.00  0.00     0.034 C 
ENDBRANCH  22  23
ENDBRANCH  20  22
ENDBRANCH  12  20
ENDBRANCH   7   8
ENDBRANCH   2   7
BRANCH   1  25
ATOM     25  N   UNL d   1       5.046   0.616   3.404  0.00  0.00    -0.312 N 
ATOM     26  C   UNL d   1       6.155   0.159   4.074  0.00  0.00     0.303 C 
ATOM     27  N   UNL d   1       7.031  -0.551   3.266  0.00  0.00    -0.210 NA
ATOM     28  O   UNL d   1       6.165   0.115   5.298  0.00  0.00    -0.253 OA
ATOM     29  H   UNL d   1       6.599  -1.471   3.277  0.00  0.00     0.138 HD
ATOM     30  H   UNL d   1       4.288   0.759   4.066  0.00  0.00     0.170 HD
BRANCH  27  31
ATOM     31  C   UNL d   1       8.384  -0.715   3.664  0.00  0.00     0.020 A 
ATOM     32  C   UNL d   1       8.752  -1.356   4.850  0.00  0.00     0.047 A 
ATOM     33  C   UNL d   1      10.104  -1.453   5.186  0.00  0.00     0.037 A 
ATOM     34 CL   UNL d   1      10.565  -2.189   6.672  0.00  0.00    -0.084 Cl
ATOM     35  C   UNL d   1      11.089  -0.962   4.332  0.00  0.00     0.047 A 
ATOM     36  C   UNL d   1      10.713  -0.397   3.116  0.00  0.00     0.037 A 
ATOM     37  C   UNL d   1       9.366  -0.268   2.779  0.00  0.00     0.047 A 
ATOM     38 CL   UNL d   1      11.922   0.134   2.013  0.00  0.00    -0.084 Cl
ENDBRANCH  27  31
ENDBRANCH   1  25
TORSDOF 10
