REMARK  6 active torsions:
REMARK  status: ('A' for Active; 'I' for Inactive)
REMARK       I    between atoms: C_2  and  N_1 
REMARK    1  A    between atoms: C_8  and  C_2 
REMARK    2  A    between atoms: C_5  and  C_3 
REMARK    3  A    between atoms: C_6  and  C_5 
REMARK       I    between atoms: N_9  and  C_6 
REMARK    4  A    between atoms: C_20  and  N_9 
REMARK    5  A    between atoms: C_11  and  C_12 
REMARK    6  A    between atoms: O_27  and  C_22 
ROOT
ATOM      1  N   UNL d   1      -1.396  -1.201   0.287  0.00  0.00    -0.333 N 
ATOM      2  C   UNL d   1      -2.195  -2.093   1.007  0.00  0.00     0.254 C 
ATOM      3  C   UNL d   1       0.098  -1.236   0.377  0.00  0.00     0.188 C 
ATOM      4  C   UNL d   1       0.636   0.037   1.096  0.00  0.00     0.241 C 
ATOM      5  N   UNL d   1      -0.035   1.217   0.878  0.00  0.00    -0.358 N 
ATOM      6  O   UNL d   1      -1.734  -2.993   1.709  0.00  0.00    -0.267 OA
ATOM      7  O   UNL d   1       1.712   0.089   1.694  0.00  0.00    -0.271 OA
ATOM      8  C   UNL d   1      -1.884   0.064  -0.293  0.00  0.00     0.147 C 
ATOM      9  C   UNL d   1      -1.442   1.254   0.555  0.00  0.00     0.142 C 
ATOM     10  H   UNL d   1       0.370   2.000   1.376  0.00  0.00     0.162 HD
ENDROOT
BRANCH   3  11
ATOM     11  C   UNL d   1       0.820  -2.464   0.956  0.00  0.00     0.138 C 
BRANCH  11  12
ATOM     12  C   UNL d   1       0.790  -3.653   0.023  0.00  0.00     0.224 C 
ATOM     13  N   UNL d   1      -0.115  -4.633   0.387  0.00  0.00    -0.327 N 
ATOM     14  H   UNL d   1      -0.833  -4.339   1.049  0.00  0.00     0.169 HD
ATOM     15  O   UNL d   1       1.518  -3.673  -0.970  0.00  0.00    -0.273 OA
BRANCH  13  16
ATOM     16  C   UNL d   1      -0.300  -5.868  -0.266  0.00  0.00     0.034 A 
ATOM     17  C   UNL d   1       0.688  -6.451  -1.061  0.00  0.00     0.032 A 
ATOM     18  C   UNL d   1       0.431  -7.625  -1.774  0.00  0.00     0.039 A 
ATOM     19  C   UNL d   1      -0.825  -8.223  -1.704  0.00  0.00     0.068 A 
ATOM     20  C   UNL d   1      -1.782  -7.706  -0.830  0.00  0.00     0.039 A 
ATOM     21  C   UNL d   1      -1.519  -6.533  -0.107  0.00  0.00     0.032 A 
BRANCH  19  22
ATOM     22  O   UNL d   1      -1.184  -9.332  -2.422  0.00  0.00    -0.356 OA
ATOM     23  C   UNL d   1      -0.688  -9.334  -3.761  0.00  0.00     0.210 C 
ENDBRANCH  19  22
ENDBRANCH  13  16
ENDBRANCH  11  12
ENDBRANCH   3  11
BRANCH   2  24
ATOM     24  C   UNL d   1      -3.678  -2.025   0.975  0.00  0.00     0.032 A 
ATOM     25  C   UNL d   1      -4.415  -1.757  -0.176  0.00  0.00     0.017 A 
ATOM     26  C   UNL d   1      -5.807  -1.636  -0.104  0.00  0.00     0.009 A 
ATOM     27  C   UNL d   1      -6.507  -1.875   1.095  0.00  0.00    -0.051 A 
ATOM     28  C   UNL d   1      -5.754  -2.262   2.214  0.00  0.00     0.009 A 
ATOM     29  C   UNL d   1      -4.360  -2.327   2.158  0.00  0.00     0.017 A 
BRANCH  27  30
ATOM     30  C   UNL d   1      -8.034  -1.704   1.152  0.00  0.00    -0.024 C 
ATOM     31  C   UNL d   1      -8.651  -2.131   2.503  0.00  0.00     0.019 C 
ATOM     32  C   UNL d   1      -8.383  -0.217   0.934  0.00  0.00     0.019 C 
ATOM     33  C   UNL d   1      -8.709  -2.552   0.053  0.00  0.00     0.019 C 
ENDBRANCH  27  30
ENDBRANCH   2  24
TORSDOF 6
