REMARK  5 active torsions:
REMARK  status: ('A' for Active; 'I' for Inactive)
REMARK    1  A    between atoms: C_4  and  C_1 
REMARK    2  A    between atoms: C_10  and  C_5 
REMARK    3  A    between atoms: O_19  and  C_9 
REMARK    4  A    between atoms: O_20  and  C_10 
REMARK    5  A    between atoms: O_23  and  C_17 
ROOT
ATOM      1  C   UNL d   1      -0.042   1.101  -0.191  0.00  0.00     0.114 A 
ATOM      2  C   UNL d   1       1.369   0.719   0.277  0.00  0.00     0.058 A 
ATOM      3  C   UNL d   1      -1.060  -0.044  -0.115  0.00  0.00     0.058 A 
ATOM      4  N   UNL d   1       0.621  -1.492   0.726  0.00  0.00    -0.361 N 
ATOM      5  C   UNL d   1      -0.671  -1.277   0.282  0.00  0.00     0.023 A 
ATOM      6  C   UNL d   1       1.631  -0.542   0.692  0.00  0.00     0.023 A 
ATOM      7  C   UNL d   1       2.384   1.728   0.269  0.00  0.00     0.098 C 
ATOM      8  C   UNL d   1      -2.407   0.224  -0.500  0.00  0.00     0.098 C 
ATOM      9  N   UNL d   1       3.213   2.536   0.273  0.00  0.00    -0.192 NA
ATOM     10  N   UNL d   1      -3.501   0.438  -0.821  0.00  0.00    -0.192 NA
ATOM     11  C   UNL d   1       2.996  -1.032   1.115  0.00  0.00     0.069 C 
ATOM     12  C   UNL d   1      -1.563  -2.490   0.178  0.00  0.00     0.069 C 
ATOM     13  H   UNL d   1       0.910  -2.457   0.874  0.00  0.00     0.165 HD
ENDROOT
BRANCH   1  14
ATOM     14  C   UNL d   1      -0.035   1.785  -1.577  0.00  0.00     0.006 A 
ATOM     15  C   UNL d   1       0.025   1.077  -2.804  0.00  0.00     0.052 A 
ATOM     16  C   UNL d   1      -0.006   1.760  -4.033  0.00  0.00     0.055 A 
ATOM     17  C   UNL d   1      -0.079   3.143  -4.078  0.00  0.00     0.071 A 
ATOM     18  C   UNL d   1      -0.110   3.856  -2.884  0.00  0.00     0.074 A 
ATOM     19  C   UNL d   1      -0.112   3.199  -1.645  0.00  0.00     0.079 A 
BRANCH  15  20
ATOM     20  C   UNL d   1       0.151  -0.399  -2.924  0.00  0.00     0.293 C 
ATOM     21  O   UNL d   1       0.980  -1.079  -2.351  0.00  0.00    -0.259 OA
BRANCH  20  22
ATOM     22  O   UNL d   1      -0.776  -0.832  -3.818  0.00  0.00    -0.323 OA
ATOM     23  C   UNL d   1      -0.696  -2.213  -4.173  0.00  0.00     0.213 C 
ENDBRANCH  20  22
ENDBRANCH  15  20
BRANCH  17  24
ATOM     24  O   UNL d   1      -0.113   3.900  -5.215  0.00  0.00    -0.356 OA
ATOM     25  C   UNL d   1      -0.231   3.193  -6.447  0.00  0.00     0.210 C 
ENDBRANCH  17  24
BRANCH  19  26
ATOM     26  O   UNL d   1      -0.176   3.869  -0.447  0.00  0.00    -0.355 OA
ATOM     27  C   UNL d   1      -0.558   5.242  -0.491  0.00  0.00     0.210 C 
ENDBRANCH  19  26
ENDBRANCH   1  14
TORSDOF 5
