REMARK  3 active torsions:
REMARK  status: ('A' for Active; 'I' for Inactive)
REMARK    1  A    between atoms: C_4  and  C_2 
REMARK       I    between atoms: N_3  and  C_4 
REMARK       I    between atoms: C_6  and  N_3 
REMARK    2  A    between atoms: C_9  and  C_5 
REMARK    3  A    between atoms: C_12  and  C_6 
ROOT
ATOM      1  S   UNL d   1      -0.997  -0.087   0.053  0.00  0.00    -0.084 SA
ATOM      2  C   UNL d   1       0.100   1.222   0.039  0.00  0.00     0.073 A 
ATOM      3  C   UNL d   1       0.256  -1.268   0.001  0.00  0.00     0.016 A 
ATOM      4  C   UNL d   1       1.406   0.767   0.027  0.00  0.00     0.026 A 
ATOM      5  C   UNL d   1       1.496  -0.654   0.008  0.00  0.00     0.021 A 
ENDROOT
BRANCH   2   6
ATOM      6  C   UNL d   1      -0.321   2.623   0.036  0.00  0.00     0.265 C 
ATOM      7  N   UNL d   1      -1.692   2.842   0.021  0.00  0.00    -0.289 N 
ATOM      8  C   UNL d   1      -2.279   4.089   0.110  0.00  0.00     0.258 C 
ATOM      9  H   UNL d   1      -2.282   2.025  -0.011  0.00  0.00     0.172 HD
ATOM     10  O   UNL d   1      -1.693   5.131   0.387  0.00  0.00    -0.267 OA
ATOM     11  O   UNL d   1       0.512   3.523   0.004  0.00  0.00    -0.267 OA
BRANCH   8  12
ATOM     12  C   UNL d   1      -3.756   4.152  -0.087  0.00  0.00     0.032 A 
ATOM     13  C   UNL d   1      -4.458   5.175   0.567  0.00  0.00     0.017 A 
ATOM     14  C   UNL d   1      -5.825   5.350   0.348  0.00  0.00     0.001 A 
ATOM     15  C   UNL d   1      -6.499   4.504  -0.530  0.00  0.00     0.000 A 
ATOM     16  C   UNL d   1      -5.810   3.478  -1.179  0.00  0.00     0.001 A 
ATOM     17  C   UNL d   1      -4.440   3.298  -0.962  0.00  0.00     0.017 A 
ENDBRANCH   8  12
ENDBRANCH   2   6
BRANCH   3  18
ATOM     18  C   UNL d   1      -0.059  -2.710  -0.016  0.00  0.00    -0.019 A 
ATOM     19  C   UNL d   1      -1.204  -3.208  -0.660  0.00  0.00     0.014 A 
ATOM     20  C   UNL d   1      -1.496  -4.576  -0.661  0.00  0.00     0.024 A 
ATOM     21  C   UNL d   1      -0.637  -5.468  -0.027  0.00  0.00     0.034 A 
ATOM     22  C   UNL d   1       0.514  -5.003   0.602  0.00  0.00     0.024 A 
ATOM     23 CL   UNL d   1      -1.001  -7.148  -0.021  0.00  0.00    -0.084 Cl
ATOM     24  C   UNL d   1       0.801  -3.632   0.606  0.00  0.00     0.014 A 
ENDBRANCH   3  18
TORSDOF 3
