REMARK  3 active torsions:
REMARK  status: ('A' for Active; 'I' for Inactive)
REMARK    1  A    between atoms: C_2  and  C_1 
REMARK       I    between atoms: N_3  and  C_1 
REMARK    2  A    between atoms: C_4  and  N_3 
REMARK    3  A    between atoms: O_9  and  C_5 
ROOT
ATOM      1  C   UNL d   1       1.045   0.096  -0.010  0.00  0.00     0.260 C 
ATOM      2  N   UNL d   1       0.242   0.481  -1.063  0.00  0.00    -0.309 N 
ATOM      3  O   UNL d   1       2.272   0.140   0.049  0.00  0.00    -0.267 OA
ATOM      4  H   UNL d   1      -0.745   0.605  -0.897  0.00  0.00     0.170 HD
ENDROOT
BRANCH   1   5
ATOM      5  C   UNL d   1       0.332  -0.319   1.227  0.00  0.00     0.065 A 
ATOM      6  C   UNL d   1       0.908  -0.051   2.478  0.00  0.00     0.081 A 
ATOM      7  C   UNL d   1       0.236  -0.379   3.653  0.00  0.00     0.037 A 
ATOM      8  C   UNL d   1      -1.005  -1.011   3.589  0.00  0.00     0.003 A 
ATOM      9  C   UNL d   1      -1.564  -1.331   2.352  0.00  0.00     0.001 A 
ATOM     10  C   UNL d   1      -0.899  -0.990   1.171  0.00  0.00     0.020 A 
BRANCH   6  11
ATOM     11  O   UNL d   1       2.138   0.535   2.621  0.00  0.00    -0.360 OA
ATOM     12  H   UNL d   1       2.579   0.516   1.740  0.00  0.00     0.217 HD
ENDBRANCH   6  11
ENDBRANCH   1   5
BRANCH   2  13
ATOM     13  C   UNL d   1       0.712   0.814  -2.342  0.00  0.00     0.107 A 
ATOM     14  N   UNL d   1       1.991   0.571  -2.679  0.00  0.00    -0.352 N 
ATOM     15  C   UNL d   1       2.386   0.864  -3.935  0.00  0.00     0.089 A 
ATOM     16  HN  UNL d   1       2.645   0.176  -2.003  1.00  0.00     0.166 HD
ATOM     17  C   UNL d   1       1.548   1.392  -4.899  0.00  0.00     0.017 A 
ATOM     18  C   UNL d   1       0.231   1.647  -4.544  0.00  0.00     0.005 A 
ATOM     19  C   UNL d   1      -0.197   1.353  -3.249  0.00  0.00     0.048 A 
ENDBRANCH   2  13
TORSDOF 3
