REMARK  2 active torsions:
REMARK  status: ('A' for Active; 'I' for Inactive)
REMARK    1  A    between atoms: N_2  and  S_1 
REMARK    2  A    between atoms: C_4  and  S_1 
ROOT
ATOM      1  N   UNL d   1       0.433   1.069  -1.037  0.00  0.00    -0.206 NA
ATOM      2  C   UNL d   1      -0.581   3.482  -2.297  0.00  0.00     0.166 C 
ATOM      3  C   UNL d   1      -1.431   2.224  -2.184  0.00  0.00     0.084 C 
ATOM      4  C   UNL d   1       0.894   3.109  -2.383  0.00  0.00     0.084 C 
ATOM      5  C   UNL d   1       1.316   2.253  -1.202  0.00  0.00     0.113 C 
ATOM      6  C   UNL d   1      -1.013   1.405  -0.967  0.00  0.00     0.113 C 
ATOM      7  O   UNL d   1      -0.929   4.211  -3.485  0.00  0.00    -0.353 OA
ATOM      8  O   UNL d   1      -0.822   4.308  -1.143  0.00  0.00    -0.353 OA
ATOM      9  C   UNL d   1      -1.019   5.623  -1.657  0.00  0.00     0.197 C 
ATOM     10  C   UNL d   1      -1.588   5.391  -3.030  0.00  0.00     0.197 C 
ENDROOT
BRANCH   1  11
ATOM     11  S   UNL d   1       0.987  -0.076   0.118  0.00  0.00     0.243 S 
ATOM     12  O   UNL d   1       2.333  -0.462  -0.258  0.00  0.00    -0.206 OA
ATOM     13  O   UNL d   1      -0.045  -1.069   0.317  0.00  0.00    -0.206 OA
BRANCH  11  14
ATOM     14  C   UNL d   1       1.128   0.870   1.631  0.00  0.00     0.074 A 
ATOM     15  C   UNL d   1       0.034   0.964   2.498  0.00  0.00     0.028 A 
ATOM     16  C   UNL d   1       0.164   1.672   3.696  0.00  0.00     0.044 A 
ATOM     17  C   UNL d   1       1.382   2.265   4.019  0.00  0.00     0.116 A 
ATOM     18  C   UNL d   1       2.481   2.160   3.172  0.00  0.00     0.044 A 
ATOM     19  F   UNL d   1       1.501   2.939   5.171  0.00  0.00    -0.206 F 
ATOM     20  C   UNL d   1       2.359   1.450   1.976  0.00  0.00     0.028 A 
ENDBRANCH  11  14
ENDBRANCH   1  11
TORSDOF 2
