REMARK  3 active torsions:
REMARK  status: ('A' for Active; 'I' for Inactive)
REMARK    1  A    between atoms: C_7  and  C_1 
REMARK    2  A    between atoms: C_3  and  C_7 
REMARK    3  A    between atoms: O_15  and  C_3 
ROOT
ATOM      1  C   UNL d   1       0.697   0.847   1.086  0.00  0.00    -0.029 C 
ATOM      2  C   UNL d   1      -1.547   0.237   0.059  0.00  0.00     0.038 C 
ATOM      3  C   UNL d   1       0.271  -1.499   0.172  0.00  0.00    -0.012 C 
ATOM      4  C   UNL d   1       0.490   0.441  -1.414  0.00  0.00    -0.012 C 
ATOM      5  C   UNL d   1      -0.841   1.041   1.166  0.00  0.00     0.035 C 
ATOM      6  C   UNL d   1      -1.024   0.700  -1.314  0.00  0.00     0.030 C 
ATOM      7  C   UNL d   1      -1.246  -1.260   0.250  0.00  0.00     0.030 C 
ATOM      8  C   UNL d   1       0.979  -0.675   1.266  0.00  0.00     0.014 C 
ATOM      9  C   UNL d   1       1.212   1.244  -0.321  0.00  0.00     0.014 C 
ATOM     10  C   UNL d   1       0.772  -1.055  -1.210  0.00  0.00     0.009 C 
ATOM     11 CL   UNL d   1      -3.312   0.504   0.155  0.00  0.00    -0.119 Cl
ENDROOT
BRANCH   1  12
ATOM     12  C   UNL d   1       1.429   1.637   2.198  0.00  0.00     0.119 C 
BRANCH  12  13
ATOM     13  C   UNL d   1       1.247   3.147   2.180  0.00  0.00     0.140 C 
ATOM     14  O   UNL d   1       0.599   3.791   1.373  0.00  0.00    -0.650 OA
BRANCH  13  15
ATOM     15  O   UNL d   1       1.911   3.751   3.195  0.00  0.00    -0.776 OA
ATOM     16  H   UNL d   1       2.397   3.132   3.774  0.00  0.00     0.167 HD
ENDBRANCH  13  15
ENDBRANCH  12  13
ENDBRANCH   1  12
TORSDOF 3
