REMARK  4 active torsions:
REMARK  status: ('A' for Active; 'I' for Inactive)
REMARK    1  A    between atoms: C_6  and  C_1 
REMARK    2  A    between atoms: C_12  and  C_4 
REMARK       I    between atoms: N_8  and  C_6 
REMARK    3  A    between atoms: N_9  and  N_8 
REMARK    4  A    between atoms: C_10  and  N_9 
ROOT
ATOM      1  C   UNL d   1       0.353  -2.690   0.039  0.00  0.00     0.271 C 
ATOM      2  N   UNL d   1      -0.617  -3.673   0.208  0.00  0.00    -0.282 N 
ATOM      3  O   UNL d   1       1.550  -2.943  -0.099  0.00  0.00    -0.266 OA
ATOM      4  H   UNL d   1      -1.471  -3.406   0.687  0.00  0.00     0.184 HD
ENDROOT
BRANCH   1   5
ATOM      5  C   UNL d   1      -0.138  -1.330   0.083  0.00  0.00     0.093 A 
ATOM      6  C   UNL d   1      -1.278  -0.682  -0.505  0.00  0.00     0.083 A 
ATOM      7  N   UNL d   1      -1.284   0.621  -0.166  0.00  0.00    -0.259 N 
ATOM      8  O   UNL d   1      -0.187   0.841   0.621  0.00  0.00    -0.241 OA
ATOM      9  HN  UNL d   1      -1.978   1.315  -0.443  1.00  0.00     0.195 HD
ATOM     10  C   UNL d   1       0.495  -0.315   0.778  0.00  0.00     0.090 A 
ATOM     11  C   UNL d   1       1.679  -0.241   1.656  0.00  0.00     0.080 C 
BRANCH   6  12
ATOM     12  C   UNL d   1      -2.353  -1.180  -1.375  0.00  0.00    -0.006 A 
ATOM     13  C   UNL d   1      -2.189  -2.280  -2.224  0.00  0.00     0.014 A 
ATOM     14  C   UNL d   1      -3.236  -2.698  -3.057  0.00  0.00     0.001 A 
ATOM     15  C   UNL d   1      -4.448  -2.011  -3.068  0.00  0.00     0.000 A 
ATOM     16  C   UNL d   1      -4.623  -0.906  -2.243  0.00  0.00     0.001 A 
ATOM     17  C   UNL d   1      -3.586  -0.499  -1.401  0.00  0.00     0.014 A 
ENDBRANCH   6  12
ENDBRANCH   1   5
BRANCH   2  18
ATOM     18  N   UNL d   1      -0.154  -4.986   0.478  0.00  0.00    -0.203 NA
ATOM     19  H   UNL d   1       0.452  -5.334  -0.275  0.00  0.00     0.153 HD
BRANCH  18  20
ATOM     20  C   UNL d   1      -1.151  -5.941   0.799  0.00  0.00     0.033 A 
ATOM     21  C   UNL d   1      -0.779  -7.134   1.463  0.00  0.00    -0.039 A 
ATOM     22  C   UNL d   1      -1.767  -8.081   1.798  0.00  0.00     0.015 A 
ATOM     23  C   UNL d   1       0.646  -7.463   1.819  0.00  0.00     0.050 C 
ATOM     24  C   UNL d   1      -3.117  -7.863   1.497  0.00  0.00    -0.061 A 
ATOM     25  C   UNL d   1      -3.469  -6.710   0.798  0.00  0.00     0.008 A 
ATOM     26  C   UNL d   1      -4.151  -8.873   1.895  0.00  0.00     0.048 C 
ATOM     27  C   UNL d   1      -2.496  -5.773   0.442  0.00  0.00     0.026 A 
ENDBRANCH  18  20
ENDBRANCH   2  18
TORSDOF 4
