REMARK  3 active torsions:
REMARK  status: ('A' for Active; 'I' for Inactive)
REMARK       I    between atoms: N_2  and  C_1 
REMARK       I    between atoms: N_4  and  C_1 
REMARK    1  A    between atoms: C_5  and  N_3 
REMARK    2  A    between atoms: C_15  and  N_4 
REMARK    3  A    between atoms: C_9  and  C_10 
ROOT
ATOM      1  C   UNL d   1       0.878  -0.179  -0.213  0.00  0.00     0.323 C 
ATOM      2  N   UNL d   1       0.251   0.609  -1.173  0.00  0.00    -0.331 N 
ATOM      3  N   UNL d   1      -0.785   2.174  -3.304  0.00  0.00    -0.364 N 
ATOM      4  N   UNL d   1       0.209  -0.313   0.980  0.00  0.00    -0.309 N 
ATOM      5  O   UNL d   1       1.982  -0.665  -0.441  0.00  0.00    -0.247 OA
ATOM      6  C   UNL d   1       0.952   0.711  -2.467  0.00  0.00     0.147 C 
ATOM      7  C   UNL d   1      -1.177   1.001  -1.201  0.00  0.00     0.147 C 
ATOM      8  C   UNL d   1       0.669   2.032  -3.190  0.00  0.00     0.144 C 
ATOM      9  C   UNL d   1      -1.446   2.298  -2.004  0.00  0.00     0.144 C 
ATOM     10  H   UNL d   1      -0.747  -0.012   1.019  0.00  0.00     0.170 HD
ENDROOT
BRANCH   4  11
ATOM     11  C   UNL d   1       0.738  -0.805   2.193  0.00  0.00     0.036 A 
ATOM     12  C   UNL d   1       2.049  -1.243   2.350  0.00  0.00     0.030 A 
ATOM     13  C   UNL d   1       2.534  -1.609   3.609  0.00  0.00     0.010 A 
ATOM     14  C   UNL d   1       1.729  -1.544   4.758  0.00  0.00    -0.051 A 
ATOM     15  C   UNL d   1       0.394  -1.152   4.579  0.00  0.00     0.010 A 
ATOM     16  C   UNL d   1      -0.095  -0.789   3.316  0.00  0.00     0.030 A 
BRANCH  14  17
ATOM     17  C   UNL d   1       2.340  -1.852   6.133  0.00  0.00    -0.024 C 
ATOM     18  C   UNL d   1       1.342  -1.716   7.302  0.00  0.00     0.019 C 
ATOM     19  C   UNL d   1       2.890  -3.293   6.158  0.00  0.00     0.019 C 
ATOM     20  C   UNL d   1       3.496  -0.862   6.402  0.00  0.00     0.019 C 
ENDBRANCH  14  17
ENDBRANCH   4  11
BRANCH   3  21
ATOM     21  C   UNL d   1      -1.303   2.850  -4.393  0.00  0.00     0.102 A 
ATOM     22  N   UNL d   1      -2.214   3.827  -4.205  0.00  0.00    -0.352 N 
ATOM     23  C   UNL d   1      -2.762   4.402  -5.301  0.00  0.00     0.089 A 
ATOM     24  HN  UNL d   1      -2.481   4.123  -3.266  1.00  0.00     0.166 HD
ATOM     25  C   UNL d   1      -2.467   4.036  -6.602  0.00  0.00     0.017 A 
ATOM     26  C   UNL d   1      -1.542   3.024  -6.793  0.00  0.00     0.005 A 
ATOM     27  C   UNL d   1      -0.953   2.434  -5.680  0.00  0.00     0.048 A 
ENDBRANCH   3  21
TORSDOF 3
