REMARK  4 active torsions:
REMARK  status: ('A' for Active; 'I' for Inactive)
REMARK    1  A    between atoms: C_2  and  C_1 
REMARK    2  A    between atoms: C_3  and  C_1 
REMARK    3  A    between atoms: C_7  and  C_3 
REMARK    4  A    between atoms: O_17  and  C_9 
ROOT
ATOM      1  C   UNL d   1       0.931   0.069  -0.031  0.00  0.00     0.163 C 
ATOM      2  O   UNL d   1       1.012   0.376   1.161  0.00  0.00    -0.292 OA
ENDROOT
BRANCH   1   3
ATOM      3  C   UNL d   1       1.619   0.925  -1.040  0.00  0.00     0.010 A 
ATOM      4  C   UNL d   1       1.373   0.825  -2.414  0.00  0.00     0.018 A 
ATOM      5  C   UNL d   1       2.098   1.610  -3.313  0.00  0.00     0.037 A 
ATOM      6  C   UNL d   1       3.055   2.499  -2.841  0.00  0.00     0.065 A 
ATOM      7  C   UNL d   1       3.289   2.639  -1.480  0.00  0.00     0.037 A 
ATOM      8  C   UNL d   1       2.568   1.851  -0.580  0.00  0.00     0.018 A 
BRANCH   6   9
ATOM      9  O   UNL d   1       3.755   3.225  -3.760  0.00  0.00    -0.361 OA
ATOM     10  H   UNL d   1       4.424   3.754  -3.296  0.00  0.00     0.217 HD
ENDBRANCH   6   9
ENDBRANCH   1   3
BRANCH   1  11
ATOM     11  C   UNL d   1       0.179  -1.174  -0.469  0.00  0.00     0.122 C 
BRANCH  11  12
ATOM     12  C   UNL d   1      -1.324  -1.038  -0.553  0.00  0.00    -0.051 A 
ATOM     13  C   UNL d   1      -2.034  -1.834  -1.468  0.00  0.00     0.009 A 
ATOM     14  C   UNL d   1      -3.431  -1.836  -1.481  0.00  0.00     0.024 A 
ATOM     15  C   UNL d   1      -4.134  -1.045  -0.576  0.00  0.00     0.034 A 
ATOM     16  C   UNL d   1      -3.449  -0.238   0.328  0.00  0.00     0.024 A 
ATOM     17 CL   UNL d   1      -5.853  -1.089  -0.556  0.00  0.00    -0.084 Cl
ATOM     18  C   UNL d   1      -2.052  -0.239   0.343  0.00  0.00     0.009 A 
ENDBRANCH  11  12
ENDBRANCH   1  11
TORSDOF 4
