REMARK  6 active torsions:
REMARK  status: ('A' for Active; 'I' for Inactive)
REMARK    1  A    between atoms: C_9  and  N_1 
REMARK    2  A    between atoms: S_14  and  C_2 
REMARK    3  A    between atoms: C_11  and  C_3 
REMARK       I    between atoms: C_8  and  N_10 
REMARK    4  A    between atoms: O_12  and  C_8 
REMARK    5  A    between atoms: N_10  and  C_11 
REMARK    6  A    between atoms: C_15  and  O_12 
ROOT
ATOM      1  N   UNL d   1      -0.153  -0.975  -1.000  0.00  0.00    -0.278 N 
ATOM      2  C   UNL d   1       1.112  -0.877  -0.428  0.00  0.00     0.164 A 
ATOM      3  C   UNL d   1      -0.996  -0.464  -0.006  0.00  0.00     0.123 A 
ATOM      4  N   UNL d   1       1.030  -0.406   0.794  0.00  0.00    -0.278 N 
ATOM      5  HN  UNL d   1       1.811  -0.259   1.433  1.00  0.00     0.189 HD
ATOM      6  N   UNL d   1      -0.279  -0.149   1.058  0.00  0.00    -0.285 N 
ATOM      7  HN  UNL d   1      -0.646   0.225   1.932  1.00  0.00     0.188 HD
ENDROOT
BRANCH   3   8
ATOM      8  C   UNL d   1      -2.476  -0.326  -0.032  0.00  0.00     0.203 C 
BRANCH   8   9
ATOM      9  N   UNL d   1      -3.135  -1.607  -0.017  0.00  0.00    -0.330 N 
ATOM     10  C   UNL d   1      -4.413  -1.719  -0.483  0.00  0.00     0.361 C 
ATOM     11  O   UNL d   1      -4.981  -0.866  -1.152  0.00  0.00    -0.238 OA
ATOM     12  H   UNL d   1      -2.863  -2.297   0.671  0.00  0.00     0.165 HD
BRANCH  10  13
ATOM     13  O   UNL d   1      -4.938  -2.902  -0.089  0.00  0.00    -0.294 OA
BRANCH  13  14
ATOM     14  C   UNL d   1      -6.260  -3.306  -0.545  0.00  0.00     0.061 C 
ATOM     15  C   UNL d   1      -6.325  -3.334  -2.078  0.00  0.00     0.046 C 
ATOM     16  C   UNL d   1      -6.449  -4.734  -0.007  0.00  0.00     0.046 C 
ATOM     17  C   UNL d   1      -7.358  -2.413   0.048  0.00  0.00     0.046 C 
ENDBRANCH  13  14
ENDBRANCH  10  13
ENDBRANCH   8   9
ENDBRANCH   3   8
BRANCH   1  18
ATOM     18  C   UNL d   1      -0.508  -1.498  -2.281  0.00  0.00     0.043 A 
ATOM     19  C   UNL d   1       0.177  -2.603  -2.811  0.00  0.00     0.030 A 
ATOM     20  C   UNL d   1      -0.150  -3.106  -4.074  0.00  0.00     0.002 A 
ATOM     21  C   UNL d   1      -1.183  -2.531  -4.807  0.00  0.00     0.000 A 
ATOM     22  C   UNL d   1      -1.882  -1.447  -4.284  0.00  0.00     0.002 A 
ATOM     23  C   UNL d   1      -1.541  -0.925  -3.032  0.00  0.00     0.030 A 
ENDBRANCH   1  18
BRANCH   2  24
ATOM     24  S   UNL d   1       2.647  -1.132  -1.203  0.00  0.00    -0.105 SA
ATOM     25  H   UNL d   1       2.267  -1.121  -2.486  0.00  0.00     0.110 HD
ENDBRANCH   2  24
TORSDOF 6
