REMARK  3 active torsions:
REMARK  status: ('A' for Active; 'I' for Inactive)
REMARK    1  A    between atoms: C_5  and  N_1 
REMARK    2  A    between atoms: C_2  and  O_4 
REMARK       I    between atoms: N_3  and  C_2 
REMARK    3  A    between atoms: O_4  and  C_11 
ROOT
ATOM      1  C   UNL d   1      -3.671   5.664   0.410  0.00  0.00     0.103 A 
ATOM      2  C   UNL d   1      -4.016   6.045  -0.894  0.00  0.00     0.039 A 
ATOM      3  C   UNL d   1      -2.721   4.656   0.632  0.00  0.00     0.039 A 
ATOM      4  C   UNL d   1      -2.397   4.471  -1.756  0.00  0.00     0.081 A 
ATOM      5  C   UNL d   1      -3.387   5.430  -1.980  0.00  0.00     0.040 A 
ATOM      6  C   UNL d   1      -2.087   4.055  -0.460  0.00  0.00     0.040 A 
ENDROOT
BRANCH   4   7
ATOM      7  O   UNL d   1      -1.690   3.837  -2.801  0.00  0.00    -0.261 OA
BRANCH   7   8
ATOM      8  C   UNL d   1      -1.288   4.572  -3.920  0.00  0.00     0.368 C 
ATOM      9  N   UNL d   1      -0.618   3.805  -4.867  0.00  0.00    -0.328 N 
ATOM     10  C   UNL d   1      -0.117   4.473  -6.063  0.00  0.00     0.128 C 
ATOM     11  C   UNL d   1      -0.026   2.507  -4.559  0.00  0.00     0.128 C 
ATOM     12  C   UNL d   1      -0.205   3.562  -7.282  0.00  0.00     0.020 C 
ATOM     13  C   UNL d   1       0.482   2.225  -7.023  0.00  0.00     0.003 C 
ATOM     14  C   UNL d   1      -0.075   1.567  -5.761  0.00  0.00     0.020 C 
ATOM     15  O   UNL d   1      -1.506   5.771  -4.071  0.00  0.00    -0.238 OA
ENDBRANCH   7   8
ENDBRANCH   4   7
BRANCH   1  16
ATOM     16  N   UNL d   1      -4.303   6.337   1.553  0.00  0.00    -0.116 N 
ATOM     17  O   UNL d   1      -5.104   7.250   1.315  0.00  0.00    -0.532 OA
ATOM     18  O   UNL d   1      -3.993   5.951   2.690  0.00  0.00    -0.532 OA
ENDBRANCH   1  16
TORSDOF 3
