REMARK  2 active torsions:
REMARK  status: ('A' for Active; 'I' for Inactive)
REMARK    1  A    between atoms: C_9  and  C_3 
REMARK    2  A    between atoms: C_10  and  C_7 
ROOT
ATOM      1  C   UNL d   1      -2.041   0.275   0.010  0.00  0.00     0.027 C 
ATOM      2  C   UNL d   1      -1.095  -0.868  -0.132  0.00  0.00     0.194 C 
ATOM      3  C   UNL d   1      -1.421   1.543   0.535  0.00  0.00     0.199 C 
ATOM      4  O   UNL d   1      -0.200   1.849  -0.177  0.00  0.00    -0.335 OA
ATOM      5  C   UNL d   1       0.339  -0.516  -0.114  0.00  0.00     0.048 A 
ATOM      6  C   UNL d   1       0.711   0.827  -0.164  0.00  0.00     0.084 A 
ATOM      7  C   UNL d   1      -3.332   0.070  -0.314  0.00  0.00     0.025 C 
ATOM      8  O   UNL d   1      -1.467  -2.031  -0.242  0.00  0.00    -0.287 OA
ATOM      9  C   UNL d   1       1.320  -1.512  -0.058  0.00  0.00     0.018 A 
ATOM     10  C   UNL d   1       2.058   1.182  -0.203  0.00  0.00     0.038 A 
ATOM     11  C   UNL d   1       2.670  -1.154  -0.044  0.00  0.00     0.001 A 
ATOM     12  C   UNL d   1       3.039   0.191  -0.125  0.00  0.00     0.003 A 
ENDROOT
BRANCH   3  13
ATOM     13  C   UNL d   1      -1.190   1.587   2.051  0.00  0.00    -0.024 A 
ATOM     14  C   UNL d   1      -1.572   0.544   2.914  0.00  0.00     0.010 A 
ATOM     15  C   UNL d   1      -1.314   0.615   4.285  0.00  0.00     0.001 A 
ATOM     16  C   UNL d   1      -0.684   1.733   4.820  0.00  0.00     0.000 A 
ATOM     17  C   UNL d   1      -0.320   2.788   3.988  0.00  0.00     0.001 A 
ATOM     18  C   UNL d   1      -0.572   2.717   2.615  0.00  0.00     0.010 A 
ENDBRANCH   3  13
BRANCH   7  19
ATOM     19  C   UNL d   1      -4.359   1.111  -0.279  0.00  0.00    -0.035 A 
ATOM     20  C   UNL d   1      -4.596   1.867  -1.434  0.00  0.00     0.013 A 
ATOM     21  C   UNL d   1      -5.558   2.877  -1.434  0.00  0.00     0.024 A 
ATOM     22  C   UNL d   1      -6.289   3.133  -0.277  0.00  0.00     0.034 A 
ATOM     23  C   UNL d   1      -6.062   2.388   0.880  0.00  0.00     0.024 A 
ATOM     24 CL   UNL d   1      -7.479   4.376  -0.278  0.00  0.00    -0.084 Cl
ATOM     25  C   UNL d   1      -5.094   1.378   0.880  0.00  0.00     0.013 A 
ENDBRANCH   7  19
TORSDOF 2
