REMARK  9 active torsions:
REMARK  status: ('A' for Active; 'I' for Inactive)
REMARK    1  A    between atoms: N_2  and  C_1 
REMARK    2  A    between atoms: C_3  and  C_1 
REMARK    3  A    between atoms: N_4  and  C_1 
REMARK    4  A    between atoms: C_6  and  C_1 
REMARK       I    between atoms: C_5  and  N_2 
REMARK    5  A    between atoms: C_8  and  N_4 
REMARK    6  A    between atoms: C_7  and  C_5 
REMARK    7  A    between atoms: O_19  and  C_6 
REMARK    8  A    between atoms: O_20  and  C_14 
REMARK    9  A    between atoms: C_23  and  O_19 
ROOT
ATOM      1  C   UNL d   1       1.203  -0.013   0.141  0.00  0.00     0.281 C 
ENDROOT
BRANCH   1   2
ATOM      2  N   UNL d   1       0.707  -0.414   1.460  0.00  0.00    -0.317 N 
ATOM      3  C   UNL d   1       0.719  -1.697   1.942  0.00  0.00     0.277 C 
ATOM      4  O   UNL d   1       1.119  -2.639   1.271  0.00  0.00    -0.265 OA
ATOM      5  H   UNL d   1       0.520   0.324   2.133  0.00  0.00     0.165 HD
BRANCH   3   6
ATOM      6  C   UNL d   1       0.182  -1.802   3.281  0.00  0.00     0.142 A 
ATOM      7  O   UNL d   1      -0.161  -0.651   3.951  0.00  0.00    -0.317 OA
ATOM      8  C   UNL d   1      -0.657  -1.021   5.160  0.00  0.00     0.143 A 
ATOM      9  C   UNL d   1      -0.653  -2.390   5.282  0.00  0.00     0.027 A 
ATOM     10  C   UNL d   1      -0.108  -2.894   4.075  0.00  0.00     0.045 A 
ENDBRANCH   3   6
ENDBRANCH   1   2
BRANCH   1  11
ATOM     11  C   UNL d   1       1.117   1.539  -0.086  0.00  0.00     0.436 C 
ATOM     12  F   UNL d   1       0.822   2.163   1.094  0.00  0.00    -0.166 F 
ATOM     13  F   UNL d   1       2.268   2.100  -0.531  0.00  0.00    -0.166 F 
ATOM     14  F   UNL d   1       0.149   1.911  -0.955  0.00  0.00    -0.166 F 
ENDBRANCH   1  11
BRANCH   1  15
ATOM     15  N   UNL d   1       0.539  -0.852  -0.907  0.00  0.00    -0.248 NA
ATOM     16  H   UNL d   1       0.776  -1.833  -0.721  0.00  0.00     0.131 HD
BRANCH  15  17
ATOM     17  C   UNL d   1      -0.832  -0.794  -1.214  0.00  0.00     0.044 A 
ATOM     18  C   UNL d   1      -1.309  -1.086  -2.515  0.00  0.00     0.089 A 
ATOM     19  C   UNL d   1      -2.692  -1.190  -2.761  0.00  0.00     0.038 A 
ATOM     20  C   UNL d   1      -3.626  -1.053  -1.741  0.00  0.00     0.003 A 
ATOM     21  C   UNL d   1      -3.179  -0.802  -0.456  0.00  0.00     0.002 A 
ATOM     22  C   UNL d   1      -1.807  -0.671  -0.205  0.00  0.00     0.026 A 
BRANCH  18  23
ATOM     23  O   UNL d   1      -0.593  -1.319  -3.662  0.00  0.00    -0.354 OA
ATOM     24  C   UNL d   1       0.792  -1.026  -3.690  0.00  0.00     0.210 C 
ENDBRANCH  18  23
ENDBRANCH  15  17
ENDBRANCH   1  15
BRANCH   1  25
ATOM     25  C   UNL d   1       2.741  -0.231   0.171  0.00  0.00     0.312 C 
ATOM     26  O   UNL d   1       3.438  -0.072   1.170  0.00  0.00    -0.260 OA
BRANCH  25  27
ATOM     27  O   UNL d   1       3.236  -0.560  -1.061  0.00  0.00    -0.319 OA
BRANCH  27  28
ATOM     28  C   UNL d   1       4.667  -0.642  -1.159  0.00  0.00     0.174 C 
ATOM     29  C   UNL d   1       5.157  -2.014  -0.737  0.00  0.00     0.034 C 
ENDBRANCH  27  28
ENDBRANCH  25  27
ENDBRANCH   1  25
TORSDOF 9
