REMARK  4 active torsions:
REMARK  status: ('A' for Active; 'I' for Inactive)
REMARK    1  A    between atoms: C_8  and  N_6 
REMARK    2  A    between atoms: C_15  and  C_10 
REMARK    3  A    between atoms: C_20  and  C_11 
REMARK    4  A    between atoms: C_19  and  C_12 
ROOT
ATOM      1  C   UNL d   1      -2.040  -0.866   0.562  0.00  0.00     0.150 A 
ATOM      2  N   UNL d   1      -1.818   0.201   1.286  0.00  0.00    -0.335 N 
ATOM      3  HN  UNL d   1      -2.535   0.874   1.558  1.00  0.00     0.168 HD
ATOM      4  S   UNL d   1      -0.653  -1.862   0.308  0.00  0.00    -0.052 SA
ATOM      5  C   UNL d   1       0.322  -0.748   1.185  0.00  0.00     0.035 A 
ATOM      6  N   UNL d   1      -3.226  -1.240   0.022  0.00  0.00    -0.336 N 
ATOM      7  C   UNL d   1      -0.483   0.294   1.631  0.00  0.00     0.051 A 
ATOM      8  C   UNL d   1       1.701  -0.797   1.468  0.00  0.00     0.028 A 
ATOM      9  C   UNL d   1       2.270   0.229   2.246  0.00  0.00    -0.053 A 
ATOM     10  C   UNL d   1       0.099   1.330   2.383  0.00  0.00     0.031 A 
ATOM     11  C   UNL d   1       1.464   1.285   2.688  0.00  0.00     0.010 A 
ATOM     12  H   UNL d   1      -3.308  -2.182  -0.331  0.00  0.00     0.168 HD
ENDROOT
BRANCH   6  13
ATOM     13  C   UNL d   1      -4.398  -0.463  -0.149  0.00  0.00     0.046 A 
ATOM     14  C   UNL d   1      -4.388   0.879  -0.627  0.00  0.00    -0.031 A 
ATOM     15  C   UNL d   1      -5.616   1.561  -0.752  0.00  0.00     0.009 A 
ATOM     16  C   UNL d   1      -6.829   0.943  -0.468  0.00  0.00     0.001 A 
ATOM     17  C   UNL d   1      -6.843  -0.362  -0.002  0.00  0.00     0.009 A 
ATOM     18  C   UNL d   1      -5.643  -1.066   0.193  0.00  0.00    -0.031 A 
BRANCH  14  19
ATOM     19  C   UNL d   1      -3.107   1.638  -0.941  0.00  0.00     0.036 C 
ATOM     20  C   UNL d   1      -3.135   2.650  -2.085  0.00  0.00     0.010 C 
ENDBRANCH  14  19
BRANCH  18  21
ATOM     21  C   UNL d   1      -5.743  -2.432   0.846  0.00  0.00     0.036 C 
ATOM     22  C   UNL d   1      -5.925  -3.568  -0.149  0.00  0.00     0.010 C 
ENDBRANCH  18  21
ENDBRANCH   6  13
BRANCH   9  23
ATOM     23  C   UNL d   1       3.745   0.160   2.612  0.00  0.00     0.010 C 
ATOM     24  C   UNL d   1       4.518   1.373   2.089  0.00  0.00     0.015 C 
ATOM     25  C   UNL d   1       3.933   0.002   4.124  0.00  0.00     0.015 C 
ENDBRANCH   9  23
TORSDOF 4
