REMARK  6 active torsions:
REMARK  status: ('A' for Active; 'I' for Inactive)
REMARK    1  A    between atoms: S_9  and  C_1 
REMARK    2  A    between atoms: C_10  and  C_4 
REMARK    3  A    between atoms: C_15  and  S_9 
REMARK    4  A    between atoms: C_11  and  C_15 
REMARK    5  A    between atoms: C_14  and  C_11 
REMARK    6  A    between atoms: C_12  and  C_13 
ROOT
ATOM      1  C   UNL d   1      -0.756   1.183   0.120  0.00  0.00     0.174 C 
ATOM      2  N   UNL d   1       1.342  -0.027   0.070  0.00  0.00    -0.282 N 
ATOM      3  HN  UNL d   1       2.361  -0.058   0.116  1.00  0.00     0.188 HD
ATOM      4  C   UNL d   1       0.580  -1.097   0.073  0.00  0.00     0.145 C 
ATOM      5  N   UNL d   1      -1.531   0.137   0.063  0.00  0.00    -0.277 N 
ATOM      6  HN  UNL d   1      -2.549   0.176   0.101  1.00  0.00     0.189 HD
ATOM      7  N   UNL d   1      -0.808  -1.027  -0.055  0.00  0.00    -0.282 N 
ATOM      8  N   UNL d   1       0.616   1.139  -0.002  0.00  0.00    -0.277 N 
ATOM      9  H   UNL d   1      -1.337  -1.885  -0.172  0.00  0.00     0.188 HD
ATOM     10  H   UNL d   1       1.116   2.014   0.117  0.00  0.00     0.189 HD
ENDROOT
BRANCH   1  11
ATOM     11  S   UNL d   1      -1.436   2.770   0.397  0.00  0.00    -0.084 SA
BRANCH  11  12
ATOM     12  C   UNL d   1      -3.044   2.296   1.099  0.00  0.00     0.166 C 
BRANCH  12  13
ATOM     13  C   UNL d   1      -3.739   3.507   1.687  0.00  0.00     0.169 C 
ATOM     14  O   UNL d   1      -3.772   3.691   2.903  0.00  0.00    -0.291 OA
BRANCH  13  15
ATOM     15  C   UNL d   1      -4.409   4.498   0.785  0.00  0.00     0.011 A 
ATOM     16  C   UNL d   1      -4.459   4.348  -0.606  0.00  0.00     0.017 A 
ATOM     17  C   UNL d   1      -5.068   5.326  -1.401  0.00  0.00     0.025 A 
ATOM     18  C   UNL d   1      -5.638   6.451  -0.809  0.00  0.00     0.034 A 
ATOM     19  C   UNL d   1      -5.613   6.604   0.574  0.00  0.00     0.025 A 
ATOM     20 CL   UNL d   1      -6.367   7.658  -1.794  0.00  0.00    -0.084 Cl
ATOM     21  C   UNL d   1      -5.000   5.630   1.369  0.00  0.00     0.017 A 
ENDBRANCH  13  15
ENDBRANCH  12  13
ENDBRANCH  11  12
ENDBRANCH   1  11
BRANCH   4  22
ATOM     22  C   UNL d   1       1.223  -2.430   0.282  0.00  0.00     0.011 A 
ATOM     23  C   UNL d   1       0.509  -3.461   0.897  0.00  0.00     0.016 A 
ATOM     24  C   UNL d   1       1.130  -4.682   1.176  0.00  0.00     0.009 A 
ATOM     25  C   UNL d   1       2.482  -4.910   0.862  0.00  0.00    -0.051 A 
ATOM     26  C   UNL d   1       3.184  -3.861   0.242  0.00  0.00     0.009 A 
ATOM     27  C   UNL d   1       2.565  -2.633  -0.041  0.00  0.00     0.016 A 
BRANCH  25  28
ATOM     28  C   UNL d   1       3.137  -6.255   1.228  0.00  0.00    -0.024 C 
ATOM     29  C   UNL d   1       4.627  -6.348   0.834  0.00  0.00     0.019 C 
ATOM     30  C   UNL d   1       3.053  -6.477   2.755  0.00  0.00     0.019 C 
ATOM     31  C   UNL d   1       2.399  -7.407   0.513  0.00  0.00     0.019 C 
ENDBRANCH  25  28
ENDBRANCH   4  22
TORSDOF 6
