REMARK  6 active torsions:
REMARK  status: ('A' for Active; 'I' for Inactive)
REMARK    1  A    between atoms: C_11  and  C_3 
REMARK    2  A    between atoms: C_10  and  C_4 
REMARK    3  A    between atoms: C_8  and  N_6 
REMARK    4  A    between atoms: N_9  and  C_10 
REMARK    5  A    between atoms: O_17  and  C_14 
REMARK    6  A    between atoms: C_22  and  O_17 
ROOT
ATOM      1  N   UNL d   1      -3.380   0.215  -0.022  0.00  0.00    -0.375 N 
ATOM      2  N   UNL d   1      -1.912  -2.347   0.097  0.00  0.00     0.097 N 
ATOM      3  C   UNL d   1      -2.510  -0.152  -1.140  0.00  0.00     0.153 C 
ATOM      4  C   UNL d   1      -2.926  -0.287   1.284  0.00  0.00     0.153 C 
ATOM      5  C   UNL d   1      -2.734  -1.826   1.220  0.00  0.00     0.292 C 
ATOM      6  C   UNL d   1      -2.367  -1.702  -1.166  0.00  0.00     0.292 C 
ENDROOT
BRANCH   2   7
ATOM      7  C   UNL d   1      -0.474  -2.107   0.299  0.00  0.00     0.330 C 
BRANCH   7   8
ATOM      8  C   UNL d   1       0.119  -2.984   1.365  0.00  0.00     0.054 A 
ATOM      9  N   UNL d   1       1.043  -2.455   2.239  0.00  0.00    -0.343 N 
ATOM     10  C   UNL d   1       1.510  -3.458   2.965  0.00  0.00     0.115 A 
ATOM     11  HN  UNL d   1       1.317  -1.475   2.312  1.00  0.00     0.167 HD
ATOM     12  N   UNL d   1       0.842  -4.613   2.632  0.00  0.00    -0.350 N 
ATOM     13  C   UNL d   1      -0.026  -4.335   1.612  0.00  0.00     0.116 A 
ATOM     14  H   UNL d   1       0.995  -5.521   3.045  0.00  0.00     0.166 HD
BRANCH  10  15
ATOM     15  C   UNL d   1       2.601  -3.353   3.941  0.00  0.00     0.008 A 
ATOM     16  C   UNL d   1       3.061  -2.075   4.298  0.00  0.00     0.015 A 
ATOM     17  C   UNL d   1       4.137  -1.909   5.171  0.00  0.00     0.001 A 
ATOM     18  C   UNL d   1       4.773  -3.026   5.704  0.00  0.00     0.000 A 
ATOM     19  C   UNL d   1       4.327  -4.304   5.370  0.00  0.00     0.001 A 
ATOM     20  C   UNL d   1       3.246  -4.469   4.494  0.00  0.00     0.015 A 
ENDBRANCH  10  15
ENDBRANCH   7   8
ENDBRANCH   2   7
BRANCH   1  21
ATOM     21  C   UNL d   1      -4.213   1.327  -0.069  0.00  0.00     0.064 A 
ATOM     22  C   UNL d   1      -3.943   2.542  -0.745  0.00  0.00     0.095 A 
ATOM     23  C   UNL d   1      -4.938   3.540  -0.812  0.00  0.00     0.039 A 
ATOM     24  C   UNL d   1      -6.168   3.384  -0.177  0.00  0.00     0.003 A 
ATOM     25  C   UNL d   1      -6.430   2.221   0.528  0.00  0.00     0.002 A 
ATOM     26  C   UNL d   1      -5.467   1.212   0.571  0.00  0.00     0.032 A 
BRANCH  22  27
ATOM     27  O   UNL d   1      -2.692   2.720  -1.303  0.00  0.00    -0.349 OA
BRANCH  27  28
ATOM     28  C   UNL d   1      -2.328   4.075  -1.585  0.00  0.00     0.171 C 
ATOM     29  C   UNL d   1      -0.839   4.165  -1.865  0.00  0.00     0.034 C 
ENDBRANCH  27  28
ENDBRANCH  22  27
ENDBRANCH   1  21
TORSDOF 6
