REMARK  2 active torsions:
REMARK  status: ('A' for Active; 'I' for Inactive)
REMARK       I    between atoms: N_2  and  C_1 
REMARK    1  A    between atoms: C_3  and  C_1 
REMARK    2  A    between atoms: C_4  and  N_2 
ROOT
ATOM      1  C   UNL d   1       1.107   0.090  -0.201  0.00  0.00     0.281 C 
ATOM      2  N   UNL d   1       0.507   0.580   0.936  0.00  0.00    -0.307 N 
ATOM      3  O   UNL d   1       2.290   0.261  -0.492  0.00  0.00    -0.265 OA
ATOM      4  H   UNL d   1      -0.390   0.192   1.204  0.00  0.00     0.170 HD
ENDROOT
BRANCH   2   5
ATOM      5  C   UNL d   1       1.115   1.362   1.919  0.00  0.00     0.108 A 
ATOM      6  N   UNL d   1       0.535   1.293   3.136  0.00  0.00    -0.346 N 
ATOM      7  C   UNL d   1       1.122   1.970   4.156  0.00  0.00     0.007 A 
ATOM      8  HN  UNL d   1      -0.316   0.751   3.284  1.00  0.00     0.167 HD
ATOM      9  C   UNL d   1       0.551   1.784   5.530  0.00  0.00     0.068 C 
ATOM     10  C   UNL d   1       2.246   2.770   3.982  0.00  0.00     0.025 A 
ATOM     11  C   UNL d   1       2.795   2.874   2.712  0.00  0.00     0.006 A 
ATOM     12  C   UNL d   1       2.229   2.153   1.667  0.00  0.00     0.049 A 
ENDBRANCH   2   5
BRANCH   1  13
ATOM     13  C   UNL d   1       0.238  -0.720  -1.030  0.00  0.00     0.142 A 
ATOM     14  O   UNL d   1      -1.123  -0.612  -0.912  0.00  0.00    -0.317 OA
ATOM     15  C   UNL d   1      -1.668  -1.421  -1.860  0.00  0.00     0.143 A 
ATOM     16  C   UNL d   1      -0.685  -2.083  -2.557  0.00  0.00     0.027 A 
ATOM     17  C   UNL d   1       0.543  -1.631  -2.024  0.00  0.00     0.045 A 
ENDBRANCH   1  13
TORSDOF 2
