REMARK  12 active torsions:
REMARK  status: ('A' for Active; 'I' for Inactive)
REMARK    1  A    between atoms: C_18  and  N_1 
REMARK    2  A    between atoms: C_11  and  C_2 
REMARK    3  A    between atoms: S_10  and  C_5 
REMARK    4  A    between atoms: C_8  and  N_12 
REMARK    5  A    between atoms: N_24  and  C_8 
REMARK    6  A    between atoms: C_9  and  C_19 
REMARK       I    between atoms: N_13  and  C_9 
REMARK    7  A    between atoms: C_19  and  S_10 
REMARK    8  A    between atoms: N_12  and  N_13 
REMARK    9  A    between atoms: C_15  and  C_16 
REMARK   10  A    between atoms: C_25  and  C_18 
REMARK   11  A    between atoms: C_30  and  C_25 
REMARK   12  A    between atoms: O_26  and  C_30 
ROOT
ATOM      1  N   UNL d   1      -0.246  -1.232   0.008  0.00  0.00    -0.311 N 
ATOM      2  C   UNL d   1       1.000  -0.614  -0.066  0.00  0.00     0.134 A 
ATOM      3  N   UNL d   1       0.804   0.693  -0.030  0.00  0.00    -0.283 N 
ATOM      4  HN  UNL d   1       1.538   1.400  -0.012  1.00  0.00     0.188 HD
ATOM      5  C   UNL d   1      -1.159  -0.202   0.002  0.00  0.00     0.163 A 
ATOM      6  N   UNL d   1      -0.531   0.945  -0.021  0.00  0.00    -0.278 N 
ATOM      7  HN  UNL d   1      -0.967   1.867  -0.031  1.00  0.00     0.189 HD
ENDROOT
BRANCH   5   8
ATOM      8  S   UNL d   1      -2.873  -0.319  -0.138  0.00  0.00    -0.083 SA
BRANCH   8   9
ATOM      9  C   UNL d   1      -3.521   0.446   1.371  0.00  0.00     0.186 C 
BRANCH   9  10
ATOM     10  C   UNL d   1      -3.340   1.951   1.547  0.00  0.00     0.245 C 
ATOM     11  N   UNL d   1      -2.042   2.406   1.615  0.00  0.00    -0.267 N 
ATOM     12  H   UNL d   1      -1.290   1.891   1.152  0.00  0.00     0.190 HD
ATOM     13  O   UNL d   1      -4.297   2.692   1.762  0.00  0.00    -0.271 OA
BRANCH  11  14
ATOM     14  N   UNL d   1      -1.811   3.789   1.683  0.00  0.00    -0.274 N 
ATOM     15  H   UNL d   1      -2.641   4.365   1.788  0.00  0.00     0.189 HD
BRANCH  14  16
ATOM     16  C   UNL d   1      -0.578   4.266   2.049  0.00  0.00     0.186 C 
ATOM     17  S   UNL d   1       0.681   3.355   2.671  0.00  0.00    -0.040 SA
BRANCH  16  18
ATOM     18  N   UNL d   1      -0.350   5.593   1.835  0.00  0.00    -0.370 N 
ATOM     19  C   UNL d   1      -1.139   6.519   1.052  0.00  0.00     0.148 C 
ATOM     20  H   UNL d   1       0.605   5.868   2.036  0.00  0.00     0.161 HD
ENDBRANCH  16  18
ENDBRANCH  14  16
ENDBRANCH  11  14
ENDBRANCH   9  10
ENDBRANCH   8   9
ENDBRANCH   5   8
BRANCH   1  21
ATOM     21  C   UNL d   1      -0.535  -2.650   0.041  0.00  0.00     0.135 C 
BRANCH  21  22
ATOM     22  C   UNL d   1       0.059  -3.446   1.211  0.00  0.00     0.046 C 
BRANCH  22  23
ATOM     23  C   UNL d   1      -0.498  -3.047   2.571  0.00  0.00     0.168 C 
BRANCH  23  24
ATOM     24  O   UNL d   1      -1.913  -3.203   2.546  0.00  0.00    -0.396 OA
ATOM     25  C   UNL d   1      -2.493  -2.931   3.816  0.00  0.00     0.201 C 
ENDBRANCH  23  24
ENDBRANCH  22  23
ENDBRANCH  21  22
ENDBRANCH   1  21
BRANCH   2  26
ATOM     26  C   UNL d   1       2.337  -1.210  -0.106  0.00  0.00     0.009 A 
ATOM     27  C   UNL d   1       2.657  -2.389  -0.779  0.00  0.00     0.016 A 
ATOM     28  C   UNL d   1       3.949  -2.930  -0.720  0.00  0.00     0.009 A 
ATOM     29  C   UNL d   1       4.988  -2.286  -0.022  0.00  0.00    -0.051 A 
ATOM     30  C   UNL d   1       4.682  -1.053   0.572  0.00  0.00     0.009 A 
ATOM     31  C   UNL d   1       3.387  -0.530   0.537  0.00  0.00     0.016 A 
BRANCH  29  32
ATOM     32  C   UNL d   1       6.372  -2.942   0.094  0.00  0.00    -0.024 C 
ATOM     33  C   UNL d   1       7.405  -2.075   0.849  0.00  0.00     0.019 C 
ATOM     34  C   UNL d   1       6.231  -4.269   0.873  0.00  0.00     0.019 C 
ATOM     35  C   UNL d   1       6.956  -3.240  -1.303  0.00  0.00     0.019 C 
ENDBRANCH  29  32
ENDBRANCH   2  26
TORSDOF 12
