REMARK  4 active torsions:
REMARK  status: ('A' for Active; 'I' for Inactive)
REMARK    1  A    between atoms: C_6  and  N_1 
REMARK    2  A    between atoms: C_7  and  C_6 
REMARK    3  A    between atoms: C_8  and  C_7 
REMARK    4  A    between atoms: O_12  and  C_8 
ROOT
ATOM      1  N   UNL d   1       1.910   0.027  -0.098  0.00  0.00    -0.279 N 
ATOM      2  C   UNL d   1       1.133   1.154  -0.088  0.00  0.00     0.261 A 
ATOM      3  C   UNL d   1       1.151  -1.109  -0.028  0.00  0.00     0.261 A 
ATOM      4  C   UNL d   1      -0.257   0.702  -0.031  0.00  0.00     0.048 A 
ATOM      5  C   UNL d   1      -0.245  -0.680   0.001  0.00  0.00     0.048 A 
ATOM      6  O   UNL d   1       1.468   2.322  -0.125  0.00  0.00    -0.267 OA
ATOM      7  O   UNL d   1       1.510  -2.271  -0.010  0.00  0.00    -0.267 OA
ATOM      8  C   UNL d   1      -1.435   1.422  -0.020  0.00  0.00     0.018 A 
ATOM      9  C   UNL d   1      -1.409  -1.423   0.035  0.00  0.00     0.018 A 
ATOM     10  C   UNL d   1      -2.615  -0.718   0.041  0.00  0.00     0.001 A 
ATOM     11  C   UNL d   1      -2.629   0.692   0.015  0.00  0.00     0.001 A 
ENDROOT
BRANCH   1  12
ATOM     12  C   UNL d   1       3.365   0.032  -0.121  0.00  0.00     0.146 C 
BRANCH  12  13
ATOM     13  C   UNL d   1       3.920  -0.651  -1.367  0.00  0.00     0.130 C 
BRANCH  13  14
ATOM     14  C   UNL d   1       5.424  -0.618  -1.371  0.00  0.00     0.141 C 
ATOM     15  O   UNL d   1       6.119  -0.080  -0.524  0.00  0.00    -0.650 OA
BRANCH  14  16
ATOM     16  O   UNL d   1       5.952  -1.258  -2.441  0.00  0.00    -0.776 OA
ATOM     17  H   UNL d   1       5.287  -1.659  -3.033  0.00  0.00     0.167 HD
ENDBRANCH  14  16
ENDBRANCH  13  14
ENDBRANCH  12  13
ENDBRANCH   1  12
TORSDOF 4
