REMARK  4 active torsions:
REMARK  status: ('A' for Active; 'I' for Inactive)
REMARK    1  A    between atoms: S_5  and  C_1 
REMARK       I    between atoms: C_2  and  N_4 
REMARK       I    between atoms: N_6  and  C_2 
REMARK    2  A    between atoms: N_4  and  C_3 
REMARK    3  A    between atoms: C_18  and  S_5 
REMARK    4  A    between atoms: C_9  and  N_6 
ROOT
ATOM      1  C   UNL d   1       3.051   3.549  -0.379  0.00  0.00     0.325 C 
ATOM      2  N   UNL d   1       1.827   2.938  -0.390  0.00  0.00    -0.307 N 
ATOM      3  N   UNL d   1       3.112   4.747   0.282  0.00  0.00    -0.309 N 
ATOM      4  O   UNL d   1       4.050   3.151  -0.976  0.00  0.00    -0.247 OA
ATOM      5  H   UNL d   1       1.031   3.557  -0.288  0.00  0.00     0.170 HD
ATOM      6  H   UNL d   1       3.920   5.292   0.006  0.00  0.00     0.170 HD
ENDROOT
BRANCH   2   7
ATOM      7  C   UNL d   1       1.516   1.603  -0.750  0.00  0.00     0.054 A 
ATOM      8  C   UNL d   1       0.152   1.246  -0.957  0.00  0.00     0.049 A 
ATOM      9  C   UNL d   1      -0.152  -0.124  -1.091  0.00  0.00     0.053 A 
ATOM     10 CL   UNL d   1      -1.761  -0.760  -1.108  0.00  0.00    -0.083 Cl
ATOM     11  C   UNL d   1       0.869  -1.084  -1.139  0.00  0.00     0.025 A 
ATOM     12  C   UNL d   1       2.200  -0.709  -1.010  0.00  0.00     0.004 A 
ATOM     13  C   UNL d   1       2.521   0.627  -0.795  0.00  0.00     0.031 A 
BRANCH   8  14
ATOM     14  S   UNL d   1      -1.051   2.605  -0.941  0.00  0.00    -0.122 SA
BRANCH  14  15
ATOM     15  C   UNL d   1      -2.282   2.245  -2.272  0.00  0.00     0.044 C 
ATOM     16  C   UNL d   1      -3.110   3.519  -2.479  0.00  0.00     0.021 C 
ATOM     17  C   UNL d   1      -1.691   1.813  -3.611  0.00  0.00     0.021 C 
ENDBRANCH  14  15
ENDBRANCH   8  14
ENDBRANCH   2   7
BRANCH   3  18
ATOM     18  C   UNL d   1       2.390   5.213   1.397  0.00  0.00     0.036 A 
ATOM     19  C   UNL d   1       1.629   4.384   2.229  0.00  0.00     0.031 A 
ATOM     20  C   UNL d   1       0.988   4.907   3.357  0.00  0.00     0.026 A 
ATOM     21  C   UNL d   1       1.105   6.261   3.658  0.00  0.00     0.034 A 
ATOM     22  C   UNL d   1       1.869   7.095   2.846  0.00  0.00     0.026 A 
ATOM     23 CL   UNL d   1       0.320   6.903   5.046  0.00  0.00    -0.084 Cl
ATOM     24  C   UNL d   1       2.521   6.567   1.726  0.00  0.00     0.031 A 
ENDBRANCH   3  18
TORSDOF 4
