REMARK  2 active torsions:
REMARK  status: ('A' for Active; 'I' for Inactive)
REMARK       I    between atoms: N_2  and  C_1 
REMARK    1  A    between atoms: C_4  and  C_1 
REMARK    2  A    between atoms: C_8  and  N_3 
ROOT
ATOM      1  N   UNL d   1      -4.042   7.997  -5.463  0.00  0.00    -0.191 NA
ATOM      2  C   UNL d   1      -3.407   7.253  -4.832  0.00  0.00     0.099 C 
ATOM      3  C   UNL d   1      -1.085   4.524  -2.510  0.00  0.00     0.030 A 
ATOM      4  C   UNL d   1      -0.497   5.348  -3.479  0.00  0.00     0.031 A 
ATOM      5  C   UNL d   1      -2.475   4.636  -2.342  0.00  0.00     0.031 A 
ATOM      6  C   UNL d   1      -2.629   6.337  -4.055  0.00  0.00     0.044 A 
ATOM      7  C   UNL d   1      -3.242   5.528  -3.101  0.00  0.00     0.025 A 
ATOM      8  C   UNL d   1      -1.251   6.247  -4.242  0.00  0.00     0.025 A 
ENDROOT
BRANCH   3   9
ATOM      9  N   UNL d   1      -0.318   3.675  -1.742  0.00  0.00    -0.378 N 
ATOM     10  C   UNL d   1      -0.695   3.300  -0.378  0.00  0.00     0.143 C 
ATOM     11  C   UNL d   1      -0.989   1.797  -0.297  0.00  0.00     0.146 C 
ATOM     12  N   UNL d   1       0.119   0.991  -0.835  0.00  0.00    -0.344 N 
ATOM     13  C   UNL d   1       0.848   0.013  -0.144  0.00  0.00     0.260 C 
ATOM     14  C   UNL d   1       0.546   1.391  -2.187  0.00  0.00     0.146 C 
ATOM     15  O   UNL d   1       1.883  -0.439  -0.638  0.00  0.00    -0.267 OA
ATOM     16  C   UNL d   1       0.816   2.910  -2.298  0.00  0.00     0.143 C 
BRANCH  13  17
ATOM     17  C   UNL d   1       0.358  -0.434   1.159  0.00  0.00     0.072 C 
ATOM     18  S   UNL d   1       1.505  -0.869   2.365  0.00  0.00    -0.097 SA
ATOM     19  C   UNL d   1       0.285  -1.132   3.534  0.00  0.00     0.050 C 
ATOM     20  C   UNL d   1      -0.975  -0.945   3.015  0.00  0.00     0.009 C 
ATOM     21  C   UNL d   1      -0.932  -0.628   1.627  0.00  0.00     0.025 C 
ENDBRANCH  13  17
ENDBRANCH   3   9
TORSDOF 2
