REMARK  5 active torsions:
REMARK  status: ('A' for Active; 'I' for Inactive)
REMARK    1  A    between atoms: C_4  and  N_1 
REMARK    2  A    between atoms: C_2  and  C_3 
REMARK       I    between atoms: C_3  and  N_10 
REMARK    3  A    between atoms: N_10  and  N_5 
REMARK    4  A    between atoms: N_15  and  C_9 
REMARK    5  A    between atoms: C_13  and  C_14 
ROOT
ATOM      1  C   UNL d   1      -1.218   6.048   0.144  0.00  0.00     0.271 C 
ATOM      2  N   UNL d   1      -1.906   4.845   0.128  0.00  0.00    -0.266 N 
ATOM      3  O   UNL d   1       0.007   6.153   0.223  0.00  0.00    -0.266 OA
ATOM      4  H   UNL d   1      -2.923   4.839   0.190  0.00  0.00     0.190 HD
ENDROOT
BRANCH   2   5
ATOM      5  N   UNL d   1      -1.198   3.683   0.090  0.00  0.00    -0.308 N 
ATOM      6  C   UNL d   1      -1.863   2.575   0.033  0.00  0.00     0.118 C 
ATOM      7  HN  UNL d   1      -0.178   3.686   0.105  1.00  0.00     0.186 HD
BRANCH   6   8
ATOM      8  C   UNL d   1      -1.147   1.277   0.011  0.00  0.00    -0.017 A 
ATOM      9  C   UNL d   1      -1.869   0.082  -0.059  0.00  0.00     0.048 A 
ATOM     10  C   UNL d   1      -1.168  -1.137  -0.068  0.00  0.00     0.103 A 
ATOM     11  C   UNL d   1       0.232  -1.166  -0.009  0.00  0.00     0.036 A 
ATOM     12  C   UNL d   1       0.940   0.033   0.059  0.00  0.00     0.003 A 
ATOM     13  C   UNL d   1       0.254   1.249   0.069  0.00  0.00     0.013 A 
BRANCH  10  14
ATOM     14  N   UNL d   1      -1.911  -2.403  -0.137  0.00  0.00    -0.116 N 
ATOM     15  O   UNL d   1      -3.146  -2.340  -0.180  0.00  0.00    -0.532 OA
ATOM     16  O   UNL d   1      -1.259  -3.458  -0.147  0.00  0.00    -0.532 OA
ENDBRANCH  10  14
ENDBRANCH   6   8
ENDBRANCH   2   5
BRANCH   1  17
ATOM     17  C   UNL d   1      -2.041   7.289   0.045  0.00  0.00     0.054 A 
ATOM     18  C   UNL d   1      -3.243   7.366  -0.689  0.00  0.00     0.021 A 
ATOM     19  C   UNL d   1      -3.916   8.600  -0.735  0.00  0.00     0.024 A 
ATOM     20  C   UNL d   1      -3.372   9.746  -0.146  0.00  0.00     0.002 A 
ATOM     21  C   UNL d   1      -2.174   9.667   0.554  0.00  0.00     0.001 A 
ATOM     22  C   UNL d   1      -1.512   8.444   0.650  0.00  0.00     0.019 A 
BRANCH  18  23
ATOM     23  N   UNL d   1      -3.890   6.230  -1.230  0.00  0.00    -0.302 NA
ATOM     24  H   UNL d   1      -3.221   5.573  -1.634  0.00  0.00     0.124 HD
ATOM     25  H   UNL d   1      -4.593   6.480  -1.924  0.00  0.00     0.124 HD
ENDBRANCH  18  23
ENDBRANCH   1  17
TORSDOF 5
