REMARK  2 active torsions:
REMARK  status: ('A' for Active; 'I' for Inactive)
REMARK    1  A    between atoms: C_10  and  C_4 
REMARK    2  A    between atoms: C_12  and  C_13 
ROOT
ATOM      1  N   UNL d   1       1.979   0.083   0.997  0.00  0.00    -0.335 N 
ATOM      2  HN  UNL d   1       2.638   0.292   1.747  1.00  0.00     0.168 HD
ATOM      3  C   UNL d   1      -0.181   0.365  -0.056  0.00  0.00     0.067 A 
ATOM      4  C   UNL d   1       2.291  -0.726   0.039  0.00  0.00     0.162 A 
ATOM      5  C   UNL d   1       0.707   0.660   0.971  0.00  0.00     0.056 A 
ATOM      6  C   UNL d   1       0.266  -0.549  -1.112  0.00  0.00     0.302 A 
ATOM      7  O   UNL d   1       1.510  -1.064  -1.007  0.00  0.00    -0.257 OA
ATOM      8  C   UNL d   1       0.298   1.538   1.988  0.00  0.00    -0.034 A 
ATOM      9  C   UNL d   1      -1.470   0.912  -0.094  0.00  0.00     0.026 A 
ATOM     10  O   UNL d   1      -0.468  -0.835  -2.051  0.00  0.00    -0.259 OA
ATOM     11  C   UNL d   1      -0.999   2.087   1.951  0.00  0.00     0.015 A 
ATOM     12  C   UNL d   1      -1.890   1.778   0.917  0.00  0.00    -0.060 A 
ATOM     13  C   UNL d   1       1.199   1.916   3.131  0.00  0.00     0.050 C 
ATOM     14  C   UNL d   1      -3.275   2.352   0.882  0.00  0.00     0.048 C 
ENDROOT
BRANCH   4  15
ATOM     15  C   UNL d   1       3.597  -1.434  -0.040  0.00  0.00     0.015 A 
ATOM     16  C   UNL d   1       4.538  -1.256   0.976  0.00  0.00     0.016 A 
ATOM     17  C   UNL d   1       5.761  -1.940   0.937  0.00  0.00     0.009 A 
ATOM     18  C   UNL d   1       6.080  -2.821  -0.116  0.00  0.00    -0.051 A 
ATOM     19  C   UNL d   1       5.127  -2.975  -1.133  0.00  0.00     0.009 A 
ATOM     20  C   UNL d   1       3.904  -2.294  -1.099  0.00  0.00     0.016 A 
BRANCH  18  21
ATOM     21  C   UNL d   1       7.423  -3.574  -0.123  0.00  0.00    -0.024 C 
ATOM     22  C   UNL d   1       7.603  -4.510  -1.341  0.00  0.00     0.019 C 
ATOM     23  C   UNL d   1       8.588  -2.563  -0.147  0.00  0.00     0.019 C 
ATOM     24  C   UNL d   1       7.535  -4.450   1.143  0.00  0.00     0.019 C 
ENDBRANCH  18  21
ENDBRANCH   4  15
TORSDOF 2
