REMARK  5 active torsions:
REMARK  status: ('A' for Active; 'I' for Inactive)
REMARK    1  A    between atoms: C_10  and  C_3 
REMARK    2  A    between atoms: C_9  and  C_4 
REMARK    3  A    between atoms: N_7  and  C_9 
REMARK    4  A    between atoms: C_11  and  N_8 
REMARK    5  A    between atoms: C_16  and  C_11 
ROOT
ATOM      1  C   UNL d   1      -0.634  -2.407   0.177  0.00  0.00     0.330 C 
ENDROOT
BRANCH   1   2
ATOM      2  N   UNL d   1      -2.101  -2.562   0.034  0.00  0.00     0.097 N 
ATOM      3  C   UNL d   1      -2.631  -1.890  -1.175  0.00  0.00     0.303 C 
ATOM      4  C   UNL d   1      -2.596  -0.344  -1.125  0.00  0.00     0.303 C 
ATOM      5  N   UNL d   1      -3.261   0.253   0.054  0.00  0.00     0.096 N 
ATOM      6  C   UNL d   1      -2.828  -0.449   1.281  0.00  0.00     0.303 C 
ATOM      7  C   UNL d   1      -2.799  -1.997   1.208  0.00  0.00     0.303 C 
BRANCH   5   8
ATOM      8  C   UNL d   1      -4.724   0.277  -0.114  0.00  0.00     0.311 C 
BRANCH   8   9
ATOM      9  C   UNL d   1      -5.431   1.070   0.969  0.00  0.00    -0.030 A 
ATOM     10  C   UNL d   1      -5.097   2.412   1.208  0.00  0.00     0.009 A 
ATOM     11  C   UNL d   1      -5.703   3.121   2.247  0.00  0.00     0.001 A 
ATOM     12  C   UNL d   1      -6.657   2.500   3.049  0.00  0.00     0.000 A 
ATOM     13  C   UNL d   1      -7.018   1.176   2.805  0.00  0.00     0.001 A 
ATOM     14  C   UNL d   1      -6.413   0.465   1.767  0.00  0.00     0.009 A 
ENDBRANCH   8   9
ENDBRANCH   5   8
ENDBRANCH   1   2
BRANCH   1  15
ATOM     15  C   UNL d   1       0.097  -3.106  -0.931  0.00  0.00     0.054 A 
ATOM     16  N   UNL d   1       0.340  -2.457  -2.122  0.00  0.00    -0.343 N 
ATOM     17  C   UNL d   1       0.890  -3.340  -2.936  0.00  0.00     0.115 A 
ATOM     18  HN  UNL d   1       0.134  -1.481  -2.334  1.00  0.00     0.167 HD
ATOM     19  N   UNL d   1       1.121  -4.511  -2.252  0.00  0.00    -0.350 N 
ATOM     20  C   UNL d   1       0.613  -4.383  -0.987  0.00  0.00     0.116 A 
ATOM     21  H   UNL d   1       1.557  -5.336  -2.632  0.00  0.00     0.166 HD
BRANCH  17  22
ATOM     22  C   UNL d   1       1.169  -3.108  -4.357  0.00  0.00     0.008 A 
ATOM     23  C   UNL d   1       1.011  -1.811  -4.870  0.00  0.00     0.015 A 
ATOM     24  C   UNL d   1       1.194  -1.539  -6.226  0.00  0.00     0.001 A 
ATOM     25  C   UNL d   1       1.543  -2.569  -7.097  0.00  0.00     0.000 A 
ATOM     26  C   UNL d   1       1.716  -3.862  -6.605  0.00  0.00     0.001 A 
ATOM     27  C   UNL d   1       1.531  -4.133  -5.245  0.00  0.00     0.015 A 
ENDBRANCH  17  22
ENDBRANCH   1  15
TORSDOF 5
