REMARK  3 active torsions:
REMARK  status: ('A' for Active; 'I' for Inactive)
REMARK    1  A    between atoms: C_9  and  C_1 
REMARK       I    between atoms: C_6  and  N_8 
REMARK       I    between atoms: N_7  and  C_6 
REMARK    2  A    between atoms: C_11  and  N_7 
REMARK    3  A    between atoms: N_8  and  C_9 
ROOT
ATOM      1  C   UNL d   1       5.472   1.581  -0.502  0.00  0.00     0.321 C 
ATOM      2  N   UNL d   1       5.927   2.859  -0.734  0.00  0.00    -0.309 N 
ATOM      3  N   UNL d   1       4.102   1.519  -0.378  0.00  0.00    -0.338 N 
ATOM      4  O   UNL d   1       6.164   0.575  -0.407  0.00  0.00    -0.247 OA
ATOM      5  H   UNL d   1       5.221   3.572  -0.843  0.00  0.00     0.170 HD
ATOM      6  H   UNL d   1       3.543   2.354  -0.318  0.00  0.00     0.164 HD
ENDROOT
BRANCH   3   7
ATOM      7  C   UNL d   1       3.515   0.251  -0.006  0.00  0.00     0.171 C 
BRANCH   7   8
ATOM      8  C   UNL d   1       2.044   0.379   0.241  0.00  0.00     0.008 A 
ATOM      9  S   UNL d   1       1.498   0.748   1.819  0.00  0.00    -0.092 SA
ATOM     10  C   UNL d   1      -0.146   0.469   1.413  0.00  0.00     0.016 A 
ATOM     11  C   UNL d   1      -1.253   0.507   2.286  0.00  0.00     0.019 A 
ATOM     12  C   UNL d   1      -0.289   0.175   0.056  0.00  0.00    -0.012 A 
ATOM     13  C   UNL d   1      -2.525   0.226   1.783  0.00  0.00     0.001 A 
ATOM     14  C   UNL d   1      -2.698  -0.070   0.439  0.00  0.00     0.001 A 
ATOM     15  C   UNL d   1      -1.599  -0.091  -0.424  0.00  0.00     0.013 A 
ATOM     16  C   UNL d   1       0.988   0.167  -0.633  0.00  0.00    -0.036 A 
ATOM     17  C   UNL d   1       1.125  -0.127  -2.094  0.00  0.00     0.050 C 
ENDBRANCH   7   8
ENDBRANCH   3   7
BRANCH   2  18
ATOM     18  C   UNL d   1       7.274   3.281  -0.837  0.00  0.00     0.037 A 
ATOM     19  C   UNL d   1       8.374   2.426  -0.695  0.00  0.00     0.053 A 
ATOM     20  C   UNL d   1       9.675   2.929  -0.776  0.00  0.00     0.036 A 
ATOM     21 CL   UNL d   1      11.018   1.868  -0.585  0.00  0.00    -0.084 Cl
ATOM     22  C   UNL d   1       9.901   4.285  -1.004  0.00  0.00     0.024 A 
ATOM     23  C   UNL d   1       8.815   5.144  -1.160  0.00  0.00     0.004 A 
ATOM     24  C   UNL d   1       7.510   4.642  -1.075  0.00  0.00     0.029 A 
ENDBRANCH   2  18
TORSDOF 3
