REMARK  5 active torsions:
REMARK  status: ('A' for Active; 'I' for Inactive)
REMARK    1  A    between atoms: C_2  and  C_1 
REMARK    2  A    between atoms: S_14  and  C_7 
REMARK    3  A    between atoms: C_13  and  C_18 
REMARK       I    between atoms: N_15  and  C_13 
REMARK    4  A    between atoms: C_18  and  S_14 
REMARK    5  A    between atoms: C_19  and  N_15 
ROOT
ATOM      1  C   UNL d   1      -1.508   2.367   1.807  0.00  0.00     0.197 C 
ATOM      2  S   UNL d   1      -0.711   3.947   1.441  0.00  0.00    -0.076 SA
ATOM      3  C   UNL d   1      -2.196   4.348   0.610  0.00  0.00     0.120 C 
ATOM      4  N   UNL d   1      -2.451   2.191   0.696  0.00  0.00    -0.219 NA
ATOM      5  N   UNL d   1      -2.992   3.377   0.277  0.00  0.00    -0.308 N 
ATOM      6  HN  UNL d   1      -3.879   3.481  -0.217  1.00  0.00     0.182 HD
ATOM      7  H   UNL d   1      -3.165   1.504   0.944  0.00  0.00     0.148 HD
ENDROOT
BRANCH   3   8
ATOM      8  S   UNL d   1      -2.631   6.016   0.445  0.00  0.00    -0.095 SA
BRANCH   8   9
ATOM      9  C   UNL d   1      -4.278   5.905   1.219  0.00  0.00     0.184 C 
BRANCH   9  10
ATOM     10  C   UNL d   1      -4.238   5.336   2.636  0.00  0.00     0.231 C 
ATOM     11  N   UNL d   1      -3.224   5.851   3.429  0.00  0.00    -0.327 N 
ATOM     12  H   UNL d   1      -2.627   6.550   3.000  0.00  0.00     0.169 HD
ATOM     13  O   UNL d   1      -5.109   4.554   3.009  0.00  0.00    -0.272 OA
BRANCH  11  14
ATOM     14  C   UNL d   1      -2.979   5.572   4.791  0.00  0.00     0.034 A 
ATOM     15  C   UNL d   1      -3.634   4.572   5.512  0.00  0.00     0.029 A 
ATOM     16  C   UNL d   1      -3.384   4.396   6.876  0.00  0.00     0.002 A 
ATOM     17  C   UNL d   1      -2.471   5.216   7.535  0.00  0.00     0.000 A 
ATOM     18  C   UNL d   1      -1.786   6.195   6.817  0.00  0.00     0.002 A 
ATOM     19  C   UNL d   1      -2.031   6.365   5.454  0.00  0.00     0.029 A 
ENDBRANCH  11  14
ENDBRANCH   9  10
ENDBRANCH   8   9
ENDBRANCH   3   8
BRANCH   1  20
ATOM     20  C   UNL d   1      -0.639   1.174   1.989  0.00  0.00     0.078 A 
ATOM     21  C   UNL d   1       0.338   0.588   1.144  0.00  0.00     0.077 A 
ATOM     22  C   UNL d   1       0.766  -0.538   1.808  0.00  0.00     0.135 A 
ATOM     23 CL   UNL d   1       0.858   1.121  -0.378  0.00  0.00    -0.081 Cl
ATOM     24  N   UNL d   1       0.054  -0.580   2.967  0.00  0.00    -0.306 N 
ATOM     25  N   UNL d   1      -0.801   0.441   3.108  0.00  0.00    -0.299 N 
ATOM     26  C   UNL d   1       0.098  -1.607   3.981  0.00  0.00     0.177 C 
ATOM     27  HN  UNL d   1      -1.434   0.623   3.887  1.00  0.00     0.187 HD
ENDBRANCH   1  20
TORSDOF 5
