REMARK  6 active torsions:
REMARK  status: ('A' for Active; 'I' for Inactive)
REMARK    1  A    between atoms: C_5  and  C_1 
REMARK    2  A    between atoms: C_18  and  C_2 
REMARK    3  A    between atoms: C_4  and  O_17 
REMARK       I    between atoms: N_8  and  C_4 
REMARK    4  A    between atoms: C_6  and  N_8 
REMARK    5  A    between atoms: C_19  and  C_7 
REMARK    6  A    between atoms: O_17  and  C_19 
ROOT
ATOM      1  C   UNL d   1      -5.738   0.583   0.254  0.00  0.00     0.226 C 
ENDROOT
BRANCH   1   2
ATOM      2  O   UNL d   1      -6.170   0.843   1.597  0.00  0.00    -0.299 OA
BRANCH   2   3
ATOM      3  C   UNL d   1      -6.477   2.132   1.875  0.00  0.00     0.365 C 
ATOM      4  N   UNL d   1      -7.098   2.365   3.076  0.00  0.00    -0.303 N 
ATOM      5  H   UNL d   1      -7.288   3.354   3.184  0.00  0.00     0.171 HD
ATOM      6  O   UNL d   1      -6.271   3.078   1.118  0.00  0.00    -0.238 OA
BRANCH   4   7
ATOM      7  C   UNL d   1      -7.645   1.504   4.046  0.00  0.00     0.040 A 
ATOM      8  C   UNL d   1      -7.547   0.113   4.020  0.00  0.00     0.053 A 
ATOM      9  C   UNL d   1      -8.240  -0.658   4.960  0.00  0.00     0.037 A 
ATOM     10 CL   UNL d   1      -8.163  -2.377   4.867  0.00  0.00    -0.084 Cl
ATOM     11  C   UNL d   1      -9.010  -0.061   5.951  0.00  0.00     0.048 A 
ATOM     12  C   UNL d   1      -9.063   1.326   6.014  0.00  0.00     0.037 A 
ATOM     13  C   UNL d   1      -8.386   2.107   5.074  0.00  0.00     0.053 A 
ATOM     14 CL   UNL d   1      -9.993   2.087   7.246  0.00  0.00    -0.084 Cl
ENDBRANCH   4   7
ENDBRANCH   2   3
ENDBRANCH   1   2
BRANCH   1  15
ATOM     15  C   UNL d   1      -4.384  -0.057   0.294  0.00  0.00     0.008 A 
ATOM     16  S   UNL d   1      -2.976   0.919   0.385  0.00  0.00    -0.084 SA
ATOM     17  C   UNL d   1      -1.943  -0.425   0.207  0.00  0.00     0.059 A 
ATOM     18  C   UNL d   1      -2.646  -1.607   0.130  0.00  0.00     0.029 A 
ATOM     19  C   UNL d   1      -4.057  -1.397   0.194  0.00  0.00     0.019 A 
BRANCH  17  20
ATOM     20  C   UNL d   1      -0.519  -0.313   0.135  0.00  0.00    -0.054 C 
ATOM     21  C   UNL d   1       0.676  -0.215   0.076  0.00  0.00    -0.061 C 
BRANCH  21  22
ATOM     22  C   UNL d   1       2.102  -0.105   0.031  0.00  0.00     0.018 A 
ATOM     23  C   UNL d   1       2.712   1.152   0.026  0.00  0.00     0.020 A 
ATOM     24  C   UNL d   1       4.105   1.253   0.021  0.00  0.00     0.001 A 
ATOM     25  C   UNL d   1       4.889   0.100   0.018  0.00  0.00     0.000 A 
ATOM     26  C   UNL d   1       4.282  -1.156   0.011  0.00  0.00     0.001 A 
ATOM     27  C   UNL d   1       2.890  -1.259   0.016  0.00  0.00     0.020 A 
ENDBRANCH  21  22
ENDBRANCH  17  20
ENDBRANCH   1  15
TORSDOF 6
