REMARK  7 active torsions:
REMARK  status: ('A' for Active; 'I' for Inactive)
REMARK    1  A    between atoms: C_4  and  C_1 
REMARK    2  A    between atoms: C_19  and  C_2 
REMARK    3  A    between atoms: C_5  and  O_10 
REMARK    4  A    between atoms: C_9  and  C_5 
REMARK    5  A    between atoms: C_18  and  C_6 
REMARK    6  A    between atoms: O_10  and  C_18 
REMARK    7  A    between atoms: C_11  and  C_12 
ROOT
ATOM      1  C   UNL d   1      -6.194  -1.534   0.008  0.00  0.00     0.225 C 
ENDROOT
BRANCH   1   2
ATOM      2  O   UNL d   1      -6.736  -0.204  -0.074  0.00  0.00    -0.312 OA
BRANCH   2   3
ATOM      3  C   UNL d   1      -8.077  -0.089   0.112  0.00  0.00     0.293 C 
ATOM      4  O   UNL d   1      -8.850  -1.006   0.340  0.00  0.00    -0.259 OA
BRANCH   3   5
ATOM      5  C   UNL d   1      -8.519   1.331  -0.003  0.00  0.00     0.039 A 
ATOM      6  C   UNL d   1      -9.886   1.631   0.065  0.00  0.00     0.018 A 
ATOM      7  C   UNL d   1     -10.343   2.952  -0.089  0.00  0.00     0.009 A 
ATOM      8  C   UNL d   1      -9.447   4.016  -0.306  0.00  0.00    -0.051 A 
ATOM      9  C   UNL d   1      -8.077   3.695  -0.328  0.00  0.00     0.009 A 
ATOM     10  C   UNL d   1      -7.617   2.378  -0.187  0.00  0.00     0.018 A 
BRANCH   8  11
ATOM     11  C   UNL d   1      -9.957   5.454  -0.546  0.00  0.00    -0.024 C 
ATOM     12  C   UNL d   1      -8.805   6.465  -0.758  0.00  0.00     0.019 C 
ATOM     13  C   UNL d   1     -10.847   5.497  -1.808  0.00  0.00     0.019 C 
ATOM     14  C   UNL d   1     -10.792   5.962   0.648  0.00  0.00     0.019 C 
ENDBRANCH   8  11
ENDBRANCH   3   5
ENDBRANCH   2   3
ENDBRANCH   1   2
BRANCH   1  15
ATOM     15  C   UNL d   1      -5.518  -1.851  -1.295  0.00  0.00     0.008 A 
ATOM     16  S   UNL d   1      -6.430  -1.898  -2.748  0.00  0.00    -0.084 SA
ATOM     17  C   UNL d   1      -5.071  -2.347  -3.677  0.00  0.00     0.059 A 
ATOM     18  C   UNL d   1      -3.940  -2.473  -2.902  0.00  0.00     0.029 A 
ATOM     19  C   UNL d   1      -4.197  -2.188  -1.526  0.00  0.00     0.019 A 
BRANCH  17  20
ATOM     20  C   UNL d   1      -5.129  -2.562  -5.086  0.00  0.00    -0.054 C 
ATOM     21  C   UNL d   1      -5.185  -2.728  -6.272  0.00  0.00    -0.061 C 
BRANCH  21  22
ATOM     22  C   UNL d   1      -5.244  -2.904  -7.691  0.00  0.00     0.018 A 
ATOM     23  C   UNL d   1      -6.456  -2.751  -8.369  0.00  0.00     0.020 A 
ATOM     24  C   UNL d   1      -6.503  -2.904  -9.756  0.00  0.00     0.001 A 
ATOM     25  C   UNL d   1      -5.342  -3.211 -10.465  0.00  0.00     0.000 A 
ATOM     26  C   UNL d   1      -4.133  -3.369  -9.788  0.00  0.00     0.001 A 
ATOM     27  C   UNL d   1      -4.084  -3.216  -8.402  0.00  0.00     0.020 A 
ENDBRANCH  21  22
ENDBRANCH  17  20
ENDBRANCH   1  15
TORSDOF 7
