REMARK  4 active torsions:
REMARK  status: ('A' for Active; 'I' for Inactive)
REMARK    1  A    between atoms: S_12  and  C_1 
REMARK    2  A    between atoms: C_7  and  C_6 
REMARK    3  A    between atoms: C_11  and  C_7 
REMARK    4  A    between atoms: C_8  and  S_12 
ROOT
ATOM      1  C   UNL d   1       1.961  -5.242  -0.014  0.00  0.00     0.063 C 
ATOM      2  C   UNL d   1       1.616  -3.951  -0.150  0.00  0.00     0.057 C 
ENDROOT
BRANCH   2   3
ATOM      3  S   UNL d   1      -0.056  -3.479  -0.043  0.00  0.00    -0.066 SA
BRANCH   3   4
ATOM      4  C   UNL d   1       0.007  -1.705  -0.235  0.00  0.00     0.148 A 
ATOM      5  N   UNL d   1       0.962  -1.153  -1.005  0.00  0.00    -0.341 N 
ATOM      6  C   UNL d   1       0.942   0.190  -1.136  0.00  0.00     0.009 A 
ATOM      7  HN  UNL d   1       1.670  -1.723  -1.467  1.00  0.00     0.167 HD
ATOM      8  C   UNL d   1       2.002   0.823  -1.988  0.00  0.00     0.068 C 
ATOM      9  C   UNL d   1      -0.009   0.983  -0.521  0.00  0.00     0.049 A 
ATOM     10  C   UNL d   1      -0.957   0.333   0.242  0.00  0.00     0.009 A 
ATOM     11  N   UNL d   1      -0.964  -1.010   0.388  0.00  0.00    -0.341 N 
ATOM     12  C   UNL d   1      -2.029   1.110   0.941  0.00  0.00     0.068 C 
ATOM     13  HN  UNL d   1      -1.676  -1.479   0.947  1.00  0.00     0.167 HD
ENDBRANCH   3   4
ENDBRANCH   2   3
BRANCH   1  14
ATOM     14  C   UNL d   1       3.377  -5.694  -0.097  0.00  0.00     0.182 C 
ATOM     15  O   UNL d   1       4.241  -5.012  -0.644  0.00  0.00    -0.288 OA
BRANCH  14  16
ATOM     16  C   UNL d   1       3.737  -7.021   0.488  0.00  0.00     0.014 A 
ATOM     17  C   UNL d   1       4.804  -7.738  -0.075  0.00  0.00     0.017 A 
ATOM     18  C   UNL d   1       5.249  -8.929   0.507  0.00  0.00     0.025 A 
ATOM     19  C   UNL d   1       4.639  -9.403   1.666  0.00  0.00     0.034 A 
ATOM     20  C   UNL d   1       3.563  -8.713   2.224  0.00  0.00     0.025 A 
ATOM     21 CL   UNL d   1       5.219 -10.837   2.419  0.00  0.00    -0.084 Cl
ATOM     22  C   UNL d   1       3.103  -7.529   1.631  0.00  0.00     0.017 A 
ENDBRANCH  14  16
ENDBRANCH   1  14
TORSDOF 4
