REMARK  2 active torsions:
REMARK  status: ('A' for Active; 'I' for Inactive)
REMARK    1  A    between atoms: C_11  and  C_1 
REMARK       I    between atoms: C_5  and  N_3 
REMARK    2  A    between atoms: C_8  and  C_5 
ROOT
ATOM      1  C   UNL d   1      -0.638  -1.520  -0.311  0.00  0.00     0.140 C 
ATOM      2  N   UNL d   1      -1.357  -0.480  -1.084  0.00  0.00    -0.216 NA
ATOM      3  N   UNL d   1      -1.508  -1.738   0.871  0.00  0.00    -0.217 NA
ATOM      4  C   UNL d   1      -0.492   0.518  -1.525  0.00  0.00     0.236 C 
ATOM      5  C   UNL d   1      -2.507  -2.759   0.762  0.00  0.00     0.256 C 
ATOM      6  C   UNL d   1       0.666  -0.780   0.001  0.00  0.00     0.001 A 
ATOM      7  C   UNL d   1       0.773   0.343  -0.821  0.00  0.00     0.036 A 
ATOM      8  C   UNL d   1      -2.482   0.025  -0.304  0.00  0.00     0.116 C 
ATOM      9  C   UNL d   1      -2.139  -0.441   1.114  0.00  0.00     0.116 C 
ATOM     10  O   UNL d   1      -0.768   1.496  -2.197  0.00  0.00    -0.274 OA
ATOM     11  O   UNL d   1      -2.929  -3.122  -0.343  0.00  0.00    -0.275 OA
ATOM     12  C   UNL d   1       1.703  -1.071   0.876  0.00  0.00     0.012 A 
ATOM     13  C   UNL d   1       1.851   1.210  -0.805  0.00  0.00     0.017 A 
ATOM     14  C   UNL d   1       2.816  -0.218   0.903  0.00  0.00     0.001 A 
ATOM     15  C   UNL d   1       2.890   0.914   0.070  0.00  0.00     0.001 A 
ENDROOT
BRANCH   1  16
ATOM     16  C   UNL d   1      -0.254  -2.801  -1.077  0.00  0.00    -0.015 A 
ATOM     17  C   UNL d   1      -0.314  -2.885  -2.478  0.00  0.00     0.011 A 
ATOM     18  C   UNL d   1       0.079  -4.051  -3.144  0.00  0.00     0.001 A 
ATOM     19  C   UNL d   1       0.537  -5.154  -2.426  0.00  0.00     0.000 A 
ATOM     20  C   UNL d   1       0.610  -5.094  -1.038  0.00  0.00     0.001 A 
ATOM     21  C   UNL d   1       0.227  -3.929  -0.371  0.00  0.00     0.011 A 
ENDBRANCH   1  16
BRANCH   5  22
ATOM     22  C   UNL d   1      -3.139  -3.302   2.075  0.00  0.00     0.264 C 
ATOM     23 CL   UNL d   1      -2.115  -2.989   3.497  0.00  0.00    -0.074 Cl
ATOM     24 CL   UNL d   1      -4.741  -2.535   2.285  0.00  0.00    -0.074 Cl
ATOM     25 CL   UNL d   1      -3.363  -5.070   1.910  0.00  0.00    -0.074 Cl
ENDBRANCH   5  22
TORSDOF 2
