REMARK  5 active torsions:
REMARK  status: ('A' for Active; 'I' for Inactive)
REMARK       I    between atoms: N_2  and  C_1 
REMARK    1  A    between atoms: C_3  and  C_1 
REMARK    2  A    between atoms: C_6  and  N_2 
REMARK    3  A    between atoms: C_4  and  C_5 
REMARK    4  A    between atoms: O_10  and  C_4 
REMARK    5  A    between atoms: C_9  and  C_6 
ROOT
ATOM      1  C   UNL d   1       0.879  -0.159  -0.469  0.00  0.00     0.241 C 
ATOM      2  N   UNL d   1       0.318  -1.063   0.397  0.00  0.00    -0.349 N 
ATOM      3  O   UNL d   1       1.969  -0.275  -1.010  0.00  0.00    -0.269 OA
ATOM      4  H   UNL d   1      -0.530  -0.818   0.888  0.00  0.00     0.163 HD
ENDROOT
BRANCH   2   5
ATOM      5  C   UNL d   1       1.017  -2.260   0.834  0.00  0.00     0.114 C 
ATOM      6  C   UNL d   1       0.022  -3.411   1.002  0.00  0.00     0.037 C 
BRANCH   5   7
ATOM      7  C   UNL d   1       1.789  -2.000   2.115  0.00  0.00    -0.036 A 
ATOM      8  C   UNL d   1       1.145  -1.617   3.304  0.00  0.00     0.009 A 
ATOM      9  C   UNL d   1       1.876  -1.395   4.473  0.00  0.00     0.001 A 
ATOM     10  C   UNL d   1       3.260  -1.550   4.471  0.00  0.00     0.000 A 
ATOM     11  C   UNL d   1       3.915  -1.923   3.300  0.00  0.00     0.001 A 
ATOM     12  C   UNL d   1       3.186  -2.143   2.129  0.00  0.00     0.009 A 
ENDBRANCH   5   7
ENDBRANCH   2   5
BRANCH   1  13
ATOM     13  C   UNL d   1      -0.003   1.006  -0.709  0.00  0.00     0.080 C 
ATOM     14  C   UNL d   1       0.432   2.035  -1.450  0.00  0.00     0.086 C 
BRANCH  14  15
ATOM     15  C   UNL d   1      -0.492   3.158  -1.682  0.00  0.00     0.165 C 
ATOM     16  O   UNL d   1      -1.636   3.204  -1.259  0.00  0.00    -0.647 OA
BRANCH  15  17
ATOM     17  O   UNL d   1       0.065   4.138  -2.416  0.00  0.00    -0.773 OA
ATOM     18  H   UNL d   1       0.988   3.986  -2.690  0.00  0.00     0.167 HD
ENDBRANCH  15  17
ENDBRANCH  14  15
ENDBRANCH   1  13
TORSDOF 5
