REMARK  3 active torsions:
REMARK  status: ('A' for Active; 'I' for Inactive)
REMARK    1  A    between atoms: C_3  and  C_4 
REMARK    2  A    between atoms: N_5  and  C_8 
REMARK    3  A    between atoms: C_12  and  C_6 
ROOT
ATOM      1  C   UNL d   1      -1.295   0.398  -0.043  0.00  0.00     0.060 C 
ATOM      2  C   UNL d   1       1.256   0.340  -0.035  0.00  0.00     0.060 C 
ATOM      3  C   UNL d   1      -0.001   1.188  -0.270  0.00  0.00     0.134 C 
ATOM      4  N   UNL d   1      -0.066  -1.631  -0.075  0.00  0.00    -0.361 N 
ATOM      5  C   UNL d   1      -1.274  -0.955  -0.002  0.00  0.00     0.023 C 
ATOM      6  C   UNL d   1       1.171  -1.011   0.004  0.00  0.00     0.023 C 
ATOM      7  C   UNL d   1      -2.512   1.134   0.074  0.00  0.00     0.098 C 
ATOM      8  C   UNL d   1       2.503   1.019   0.098  0.00  0.00     0.098 C 
ATOM      9  N   UNL d   1       3.519   1.561   0.230  0.00  0.00    -0.192 NA
ATOM     10  N   UNL d   1      -3.502   1.730   0.181  0.00  0.00    -0.192 NA
ATOM     11  C   UNL d   1       2.380  -1.907   0.113  0.00  0.00     0.069 C 
ATOM     12  C   UNL d   1      -2.522  -1.797   0.100  0.00  0.00     0.069 C 
ATOM     13  H   UNL d   1      -0.088  -2.644   0.029  0.00  0.00     0.165 HD
ENDROOT
BRANCH   3  14
ATOM     14  C   UNL d   1       0.016   1.776  -1.662  0.00  0.00     0.068 A 
ATOM     15  O   UNL d   1       0.044   3.134  -1.794  0.00  0.00    -0.313 OA
ATOM     16  C   UNL d   1       0.071   3.405  -3.139  0.00  0.00     0.088 A 
ATOM     17  C   UNL d   1       0.030   2.220  -3.850  0.00  0.00     0.040 A 
ATOM     18  C   UNL d   1       0.005   1.175  -2.905  0.00  0.00     0.036 A 
BRANCH  16  19
ATOM     19  C   UNL d   1       0.114   4.814  -3.524  0.00  0.00     0.031 A 
ATOM     20  C   UNL d   1       0.775   5.291  -4.671  0.00  0.00     0.117 A 
ATOM     21  C   UNL d   1       0.711   6.632  -5.080  0.00  0.00     0.060 A 
ATOM     22  C   UNL d   1      -0.026   7.528  -4.319  0.00  0.00     0.036 A 
ATOM     23  C   UNL d   1      -0.676   7.101  -3.163  0.00  0.00     0.025 A 
ATOM     24 CL   UNL d   1      -0.143   9.171  -4.814  0.00  0.00    -0.084 Cl
ATOM     25  C   UNL d   1      -0.603   5.758  -2.767  0.00  0.00     0.018 A 
BRANCH  20  26
ATOM     26  N   UNL d   1       1.570   4.405  -5.499  0.00  0.00    -0.115 N 
ATOM     27  O   UNL d   1       2.554   3.865  -4.980  0.00  0.00    -0.532 OA
ATOM     28  O   UNL d   1       1.213   4.276  -6.678  0.00  0.00    -0.532 OA
ENDBRANCH  20  26
ENDBRANCH  16  19
ENDBRANCH   3  14
TORSDOF 3
