REMARK  7 active torsions:
REMARK  status: ('A' for Active; 'I' for Inactive)
REMARK    1  A    between atoms: N_2  and  C_1 
REMARK    2  A    between atoms: C_4  and  N_2 
REMARK    3  A    between atoms: C_12  and  N_6 
REMARK    4  A    between atoms: S_8  and  C_7 
REMARK    5  A    between atoms: C_9  and  C_12 
REMARK    6  A    between atoms: C_14  and  C_9 
REMARK    7  A    between atoms: O_10  and  C_14 
ROOT
ATOM      1  N   UNL d   1       0.620   1.300  -0.065  0.00  0.00    -0.333 N 
ATOM      2  H   UNL d   1       1.087   1.991  -0.646  0.00  0.00     0.168 HD
ENDROOT
BRANCH   1   3
ATOM      3  C   UNL d   1       1.249   0.080  -0.011  0.00  0.00     0.172 C 
ATOM      4  S   UNL d   1       0.539  -1.438  -0.020  0.00  0.00    -0.041 SA
ATOM      5  N   UNL d   1       2.614   0.121   0.009  0.00  0.00    -0.367 N 
ATOM      6  H   UNL d   1       3.041  -0.798   0.050  0.00  0.00     0.161 HD
BRANCH   5   7
ATOM      7  C   UNL d   1       3.437   1.241   0.437  0.00  0.00     0.124 C 
BRANCH   7   8
ATOM      8  C   UNL d   1       4.365   1.730  -0.668  0.00  0.00     0.046 C 
BRANCH   8   9
ATOM      9  C   UNL d   1       3.627   2.321  -1.864  0.00  0.00     0.168 C 
BRANCH   9  10
ATOM     10  O   UNL d   1       2.712   3.322  -1.417  0.00  0.00    -0.396 OA
ATOM     11  C   UNL d   1       2.093   3.990  -2.509  0.00  0.00     0.201 C 
ENDBRANCH   9  10
ENDBRANCH   8   9
ENDBRANCH   7   8
ENDBRANCH   5   7
ENDBRANCH   1   3
BRANCH   1  12
ATOM     12  C   UNL d   1      -0.704   1.591   0.329  0.00  0.00     0.035 A 
ATOM     13  C   UNL d   1      -1.259   1.009   1.474  0.00  0.00     0.048 A 
ATOM     14  C   UNL d   1      -2.562   1.308   1.878  0.00  0.00     0.002 A 
ATOM     15  C   UNL d   1      -3.304   2.222   1.123  0.00  0.00     0.018 A 
ATOM     16  C   UNL d   1      -2.746   2.833  -0.004  0.00  0.00     0.004 A 
ATOM     17  C   UNL d   1      -1.438   2.535  -0.389  0.00  0.00     0.029 A 
BRANCH  14  18
ATOM     18  S   UNL d   1      -3.322   0.619   3.345  0.00  0.00    -0.134 SA
ATOM     19  C   UNL d   1      -2.382  -0.916   3.583  0.00  0.00     0.095 C 
ENDBRANCH  14  18
ENDBRANCH   1  12
TORSDOF 7
