REMARK  5 active torsions:
REMARK  status: ('A' for Active; 'I' for Inactive)
REMARK    1  A    between atoms: N_5  and  C_1 
REMARK    2  A    between atoms: N_8  and  C_1 
REMARK    3  A    between atoms: C_3  and  C_10 
REMARK    4  A    between atoms: C_10  and  N_5 
REMARK    5  A    between atoms: N_11  and  N_8 
ROOT
ATOM      1  N   UNL d   1       0.242  -0.066  -1.199  0.00  0.00    -0.362 N 
ATOM      2  H   UNL d   1       0.757   0.109  -2.051  0.00  0.00     0.162 HD
ENDROOT
BRANCH   1   3
ATOM      3  C   UNL d   1       0.938   0.093  -0.016  0.00  0.00     0.182 C 
ATOM      4  S   UNL d   1       0.240   0.301   1.494  0.00  0.00    -0.040 SA
BRANCH   3   5
ATOM      5  N   UNL d   1       2.315   0.066  -0.241  0.00  0.00    -0.300 N 
ATOM      6  H   UNL d   1       2.641  -0.361  -1.105  0.00  0.00     0.183 HD
BRANCH   5   7
ATOM      7  N   UNL d   1       3.248   0.158   0.815  0.00  0.00    -0.248 NA
ATOM      8  H   UNL d   1       2.742  -0.027   1.691  0.00  0.00     0.143 HD
ATOM      9  H   UNL d   1       3.531   1.139   0.893  0.00  0.00     0.143 HD
ENDBRANCH   5   7
ENDBRANCH   3   5
ENDBRANCH   1   3
BRANCH   1  10
ATOM     10  C   UNL d   1      -1.207  -0.008  -1.317  0.00  0.00     0.168 C 
BRANCH  10  11
ATOM     11  C   UNL d   1      -1.593  -0.190  -2.749  0.00  0.00     0.000 A 
ATOM     12  S   UNL d   1      -1.756   1.173  -3.776  0.00  0.00    -0.105 SA
ATOM     13  C   UNL d   1      -2.243   0.202  -5.096  0.00  0.00     0.050 A 
ATOM     14  C   UNL d   1      -2.260  -1.136  -4.774  0.00  0.00     0.008 A 
ATOM     15  C   UNL d   1      -1.877  -1.365  -3.420  0.00  0.00     0.017 A 
ENDBRANCH  10  11
ENDBRANCH   1  10
TORSDOF 5
