REMARK  3 active torsions:
REMARK  status: ('A' for Active; 'I' for Inactive)
REMARK    1  A    between atoms: C_4  and  C_1 
REMARK    2  A    between atoms: O_3  and  C_4 
REMARK    3  A    between atoms: C_6  and  O_3 
ROOT
ATOM      1  O   UNL d   1      -1.110   1.273   0.381  0.00  0.00    -0.344 OA
ENDROOT
BRANCH   1   2
ATOM      2  C   UNL d   1      -1.143   0.449   1.547  0.00  0.00     0.244 C 
BRANCH   2   3
ATOM      3  C   UNL d   1       0.197  -0.244   1.772  0.00  0.00     0.095 C 
ATOM      4  S   UNL d   1       0.506  -1.150   3.139  0.00  0.00    -0.064 SA
ATOM      5  N   UNL d   1       1.149  -0.115   0.804  0.00  0.00    -0.392 N 
ATOM      6  H   UNL d   1       2.059  -0.541   0.921  0.00  0.00     0.156 HD
ATOM      7  H   UNL d   1       0.977   0.464  -0.012  0.00  0.00     0.156 HD
ENDBRANCH   2   3
ENDBRANCH   1   2
BRANCH   1   8
ATOM      8  C   UNL d   1      -2.113   2.203   0.296  0.00  0.00     0.069 A 
ATOM      9  C   UNL d   1      -1.855   3.289  -0.544  0.00  0.00     0.037 A 
ATOM     10  C   UNL d   1      -2.786   4.323  -0.666  0.00  0.00     0.003 A 
ATOM     11  C   UNL d   1      -3.986   4.268   0.041  0.00  0.00     0.000 A 
ATOM     12  C   UNL d   1      -4.263   3.169   0.851  0.00  0.00     0.003 A 
ATOM     13  C   UNL d   1      -3.333   2.134   0.972  0.00  0.00     0.037 A 
ENDBRANCH   1   8
TORSDOF 3
