REMARK  2 active torsions:
REMARK  status: ('A' for Active; 'I' for Inactive)
REMARK    1  A    between atoms: C_3  and  N_1 
REMARK    2  A    between atoms: S_2  and  C_5 
ROOT
ATOM      1  C   UNL d   1       0.339   0.967  -0.860  0.00  0.00     0.102 A 
ATOM      2  C   UNL d   1      -1.099   2.788  -2.443  0.00  0.00     0.031 A 
ATOM      3  C   UNL d   1       0.690   1.159  -2.203  0.00  0.00     0.037 A 
ATOM      4  C   UNL d   1      -0.733   1.670  -0.305  0.00  0.00     0.037 A 
ATOM      5  C   UNL d   1      -1.444   2.573  -1.099  0.00  0.00     0.023 A 
ATOM      6  C   UNL d   1      -0.036   2.061  -2.995  0.00  0.00     0.023 A 
ENDROOT
BRANCH   1   7
ATOM      7  N   UNL d   1       1.090   0.019  -0.026  0.00  0.00    -0.116 N 
ATOM      8  O   UNL d   1       2.031  -0.587  -0.557  0.00  0.00    -0.532 OA
ATOM      9  O   UNL d   1       0.740  -0.123   1.152  0.00  0.00    -0.532 OA
ENDBRANCH   1   7
BRANCH   2  10
ATOM     10  S   UNL d   1      -2.128   3.927  -3.411  0.00  0.00     0.045 S 
ATOM     11  O   UNL d   1      -2.623   4.939  -2.418  0.00  0.00    -0.253 OA
ATOM     12  C   UNL d   1      -0.892   4.742  -4.439  0.00  0.00     0.133 C 
ENDBRANCH   2  10
TORSDOF 2
