REMARK  8 active torsions:
REMARK  status: ('A' for Active; 'I' for Inactive)
REMARK    1  A    between atoms: N_2  and  C_1 
REMARK    2  A    between atoms: N_4  and  C_1 
REMARK    3  A    between atoms: C_3  and  N_2 
REMARK    4  A    between atoms: C_7  and  N_4 
REMARK    5  A    between atoms: C_13  and  C_7 
REMARK    6  A    between atoms: C_14  and  C_7 
REMARK    7  A    between atoms: O_16  and  C_13 
REMARK    8  A    between atoms: O_15  and  C_14 
ROOT
ATOM      1  C   UNL d   1       1.083  -0.240  -0.197  0.00  0.00     0.172 C 
ATOM      2  S   UNL d   1       2.599  -0.741  -0.692  0.00  0.00    -0.041 SA
ENDROOT
BRANCH   1   3
ATOM      3  N   UNL d   1       0.600  -0.239   1.081  0.00  0.00    -0.333 N 
ATOM      4  H   UNL d   1      -0.319  -0.646   1.162  0.00  0.00     0.168 HD
BRANCH   3   5
ATOM      5  C   UNL d   1       1.322  -0.083   2.288  0.00  0.00     0.040 A 
ATOM      6  C   UNL d   1       0.906  -0.743   3.461  0.00  0.00    -0.034 A 
ATOM      7  C   UNL d   1       1.564  -0.448   4.676  0.00  0.00     0.032 A 
ATOM      8  C   UNL d   1      -0.190  -1.772   3.512  0.00  0.00     0.050 C 
ATOM      9  C   UNL d   1       2.628   0.449   4.714  0.00  0.00     0.034 A 
ATOM     10  C   UNL d   1       3.048   1.082   3.553  0.00  0.00     0.026 A 
ATOM     11 CL   UNL d   1       3.414   0.785   6.207  0.00  0.00    -0.084 Cl
ATOM     12  C   UNL d   1       2.397   0.814   2.345  0.00  0.00     0.032 A 
ENDBRANCH   3   5
ENDBRANCH   1   3
BRANCH   1  13
ATOM     13  N   UNL d   1       0.234   0.192  -1.169  0.00  0.00    -0.354 N 
ATOM     14  H   UNL d   1       0.566  -0.018  -2.103  0.00  0.00     0.162 HD
BRANCH  13  15
ATOM     15  C   UNL d   1      -1.045   0.960  -1.125  0.00  0.00     0.071 C 
ATOM     16  C   UNL d   1      -2.224   0.025  -0.821  0.00  0.00     0.043 C 
BRANCH  15  17
ATOM     17  C   UNL d   1      -0.999   2.121  -0.099  0.00  0.00     0.197 C 
BRANCH  17  18
ATOM     18  O   UNL d   1       0.106   2.990  -0.346  0.00  0.00    -0.398 OA
ATOM     19  H   UNL d   1       0.908   2.441  -0.266  0.00  0.00     0.209 HD
ENDBRANCH  17  18
ENDBRANCH  15  17
BRANCH  15  20
ATOM     20  C   UNL d   1      -1.244   1.594  -2.536  0.00  0.00     0.197 C 
BRANCH  20  21
ATOM     21  O   UNL d   1      -1.331   0.573  -3.533  0.00  0.00    -0.398 OA
ATOM     22  H   UNL d   1      -0.649   0.756  -4.202  0.00  0.00     0.209 HD
ENDBRANCH  20  21
ENDBRANCH  15  20
ENDBRANCH  13  15
ENDBRANCH   1  13
TORSDOF 8
