REMARK  5 active torsions:
REMARK  status: ('A' for Active; 'I' for Inactive)
REMARK    1  A    between atoms: S_8  and  C_1 
REMARK    2  A    between atoms: C_2  and  C_10 
REMARK       I    between atoms: N_7  and  C_2 
REMARK    3  A    between atoms: C_11  and  N_7 
REMARK    4  A    between atoms: C_10  and  S_8 
REMARK    5  A    between atoms: O_18  and  C_12 
ROOT
ATOM      1  C   UNL d   1      -1.386   5.117   0.104  0.00  0.00     0.231 C 
ATOM      2  N   UNL d   1      -0.137   5.707   0.199  0.00  0.00    -0.327 N 
ATOM      3  O   UNL d   1      -1.604   3.934  -0.156  0.00  0.00    -0.272 OA
ATOM      4  H   UNL d   1      -0.120   6.686   0.465  0.00  0.00     0.169 HD
ENDROOT
BRANCH   1   5
ATOM      5  C   UNL d   1      -2.546   6.030   0.489  0.00  0.00     0.185 C 
BRANCH   5   6
ATOM      6  S   UNL d   1      -2.402   7.708  -0.190  0.00  0.00    -0.085 SA
BRANCH   6   7
ATOM      7  C   UNL d   1      -2.198   7.251  -1.890  0.00  0.00     0.144 A 
ATOM      8  N   UNL d   1      -3.151   6.494  -2.456  0.00  0.00    -0.347 N 
ATOM      9  C   UNL d   1      -2.893   6.054  -3.701  0.00  0.00     0.091 A 
ATOM     10  HN  UNL d   1      -4.018   6.266  -1.970  1.00  0.00     0.167 HD
ATOM     11  C   UNL d   1      -1.733   6.340  -4.381  0.00  0.00     0.034 A 
ATOM     12  C   UNL d   1      -0.831   7.128  -3.709  0.00  0.00     0.091 A 
ATOM     13  N   UNL d   1      -1.037   7.599  -2.466  0.00  0.00    -0.347 N 
ATOM     14  HN  UNL d   1      -0.352   8.186  -1.989  1.00  0.00     0.167 HD
ENDBRANCH   6   7
ENDBRANCH   5   6
ENDBRANCH   1   5
BRANCH   2  15
ATOM     15  C   UNL d   1       1.114   5.098  -0.026  0.00  0.00     0.034 A 
ATOM     16  C   UNL d   1       1.264   3.814  -0.552  0.00  0.00     0.032 A 
ATOM     17  C   UNL d   1       2.532   3.235  -0.675  0.00  0.00     0.039 A 
ATOM     18  C   UNL d   1       3.664   3.933  -0.261  0.00  0.00     0.068 A 
ATOM     19  C   UNL d   1       3.530   5.242   0.196  0.00  0.00     0.039 A 
ATOM     20  C   UNL d   1       2.262   5.824   0.312  0.00  0.00     0.032 A 
BRANCH  18  21
ATOM     21  O   UNL d   1       4.937   3.433  -0.288  0.00  0.00    -0.356 OA
ATOM     22  C   UNL d   1       5.025   2.025  -0.080  0.00  0.00     0.210 C 
ENDBRANCH  18  21
ENDBRANCH   2  15
TORSDOF 5
