REMARK  5 active torsions:
REMARK  status: ('A' for Active; 'I' for Inactive)
REMARK       I    between atoms: C_2  and  N_1 
REMARK    1  A    between atoms: CA_3  and  N_1 
REMARK    2  A    between atoms: C_5  and  C_2 
REMARK    3  A    between atoms: C_4  and  CA_3 
REMARK    4  A    between atoms: C_8  and  CA_3 
REMARK    5  A    between atoms: OXT_11  and  C_4 
ROOT
ATOM      1  N   UNL d   1       0.886   0.062   0.059  0.00  0.00    -0.339 N 
ATOM      2  C   UNL d   1       0.203  -0.212   1.226  0.00  0.00     0.252 C 
ATOM      3  O   UNL d   1       0.746  -0.562   2.264  0.00  0.00    -0.268 OA
ATOM      4  H   UNL d   1       0.365  -0.010  -0.809  0.00  0.00     0.164 HD
ENDROOT
BRANCH   1   5
ATOM      5  CA  UNL d   1       2.346  -0.104  -0.022  0.00  0.00     0.216 C 
BRANCH   5   6
ATOM      6  C   UNL d   1       2.932   1.053  -0.858  0.00  0.00     0.168 C 
ATOM      7  O   UNL d   1       4.034   1.081  -1.384  0.00  0.00    -0.648 OA
BRANCH   6   8
ATOM      8  OXT UNL d   1       2.105   2.138  -0.878  0.00  0.00    -0.775 OA
ATOM      9  HXT UNL d   1       1.336   1.962  -0.296  0.00  0.00     0.167 HD
ENDBRANCH   6   8
ENDBRANCH   5   6
BRANCH   5  10
ATOM     10  C   UNL d   1       2.739  -1.476  -0.529  0.00  0.00    -0.025 A 
ATOM     11  C   UNL d   1       2.336  -1.949  -1.788  0.00  0.00     0.010 A 
ATOM     12  C   UNL d   1       2.742  -3.209  -2.234  0.00  0.00     0.001 A 
ATOM     13  C   UNL d   1       3.559  -4.007  -1.435  0.00  0.00     0.000 A 
ATOM     14  C   UNL d   1       3.966  -3.551  -0.184  0.00  0.00     0.001 A 
ATOM     15  C   UNL d   1       3.555  -2.297   0.267  0.00  0.00     0.010 A 
ENDBRANCH   5  10
ENDBRANCH   1   5
BRANCH   2  16
ATOM     16  C   UNL d   1      -1.269  -0.026   1.167  0.00  0.00     0.032 A 
ATOM     17  C   UNL d   1      -2.094  -0.883   1.899  0.00  0.00     0.017 A 
ATOM     18  C   UNL d   1      -3.475  -0.675   1.916  0.00  0.00     0.007 A 
ATOM     19  C   UNL d   1      -4.041   0.403   1.220  0.00  0.00    -0.062 A 
ATOM     20  C   UNL d   1      -3.208   1.255   0.484  0.00  0.00     0.007 A 
ATOM     21  C   UNL d   1      -5.522   0.639   1.277  0.00  0.00     0.048 C 
ATOM     22  C   UNL d   1      -1.828   1.043   0.456  0.00  0.00     0.017 A 
ENDBRANCH   2  16
TORSDOF 5
