REMARK  4 active torsions:
REMARK  status: ('A' for Active; 'I' for Inactive)
REMARK    1  A    between atoms: C_3  and  C_1 
REMARK    2  A    between atoms: N_2  and  C_5 
REMARK    3  A    between atoms: C_4  and  C_10 
REMARK       I    between atoms: N_8  and  C_4 
REMARK    4  A    between atoms: C_13  and  N_8 
ROOT
ATOM      1  N   UNL d   1      -0.635  -1.538   4.998  0.00  0.00    -0.367 N 
ATOM      2  C   UNL d   1      -0.758  -1.305   7.858  0.00  0.00     0.081 C 
ATOM      3  C   UNL d   1       0.420  -2.156   5.792  0.00  0.00     0.125 C 
ATOM      4  C   UNL d   1      -1.953  -1.393   5.599  0.00  0.00     0.125 C 
ATOM      5  C   UNL d   1      -1.810  -0.649   6.936  0.00  0.00     0.034 C 
ATOM      6  C   UNL d   1       0.574  -1.399   7.108  0.00  0.00     0.034 C 
ENDROOT
BRANCH   1   7
ATOM      7  C   UNL d   1      -0.389  -1.285   3.670  0.00  0.00     0.102 A 
ATOM      8  C   UNL d   1      -1.366  -1.430   2.685  0.00  0.00     0.049 A 
ATOM      9  C   UNL d   1      -1.065  -1.137   1.354  0.00  0.00     0.021 A 
ATOM     10  C   UNL d   1       0.208  -0.681   1.018  0.00  0.00     0.063 A 
ATOM     11  C   UNL d   1       1.119  -0.557   2.049  0.00  0.00     0.106 A 
ATOM     12  N   UNL d   1       0.850  -0.860   3.338  0.00  0.00    -0.352 N 
ATOM     13  HN  UNL d   1       1.573  -0.769   4.052  1.00  0.00     0.166 HD
BRANCH  10  14
ATOM     14  C   UNL d   1       0.593  -0.349  -0.387  0.00  0.00     0.418 C 
ATOM     15  F   UNL d   1       1.870   0.108  -0.510  0.00  0.00    -0.166 F 
ATOM     16  F   UNL d   1      -0.199   0.616  -0.931  0.00  0.00    -0.166 F 
ATOM     17  F   UNL d   1       0.501  -1.423  -1.219  0.00  0.00    -0.166 F 
ENDBRANCH  10  14
ENDBRANCH   1   7
BRANCH   2  18
ATOM     18  C   UNL d   1      -1.286  -2.650   8.364  0.00  0.00     0.226 C 
ATOM     19  N   UNL d   1      -0.446  -3.340   9.222  0.00  0.00    -0.327 N 
ATOM     20  H   UNL d   1       0.369  -2.849   9.572  0.00  0.00     0.169 HD
ATOM     21  O   UNL d   1      -2.427  -3.013   8.074  0.00  0.00    -0.273 OA
BRANCH  19  22
ATOM     22  C   UNL d   1      -0.807  -4.539   9.887  0.00  0.00     0.036 A 
ATOM     23  C   UNL d   1      -1.858  -5.360   9.461  0.00  0.00     0.053 A 
ATOM     24  C   UNL d   1      -2.275  -6.439  10.237  0.00  0.00     0.036 A 
ATOM     25 CL   UNL d   1      -3.618  -7.389   9.728  0.00  0.00    -0.084 Cl
ATOM     26  C   UNL d   1      -1.627  -6.740  11.429  0.00  0.00     0.024 A 
ATOM     27  C   UNL d   1      -0.530  -5.976  11.825  0.00  0.00     0.004 A 
ATOM     28  C   UNL d   1      -0.113  -4.887  11.051  0.00  0.00     0.029 A 
ENDBRANCH  19  22
ENDBRANCH   2  18
TORSDOF 4
