REMARK  3 active torsions:
REMARK  status: ('A' for Active; 'I' for Inactive)
REMARK    1  A    between atoms: C_2  and  C_1 
REMARK    2  A    between atoms: O_4  and  C_1 
REMARK    3  A    between atoms: C_3  and  O_4 
ROOT
ATOM      1  C   UNL d   1       1.078   1.393  -0.292  0.00  0.00     0.300 C 
ATOM      2  O   UNL d   1       0.979   2.537  -0.698  0.00  0.00    -0.259 OA
ENDROOT
BRANCH   1   3
ATOM      3  C   UNL d   1       2.132   0.910   0.639  0.00  0.00     0.061 A 
ATOM      4  C   UNL d   1       2.621  -0.405   0.666  0.00  0.00     0.051 A 
ATOM      5  C   UNL d   1       3.481  -0.812   1.695  0.00  0.00     0.048 A 
ATOM      6 CL   UNL d   1       2.254  -1.588  -0.541  0.00  0.00    -0.083 Cl
ATOM      7  C   UNL d   1       3.876   0.098   2.673  0.00  0.00     0.035 A 
ATOM      8  C   UNL d   1       3.438   1.418   2.628  0.00  0.00     0.025 A 
ATOM      9 CL   UNL d   1       4.909  -0.419   3.947  0.00  0.00    -0.084 Cl
ATOM     10  C   UNL d   1       2.567   1.826   1.613  0.00  0.00     0.021 A 
ENDBRANCH   1   3
BRANCH   1  11
ATOM     11  O   UNL d   1       0.148   0.380  -0.395  0.00  0.00    -0.271 OA
BRANCH  11  12
ATOM     12  C   UNL d   1      -1.179   0.704  -0.726  0.00  0.00     0.122 A 
ATOM     13  C   UNL d   1      -1.723   0.177  -1.900  0.00  0.00     0.070 A 
ATOM     14  C   UNL d   1      -3.107   0.197  -2.094  0.00  0.00     0.033 A 
ATOM     15 CL   UNL d   1      -0.731  -0.573  -3.095  0.00  0.00    -0.081 Cl
ATOM     16  C   UNL d   1      -3.953   0.734  -1.113  0.00  0.00    -0.059 A 
ATOM     17  C   UNL d   1      -3.390   1.319   0.030  0.00  0.00     0.033 A 
ATOM     18  C   UNL d   1      -5.443   0.642  -1.270  0.00  0.00     0.048 C 
ATOM     19  C   UNL d   1      -2.010   1.294   0.232  0.00  0.00     0.070 A 
ATOM     20 CL   UNL d   1      -1.402   1.899   1.731  0.00  0.00    -0.081 Cl
ENDBRANCH  11  12
ENDBRANCH   1  11
TORSDOF 3
