REMARK  5 active torsions:
REMARK  status: ('A' for Active; 'I' for Inactive)
REMARK    1  A    between atoms: C_7  and  C_1 
REMARK    2  A    between atoms: O_15  and  C_7 
REMARK    3  A    between atoms: N_8  and  N_10 
REMARK    4  A    between atoms: C_11  and  C_14 
REMARK    5  A    between atoms: C_20  and  O_15 
ROOT
ATOM      1  C   UNL d   1      -0.017   1.303   0.115  0.00  0.00     0.109 A 
ATOM      2  C   UNL d   1      -0.150   2.674   0.214  0.00  0.00     0.153 A 
ATOM      3  N   UNL d   1       2.078   2.249   0.058  0.00  0.00    -0.302 N 
ATOM      4  HN  UNL d   1       3.086   2.387  -0.010  1.00  0.00     0.186 HD
ATOM      5  N   UNL d   1       1.119   3.178   0.204  0.00  0.00    -0.283 N 
ATOM      6  C   UNL d   1       1.393   1.096   0.021  0.00  0.00     0.042 A 
ATOM      7  N   UNL d   1      -1.213   3.505   0.316  0.00  0.00    -0.284 N 
ATOM      8  C   UNL d   1       2.141  -0.184  -0.085  0.00  0.00     0.071 C 
ATOM      9  H   UNL d   1       1.369   4.155   0.296  0.00  0.00     0.188 HD
ATOM     10  H   UNL d   1      -2.141   3.074   0.422  0.00  0.00     0.188 HD
ENDROOT
BRANCH   1  11
ATOM     11  C   UNL d   1      -1.102   0.347   0.164  0.00  0.00     0.299 C 
ATOM     12  O   UNL d   1      -2.279   0.670   0.282  0.00  0.00    -0.259 OA
BRANCH  11  13
ATOM     13  O   UNL d   1      -0.658  -0.943   0.134  0.00  0.00    -0.318 OA
BRANCH  13  14
ATOM     14  C   UNL d   1      -1.599  -1.948   0.529  0.00  0.00     0.174 C 
ATOM     15  C   UNL d   1      -1.507  -2.128   2.033  0.00  0.00     0.034 C 
ENDBRANCH  13  14
ENDBRANCH  11  13
ENDBRANCH   1  11
BRANCH   7  16
ATOM     16  N   UNL d   1      -1.058   4.770   0.786  0.00  0.00    -0.309 N 
ATOM     17  C   UNL d   1      -1.910   5.688   0.432  0.00  0.00     0.120 C 
ATOM     18  HN  UNL d   1      -0.283   4.997   1.409  1.00  0.00     0.186 HD
BRANCH  17  19
ATOM     19  C   UNL d   1      -2.985   5.649  -0.586  0.00  0.00     0.002 A 
ATOM     20  C   UNL d   1      -4.122   6.457  -0.444  0.00  0.00     0.045 A 
ATOM     21 CL   UNL d   1      -4.407   7.439   0.951  0.00  0.00    -0.083 Cl
ATOM     22  C   UNL d   1      -5.091   6.488  -1.455  0.00  0.00     0.024 A 
ATOM     23  C   UNL d   1      -4.928   5.720  -2.608  0.00  0.00     0.002 A 
ATOM     24  C   UNL d   1      -3.795   4.926  -2.759  0.00  0.00     0.001 A 
ATOM     25  C   UNL d   1      -2.821   4.899  -1.758  0.00  0.00     0.014 A 
ENDBRANCH  17  19
ENDBRANCH   7  16
TORSDOF 5
