REMARK  4 active torsions:
REMARK  status: ('A' for Active; 'I' for Inactive)
REMARK    1  A    between atoms: C_7  and  N_1 
REMARK    2  A    between atoms: N_8  and  C_18 
REMARK    3  A    between atoms: N_12  and  C_11 
REMARK    4  A    between atoms: C_19  and  C_13 
ROOT
ATOM      1  C   UNL d   1       1.391   2.252   0.036  0.00  0.00     0.059 A 
ATOM      2  C   UNL d   1       1.744   2.922  -1.140  0.00  0.00     0.034 A 
ATOM      3  C   UNL d   1       1.706   2.864   1.258  0.00  0.00     0.034 A 
ATOM      4  C   UNL d   1       2.746   4.750   0.120  0.00  0.00     0.032 A 
ATOM      5  C   UNL d   1       2.394   4.164  -1.098  0.00  0.00     0.032 A 
ATOM      6  C   UNL d   1       2.380   4.091   1.295  0.00  0.00     0.032 A 
ENDROOT
BRANCH   4   7
ATOM      7  N   UNL d   1       3.398   5.986   0.244  0.00  0.00    -0.365 N 
ATOM      8  C   UNL d   1       4.291   6.338  -0.625  0.00  0.00     0.099 C 
ATOM      9  HN  UNL d   1       3.168   6.608   1.019  1.00  0.00     0.165 HD
BRANCH   8  10
ATOM     10  C   UNL d   1       5.018   7.617  -0.506  0.00  0.00    -0.021 A 
ATOM     11  C   UNL d   1       4.906   8.400   0.639  0.00  0.00     0.015 A 
ATOM     12  C   UNL d   1       5.633   9.594   0.747  0.00  0.00     0.030 A 
ATOM     13  C   UNL d   1       6.491  10.042  -0.272  0.00  0.00     0.029 A 
ATOM     14  C   UNL d   1       6.575   9.223  -1.415  0.00  0.00     0.030 A 
ATOM     15  C   UNL d   1       5.852   8.028  -1.540  0.00  0.00     0.015 A 
BRANCH  13  16
ATOM     16  N   UNL d   1       7.273  11.185  -0.149  0.00  0.00    -0.390 N 
ATOM     17  C   UNL d   1       7.525  12.034  -1.313  0.00  0.00     0.149 C 
ATOM     18  C   UNL d   1       7.439  11.861   1.135  0.00  0.00     0.149 C 
ENDBRANCH  13  16
ENDBRANCH   8  10
ENDBRANCH   4   7
BRANCH   1  19
ATOM     19  N   UNL d   1       0.730   1.000   0.013  0.00  0.00    -0.224 N 
ATOM     20  C   UNL d   1       0.492   0.176  -1.098  0.00  0.00     0.248 A 
ATOM     21  C   UNL d   1      -0.233  -1.010  -0.541  0.00  0.00     0.158 A 
ATOM     22  O   UNL d   1       0.794   0.308  -2.277  0.00  0.00    -0.271 OA
ATOM     23  C   UNL d   1      -0.374  -0.615   0.890  0.00  0.00     0.009 A 
ATOM     24  N   UNL d   1       0.206   0.503   1.194  0.00  0.00    -0.299 N 
ATOM     25  C   UNL d   1      -1.123  -1.456   1.865  0.00  0.00     0.065 C 
ATOM     26  HN  UNL d   1       0.266   0.931   2.118  1.00  0.00     0.187 HD
ENDBRANCH   1  19
TORSDOF 4
