REMARK  5 active torsions:
REMARK  status: ('A' for Active; 'I' for Inactive)
REMARK    1  A    between atoms: C_8  and  C_1 
REMARK    2  A    between atoms: C_2  and  C_12 
REMARK       I    between atoms: N_6  and  C_2 
REMARK    3  A    between atoms: N_11  and  N_6 
REMARK    4  A    between atoms: S_7  and  C_8 
REMARK    5  A    between atoms: C_12  and  S_7 
ROOT
ATOM      1  S   UNL d   1      -1.956   2.768  -0.264  0.00  0.00    -0.155 SA
ENDROOT
BRANCH   1   2
ATOM      2  C   UNL d   1      -0.256   2.154   0.028  0.00  0.00     0.116 C 
BRANCH   2   3
ATOM      3  C   UNL d   1      -0.192   0.644  -0.065  0.00  0.00    -0.005 A 
ATOM      4  C   UNL d   1       0.051  -0.005  -1.292  0.00  0.00     0.042 A 
ATOM      5 CL   UNL d   1       0.303   0.871  -2.764  0.00  0.00    -0.084 Cl
ATOM      6  C   UNL d   1       0.102  -1.403  -1.378  0.00  0.00     0.024 A 
ATOM      7  C   UNL d   1      -0.093  -2.185  -0.243  0.00  0.00     0.003 A 
ATOM      8  C   UNL d   1      -0.341  -1.568   0.978  0.00  0.00     0.024 A 
ATOM      9  C   UNL d   1      -0.393  -0.170   1.068  0.00  0.00     0.042 A 
ATOM     10 CL   UNL d   1      -0.709   0.492   2.637  0.00  0.00    -0.084 Cl
ENDBRANCH   2   3
ENDBRANCH   1   2
BRANCH   1  11
ATOM     11  C   UNL d   1      -1.642   4.563  -0.215  0.00  0.00     0.178 C 
BRANCH  11  12
ATOM     12  C   UNL d   1      -1.120   4.983   1.145  0.00  0.00     0.240 C 
ATOM     13  O   UNL d   1       0.077   4.976   1.428  0.00  0.00    -0.271 OA
ATOM     14  N   UNL d   1      -2.108   5.329   2.059  0.00  0.00    -0.293 N 
ATOM     15  H   UNL d   1      -3.083   5.415   1.777  0.00  0.00     0.183 HD
BRANCH  14  16
ATOM     16  N   UNL d   1      -1.742   5.670   3.378  0.00  0.00    -0.247 NA
ATOM     17  H   UNL d   1      -0.721   5.814   3.378  0.00  0.00     0.143 HD
ATOM     18  H   UNL d   1      -1.864   4.836   3.961  0.00  0.00     0.143 HD
ENDBRANCH  14  16
ENDBRANCH  11  12
ENDBRANCH   1  11
TORSDOF 5
