REMARK  4 active torsions:
REMARK  status: ('A' for Active; 'I' for Inactive)
REMARK       I    between atoms: C_2  and  N_1 
REMARK    1  A    between atoms: C_6  and  C_2 
REMARK    2  A    between atoms: C_5  and  C_3 
REMARK    3  A    between atoms: C_7  and  C_5 
REMARK       I    between atoms: N_11  and  C_7 
REMARK    4  A    between atoms: C_19  and  N_11 
ROOT
ATOM      1  N   UNL d   1      -1.455  -1.167   0.286  0.00  0.00    -0.333 N 
ATOM      2  C   UNL d   1      -2.282  -2.061   0.975  0.00  0.00     0.254 C 
ATOM      3  C   UNL d   1       0.036  -1.216   0.402  0.00  0.00     0.188 C 
ATOM      4  C   UNL d   1       0.562   0.013   1.202  0.00  0.00     0.241 C 
ATOM      5  N   UNL d   1      -0.094   1.208   1.019  0.00  0.00    -0.358 N 
ATOM      6  O   UNL d   1      -1.846  -3.002   1.640  0.00  0.00    -0.267 OA
ATOM      7  O   UNL d   1       1.619   0.025   1.833  0.00  0.00    -0.271 OA
ATOM      8  C   UNL d   1      -1.911   0.125  -0.263  0.00  0.00     0.147 C 
ATOM      9  C   UNL d   1      -1.487   1.274   0.648  0.00  0.00     0.142 C 
ATOM     10  H   UNL d   1       0.302   1.967   1.563  0.00  0.00     0.162 HD
ENDROOT
BRANCH   3  11
ATOM     11  C   UNL d   1       0.742  -2.476   0.914  0.00  0.00     0.138 C 
BRANCH  11  12
ATOM     12  C   UNL d   1       0.730  -3.608  -0.086  0.00  0.00     0.224 C 
ATOM     13  N   UNL d   1      -0.231  -4.561   0.177  0.00  0.00    -0.327 N 
ATOM     14  H   UNL d   1      -0.979  -4.271   0.811  0.00  0.00     0.169 HD
ATOM     15  O   UNL d   1       1.526  -3.626  -1.022  0.00  0.00    -0.273 OA
BRANCH  13  16
ATOM     16  C   UNL d   1      -0.305  -5.861  -0.352  0.00  0.00     0.034 A 
ATOM     17  C   UNL d   1       0.772  -6.487  -0.988  0.00  0.00     0.032 A 
ATOM     18  C   UNL d   1       0.670  -7.819  -1.400  0.00  0.00     0.044 A 
ATOM     19  C   UNL d   1      -0.515  -8.513  -1.195  0.00  0.00     0.116 A 
ATOM     20  C   UNL d   1      -1.602  -7.901  -0.585  0.00  0.00     0.044 A 
ATOM     21  F   UNL d   1      -0.607  -9.792  -1.581  0.00  0.00    -0.206 F 
ATOM     22  C   UNL d   1      -1.494  -6.577  -0.153  0.00  0.00     0.032 A 
ENDBRANCH  13  16
ENDBRANCH  11  12
ENDBRANCH   3  11
BRANCH   2  23
ATOM     23  C   UNL d   1      -3.764  -1.958   0.933  0.00  0.00     0.032 C 
ATOM     24  C   UNL d   1      -4.471  -1.657  -0.233  0.00  0.00     0.024 C 
ATOM     25  C   UNL d   1      -5.865  -1.490  -0.209  0.00  0.00    -0.055 C 
ATOM     26  C   UNL d   1      -6.561  -0.972  -1.438  0.00  0.00     0.049 C 
ATOM     27  C   UNL d   1      -6.577  -1.793   0.970  0.00  0.00    -0.056 C 
ATOM     28  C   UNL d   1      -5.871  -2.192   2.112  0.00  0.00     0.008 C 
ATOM     29  C   UNL d   1      -8.078  -1.694   1.025  0.00  0.00     0.049 C 
ATOM     30  C   UNL d   1      -4.477  -2.259   2.100  0.00  0.00     0.017 C 
ENDBRANCH   2  23
TORSDOF 4
