REMARK  9 active torsions:
REMARK  status: ('A' for Active; 'I' for Inactive)
REMARK    1  A    between atoms: N_2  and  S_1 
REMARK    2  A    between atoms: C_3  and  S_1 
REMARK    3  A    between atoms: C_5  and  N_2 
REMARK    4  A    between atoms: C_21  and  N_2 
REMARK    5  A    between atoms: C_9  and  C_5 
REMARK    6  A    between atoms: O_19  and  C_10 
REMARK    7  A    between atoms: O_20  and  C_13 
REMARK    8  A    between atoms: C_25  and  C_21 
REMARK    9  A    between atoms: C_22  and  C_25 
ROOT
ATOM      1  N   UNL d   1       1.603   4.284  -3.993  0.00  0.00    -0.197 NA
ATOM      2  C   UNL d   1       2.088   3.471  -3.324  0.00  0.00     0.059 C 
ATOM      3  C   UNL d   1       2.699   2.452  -2.458  0.00  0.00     0.125 C 
ENDROOT
BRANCH   3   4
ATOM      4  C   UNL d   1       2.337   2.664  -0.989  0.00  0.00     0.030 C 
BRANCH   4   5
ATOM      5  C   UNL d   1       0.850   2.488  -0.672  0.00  0.00     0.109 C 
BRANCH   5   6
ATOM      6  N   UNL d   1       0.279   1.129  -1.026  0.00  0.00    -0.200 NA
BRANCH   6   7
ATOM      7  S   UNL d   1       1.038  -0.147  -0.131  0.00  0.00     0.244 S 
ATOM      8  O   UNL d   1       0.846   0.148   1.274  0.00  0.00    -0.206 OA
ATOM      9  O   UNL d   1       2.370  -0.334  -0.667  0.00  0.00    -0.206 OA
BRANCH   7  10
ATOM     10  C   UNL d   1       0.119  -1.623  -0.498  0.00  0.00     0.077 A 
ATOM     11  C   UNL d   1      -0.815  -2.097   0.435  0.00  0.00     0.064 A 
ATOM     12  C   UNL d   1      -1.532  -3.279   0.196  0.00  0.00     0.102 A 
ATOM     13  C   UNL d   1      -1.293  -3.985  -0.998  0.00  0.00     0.101 A 
ATOM     14  C   UNL d   1      -0.325  -3.512  -1.903  0.00  0.00     0.041 A 
ATOM     15  C   UNL d   1       0.391  -2.342  -1.657  0.00  0.00     0.028 A 
BRANCH  12  16
ATOM     16  O   UNL d   1      -2.472  -3.761   1.066  0.00  0.00    -0.353 OA
ATOM     17  C   UNL d   1      -2.582  -3.155   2.349  0.00  0.00     0.210 C 
ENDBRANCH  12  16
BRANCH  13  18
ATOM     18  O   UNL d   1      -1.898  -5.128  -1.452  0.00  0.00    -0.353 OA
ATOM     19  C   UNL d   1      -2.738  -5.861  -0.572  0.00  0.00     0.210 C 
ENDBRANCH  13  18
ENDBRANCH   7  10
ENDBRANCH   6   7
BRANCH   6  20
ATOM     20  C   UNL d   1      -1.217   1.132  -0.840  0.00  0.00     0.172 C 
BRANCH  20  21
ATOM     21  C   UNL d   1      -1.889   2.195  -1.643  0.00  0.00     0.066 A 
ATOM     22  O   UNL d   1      -2.561   3.147  -0.930  0.00  0.00    -0.326 OA
ATOM     23  C   UNL d   1      -3.093   4.018  -1.826  0.00  0.00     0.142 A 
ATOM     24  C   UNL d   1      -2.774   3.640  -3.108  0.00  0.00     0.027 A 
ATOM     25  C   UNL d   1      -1.998   2.461  -2.993  0.00  0.00     0.036 A 
ENDBRANCH  20  21
ENDBRANCH   6  20
ENDBRANCH   5   6
ENDBRANCH   4   5
ENDBRANCH   3   4
TORSDOF 9
