REMARK  5 active torsions:
REMARK  status: ('A' for Active; 'I' for Inactive)
REMARK    1  A    between atoms: C_3  and  C_1 
REMARK    2  A    between atoms: C_11  and  N_2 
REMARK    3  A    between atoms: C_6  and  C_10 
REMARK       I    between atoms: N_9  and  C_6 
REMARK    4  A    between atoms: C_19  and  N_9 
REMARK    5  A    between atoms: C_15  and  C_11 
ROOT
ATOM      1  C   UNL d   1      -4.090   3.231  -1.364  0.00  0.00     0.032 A 
ATOM      2  C   UNL d   1      -3.294   2.069  -1.276  0.00  0.00     0.026 A 
ATOM      3  C   UNL d   1      -3.451   1.155  -0.221  0.00  0.00    -0.039 A 
ATOM      4  C   UNL d   1      -5.063   3.457  -0.388  0.00  0.00     0.017 A 
ATOM      5  C   UNL d   1      -5.212   2.564   0.677  0.00  0.00     0.002 A 
ATOM      6  C   UNL d   1      -4.406   1.427   0.761  0.00  0.00     0.009 A 
ENDROOT
BRANCH   3   7
ATOM      7  C   UNL d   1      -2.662  -0.138  -0.194  0.00  0.00     0.170 C 
BRANCH   7   8
ATOM      8  N   UNL d   1      -3.387  -1.225  -0.854  0.00  0.00    -0.320 N 
ATOM      9  C   UNL d   1      -3.216  -1.434  -2.216  0.00  0.00     0.110 A 
ATOM     10  C   UNL d   1      -3.919  -2.364  -2.888  0.00  0.00     0.063 A 
ATOM     11  C   UNL d   1      -4.889  -3.160  -2.158  0.00  0.00     0.023 A 
ATOM     12  C   UNL d   1      -5.080  -2.984  -0.845  0.00  0.00     0.075 A 
ATOM     13  C   UNL d   1      -4.294  -1.966  -0.097  0.00  0.00     0.247 A 
ATOM     14  O   UNL d   1      -4.486  -1.834   1.108  0.00  0.00    -0.268 OA
BRANCH  10  15
ATOM     15  C   UNL d   1      -3.750  -2.573  -4.367  0.00  0.00     0.418 C 
ATOM     16  F   UNL d   1      -4.655  -3.442  -4.887  0.00  0.00    -0.166 F 
ATOM     17  F   UNL d   1      -3.884  -1.412  -5.056  0.00  0.00    -0.166 F 
ATOM     18  F   UNL d   1      -2.520  -3.066  -4.663  0.00  0.00    -0.166 F 
ENDBRANCH  10  15
ENDBRANCH   7   8
ENDBRANCH   3   7
BRANCH   1  19
ATOM     19  C   UNL d   1      -3.844   4.144  -2.526  0.00  0.00     0.256 C 
ATOM     20  N   UNL d   1      -4.434   5.403  -2.495  0.00  0.00    -0.323 N 
ATOM     21  H   UNL d   1      -4.913   5.678  -1.655  0.00  0.00     0.169 HD
ATOM     22  O   UNL d   1      -3.083   3.742  -3.396  0.00  0.00    -0.267 OA
BRANCH  20  23
ATOM     23  C   UNL d   1      -4.186   6.439  -3.426  0.00  0.00     0.035 A 
ATOM     24  C   UNL d   1      -3.565   6.238  -4.661  0.00  0.00     0.031 A 
ATOM     25  C   UNL d   1      -3.196   7.322  -5.463  0.00  0.00     0.026 A 
ATOM     26  C   UNL d   1      -3.472   8.617  -5.041  0.00  0.00     0.034 A 
ATOM     27  C   UNL d   1      -4.170   8.832  -3.855  0.00  0.00     0.026 A 
ATOM     28 CL   UNL d   1      -2.928   9.954  -5.975  0.00  0.00    -0.084 Cl
ATOM     29  C   UNL d   1      -4.541   7.744  -3.056  0.00  0.00     0.031 A 
ENDBRANCH  20  23
ENDBRANCH   1  19
TORSDOF 5
