REMARK  6 active torsions:
REMARK  status: ('A' for Active; 'I' for Inactive)
REMARK    1  A    between atoms: C_2  and  C_1 
REMARK    2  A    between atoms: C_14  and  C_8 
REMARK    3  A    between atoms: C_23  and  C_10 
REMARK    4  A    between atoms: C_13  and  O_18 
REMARK    5  A    between atoms: C_17  and  C_13 
REMARK    6  A    between atoms: O_18  and  C_23 
ROOT
ATOM      1  C   UNL d   1      -0.708   0.887  -0.091  0.00  0.00     0.128 A 
ATOM      2  C   UNL d   1      -0.972  -0.206   0.695  0.00  0.00     0.074 A 
ATOM      3  N   UNL d   1       0.786  -0.692  -0.648  0.00  0.00    -0.260 N 
ATOM      4  HN  UNL d   1       1.571  -1.170  -1.090  1.00  0.00     0.195 HD
ATOM      5  C   UNL d   1      -0.032  -1.187   0.296  0.00  0.00     0.068 A 
ATOM      6  O   UNL d   1       0.348   0.597  -0.899  0.00  0.00    -0.235 OA
ENDROOT
BRANCH   1   7
ATOM      7  C   UNL d   1      -1.462   2.163  -0.063  0.00  0.00     0.075 A 
ATOM      8  N   UNL d   1      -2.485   2.372   0.848  0.00  0.00    -0.349 N 
ATOM      9  C   UNL d   1      -2.994   3.574   0.674  0.00  0.00     0.075 A 
ATOM     10  HN  UNL d   1      -2.796   1.698   1.547  1.00  0.00     0.166 HD
ATOM     11  S   UNL d   1      -2.274   4.503  -0.590  0.00  0.00    -0.084 SA
ATOM     12  C   UNL d   1      -1.202   3.209  -0.921  0.00  0.00     0.084 A 
BRANCH   9  13
ATOM     13  C   UNL d   1      -4.064   4.203   1.518  0.00  0.00     0.243 C 
BRANCH  13  14
ATOM     14  O   UNL d   1      -4.929   3.194   2.069  0.00  0.00    -0.314 OA
BRANCH  14  15
ATOM     15  C   UNL d   1      -5.957   2.805   1.271  0.00  0.00     0.266 C 
ATOM     16  O   UNL d   1      -6.101   3.173   0.110  0.00  0.00    -0.264 OA
BRANCH  15  17
ATOM     17  C   UNL d   1      -6.972   1.924   2.014  0.00  0.00     0.037 C 
ATOM     18  C   UNL d   1      -6.552   1.613   3.459  0.00  0.00     0.025 C 
ATOM     19  C   UNL d   1      -8.309   2.682   2.035  0.00  0.00     0.025 C 
ATOM     20  C   UNL d   1      -7.144   0.603   1.254  0.00  0.00     0.025 C 
ENDBRANCH  15  17
ENDBRANCH  14  15
ENDBRANCH  13  14
ENDBRANCH   9  13
ENDBRANCH   1   7
BRANCH   5  21
ATOM     21  C   UNL d   1       0.076  -2.557   0.787  0.00  0.00    -0.007 A 
ATOM     22  C   UNL d   1       1.318  -3.203   0.850  0.00  0.00     0.021 A 
ATOM     23  C   UNL d   1       1.428  -4.522   1.325  0.00  0.00    -0.055 A 
ATOM     24  C   UNL d   1       2.783  -5.171   1.383  0.00  0.00     0.049 C 
ATOM     25  C   UNL d   1       0.266  -5.208   1.734  0.00  0.00    -0.056 A 
ATOM     26  C   UNL d   1      -0.974  -4.560   1.667  0.00  0.00     0.008 A 
ATOM     27  C   UNL d   1       0.327  -6.624   2.237  0.00  0.00     0.049 C 
ATOM     28  C   UNL d   1      -1.068  -3.248   1.201  0.00  0.00     0.014 A 
ENDBRANCH   5  21
TORSDOF 6
