REMARK  6 active torsions:
REMARK  status: ('A' for Active; 'I' for Inactive)
REMARK    1  A    between atoms: N_4  and  C_1 
REMARK    2  A    between atoms: C_8  and  C_2 
REMARK    3  A    between atoms: C_11  and  C_3 
REMARK       I    between atoms: C_7  and  N_4 
REMARK    4  A    between atoms: C_9  and  C_7 
REMARK    5  A    between atoms: O_19  and  C_8 
REMARK    6  A    between atoms: C_24  and  O_19 
ROOT
ATOM      1  C   UNL d   1       0.613   1.257   0.191  0.00  0.00     0.094 C 
ATOM      2  C   UNL d   1       1.723   0.508   0.558  0.00  0.00     0.085 C 
ATOM      3  C   UNL d   1       1.461  -0.902   0.229  0.00  0.00    -0.000 C 
ATOM      4  S   UNL d   1      -0.712   0.304  -0.337  0.00  0.00    -0.082 SA
ATOM      5  C   UNL d   1       0.148  -1.132  -0.127  0.00  0.00     0.065 C 
ENDROOT
BRANCH   1   6
ATOM      6  N   UNL d   1       0.222   2.574   0.083  0.00  0.00    -0.316 N 
ATOM      7  C   UNL d   1       0.244   3.493   1.114  0.00  0.00     0.263 C 
ATOM      8  O   UNL d   1       0.958   3.423   2.103  0.00  0.00    -0.267 OA
ATOM      9  H   UNL d   1      -0.601   2.678  -0.501  0.00  0.00     0.169 HD
BRANCH   7  10
ATOM     10  C   UNL d   1      -0.788   4.544   0.949  0.00  0.00     0.072 A 
ATOM     11  S   UNL d   1      -2.052   4.386  -0.217  0.00  0.00    -0.097 SA
ATOM     12  C   UNL d   1      -2.813   5.829   0.281  0.00  0.00     0.050 A 
ATOM     13  C   UNL d   1      -2.117   6.447   1.295  0.00  0.00     0.009 A 
ATOM     14  C   UNL d   1      -0.954   5.707   1.682  0.00  0.00     0.025 A 
ENDBRANCH   7  10
ENDBRANCH   1   6
BRANCH   2  15
ATOM     15  C   UNL d   1       3.009   1.002   1.091  0.00  0.00     0.297 C 
ATOM     16  O   UNL d   1       3.386   2.159   1.062  0.00  0.00    -0.259 OA
BRANCH  15  17
ATOM     17  O   UNL d   1       3.732  -0.029   1.625  0.00  0.00    -0.318 OA
BRANCH  17  18
ATOM     18  C   UNL d   1       4.866   0.216   2.468  0.00  0.00     0.174 C 
ATOM     19  C   UNL d   1       6.166  -0.206   1.803  0.00  0.00     0.034 C 
ENDBRANCH  17  18
ENDBRANCH  15  17
ENDBRANCH   2  15
BRANCH   3  20
ATOM     20  C   UNL d   1       2.402  -2.016   0.102  0.00  0.00    -0.024 A 
ATOM     21  C   UNL d   1       2.172  -3.239   0.744  0.00  0.00     0.013 A 
ATOM     22  C   UNL d   1       3.017  -4.327   0.502  0.00  0.00     0.020 A 
ATOM     23  C   UNL d   1       4.094  -4.190  -0.367  0.00  0.00     0.011 A 
ATOM     24  C   UNL d   1       4.345  -2.972  -1.001  0.00  0.00     0.020 A 
ATOM     25 BR   UNL d   1       5.219  -5.669  -0.718  0.00  0.00    -0.051 Br
ATOM     26  C   UNL d   1       3.494  -1.891  -0.771  0.00  0.00     0.013 A 
ENDBRANCH   3  20
TORSDOF 6
