REMARK  10 active torsions:
REMARK  status: ('A' for Active; 'I' for Inactive)
REMARK       I    between atoms: C_3  and  N_6 
REMARK       I    between atoms: N_15  and  C_3 
REMARK    1  A    between atoms: C_9  and  C_4 
REMARK    2  A    between atoms: C_8  and  C_5 
REMARK    3  A    between atoms: N_6  and  C_13 
REMARK    4  A    between atoms: S_10  and  C_7 
REMARK    5  A    between atoms: O_21  and  C_8 
REMARK    6  A    between atoms: O_20  and  C_9 
REMARK    7  A    between atoms: C_14  and  S_10 
REMARK    8  A    between atoms: C_19  and  N_15 
REMARK    9  A    between atoms: C_29  and  O_20 
REMARK   10  A    between atoms: C_30  and  O_21 
ROOT
ATOM      1  C   UNL d   1       3.025   2.936   1.394  0.00  0.00     0.033 A 
ATOM      2  C   UNL d   1       3.629   1.692   1.127  0.00  0.00     0.027 A 
ATOM      3  C   UNL d   1       3.724   4.131   1.200  0.00  0.00     0.025 A 
ATOM      4  C   UNL d   1       4.924   1.682   0.594  0.00  0.00     0.021 A 
ATOM      5  C   UNL d   1       5.609   2.883   0.368  0.00  0.00     0.001 A 
ATOM      6  C   UNL d   1       5.021   4.103   0.697  0.00  0.00     0.002 A 
ENDROOT
BRANCH   2   7
ATOM      7  S   UNL d   1       2.784   0.173   1.525  0.00  0.00    -0.089 SA
BRANCH   7   8
ATOM      8  C   UNL d   1       2.628  -0.736  -0.001  0.00  0.00     0.010 A 
ATOM      9  C   UNL d   1       2.462  -0.165  -1.261  0.00  0.00     0.054 A 
ATOM     10  C   UNL d   1       2.283  -1.013  -2.354  0.00  0.00     0.110 A 
ATOM     11  N   UNL d   1       2.264  -2.371  -2.255  0.00  0.00    -0.346 N 
ATOM     12  C   UNL d   1       2.407  -2.900  -1.019  0.00  0.00     0.110 A 
ATOM     13  HN  UNL d   1       2.148  -2.963  -3.077  1.00  0.00     0.166 HD
ATOM     14  C   UNL d   1       2.588  -2.127   0.118  0.00  0.00     0.054 A 
BRANCH  10  15
ATOM     15  C   UNL d   1       2.053  -0.424  -3.712  0.00  0.00     0.310 C 
ATOM     16  O   UNL d   1       1.953   0.772  -3.931  0.00  0.00    -0.258 OA
BRANCH  15  17
ATOM     17  O   UNL d   1       1.950  -1.416  -4.634  0.00  0.00    -0.317 OA
BRANCH  17  18
ATOM     18  C   UNL d   1       1.616  -1.024  -5.973  0.00  0.00     0.175 C 
ATOM     19  C   UNL d   1       0.119  -1.161  -6.171  0.00  0.00     0.034 C 
ENDBRANCH  17  18
ENDBRANCH  15  17
ENDBRANCH  10  15
BRANCH  12  20
ATOM     20  C   UNL d   1       2.360  -4.385  -0.863  0.00  0.00     0.310 C 
ATOM     21  O   UNL d   1       2.284  -4.937   0.225  0.00  0.00    -0.258 OA
BRANCH  20  22
ATOM     22  O   UNL d   1       2.462  -5.005  -2.065  0.00  0.00    -0.317 OA
BRANCH  22  23
ATOM     23  C   UNL d   1       2.566  -6.435  -2.021  0.00  0.00     0.175 C 
ATOM     24  C   UNL d   1       1.192  -7.072  -2.103  0.00  0.00     0.034 C 
ENDBRANCH  22  23
ENDBRANCH  20  22
ENDBRANCH  12  20
ENDBRANCH   7   8
ENDBRANCH   2   7
BRANCH   1  25
ATOM     25  N   UNL d   1       1.652   3.037   1.746  0.00  0.00    -0.214 NA
ATOM     26  C   UNL d   1       0.780   3.074   0.672  0.00  0.00     0.281 C 
ATOM     27  N   UNL d   1      -0.549   3.140   1.037  0.00  0.00    -0.215 NA
ATOM     28  O   UNL d   1       1.096   2.970  -0.513  0.00  0.00    -0.260 OA
ATOM     29  H   UNL d   1      -0.976   2.648   0.251  0.00  0.00     0.138 HD
ATOM     30  H   UNL d   1       1.334   2.292   2.357  0.00  0.00     0.138 HD
BRANCH  27  31
ATOM     31  C   UNL d   1      -1.109   4.454   0.964  0.00  0.00     0.016 A 
ATOM     32  C   UNL d   1      -1.181   5.116  -0.266  0.00  0.00     0.024 A 
ATOM     33  C   UNL d   1      -1.716   6.399  -0.338  0.00  0.00     0.008 A 
ATOM     34  C   UNL d   1      -2.215   7.019   0.811  0.00  0.00    -0.062 A 
ATOM     35  C   UNL d   1      -2.162   6.335   2.036  0.00  0.00     0.008 A 
ATOM     36  C   UNL d   1      -2.734   8.424   0.742  0.00  0.00     0.048 C 
ATOM     37  C   UNL d   1      -1.610   5.052   2.115  0.00  0.00     0.024 A 
ENDBRANCH  27  31
ENDBRANCH   1  25
TORSDOF 10
