REMARK  9 active torsions:
REMARK  status: ('A' for Active; 'I' for Inactive)
REMARK    1  A    between atoms: N_2  and  S_1 
REMARK    2  A    between atoms: C_3  and  S_1 
REMARK    3  A    between atoms: C_4  and  N_2 
REMARK    4  A    between atoms: C_10  and  N_2 
REMARK    5  A    between atoms: C_5  and  C_4 
REMARK    6  A    between atoms: C_8  and  C_10 
REMARK    7  A    between atoms: C_9  and  C_8 
REMARK    8  A    between atoms: O_21  and  C_9 
REMARK    9  A    between atoms: C_23  and  O_21 
ROOT
ATOM      1  N   UNL d   1       0.414   0.202  -1.495  0.00  0.00    -0.200 NA
ENDROOT
BRANCH   1   2
ATOM      2  S   UNL d   1       1.110   0.021   0.076  0.00  0.00     0.244 S 
ATOM      3  O   UNL d   1       0.735   1.193   0.834  0.00  0.00    -0.206 OA
ATOM      4  O   UNL d   1       2.500  -0.347  -0.087  0.00  0.00    -0.206 OA
BRANCH   2   5
ATOM      5  C   UNL d   1       0.314  -1.379   0.820  0.00  0.00     0.074 A 
ATOM      6  C   UNL d   1       0.441  -2.643   0.238  0.00  0.00     0.026 A 
ATOM      7  C   UNL d   1      -0.135  -3.746   0.874  0.00  0.00     0.025 A 
ATOM      8  C   UNL d   1      -0.817  -3.582   2.080  0.00  0.00     0.034 A 
ATOM      9  C   UNL d   1      -0.935  -2.317   2.664  0.00  0.00     0.025 A 
ATOM     10 CL   UNL d   1      -1.502  -4.946   2.872  0.00  0.00    -0.084 Cl
ATOM     11  C   UNL d   1      -0.368  -1.211   2.031  0.00  0.00     0.026 A 
ENDBRANCH   2   5
ENDBRANCH   1   2
BRANCH   1  12
ATOM     12  C   UNL d   1      -1.089   0.191  -1.468  0.00  0.00     0.172 C 
BRANCH  12  13
ATOM     13  C   UNL d   1      -1.668   0.211  -2.845  0.00  0.00     0.066 A 
ATOM     14  O   UNL d   1      -2.495   1.260  -3.131  0.00  0.00    -0.326 OA
ATOM     15  C   UNL d   1      -2.910   1.108  -4.414  0.00  0.00     0.142 A 
ATOM     16  C   UNL d   1      -2.365  -0.028  -4.963  0.00  0.00     0.027 A 
ATOM     17  C   UNL d   1      -1.562  -0.610  -3.950  0.00  0.00     0.036 A 
ENDBRANCH  12  13
ENDBRANCH   1  12
BRANCH   1  18
ATOM     18  C   UNL d   1       0.903   1.473  -2.179  0.00  0.00     0.118 C 
BRANCH  18  19
ATOM     19  C   UNL d   1       2.414   1.549  -2.344  0.00  0.00     0.126 C 
BRANCH  19  20
ATOM     20  C   UNL d   1       2.775   2.755  -3.167  0.00  0.00     0.259 C 
ATOM     21  O   UNL d   1       1.982   3.575  -3.606  0.00  0.00    -0.265 OA
BRANCH  20  22
ATOM     22  O   UNL d   1       4.118   2.757  -3.396  0.00  0.00    -0.322 OA
BRANCH  22  23
ATOM     23  C   UNL d   1       4.559   3.645  -4.430  0.00  0.00     0.174 C 
ATOM     24  C   UNL d   1       4.451   2.909  -5.753  0.00  0.00     0.034 C 
ENDBRANCH  22  23
ENDBRANCH  20  22
ENDBRANCH  19  20
ENDBRANCH  18  19
ENDBRANCH   1  18
TORSDOF 9
