REMARK  6 active torsions:
REMARK  status: ('A' for Active; 'I' for Inactive)
REMARK    1  A    between atoms: C_5  and  C_1 
REMARK    2  A    between atoms: C_6  and  C_2 
REMARK    3  A    between atoms: N_21  and  C_6 
REMARK    4  A    between atoms: C_9  and  O_13 
REMARK    5  A    between atoms: C_12  and  C_9 
REMARK    6  A    between atoms: O_13  and  N_10 
ROOT
ATOM      1  C   UNL d   1       2.230  -4.269  -0.186  0.00  0.00     0.086 A 
ATOM      2  C   UNL d   1       1.643  -2.965  -0.013  0.00  0.00     0.065 A 
ATOM      3  N   UNL d   1       3.552  -4.157  -0.399  0.00  0.00    -0.259 N 
ATOM      4  HN  UNL d   1       4.202  -4.917  -0.601  1.00  0.00     0.195 HD
ATOM      5  O   UNL d   1       3.858  -2.827  -0.293  0.00  0.00    -0.241 OA
ATOM      6  C   UNL d   1       2.731  -2.111  -0.059  0.00  0.00     0.088 A 
ATOM      7  C   UNL d   1       2.955  -0.660   0.101  0.00  0.00     0.080 C 
ENDROOT
BRANCH   2   8
ATOM      8  C   UNL d   1       0.252  -2.606   0.178  0.00  0.00     0.114 C 
ATOM      9  N   UNL d   1      -0.534  -3.450   0.755  0.00  0.00    -0.245 N 
ATOM     10  HN  UNL d   1      -0.241  -4.342   1.154  1.00  0.00     0.196 HD
BRANCH   9  11
ATOM     11  O   UNL d   1      -1.861  -2.962   0.756  0.00  0.00    -0.192 OA
BRANCH  11  12
ATOM     12  C   UNL d   1      -2.737  -3.933   1.178  0.00  0.00     0.339 C 
ATOM     13  O   UNL d   1      -2.440  -5.050   1.588  0.00  0.00    -0.255 OA
BRANCH  12  14
ATOM     14  C   UNL d   1      -4.093  -3.446   1.043  0.00  0.00     0.151 A 
ATOM     15  O   UNL d   1      -4.340  -2.218   0.480  0.00  0.00    -0.317 OA
ATOM     16  C   UNL d   1      -5.688  -2.046   0.461  0.00  0.00     0.143 A 
ATOM     17  C   UNL d   1      -6.323  -3.137   1.002  0.00  0.00     0.027 A 
ATOM     18  C   UNL d   1      -5.299  -4.040   1.376  0.00  0.00     0.045 A 
ENDBRANCH  12  14
ENDBRANCH  11  12
ENDBRANCH   9  11
BRANCH   8  19
ATOM     19  N   UNL d   1      -0.094  -1.383  -0.333  0.00  0.00    -0.286 NA
ATOM     20  H   UNL d   1       0.399  -1.100  -1.172  0.00  0.00     0.125 HD
ATOM     21  H   UNL d   1      -1.098  -1.270  -0.421  0.00  0.00     0.125 HD
ENDBRANCH   8  19
ENDBRANCH   2   8
BRANCH   1  22
ATOM     22  C   UNL d   1       1.601  -5.590  -0.232  0.00  0.00     0.054 A 
ATOM     23  C   UNL d   1       0.495  -5.803  -1.065  0.00  0.00     0.130 A 
ATOM     24  F   UNL d   1       0.005  -4.805  -1.820  0.00  0.00    -0.205 F 
ATOM     25  C   UNL d   1      -0.121  -7.052  -1.168  0.00  0.00     0.043 A 
ATOM     26  C   UNL d   1       0.382  -8.134  -0.454  0.00  0.00     0.005 A 
ATOM     27  C   UNL d   1       1.490  -7.954   0.371  0.00  0.00     0.025 A 
ATOM     28  C   UNL d   1       2.091  -6.691   0.493  0.00  0.00     0.049 A 
ATOM     29 CL   UNL d   1       3.425  -6.585   1.595  0.00  0.00    -0.083 Cl
ENDBRANCH   1  22
TORSDOF 6
