REMARK  4 active torsions:
REMARK  status: ('A' for Active; 'I' for Inactive)
REMARK    1  A    between atoms: C_7  and  C_1 
REMARK    2  A    between atoms: C_8  and  C_2 
REMARK    3  A    between atoms: O_15  and  C_7 
REMARK    4  A    between atoms: O_16  and  C_8 
ROOT
ATOM      1  C   UNL d   1       2.327  -0.759  -0.136  0.00  0.00     0.123 A 
ATOM      2  C   UNL d   1       2.283   0.604  -0.117  0.00  0.00     0.129 A 
ATOM      3  C   UNL d   1      -0.166  -0.694   0.092  0.00  0.00     0.049 A 
ATOM      4  C   UNL d   1       1.032  -1.517   0.045  0.00  0.00     0.203 A 
ATOM      5  N   UNL d   1       1.083   1.318   0.039  0.00  0.00    -0.349 N 
ATOM      6  C   UNL d   1      -0.117   0.716   0.092  0.00  0.00     0.054 A 
ATOM      7  S   UNL d   1      -2.597   0.145   0.212  0.00  0.00    -0.110 SA
ATOM      8  C   UNL d   1      -1.468  -1.148   0.163  0.00  0.00     0.067 A 
ATOM      9  C   UNL d   1      -1.345   1.319   0.152  0.00  0.00     0.080 A 
ATOM     10  O   UNL d   1       0.985  -2.732   0.192  0.00  0.00    -0.286 OA
ATOM     11  H   UNL d   1       1.206   2.334   0.078  0.00  0.00     0.166 HD
ENDROOT
BRANCH   1  12
ATOM     12  C   UNL d   1       3.526  -1.595  -0.356  0.00  0.00     0.299 C 
ATOM     13  O   UNL d   1       3.511  -2.599  -1.052  0.00  0.00    -0.259 OA
BRANCH  12  14
ATOM     14  O   UNL d   1       4.616  -1.148   0.321  0.00  0.00    -0.322 OA
ATOM     15  C   UNL d   1       5.812  -1.890   0.040  0.00  0.00     0.213 C 
ENDBRANCH  12  14
ENDBRANCH   1  12
BRANCH   2  16
ATOM     16  C   UNL d   1       3.459   1.529  -0.230  0.00  0.00     0.310 C 
ATOM     17  O   UNL d   1       3.405   2.654   0.258  0.00  0.00    -0.258 OA
BRANCH  16  18
ATOM     18  O   UNL d   1       4.473   1.067  -0.993  0.00  0.00    -0.321 OA
ATOM     19  C   UNL d   1       5.599   1.949  -1.020  0.00  0.00     0.213 C 
ENDBRANCH  16  18
ENDBRANCH   2  16
TORSDOF 4
