REMARK  3 active torsions:
REMARK  status: ('A' for Active; 'I' for Inactive)
REMARK    1  A    between atoms: C_6  and  C_1 
REMARK    2  A    between atoms: N_15  and  C_2 
REMARK    3  A    between atoms: C_10  and  C_6 
ROOT
ATOM      1  C   UNL d   1       2.465   0.022   0.106  0.00  0.00     0.085 C 
ATOM      2  C   UNL d   1       1.618   1.118   0.032  0.00  0.00     0.060 C 
ATOM      3  C   UNL d   1       0.213   0.770   0.079  0.00  0.00     0.031 A 
ATOM      4  S   UNL d   1       1.585  -1.410   0.400  0.00  0.00    -0.065 SA
ATOM      5  C   UNL d   1       0.098  -0.617   0.191  0.00  0.00     0.088 A 
ATOM      6  N   UNL d   1      -1.027  -1.358   0.177  0.00  0.00    -0.354 N 
ATOM      7  HN  UNL d   1      -1.015  -2.375   0.250  1.00  0.00     0.166 HD
ATOM      8  C   UNL d   1      -1.017   1.489   0.017  0.00  0.00    -0.045 A 
ATOM      9  C   UNL d   1      -2.206   0.728   0.002  0.00  0.00     0.032 A 
ATOM     10  C   UNL d   1      -2.164  -0.657   0.061  0.00  0.00     0.006 A 
ATOM     11  C   UNL d   1      -1.189   2.984  -0.022  0.00  0.00     0.049 C 
ATOM     12  C   UNL d   1      -3.440  -1.445   0.021  0.00  0.00     0.068 C 
ENDROOT
BRANCH   1  13
ATOM     13  C   UNL d   1       3.922   0.026   0.009  0.00  0.00     0.203 C 
ATOM     14  O   UNL d   1       4.588   1.032   0.277  0.00  0.00    -0.286 OA
BRANCH  13  15
ATOM     15  C   UNL d   1       4.655  -1.155  -0.549  0.00  0.00     0.037 A 
ATOM     16  C   UNL d   1       5.916  -1.546  -0.075  0.00  0.00     0.048 A 
ATOM     17 CL   UNL d   1       6.707  -0.800   1.268  0.00  0.00    -0.083 Cl
ATOM     18  C   UNL d   1       6.584  -2.623  -0.673  0.00  0.00     0.025 A 
ATOM     19  C   UNL d   1       5.995  -3.331  -1.723  0.00  0.00     0.002 A 
ATOM     20  C   UNL d   1       4.746  -2.954  -2.197  0.00  0.00     0.001 A 
ATOM     21  C   UNL d   1       4.093  -1.857  -1.634  0.00  0.00     0.017 A 
ENDBRANCH  13  15
ENDBRANCH   1  13
BRANCH   2  22
ATOM     22  N   UNL d   1       2.120   2.366  -0.135  0.00  0.00    -0.397 N 
ATOM     23  H   UNL d   1       3.124   2.513   0.013  0.00  0.00     0.156 HD
ATOM     24  H   UNL d   1       1.593   3.208   0.049  0.00  0.00     0.156 HD
ENDBRANCH   2  22
TORSDOF 3
