REMARK  4 active torsions:
REMARK  status: ('A' for Active; 'I' for Inactive)
REMARK    1  A    between atoms: N_2  and  C_4 
REMARK    2  A    between atoms: C_7  and  C_5 
REMARK       I    between atoms: N_9  and  C_7 
REMARK    3  A    between atoms: C_13  and  N_9 
REMARK    4  A    between atoms: C_15  and  C_13 
ROOT
ATOM      1  N   UNL d   1      -1.572   0.953   0.007  0.00  0.00    -0.349 N 
ATOM      2  C   UNL d   1      -0.229   0.641   0.021  0.00  0.00     0.076 A 
ATOM      3  C   UNL d   1       0.918   1.462   0.072  0.00  0.00     0.130 A 
ATOM      4  C   UNL d   1      -2.353  -0.181  -0.094  0.00  0.00     0.102 A 
ATOM      5  C   UNL d   1      -1.478  -1.253  -0.087  0.00  0.00     0.049 A 
ATOM      6  C   UNL d   1      -0.146  -0.750  -0.035  0.00  0.00    -0.005 A 
ATOM      7  C   UNL d   1       2.177   0.830   0.054  0.00  0.00     0.038 A 
ATOM      8  C   UNL d   1       1.126  -1.356  -0.039  0.00  0.00     0.014 A 
ATOM      9  C   UNL d   1       2.276  -0.559  -0.002  0.00  0.00     0.003 A 
ATOM     10  H   UNL d   1      -1.949   1.896   0.038  0.00  0.00     0.166 HD
ENDROOT
BRANCH   4  11
ATOM     11  C   UNL d   1      -3.797  -0.086  -0.180  0.00  0.00     0.268 C 
ATOM     12  N   UNL d   1      -4.474  -1.273  -0.346  0.00  0.00    -0.351 N 
ATOM     13  H   UNL d   1      -3.971  -2.146  -0.327  0.00  0.00     0.163 HD
ATOM     14  O   UNL d   1      -4.369   0.997  -0.112  0.00  0.00    -0.266 OA
BRANCH  12  15
ATOM     15  C   UNL d   1      -5.922  -1.325  -0.341  0.00  0.00     0.161 C 
BRANCH  15  16
ATOM     16  C   UNL d   1      -6.521  -2.064  -1.517  0.00  0.00    -0.041 A 
ATOM     17  C   UNL d   1      -7.750  -2.727  -1.352  0.00  0.00     0.009 A 
ATOM     18  C   UNL d   1      -8.397  -3.321  -2.439  0.00  0.00     0.001 A 
ATOM     19  C   UNL d   1      -7.828  -3.258  -3.707  0.00  0.00     0.000 A 
ATOM     20  C   UNL d   1      -6.611  -2.603  -3.888  0.00  0.00     0.001 A 
ATOM     21  C   UNL d   1      -5.965  -2.004  -2.802  0.00  0.00     0.009 A 
ENDBRANCH  15  16
ENDBRANCH  12  15
ENDBRANCH   4  11
BRANCH   3  22
ATOM     22  N   UNL d   1       0.862   2.927   0.137  0.00  0.00    -0.113 N 
ATOM     23  O   UNL d   1      -0.263   3.449   0.170  0.00  0.00    -0.532 OA
ATOM     24  O   UNL d   1       1.930   3.554   0.156  0.00  0.00    -0.532 OA
ENDBRANCH   3  22
TORSDOF 4
