REMARK  4 active torsions:
REMARK  status: ('A' for Active; 'I' for Inactive)
REMARK    1  A    between atoms: C_2  and  S_1 
REMARK    2  A    between atoms: C_5  and  S_1 
REMARK    3  A    between atoms: C_9  and  C_2 
REMARK    4  A    between atoms: N_4  and  C_9 
ROOT
ATOM      1  N   UNL d   1       2.708  -4.455   6.497  0.00  0.00    -0.197 NA
ATOM      2  N   UNL d   1       0.544  -2.588   2.892  0.00  0.00     0.089 N 
ATOM      3  C   UNL d   1       2.892  -3.963   5.464  0.00  0.00     0.064 C 
ATOM      4  C   UNL d   1       0.968  -3.998   2.973  0.00  0.00     0.273 C 
ATOM      5  C   UNL d   1       1.067  -1.844   4.045  0.00  0.00     0.273 C 
ATOM      6  C   UNL d   1       3.124  -3.330   4.152  0.00  0.00     0.096 C 
ATOM      7  C   UNL d   1       2.593  -1.890   4.149  0.00  0.00     0.049 C 
ATOM      8  C   UNL d   1       2.492  -4.168   3.034  0.00  0.00     0.049 C 
ENDROOT
BRANCH   2   9
ATOM      9  C   UNL d   1       0.880  -2.012   1.573  0.00  0.00     0.287 C 
BRANCH   9  10
ATOM     10  C   UNL d   1       0.432  -0.570   1.382  0.00  0.00     0.176 C 
BRANCH  10  11
ATOM     11  S   UNL d   1       0.941   0.000  -0.227  0.00  0.00     0.177 S 
ATOM     12  O   UNL d   1       0.186  -0.713  -1.238  0.00  0.00    -0.223 OA
ATOM     13  O   UNL d   1       2.392   0.027  -0.260  0.00  0.00    -0.223 OA
BRANCH  11  14
ATOM     14  C   UNL d   1       0.381   1.685  -0.232  0.00  0.00     0.059 A 
ATOM     15  C   UNL d   1       1.251   2.703   0.172  0.00  0.00     0.025 A 
ATOM     16  C   UNL d   1       0.802   4.025   0.171  0.00  0.00     0.025 A 
ATOM     17  C   UNL d   1      -0.500   4.315  -0.240  0.00  0.00     0.034 A 
ATOM     18  C   UNL d   1      -1.360   3.297  -0.655  0.00  0.00     0.025 A 
ATOM     19 CL   UNL d   1      -1.050   5.945  -0.237  0.00  0.00    -0.084 Cl
ATOM     20  C   UNL d   1      -0.918   1.973  -0.656  0.00  0.00     0.025 A 
ENDBRANCH  11  14
ENDBRANCH  10  11
ENDBRANCH   9  10
ENDBRANCH   2   9
TORSDOF 4
