REMARK  6 active torsions:
REMARK  status: ('A' for Active; 'I' for Inactive)
REMARK    1  A    between atoms: C_11  and  C_21 
REMARK    2  A    between atoms: C_20  and  C_11 
REMARK    3  A    between atoms: C_22  and  O_25 
REMARK    4  A    between atoms: O_24  and  C_23 
REMARK    5  A    between atoms: C_35  and  O_24 
REMARK    6  A    between atoms: O_25  and  C_34 
ROOT
ATOM      1  C   UNL d   1      -9.158   1.265   0.079  0.00  0.00     0.007 C 
ATOM      2  C   UNL d   1      -9.316   2.115   1.367  0.00  0.00     0.025 C 
ATOM      3  C   UNL d   1      -9.248   2.284  -1.096  0.00  0.00     0.025 C 
ENDROOT
BRANCH   1   4
ATOM      4  C   UNL d   1      -7.767   0.568   0.036  0.00  0.00    -0.045 A 
ATOM      5  C   UNL d   1      -7.138   0.267  -1.187  0.00  0.00     0.011 A 
ATOM      6  C   UNL d   1      -5.880  -0.345  -1.233  0.00  0.00     0.038 A 
ATOM      7  C   UNL d   1      -5.256  -0.763  -0.059  0.00  0.00     0.076 A 
ATOM      8  C   UNL d   1      -5.855  -0.476   1.164  0.00  0.00     0.038 A 
ATOM      9  C   UNL d   1      -7.087   0.187   1.211  0.00  0.00     0.011 A 
BRANCH   7  10
ATOM     10  O   UNL d   1      -4.043  -1.408   0.004  0.00  0.00    -0.311 OA
BRANCH  10  11
ATOM     11  C   UNL d   1      -3.626  -2.201  -1.042  0.00  0.00     0.077 A 
ATOM     12  C   UNL d   1      -2.249  -2.200  -1.294  0.00  0.00     0.055 A 
ATOM     13  C   UNL d   1      -1.799  -2.980  -2.341  0.00  0.00     0.051 A 
ATOM     14  C   UNL d   1      -0.450  -3.180  -2.865  0.00  0.00     0.261 A 
ATOM     15  C   UNL d   1      -2.661  -3.741  -3.111  0.00  0.00     0.048 A 
ATOM     16  N   UNL d   1      -0.567  -4.037  -3.922  0.00  0.00    -0.284 N 
ATOM     17  O   UNL d   1       0.546  -2.649  -2.405  0.00  0.00    -0.267 OA
ATOM     18  C   UNL d   1      -1.864  -4.411  -4.134  0.00  0.00     0.261 A 
ATOM     19  C   UNL d   1       0.528  -4.486  -4.745  0.00  0.00     0.163 C 
ATOM     20  O   UNL d   1      -2.325  -5.143  -4.991  0.00  0.00    -0.267 OA
ATOM     21  C   UNL d   1      -4.017  -3.788  -2.863  0.00  0.00     0.021 A 
ATOM     22  C   UNL d   1      -4.495  -3.027  -1.793  0.00  0.00     0.038 A 
ENDBRANCH  10  11
ENDBRANCH   7  10
ENDBRANCH   1   4
BRANCH   1  23
ATOM     23  C   UNL d   1     -10.334   0.252   0.055  0.00  0.00    -0.045 A 
ATOM     24  C   UNL d   1     -10.216  -1.012   0.661  0.00  0.00     0.011 A 
ATOM     25  C   UNL d   1     -11.286  -1.913   0.701  0.00  0.00     0.038 A 
ATOM     26  C   UNL d   1     -12.496  -1.595   0.090  0.00  0.00     0.076 A 
ATOM     27  C   UNL d   1     -12.659  -0.331  -0.469  0.00  0.00     0.038 A 
ATOM     28  C   UNL d   1     -11.594   0.581  -0.483  0.00  0.00     0.011 A 
BRANCH  26  29
ATOM     29  O   UNL d   1     -13.588  -2.434   0.049  0.00  0.00    -0.311 OA
BRANCH  29  30
ATOM     30  C   UNL d   1     -13.393  -3.795  -0.067  0.00  0.00     0.077 A 
ATOM     31  C   UNL d   1     -14.347  -4.608   0.558  0.00  0.00     0.055 A 
ATOM     32  C   UNL d   1     -14.160  -5.976   0.480  0.00  0.00     0.051 A 
ATOM     33  C   UNL d   1     -14.938  -7.079   1.045  0.00  0.00     0.261 A 
ATOM     34  C   UNL d   1     -13.084  -6.530  -0.191  0.00  0.00     0.048 A 
ATOM     35  N   UNL d   1     -14.285  -8.230   0.698  0.00  0.00    -0.284 N 
ATOM     36  O   UNL d   1     -15.956  -6.933   1.695  0.00  0.00    -0.267 OA
ATOM     37  C   UNL d   1     -14.691  -9.558   1.087  0.00  0.00     0.163 C 
ATOM     38  C   UNL d   1     -13.162  -7.980  -0.040  0.00  0.00     0.261 A 
ATOM     39  O   UNL d   1     -12.349  -8.761  -0.495  0.00  0.00    -0.267 OA
ATOM     40  C   UNL d   1     -12.151  -5.755  -0.848  0.00  0.00     0.021 A 
ATOM     41  C   UNL d   1     -12.331  -4.370  -0.805  0.00  0.00     0.038 A 
ENDBRANCH  29  30
ENDBRANCH  26  29
ENDBRANCH   1  23
TORSDOF 6
