REMARK  4 active torsions:
REMARK  status: ('A' for Active; 'I' for Inactive)
REMARK    1  A    between atoms: C_21  and  N_1 
REMARK    2  A    between atoms: C_5  and  S_12 
REMARK    3  A    between atoms: S_12  and  C_8 
REMARK    4  A    between atoms: C_22  and  C_9 
ROOT
ATOM      1  N   UNL d   1      -1.280  -1.302   0.002  0.00  0.00    -0.281 N 
ATOM      2  C   UNL d   1      -0.053  -0.562  -0.019  0.00  0.00     0.135 A 
ATOM      3  C   UNL d   1      -2.427  -0.488   0.033  0.00  0.00     0.152 A 
ATOM      4  C   UNL d   1      -0.248   0.801  -0.015  0.00  0.00     0.086 A 
ATOM      5  S   UNL d   1      -1.949   1.226  -0.023  0.00  0.00    -0.053 SA
ATOM      6  C   UNL d   1       0.883   1.585   0.015  0.00  0.00     0.100 A 
ATOM      7  N   UNL d   1       1.169  -1.121  -0.049  0.00  0.00    -0.331 N 
ATOM      8  HN  UNL d   1       1.293  -2.133  -0.092  1.00  0.00     0.168 HD
ATOM      9  N   UNL d   1       2.126   1.054   0.039  0.00  0.00    -0.339 N 
ATOM     10  HN  UNL d   1       2.956   1.644   0.100  1.00  0.00     0.168 HD
ATOM     11  C   UNL d   1       2.219  -0.283  -0.021  0.00  0.00     0.079 A 
ATOM     12  S   UNL d   1      -4.042  -0.879   0.235  0.00  0.00    -0.052 SA
ATOM     13  C   UNL d   1       3.586  -0.893  -0.010  0.00  0.00     0.089 C 
ENDROOT
BRANCH   6  14
ATOM     14  S   UNL d   1       0.807   3.356   0.151  0.00  0.00    -0.033 SA
BRANCH  14  15
ATOM     15  C   UNL d   1       0.925   3.766  -1.525  0.00  0.00     0.169 A 
ATOM     16  N   UNL d   1       1.291   5.007  -1.972  0.00  0.00    -0.315 N 
ATOM     17  C   UNL d   1       1.281   4.935  -3.355  0.00  0.00     0.134 A 
ATOM     18  C   UNL d   1       1.561   6.179  -1.174  0.00  0.00     0.160 C 
ATOM     19  N   UNL d   1       0.861   3.725  -3.691  0.00  0.00    -0.283 N 
ATOM     20  N   UNL d   1       0.648   2.994  -2.547  0.00  0.00    -0.278 N 
ATOM     21  HN  UNL d   1       0.719   3.390  -4.644  1.00  0.00     0.188 HD
ATOM     22  HN  UNL d   1       0.332   2.025  -2.502  1.00  0.00     0.189 HD
BRANCH  17  23
ATOM     23  C   UNL d   1       1.593   6.014  -4.301  0.00  0.00     0.009 A 
ATOM     24  C   UNL d   1       2.599   6.962  -4.067  0.00  0.00     0.015 A 
ATOM     25  C   UNL d   1       2.820   8.015  -4.960  0.00  0.00     0.001 A 
ATOM     26  C   UNL d   1       2.063   8.112  -6.124  0.00  0.00     0.000 A 
ATOM     27  C   UNL d   1       1.099   7.147  -6.403  0.00  0.00     0.001 A 
ATOM     28  C   UNL d   1       0.867   6.105  -5.500  0.00  0.00     0.015 A 
ENDBRANCH  17  23
ENDBRANCH  14  15
ENDBRANCH   6  14
BRANCH   1  29
ATOM     29  C   UNL d   1      -1.250  -2.735   0.008  0.00  0.00     0.042 A 
ATOM     30  C   UNL d   1      -0.267  -3.454   0.711  0.00  0.00     0.030 A 
ATOM     31  C   UNL d   1      -0.244  -4.854   0.716  0.00  0.00     0.002 A 
ATOM     32  C   UNL d   1      -1.218  -5.571   0.031  0.00  0.00     0.000 A 
ATOM     33  C   UNL d   1      -2.205  -4.886  -0.667  0.00  0.00     0.002 A 
ATOM     34  C   UNL d   1      -2.213  -3.485  -0.686  0.00  0.00     0.030 A 
ENDBRANCH   1  29
TORSDOF 4
