REMARK  5 active torsions:
REMARK  status: ('A' for Active; 'I' for Inactive)
REMARK    1  A    between atoms: O_10  and  C_1 
REMARK    2  A    between atoms: C_6  and  C_2 
REMARK    3  A    between atoms: C_3  and  C_13 
REMARK       I    between atoms: N_9  and  C_6 
REMARK    4  A    between atoms: C_13  and  N_9 
REMARK    5  A    between atoms: C_17  and  O_10 
ROOT
ATOM      1  C   UNL d   1      -0.363   0.880  -0.468  0.00  0.00     0.163 A 
ATOM      2  C   UNL d   1       0.782   1.254   0.222  0.00  0.00     0.083 A 
ATOM      3  N   UNL d   1      -0.698  -0.428  -0.682  0.00  0.00    -0.346 N 
ATOM      4  HN  UNL d   1      -1.514  -0.670  -1.245  1.00  0.00     0.167 HD
ATOM      5  C   UNL d   1       1.545   0.207   0.782  0.00  0.00     0.023 A 
ATOM      6  C   UNL d   1       0.067  -1.393  -0.137  0.00  0.00     0.090 A 
ATOM      7  C   UNL d   1       1.183  -1.125   0.618  0.00  0.00     0.018 A 
ENDROOT
BRANCH   2   8
ATOM      8  C   UNL d   1       1.313   2.625   0.450  0.00  0.00     0.256 C 
ATOM      9  N   UNL d   1       0.637   3.758   0.031  0.00  0.00    -0.352 N 
ATOM     10  H   UNL d   1      -0.338   3.683  -0.236  0.00  0.00     0.163 HD
ATOM     11  O   UNL d   1       2.387   2.720   1.052  0.00  0.00    -0.268 OA
BRANCH   9  12
ATOM     12  C   UNL d   1       1.128   5.019   0.550  0.00  0.00     0.162 C 
BRANCH  12  13
ATOM     13  C   UNL d   1       0.864   6.260  -0.254  0.00  0.00    -0.022 A 
ATOM     14  C   UNL d   1       0.340   6.432  -1.598  0.00  0.00    -0.009 A 
ATOM     15  C   UNL d   1       0.315   7.786  -1.969  0.00  0.00     0.015 A 
ATOM     16  C   UNL d   1      -0.120   5.498  -2.563  0.00  0.00     0.037 A 
ATOM     17  C   UNL d   1      -0.154   8.219  -3.227  0.00  0.00     0.021 A 
ATOM     18  S   UNL d   1       0.922   8.806  -0.731  0.00  0.00    -0.101 SA
ATOM     19  C   UNL d   1      -0.617   7.272  -4.139  0.00  0.00     0.025 A 
ATOM     20  C   UNL d   1      -0.598   5.928  -3.806  0.00  0.00     0.035 A 
ATOM     21 CL   UNL d   1      -1.177   4.764  -4.937  0.00  0.00    -0.084 Cl
ATOM     22  C   UNL d   1       1.219   7.488   0.289  0.00  0.00     0.060 A 
ENDBRANCH  12  13
ENDBRANCH   9  12
ENDBRANCH   2   8
BRANCH   1  23
ATOM     23  O   UNL d   1      -1.254   1.843  -0.941  0.00  0.00    -0.293 OA
BRANCH  23  24
ATOM     24  C   UNL d   1      -2.530   1.380  -1.210  0.00  0.00     0.077 A 
ATOM     25  C   UNL d   1      -3.306   0.759  -0.220  0.00  0.00     0.039 A 
ATOM     26  C   UNL d   1      -4.541   0.196  -0.547  0.00  0.00     0.026 A 
ATOM     27  C   UNL d   1      -5.016   0.293  -1.853  0.00  0.00     0.034 A 
ATOM     28  C   UNL d   1      -4.277   0.965  -2.829  0.00  0.00     0.026 A 
ATOM     29 CL   UNL d   1      -6.520  -0.436  -2.268  0.00  0.00    -0.084 Cl
ATOM     30  C   UNL d   1      -3.031   1.516  -2.506  0.00  0.00     0.039 A 
ENDBRANCH  23  24
ENDBRANCH   1  23
TORSDOF 5
