REMARK  6 active torsions:
REMARK  status: ('A' for Active; 'I' for Inactive)
REMARK    1  A    between atoms: C_7  and  N_1 
REMARK    2  A    between atoms: C_4  and  C_2 
REMARK    3  A    between atoms: C_3  and  C_8 
REMARK       I    between atoms: N_5  and  C_3 
REMARK    4  A    between atoms: C_15  and  C_4 
REMARK    5  A    between atoms: C_6  and  N_5 
REMARK    6  A    between atoms: O_16  and  N_11 
ROOT
ATOM      1  C   UNL d   1       0.366  -2.492   3.737  0.00  0.00     0.020 A 
ATOM      2  C   UNL d   1       0.418  -1.578   4.814  0.00  0.00     0.047 A 
ATOM      3  C   UNL d   1       1.515  -2.707   2.953  0.00  0.00     0.016 A 
ATOM      4  C   UNL d   1       1.608  -0.875   5.046  0.00  0.00     0.030 A 
ATOM      5  C   UNL d   1       2.685  -1.986   3.193  0.00  0.00     0.001 A 
ATOM      6  C   UNL d   1       2.728  -1.068   4.235  0.00  0.00     0.002 A 
ENDROOT
BRANCH   2   7
ATOM      7  N   UNL d   1      -0.708  -1.411   5.659  0.00  0.00    -0.322 N 
ATOM      8  C   UNL d   1      -0.943  -0.354   6.513  0.00  0.00     0.256 C 
ATOM      9  O   UNL d   1      -0.320   0.704   6.540  0.00  0.00    -0.267 OA
ATOM     10  H   UNL d   1      -1.445  -2.105   5.524  0.00  0.00     0.169 HD
BRANCH   8  11
ATOM     11  C   UNL d   1      -2.080  -0.504   7.456  0.00  0.00     0.034 A 
ATOM     12  C   UNL d   1      -2.779   0.647   7.843  0.00  0.00     0.053 A 
ATOM     13  C   UNL d   1      -3.797   0.550   8.799  0.00  0.00     0.103 A 
ATOM     14  C   UNL d   1      -4.118  -0.688   9.374  0.00  0.00     0.036 A 
ATOM     15  C   UNL d   1      -3.418  -1.832   8.986  0.00  0.00     0.003 A 
ATOM     16  C   UNL d   1      -2.403  -1.744   8.029  0.00  0.00     0.017 A 
BRANCH  13  17
ATOM     17  N   UNL d   1      -4.523   1.756   9.213  0.00  0.00    -0.116 N 
ATOM     18  O   UNL d   1      -4.206   2.832   8.689  0.00  0.00    -0.532 OA
ATOM     19  O   UNL d   1      -5.419   1.625  10.060  0.00  0.00    -0.532 OA
ENDBRANCH  13  17
ENDBRANCH   8  11
ENDBRANCH   2   7
BRANCH   1  20
ATOM     20  C   UNL d   1      -0.925  -3.183   3.360  0.00  0.00     0.076 C 
ATOM     21  N   UNL d   1      -1.713  -3.540   4.343  0.00  0.00    -0.268 N 
ATOM     22  HN  UNL d   1      -1.456  -3.451   5.326  1.00  0.00     0.194 HD
BRANCH  21  23
ATOM     23  O   UNL d   1      -2.938  -4.055   3.917  0.00  0.00    -0.289 OA
ATOM     24  H   UNL d   1      -3.348  -4.363   4.746  0.00  0.00     0.244 HD
ENDBRANCH  21  23
BRANCH  20  25
ATOM     25  C   UNL d   1      -1.213  -3.381   1.894  0.00  0.00    -0.007 A 
ATOM     26  C   UNL d   1      -1.737  -4.591   1.423  0.00  0.00     0.014 A 
ATOM     27  C   UNL d   1      -1.937  -4.790   0.054  0.00  0.00     0.001 A 
ATOM     28  C   UNL d   1      -1.587  -3.795  -0.858  0.00  0.00     0.000 A 
ATOM     29  C   UNL d   1      -1.063  -2.588  -0.401  0.00  0.00     0.001 A 
ATOM     30  C   UNL d   1      -0.895  -2.372   0.970  0.00  0.00     0.014 A 
ENDBRANCH  20  25
ENDBRANCH   1  20
TORSDOF 6
