REMARK  6 active torsions:
REMARK  status: ('A' for Active; 'I' for Inactive)
REMARK       I    between atoms: C_2  and  N_1 
REMARK    1  A    between atoms: C_3  and  N_1 
REMARK    2  A    between atoms: C_4  and  C_2 
REMARK    3  A    between atoms: C_13  and  C_3 
REMARK    4  A    between atoms: C_5  and  C_16 
REMARK    5  A    between atoms: O_15  and  C_10 
REMARK    6  A    between atoms: C_16  and  O_15 
ROOT
ATOM      1  N   UNL d   1       1.278  -0.239  -0.068  0.00  0.00    -0.308 N 
ATOM      2  C   UNL d   1       0.367  -0.850  -0.923  0.00  0.00     0.258 C 
ATOM      3  O   UNL d   1      -0.838  -0.636  -0.932  0.00  0.00    -0.267 OA
ATOM      4  H   UNL d   1       2.208  -0.636  -0.035  0.00  0.00     0.170 HD
ENDROOT
BRANCH   2   5
ATOM      5  C   UNL d   1       0.949  -1.874  -1.821  0.00  0.00     0.048 A 
ATOM      6  C   UNL d   1       2.219  -1.726  -2.355  0.00  0.00     0.107 A 
ATOM      7  N   UNL d   1       2.850  -2.682  -3.071  0.00  0.00    -0.346 N 
ATOM      8  C   UNL d   1       2.184  -3.829  -3.314  0.00  0.00     0.142 A 
ATOM      9  HN  UNL d   1       3.799  -2.541  -3.416  1.00  0.00     0.167 HD
ATOM     10  C   UNL d   1       0.879  -4.037  -2.884  0.00  0.00     0.057 A 
ATOM     11  C   UNL d   1       0.250  -3.040  -2.128  0.00  0.00     0.022 A 
BRANCH   8  12
ATOM     12  O   UNL d   1       2.970  -4.753  -3.925  0.00  0.00    -0.327 OA
BRANCH  12  13
ATOM     13  C   UNL d   1       2.330  -5.733  -4.741  0.00  0.00     0.294 C 
BRANCH  13  14
ATOM     14  C   UNL d   1       3.366  -6.667  -5.367  0.00  0.00     0.408 C 
ATOM     15  F   UNL d   1       4.622  -6.437  -4.931  0.00  0.00    -0.169 F 
ATOM     16  F   UNL d   1       3.072  -7.958  -5.078  0.00  0.00    -0.169 F 
ATOM     17  F   UNL d   1       3.373  -6.551  -6.715  0.00  0.00    -0.169 F 
ENDBRANCH  13  14
ENDBRANCH  12  13
ENDBRANCH   8  12
ENDBRANCH   2   5
BRANCH   1  18
ATOM     18  C   UNL d   1       1.038   0.772   0.843  0.00  0.00     0.112 C 
ATOM     19  N   UNL d   1      -0.141   1.256   1.032  0.00  0.00    -0.385 N 
ATOM     20  H   UNL d   1      -0.806   0.773   0.405  0.00  0.00     0.157 HD
ATOM     21  HN  UNL d   1      -0.379   1.996   1.693  1.00  0.00     0.157 HD
BRANCH  18  22
ATOM     22  C   UNL d   1       2.212   1.254   1.623  0.00  0.00     0.007 A 
ATOM     23  C   UNL d   1       3.508   1.243   1.085  0.00  0.00     0.015 A 
ATOM     24  C   UNL d   1       4.593   1.660   1.860  0.00  0.00     0.001 A 
ATOM     25  C   UNL d   1       4.389   2.101   3.166  0.00  0.00     0.000 A 
ATOM     26  C   UNL d   1       3.099   2.140   3.696  0.00  0.00     0.001 A 
ATOM     27  C   UNL d   1       2.012   1.723   2.925  0.00  0.00     0.015 A 
ENDBRANCH  18  22
ENDBRANCH   1  18
TORSDOF 6
