REMARK  4 active torsions:
REMARK  status: ('A' for Active; 'I' for Inactive)
REMARK    1  A    between atoms: C_2  and  C_1 
REMARK       I    between atoms: N_3  and  C_1 
REMARK    2  A    between atoms: C_7  and  C_4 
REMARK    3  A    between atoms: O_16  and  C_7 
REMARK    4  A    between atoms: C_20  and  O_16 
ROOT
ATOM      1  C   UNL d   1       0.786   0.195   0.071  0.00  0.00     0.255 C 
ATOM      2  N   UNL d   1       0.046  -0.504   1.032  0.00  0.00    -0.347 N 
ATOM      3  C   UNL d   1      -2.276  -1.114   1.711  0.00  0.00     0.103 C 
ATOM      4  C   UNL d   1      -1.082  -1.413   0.797  0.00  0.00     0.140 C 
ATOM      5  O   UNL d   1       1.792   0.845   0.345  0.00  0.00    -0.267 OA
ATOM      6  C   UNL d   1       0.498  -0.448   2.420  0.00  0.00     0.126 C 
ATOM      7  C   UNL d   1      -1.871  -0.859   3.172  0.00  0.00     0.018 C 
ATOM      8  C   UNL d   1      -0.637   0.036   3.312  0.00  0.00     0.021 C 
ENDROOT
BRANCH   1   9
ATOM      9  C   UNL d   1       0.334   0.219  -1.339  0.00  0.00     0.053 A 
ATOM     10  C   UNL d   1       1.192  -0.116  -2.397  0.00  0.00     0.051 A 
ATOM     11  C   UNL d   1       0.734  -0.037  -3.719  0.00  0.00     0.048 A 
ATOM     12 CL   UNL d   1       2.813  -0.664  -2.159  0.00  0.00    -0.083 Cl
ATOM     13  C   UNL d   1      -0.575   0.363  -3.979  0.00  0.00     0.035 A 
ATOM     14  C   UNL d   1      -1.423   0.727  -2.937  0.00  0.00     0.025 A 
ATOM     15 CL   UNL d   1      -1.149   0.414  -5.599  0.00  0.00    -0.084 Cl
ATOM     16  C   UNL d   1      -0.956   0.690  -1.624  0.00  0.00     0.020 A 
ENDBRANCH   1   9
BRANCH   3  17
ATOM     17  C   UNL d   1      -3.105   0.031   1.173  0.00  0.00     0.264 C 
ATOM     18  O   UNL d   1      -3.015   1.201   1.523  0.00  0.00    -0.265 OA
BRANCH  17  19
ATOM     19  O   UNL d   1      -3.993  -0.428   0.240  0.00  0.00    -0.322 OA
BRANCH  19  20
ATOM     20  C   UNL d   1      -4.949   0.537  -0.229  0.00  0.00     0.174 C 
ATOM     21  C   UNL d   1      -6.127   0.593   0.729  0.00  0.00     0.034 C 
ENDBRANCH  19  20
ENDBRANCH  17  19
ENDBRANCH   3  17
TORSDOF 4
