REMARK  3 active torsions:
REMARK  status: ('A' for Active; 'I' for Inactive)
REMARK    1  A    between atoms: C_7  and  C_1 
REMARK       I    between atoms: N_14  and  C_7 
REMARK    2  A    between atoms: N_12  and  N_14 
REMARK    3  A    between atoms: C_18  and  C_16 
ROOT
ATOM      1  C   UNL d   1       2.107   2.485   0.047  0.00  0.00     0.289 C 
ATOM      2  N   UNL d   1       3.482   2.746   0.064  0.00  0.00    -0.265 N 
ATOM      3  O   UNL d   1       1.298   3.412   0.019  0.00  0.00    -0.264 OA
ATOM      4  H   UNL d   1       4.172   2.011   0.067  0.00  0.00     0.190 HD
ENDROOT
BRANCH   1   5
ATOM      5  C   UNL d   1       1.677   1.090   0.056  0.00  0.00     0.132 A 
ATOM      6  N   UNL d   1       0.332   0.695   0.038  0.00  0.00    -0.302 N 
ATOM      7  C   UNL d   1       0.311  -0.698   0.045  0.00  0.00     0.113 A 
ATOM      8  C   UNL d   1      -0.859   1.435   0.016  0.00  0.00     0.099 A 
ATOM      9  C   UNL d   1      -0.945  -1.359   0.030  0.00  0.00     0.056 A 
ATOM     10  N   UNL d   1       1.523  -1.195   0.064  0.00  0.00    -0.344 N 
ATOM     11  C   UNL d   1      -2.093  -0.650   0.011  0.00  0.00    -0.057 A 
ATOM     12  C   UNL d   1      -2.050   0.808   0.003  0.00  0.00     0.024 A 
ATOM     13  C   UNL d   1      -3.428  -1.334   0.001  0.00  0.00     0.048 C 
ATOM     14  C   UNL d   1       2.376  -0.120   0.069  0.00  0.00     0.040 A 
ATOM     15  HN  UNL d   1       1.780  -2.182   0.073  1.00  0.00     0.167 HD
ATOM     16  C   UNL d   1       3.826  -0.427   0.078  0.00  0.00     0.071 C 
ENDBRANCH   1   5
BRANCH   2  17
ATOM     17  N   UNL d   1       3.897   4.048  -0.059  0.00  0.00    -0.308 N 
ATOM     18  C   UNL d   1       5.166   4.297  -0.057  0.00  0.00     0.118 C 
ATOM     19  HN  UNL d   1       3.218   4.804  -0.151  1.00  0.00     0.186 HD
BRANCH  18  20
ATOM     20  C   UNL d   1       5.659   5.681  -0.286  0.00  0.00    -0.019 A 
ATOM     21  C   UNL d   1       4.748   6.732  -0.454  0.00  0.00     0.014 A 
ATOM     22  C   UNL d   1       5.200   8.011  -0.793  0.00  0.00     0.024 A 
ATOM     23  C   UNL d   1       6.563   8.239  -0.959  0.00  0.00     0.034 A 
ATOM     24  C   UNL d   1       7.481   7.208  -0.753  0.00  0.00     0.024 A 
ATOM     25 CL   UNL d   1       7.116   9.795  -1.445  0.00  0.00    -0.084 Cl
ATOM     26  C   UNL d   1       7.032   5.925  -0.412  0.00  0.00     0.014 A 
ENDBRANCH  18  20
ENDBRANCH   2  17
TORSDOF 3
