REMARK  6 active torsions:
REMARK  status: ('A' for Active; 'I' for Inactive)
REMARK    1  A    between atoms: C_2  and  C_1 
REMARK    2  A    between atoms: S_8  and  C_2 
REMARK    3  A    between atoms: C_10  and  C_3 
REMARK    4  A    between atoms: C_11  and  S_8 
REMARK    5  A    between atoms: O_12  and  C_10 
REMARK    6  A    between atoms: C_14  and  O_12 
ROOT
ATOM      1  C   UNL d   1       0.019  -1.363   0.253  0.00  0.00     0.079 C 
ATOM      2  C   UNL d   1      -1.004  -1.105  -0.651  0.00  0.00     0.117 C 
ATOM      3  N   UNL d   1       0.293   0.706  -0.683  0.00  0.00    -0.265 N 
ATOM      4  HN  UNL d   1       0.647   1.641  -0.881  1.00  0.00     0.194 HD
ATOM      5  O   UNL d   1      -0.873   0.150  -1.144  0.00  0.00    -0.239 OA
ATOM      6  C   UNL d   1       0.873  -0.230   0.081  0.00  0.00     0.046 C 
ATOM      7  C   UNL d   1       2.277   0.010   0.498  0.00  0.00     0.071 C 
ENDROOT
BRANCH   1   8
ATOM      8  C   UNL d   1       0.113  -2.585   1.033  0.00  0.00     0.228 C 
ATOM      9  O   UNL d   1      -0.636  -3.545   0.859  0.00  0.00    -0.279 OA
BRANCH   8  10
ATOM     10  S   UNL d   1       1.295  -2.634   2.319  0.00  0.00    -0.047 SA
BRANCH  10  11
ATOM     11  C   UNL d   1       0.480  -1.852   3.707  0.00  0.00     0.008 A 
ATOM     12  C   UNL d   1      -0.906  -1.757   3.864  0.00  0.00     0.019 A 
ATOM     13  C   UNL d   1      -1.455  -1.210   5.035  0.00  0.00     0.008 A 
ATOM     14  C   UNL d   1      -0.631  -0.760   6.071  0.00  0.00    -0.062 A 
ATOM     15  C   UNL d   1       0.754  -0.829   5.906  0.00  0.00     0.008 A 
ATOM     16  C   UNL d   1      -1.228  -0.260   7.355  0.00  0.00     0.048 C 
ATOM     17  C   UNL d   1       1.301  -1.369   4.736  0.00  0.00     0.019 A 
ENDBRANCH  10  11
ENDBRANCH   8  10
ENDBRANCH   1   8
BRANCH   2  18
ATOM     18  C   UNL d   1      -2.102  -1.903  -1.253  0.00  0.00     0.244 C 
BRANCH  18  19
ATOM     19  O   UNL d   1      -1.550  -2.389  -2.476  0.00  0.00    -0.345 OA
BRANCH  19  20
ATOM     20  C   UNL d   1      -2.333  -3.159  -3.283  0.00  0.00     0.069 A 
ATOM     21  C   UNL d   1      -3.650  -3.540  -3.035  0.00  0.00     0.037 A 
ATOM     22  C   UNL d   1      -4.328  -4.347  -3.954  0.00  0.00     0.003 A 
ATOM     23  C   UNL d   1      -3.694  -4.775  -5.120  0.00  0.00     0.000 A 
ATOM     24  C   UNL d   1      -2.380  -4.392  -5.375  0.00  0.00     0.003 A 
ATOM     25  C   UNL d   1      -1.705  -3.586  -4.458  0.00  0.00     0.037 A 
ENDBRANCH  19  20
ENDBRANCH  18  19
ENDBRANCH   2  18
TORSDOF 6
