REMARK  3 active torsions:
REMARK  status: ('A' for Active; 'I' for Inactive)
REMARK    1  A    between atoms: C_3  and  C_1 
REMARK    2  A    between atoms: C_8  and  C_2 
REMARK    3  A    between atoms: C_14  and  C_9 
ROOT
ATOM      1  C   UNL d   1       0.016  -1.304  -0.009  0.00  0.00     0.052 A 
ATOM      2  C   UNL d   1      -1.326  -0.847   0.191  0.00  0.00     0.083 A 
ATOM      3  N   UNL d   1      -1.312   0.476   0.444  0.00  0.00    -0.259 N 
ATOM      4  HN  UNL d   1      -2.120   1.060   0.664  1.00  0.00     0.195 HD
ATOM      5  O   UNL d   1      -0.006   0.890   0.351  0.00  0.00    -0.241 OA
ATOM      6  C   UNL d   1       0.793  -0.172   0.092  0.00  0.00     0.087 A 
ATOM      7  C   UNL d   1       2.237   0.118  -0.011  0.00  0.00     0.080 C 
ENDROOT
BRANCH   1   8
ATOM      8  C   UNL d   1       0.484  -2.675  -0.212  0.00  0.00     0.054 A 
ATOM      9  N   UNL d   1      -0.305  -3.575  -0.899  0.00  0.00    -0.347 N 
ATOM     10  C   UNL d   1       0.247  -4.782  -0.874  0.00  0.00     0.101 A 
ATOM     11  HN  UNL d   1      -1.186  -3.346  -1.360  1.00  0.00     0.167 HD
ATOM     12  S   UNL d   1       1.770  -4.855  -0.065  0.00  0.00    -0.080 SA
ATOM     13  C   UNL d   1       1.657  -3.191   0.299  0.00  0.00     0.082 A 
BRANCH  10  14
ATOM     14  C   UNL d   1      -0.358  -6.003  -1.443  0.00  0.00     0.066 A 
ATOM     15  N   UNL d   1       0.335  -7.163  -1.290  0.00  0.00    -0.364 N 
ATOM     16  C   UNL d   1      -0.215  -8.289  -1.794  0.00  0.00     0.088 A 
ATOM     17  HN  UNL d   1       1.236  -7.183  -0.813  1.00  0.00     0.165 HD
ATOM     18  C   UNL d   1      -1.432  -8.324  -2.448  0.00  0.00     0.017 A 
ATOM     19  C   UNL d   1      -2.132  -7.132  -2.597  0.00  0.00     0.004 A 
ATOM     20  C   UNL d   1      -1.589  -5.954  -2.086  0.00  0.00     0.032 A 
ENDBRANCH  10  14
ENDBRANCH   1   8
BRANCH   2  21
ATOM     21  C   UNL d   1      -2.606  -1.570   0.196  0.00  0.00     0.037 A 
ATOM     22  C   UNL d   1      -2.809  -2.725   0.980  0.00  0.00     0.048 A 
ATOM     23 CL   UNL d   1      -1.660  -3.307   2.143  0.00  0.00    -0.083 Cl
ATOM     24  C   UNL d   1      -4.020  -3.434   0.928  0.00  0.00     0.025 A 
ATOM     25  C   UNL d   1      -5.083  -2.964   0.169  0.00  0.00     0.003 A 
ATOM     26  C   UNL d   1      -4.935  -1.786  -0.553  0.00  0.00     0.025 A 
ATOM     27  C   UNL d   1      -3.706  -1.106  -0.561  0.00  0.00     0.048 A 
ATOM     28 CL   UNL d   1      -3.652   0.310  -1.564  0.00  0.00    -0.083 Cl
ENDBRANCH   2  21
TORSDOF 3
