REMARK  6 active torsions:
REMARK  status: ('A' for Active; 'I' for Inactive)
REMARK    1  A    between atoms: C_7  and  N_1 
REMARK    2  A    between atoms: C_9  and  C_2 
REMARK    3  A    between atoms: C_12  and  C_6 
REMARK    4  A    between atoms: C_8  and  C_7 
REMARK    5  A    between atoms: O_17  and  C_9 
REMARK    6  A    between atoms: C_24  and  O_17 
ROOT
ATOM      1  N   UNL d   1       0.671  -0.697   0.157  0.00  0.00    -0.282 N 
ATOM      2  C   UNL d   1      -0.619  -1.133   0.390  0.00  0.00     0.128 C 
ATOM      3  N   UNL d   1       0.715   0.606  -0.204  0.00  0.00    -0.301 N 
ATOM      4  HN  UNL d   1       1.521   1.125  -0.552  1.00  0.00     0.187 HD
ATOM      5  C   UNL d   1      -1.405   0.004   0.254  0.00  0.00     0.064 C 
ATOM      6  C   UNL d   1      -0.527   1.070  -0.004  0.00  0.00     0.036 C 
ENDROOT
BRANCH   1   7
ATOM      7  C   UNL d   1       1.913  -1.461  -0.001  0.00  0.00     0.189 C 
BRANCH   7   8
ATOM      8  C   UNL d   1       2.699  -1.800   1.264  0.00  0.00    -0.026 A 
ATOM      9  C   UNL d   1       3.001  -3.156   1.579  0.00  0.00    -0.053 A 
ATOM     10  C   UNL d   1       3.894  -3.463   2.631  0.00  0.00     0.014 A 
ATOM     11  C   UNL d   1       2.517  -4.365   0.814  0.00  0.00     0.049 C 
ATOM     12  C   UNL d   1       4.517  -2.471   3.379  0.00  0.00    -0.061 A 
ATOM     13  C   UNL d   1       4.194  -1.147   3.110  0.00  0.00     0.014 A 
ATOM     14  C   UNL d   1       5.553  -2.825   4.401  0.00  0.00     0.048 C 
ATOM     15  C   UNL d   1       3.309  -0.792   2.066  0.00  0.00    -0.053 A 
ATOM     16  C   UNL d   1       3.203   0.697   1.858  0.00  0.00     0.049 C 
ENDBRANCH   7   8
ENDBRANCH   1   7
BRANCH   2  17
ATOM     17  C   UNL d   1      -1.060  -2.462   0.715  0.00  0.00     0.311 C 
ATOM     18  O   UNL d   1      -0.349  -3.447   0.836  0.00  0.00    -0.258 OA
BRANCH  17  19
ATOM     19  O   UNL d   1      -2.412  -2.453   0.864  0.00  0.00    -0.317 OA
BRANCH  19  20
ATOM     20  C   UNL d   1      -3.025  -3.685   1.259  0.00  0.00     0.175 C 
ATOM     21  C   UNL d   1      -2.967  -3.832   2.768  0.00  0.00     0.034 C 
ENDBRANCH  19  20
ENDBRANCH  17  19
ENDBRANCH   2  17
BRANCH   6  22
ATOM     22  C   UNL d   1      -0.815   2.560  -0.045  0.00  0.00    -0.007 C 
ATOM     23  C   UNL d   1      -0.195   3.205  -1.298  0.00  0.00     0.021 C 
ATOM     24  C   UNL d   1      -2.330   2.841  -0.049  0.00  0.00     0.021 C 
ATOM     25  C   UNL d   1      -0.210   3.227   1.211  0.00  0.00     0.021 C 
ENDBRANCH   6  22
TORSDOF 6
