REMARK  3 active torsions:
REMARK  status: ('A' for Active; 'I' for Inactive)
REMARK    1  A    between atoms: C_12  and  C_2 
REMARK    2  A    between atoms: C_13  and  C_10 
REMARK    3  A    between atoms: C_15  and  C_11 
ROOT
ATOM      1  N   UNL d   1       0.307   0.632   0.025  0.00  0.00    -0.235 N 
ATOM      2  C   UNL d   1      -0.799   1.467   0.014  0.00  0.00     0.144 A 
ATOM      3  C   UNL d   1       0.139  -0.757   0.043  0.00  0.00     0.130 A 
ATOM      4  N   UNL d   1       1.616   0.958   0.023  0.00  0.00    -0.291 N 
ATOM      5  HN  UNL d   1       2.011   1.898   0.030  1.00  0.00     0.187 HD
ATOM      6  N   UNL d   1      -1.091  -1.354   0.068  0.00  0.00    -0.340 N 
ATOM      7  HN  UNL d   1      -1.189  -2.368   0.115  1.00  0.00     0.167 HD
ATOM      8  C   UNL d   1      -2.033   0.927   0.009  0.00  0.00     0.067 A 
ATOM      9  C   UNL d   1       1.402  -1.293   0.012  0.00  0.00     0.082 A 
ATOM     10  C   UNL d   1      -2.135  -0.571   0.031  0.00  0.00     0.053 A 
ATOM     11  C   UNL d   1       2.296  -0.197   0.009  0.00  0.00     0.062 A 
ENDROOT
BRANCH  11  12
ATOM     12  C   UNL d   1       3.764  -0.214   0.007  0.00  0.00    -0.008 A 
ATOM     13  C   UNL d   1       4.494   0.987   0.047  0.00  0.00     0.015 A 
ATOM     14  C   UNL d   1       5.893   0.976   0.077  0.00  0.00     0.024 A 
ATOM     15  C   UNL d   1       6.573  -0.238   0.063  0.00  0.00     0.034 A 
ATOM     16  C   UNL d   1       5.869  -1.438   0.009  0.00  0.00     0.024 A 
ATOM     17 CL   UNL d   1       8.292  -0.260   0.119  0.00  0.00    -0.084 Cl
ATOM     18  C   UNL d   1       4.471  -1.425  -0.020  0.00  0.00     0.015 A 
ENDBRANCH  11  12
BRANCH   2  19
ATOM     19  C   UNL d   1      -0.604   2.937   0.011  0.00  0.00     0.434 C 
ATOM     20  F   UNL d   1       0.672   3.385  -0.004  0.00  0.00    -0.165 F 
ATOM     21  F   UNL d   1      -1.219   3.497  -1.066  0.00  0.00    -0.165 F 
ATOM     22  F   UNL d   1      -1.193   3.497   1.104  0.00  0.00    -0.165 F 
ENDBRANCH   2  19
BRANCH  10  23
ATOM     23  C   UNL d   1      -3.455  -1.188   0.035  0.00  0.00     0.031 A 
ATOM     24  S   UNL d   1      -4.792  -0.443  -0.744  0.00  0.00    -0.100 SA
ATOM     25  C   UNL d   1      -5.849  -1.711  -0.315  0.00  0.00     0.050 A 
ATOM     26  C   UNL d   1      -5.206  -2.699   0.395  0.00  0.00     0.008 A 
ATOM     27  C   UNL d   1      -3.822  -2.407   0.581  0.00  0.00     0.021 A 
ENDBRANCH  10  23
TORSDOF 3
