REMARK  1 active torsions:
REMARK  status: ('A' for Active; 'I' for Inactive)
REMARK       I    between atoms: N_2  and  C_1 
REMARK       I    between atoms: N_4  and  C_1 
REMARK       I    between atoms: C_3  and  N_2 
REMARK       I    between atoms: N_12  and  C_3 
REMARK    1  A    between atoms: C_5  and  N_4 
ROOT
ATOM      1  C   UNL d   1       1.320  -0.073   1.088  0.00  0.00     0.678 C 
ATOM      2  N   UNL d   1       2.418   0.017   0.278  0.00  0.00    -0.167 N 
ATOM      3  C   UNL d   1       3.735  -0.283   0.368  0.00  0.00     0.163 C 
ATOM      4  N   UNL d   1       0.302   0.691   0.586  0.00  0.00    -0.191 N 
ATOM      5  N   UNL d   1       1.251  -0.793   2.157  0.00  0.00    -0.234 N 
ATOM      6  HN  UNL d   1       0.458  -0.821   2.799  1.00  0.00     0.174 HD
ATOM      7  N   UNL d   1       4.428  -0.559   1.413  0.00  0.00    -0.376 N 
ATOM      8  HN  UNL d   1       5.415  -0.815   1.414  1.00  0.00     0.158 HD
ATOM      9  N   UNL d   1       4.372  -0.223  -0.827  0.00  0.00    -0.274 NA
ATOM     10  H   UNL d   1       2.189   0.393  -0.630  0.00  0.00     0.187 HD
ATOM     11  H   UNL d   1       0.595   1.597   0.252  0.00  0.00     0.184 HD
ATOM     12  H   UNL d   1       2.113  -1.332   2.260  0.00  0.00     0.174 HD
ATOM     13  H   UNL d   1       3.837  -0.482   2.245  0.00  0.00     0.158 HD
ATOM     14  H   UNL d   1       3.955  -0.785  -1.553  0.00  0.00     0.127 HD
ATOM     15  H   UNL d   1       5.340  -0.512  -0.691  0.00  0.00     0.127 HD
ENDROOT
BRANCH   4  16
ATOM     16  C   UNL d   1      -1.086   0.636   0.855  0.00  0.00     0.061 A 
ATOM     17  C   UNL d   1      -1.786   1.856   1.077  0.00  0.00    -0.034 A 
ATOM     18  C   UNL d   1      -3.190   1.861   1.177  0.00  0.00     0.009 A 
ATOM     19  C   UNL d   1      -1.112   3.200   1.206  0.00  0.00     0.050 C 
ATOM     20  C   UNL d   1      -3.910   0.679   1.123  0.00  0.00     0.001 A 
ATOM     21  C   UNL d   1      -3.231  -0.526   0.995  0.00  0.00     0.009 A 
ATOM     22  C   UNL d   1      -1.826  -0.572   0.867  0.00  0.00    -0.034 A 
ATOM     23  C   UNL d   1      -1.257  -1.952   0.668  0.00  0.00     0.050 C 
ENDBRANCH   4  16
TORSDOF 1
