REMARK  3 active torsions:
REMARK  status: ('A' for Active; 'I' for Inactive)
REMARK    1  A    between atoms: N_5  and  C_1 
REMARK    2  A    between atoms: C_4  and  C_8 
REMARK    3  A    between atoms: C_6  and  C_11 
REMARK       I    between atoms: N_7  and  C_6 
ROOT
ATOM      1  N   UNL d   1       0.342   2.703   0.050  0.00  0.00    -0.255 NA
ATOM      2  C   UNL d   1      -0.015   5.562   0.307  0.00  0.00     0.080 C 
ATOM      3  C   UNL d   1       0.038   3.485  -1.149  0.00  0.00     0.099 C 
ATOM      4  C   UNL d   1      -0.225   3.209   1.298  0.00  0.00     0.099 C 
ATOM      5  C   UNL d   1       0.537   4.920  -0.970  0.00  0.00     0.029 C 
ATOM      6  C   UNL d   1       0.238   4.649   1.514  0.00  0.00     0.029 C 
ENDROOT
BRANCH   1   7
ATOM      7  C   UNL d   1       0.196   1.327  -0.123  0.00  0.00     0.159 A 
ATOM      8  N   UNL d   1       0.334   0.825  -1.355  0.00  0.00    -0.329 N 
ATOM      9  C   UNL d   1       0.252  -0.515  -1.540  0.00  0.00     0.120 A 
ATOM     10  HN  UNL d   1       0.499   1.445  -2.148  1.00  0.00     0.168 HD
ATOM     11  C   UNL d   1       0.028  -1.379  -0.491  0.00  0.00     0.051 A 
ATOM     12  C   UNL d   1      -0.103  -0.790   0.740  0.00  0.00     0.093 A 
ATOM     13  N   UNL d   1      -0.019   0.534   0.941  0.00  0.00    -0.343 N 
ATOM     14  HN  UNL d   1      -0.115   0.929   1.877  1.00  0.00     0.167 HD
BRANCH   9  15
ATOM     15  C   UNL d   1       0.435  -1.062  -2.942  0.00  0.00     0.432 C 
ATOM     16  F   UNL d   1       0.646  -0.108  -3.892  0.00  0.00    -0.165 F 
ATOM     17  F   UNL d   1       1.495  -1.916  -3.032  0.00  0.00    -0.165 F 
ATOM     18  F   UNL d   1      -0.647  -1.776  -3.368  0.00  0.00    -0.165 F 
ENDBRANCH   9  15
ENDBRANCH   1   7
BRANCH   2  19
ATOM     19  C   UNL d   1      -1.496   5.909   0.130  0.00  0.00     0.224 C 
ATOM     20  N   UNL d   1      -1.829   7.033  -0.617  0.00  0.00    -0.350 N 
ATOM     21  C   UNL d   1      -0.890   8.064  -1.085  0.00  0.00     0.136 C 
ATOM     22  C   UNL d   1      -3.253   7.365  -0.776  0.00  0.00     0.136 C 
ATOM     23  C   UNL d   1      -1.048   8.385  -2.572  0.00  0.00     0.093 C 
ATOM     24  S   UNL d   1      -2.723   8.967  -2.981  0.00  0.00    -0.166 SA
ATOM     25  C   UNL d   1      -3.647   7.584  -2.236  0.00  0.00     0.093 C 
ATOM     26  O   UNL d   1      -2.369   5.170   0.589  0.00  0.00    -0.273 OA
ENDBRANCH   2  19
TORSDOF 3
