REMARK  6 active torsions:
REMARK  status: ('A' for Active; 'I' for Inactive)
REMARK    1  A    between atoms: C_4  and  C_1 
REMARK    2  A    between atoms: N_15  and  C_1 
REMARK    3  A    between atoms: N_7  and  N_2 
REMARK    4  A    between atoms: C_5  and  O_11 
REMARK       I    between atoms: C_6  and  N_7 
REMARK       I    between atoms: N_8  and  C_6 
REMARK    5  A    between atoms: C_19  and  N_8 
REMARK    6  A    between atoms: O_11  and  C_20 
ROOT
ATOM      1  C   UNL d   1       0.375   2.047  -2.747  0.00  0.00     0.339 C 
ATOM      2  N   UNL d   1       0.976   1.255  -1.770  0.00  0.00    -0.250 N 
ATOM      3  N   UNL d   1      -1.004   1.944  -2.741  0.00  0.00    -0.308 N 
ATOM      4  O   UNL d   1       1.035   2.771  -3.489  0.00  0.00    -0.245 OA
ATOM      5  H   UNL d   1       0.477   0.485  -1.344  0.00  0.00     0.192 HD
ATOM      6  H   UNL d   1      -1.413   1.351  -2.037  0.00  0.00     0.170 HD
ENDROOT
BRANCH   2   7
ATOM      7  N   UNL d   1       2.338   1.144  -1.806  0.00  0.00    -0.284 N 
ATOM      8  C   UNL d   1       2.891   0.343  -0.947  0.00  0.00     0.121 C 
ATOM      9  HN  UNL d   1       2.897   1.668  -2.479  1.00  0.00     0.188 HD
BRANCH   8  10
ATOM     10  C   UNL d   1       4.361   0.075  -1.084  0.00  0.00     0.087 A 
ATOM     11  N   UNL d   1       4.898  -0.756  -0.143  0.00  0.00    -0.361 N 
ATOM     12  C   UNL d   1       6.212  -1.032  -0.328  0.00  0.00     0.105 A 
ATOM     13  HN  UNL d   1       4.356  -1.137   0.632  1.00  0.00     0.165 HD
ATOM     14  C   UNL d   1       6.954  -0.506  -1.376  0.00  0.00     0.104 A 
ATOM     15  N   UNL d   1       6.423   0.335  -2.292  0.00  0.00    -0.372 N 
ATOM     16  C   UNL d   1       5.104   0.616  -2.125  0.00  0.00     0.120 A 
ATOM     17  HN  UNL d   1       6.973   0.731  -3.054  1.00  0.00     0.164 HD
ENDBRANCH   8  10
BRANCH   8  18
ATOM     18  N   UNL d   1       2.207  -0.261   0.095  0.00  0.00    -0.286 NA
ATOM     19  H   UNL d   1       1.616   0.403   0.585  0.00  0.00     0.125 HD
ATOM     20  H   UNL d   1       2.861  -0.698   0.749  0.00  0.00     0.125 HD
ENDBRANCH   8  18
ENDBRANCH   2   7
BRANCH   3  21
ATOM     21  C   UNL d   1      -1.897   2.686  -3.551  0.00  0.00     0.036 A 
ATOM     22  C   UNL d   1      -1.481   3.567  -4.552  0.00  0.00     0.032 A 
ATOM     23  C   UNL d   1      -2.399   4.352  -5.258  0.00  0.00     0.039 A 
ATOM     24  C   UNL d   1      -3.750   4.293  -4.947  0.00  0.00     0.078 A 
ATOM     25  C   UNL d   1      -4.190   3.345  -4.019  0.00  0.00     0.039 A 
ATOM     26  C   UNL d   1      -3.271   2.548  -3.322  0.00  0.00     0.032 A 
BRANCH  24  27
ATOM     27  O   UNL d   1      -4.717   5.050  -5.533  0.00  0.00    -0.255 OA
BRANCH  27  28
ATOM     28  C   UNL d   1      -4.426   6.418  -5.818  0.00  0.00     0.530 C 
ATOM     29  F   UNL d   1      -3.186   6.819  -5.471  0.00  0.00    -0.144 F 
ATOM     30  F   UNL d   1      -4.593   6.635  -7.141  0.00  0.00    -0.144 F 
ATOM     31  F   UNL d   1      -5.311   7.195  -5.152  0.00  0.00    -0.144 F 
ENDBRANCH  27  28
ENDBRANCH  24  27
ENDBRANCH   3  21
TORSDOF 6
