REMARK  4 active torsions:
REMARK  status: ('A' for Active; 'I' for Inactive)
REMARK    1  A    between atoms: C_3  and  C_1 
REMARK    2  A    between atoms: S_2  and  N_10 
REMARK       I    between atoms: N_12  and  C_3 
REMARK    3  A    between atoms: N_10  and  C_11 
REMARK    4  A    between atoms: C_16  and  N_12 
ROOT
ATOM      1  C   UNL d   1       4.506  -2.937  -0.849  0.00  0.00     0.050 A 
ATOM      2  C   UNL d   1       3.224  -3.483  -0.945  0.00  0.00     0.060 A 
ATOM      3  C   UNL d   1       2.193  -3.076  -0.097  0.00  0.00     0.037 A 
ATOM      4  C   UNL d   1       4.790  -1.962   0.114  0.00  0.00    -0.035 A 
ATOM      5  C   UNL d   1       3.770  -1.594   1.006  0.00  0.00     0.011 A 
ATOM      6  C   UNL d   1       2.484  -2.139   0.897  0.00  0.00     0.030 A 
ATOM      7  C   UNL d   1       6.132  -1.294   0.207  0.00  0.00     0.050 C 
ENDROOT
BRANCH   3   8
ATOM      8  N   UNL d   1       0.856  -3.520  -0.230  0.00  0.00    -0.322 N 
ATOM      9  C   UNL d   1       0.387  -4.478  -1.120  0.00  0.00     0.266 C 
ATOM     10  O   UNL d   1       1.129  -5.199  -1.779  0.00  0.00    -0.267 OA
ATOM     11  H   UNL d   1       0.172  -3.058   0.358  0.00  0.00     0.169 HD
BRANCH   9  12
ATOM     12  C   UNL d   1      -1.053  -4.596  -1.242  0.00  0.00     0.114 A 
ATOM     13  C   UNL d   1      -1.807  -5.500  -1.986  0.00  0.00     0.046 A 
ATOM     14  N   UNL d   1      -3.184  -5.303  -1.906  0.00  0.00    -0.298 N 
ATOM     15  C   UNL d   1      -1.339  -6.622  -2.843  0.00  0.00     0.071 C 
ATOM     16  N   UNL d   1      -3.497  -4.278  -1.138  0.00  0.00    -0.269 N 
ATOM     17  HN  UNL d   1      -3.871  -5.885  -2.387  1.00  0.00     0.187 HD
ATOM     18  S   UNL d   1      -2.160  -3.526  -0.488  0.00  0.00     0.009 SA
ATOM     19  HN  UNL d   1      -4.455  -3.977  -0.961  1.00  0.00     0.195 HD
ENDBRANCH   9  12
ENDBRANCH   3   8
BRANCH   1  20
ATOM     20  N   UNL d   1       5.471  -3.380  -1.804  0.00  0.00    -0.284 N 
ATOM     21  H   UNL d   1       6.405  -3.575  -1.441  0.00  0.00     0.178 HD
BRANCH  20  22
ATOM     22  S   UNL d   1       5.574  -2.567  -3.278  0.00  0.00     0.227 S 
ATOM     23  O   UNL d   1       5.281  -1.163  -3.084  0.00  0.00    -0.206 OA
ATOM     24  O   UNL d   1       6.832  -2.984  -3.857  0.00  0.00    -0.206 OA
ATOM     25  C   UNL d   1       4.265  -3.300  -4.238  0.00  0.00     0.186 C 
ENDBRANCH  20  22
ENDBRANCH   1  20
TORSDOF 4
