REMARK  2 active torsions:
REMARK  status: ('A' for Active; 'I' for Inactive)
REMARK    1  A    between atoms: C_8  and  O_14 
REMARK       I    between atoms: N_16  and  C_8 
REMARK    2  A    between atoms: O_14  and  C_17 
ROOT
ATOM      1  N   UNL d   1      -1.040   0.658  -0.130  0.00  0.00    -0.237 N 
ATOM      2  C   UNL d   1      -1.892  -0.418  -0.056  0.00  0.00     0.143 A 
ATOM      3  C   UNL d   1       0.339   0.493  -0.015  0.00  0.00     0.089 A 
ATOM      4  N   UNL d   1      -1.421  -1.681   0.107  0.00  0.00    -0.283 N 
ATOM      5  HN  UNL d   1      -2.081  -2.459   0.125  1.00  0.00     0.188 HD
ATOM      6  N   UNL d   1      -0.192  -1.916   0.236  0.00  0.00    -0.297 N 
ATOM      7  HN  UNL d   1       0.139  -2.871   0.371  1.00  0.00     0.187 HD
ATOM      8  N   UNL d   1      -1.678   1.839  -0.285  0.00  0.00    -0.303 N 
ATOM      9  HN  UNL d   1      -1.272   2.770  -0.369  1.00  0.00     0.186 HD
ATOM     10  C   UNL d   1       0.726  -0.839   0.194  0.00  0.00     0.077 A 
ATOM     11  C   UNL d   1      -3.160   0.104  -0.169  0.00  0.00     0.070 A 
ATOM     12  C   UNL d   1       1.253   1.552  -0.082  0.00  0.00     0.071 A 
ATOM     13  C   UNL d   1      -2.969   1.492  -0.301  0.00  0.00     0.111 A 
ATOM     14  C   UNL d   1       2.599   1.242   0.080  0.00  0.00     0.083 A 
ATOM     15  C   UNL d   1       2.083  -1.109   0.373  0.00  0.00     0.036 A 
ATOM     16  C   UNL d   1       3.015  -0.072   0.325  0.00  0.00     0.040 A 
ENDROOT
BRANCH  14  17
ATOM     17  O   UNL d   1       3.665   2.171   0.044  0.00  0.00    -0.261 OA
BRANCH  17  18
ATOM     18  C   UNL d   1       3.697   3.440  -0.543  0.00  0.00     0.367 C 
ATOM     19  N   UNL d   1       4.977   3.987  -0.507  0.00  0.00    -0.336 N 
ATOM     20  C   UNL d   1       6.150   3.230  -0.100  0.00  0.00     0.154 C 
ATOM     21  C   UNL d   1       5.222   5.260  -1.155  0.00  0.00     0.154 C 
ATOM     22  O   UNL d   1       2.725   3.988  -1.043  0.00  0.00    -0.238 OA
ENDBRANCH  17  18
ENDBRANCH  14  17
TORSDOF 2
