REMARK  2 active torsions:
REMARK  status: ('A' for Active; 'I' for Inactive)
REMARK    1  A    between atoms: C_4  and  C_1 
REMARK       I    between atoms: N_7  and  C_4 
REMARK    2  A    between atoms: C_10  and  N_7 
ROOT
ATOM      1  N   UNL d   1      -1.302  -3.448  -0.883  0.00  0.00    -0.342 N 
ATOM      2  HN  UNL d   1      -0.835  -2.781  -1.498  1.00  0.00     0.167 HD
ATOM      3  C   UNL d   1      -0.587  -4.209  -0.040  0.00  0.00     0.108 A 
ATOM      4  C   UNL d   1      -2.639  -3.573  -0.909  0.00  0.00     0.043 A 
ATOM      5  C   UNL d   1      -3.328  -4.481  -0.082  0.00  0.00    -0.009 A 
ATOM      6  C   UNL d   1      -2.566  -5.293   0.764  0.00  0.00     0.017 A 
ATOM      7  C   UNL d   1      -1.180  -5.159   0.782  0.00  0.00     0.049 A 
ATOM      8  C   UNL d   1      -3.382  -2.775  -1.768  0.00  0.00     0.030 A 
ATOM      9  C   UNL d   1      -4.732  -4.546  -0.112  0.00  0.00     0.013 A 
ATOM     10  C   UNL d   1      -4.778  -2.836  -1.804  0.00  0.00     0.002 A 
ATOM     11  C   UNL d   1      -5.454  -3.717  -0.968  0.00  0.00     0.001 A 
ENDROOT
BRANCH   3  12
ATOM     12  N   UNL d   1       0.801  -4.053   0.063  0.00  0.00    -0.309 N 
ATOM     13  C   UNL d   1       1.553  -3.100  -0.589  0.00  0.00     0.259 C 
ATOM     14  O   UNL d   1       1.125  -2.264  -1.378  0.00  0.00    -0.267 OA
ATOM     15  H   UNL d   1       1.271  -4.665   0.710  0.00  0.00     0.170 HD
BRANCH  13  16
ATOM     16  C   UNL d   1       2.995  -3.102  -0.277  0.00  0.00     0.063 A 
ATOM     17  C   UNL d   1       3.707  -3.936   0.566  0.00  0.00     0.091 A 
ATOM     18  S   UNL d   1       5.374  -3.600   0.636  0.00  0.00    -0.065 SA
ATOM     19 CL   UNL d   1       3.147  -5.245   1.543  0.00  0.00    -0.075 Cl
ATOM     20  C   UNL d   1       5.201  -2.325  -0.455  0.00  0.00     0.077 A 
ATOM     21  C   UNL d   1       3.908  -2.143  -0.867  0.00  0.00     0.050 A 
ATOM     22 CL   UNL d   1       6.572  -1.413  -0.933  0.00  0.00    -0.076 Cl
ENDBRANCH  13  16
ENDBRANCH   3  12
TORSDOF 2
