REMARK  4 active torsions:
REMARK  status: ('A' for Active; 'I' for Inactive)
REMARK       I    between atoms: C_3  and  N_1 
REMARK    1  A    between atoms: C_5  and  C_2 
REMARK    2  A    between atoms: C_13  and  C_3 
REMARK    3  A    between atoms: C_6  and  C_5 
REMARK       I    between atoms: N_8  and  C_6 
REMARK    4  A    between atoms: C_7  and  N_8 
ROOT
ATOM      1  N   UNL d   1      -1.349  -1.186   0.189  0.00  0.00    -0.333 N 
ATOM      2  C   UNL d   1       0.123  -1.121   0.435  0.00  0.00     0.188 C 
ATOM      3  C   UNL d   1      -2.145  -1.981   1.035  0.00  0.00     0.254 C 
ATOM      4  C   UNL d   1       0.387   0.059   1.403  0.00  0.00     0.241 C 
ATOM      5  N   UNL d   1      -0.278   1.236   1.138  0.00  0.00    -0.358 N 
ATOM      6  O   UNL d   1      -1.658  -2.708   1.904  0.00  0.00    -0.267 OA
ATOM      7  O   UNL d   1       1.283   0.060   2.244  0.00  0.00    -0.271 OA
ATOM      8  C   UNL d   1      -1.845   0.072  -0.399  0.00  0.00     0.147 C 
ATOM      9  C   UNL d   1      -1.613   1.230   0.577  0.00  0.00     0.142 C 
ATOM     10  H   UNL d   1      -0.035   1.978   1.784  0.00  0.00     0.162 HD
ENDROOT
BRANCH   2  11
ATOM     11  C   UNL d   1       0.859  -2.386   0.899  0.00  0.00     0.138 C 
BRANCH  11  12
ATOM     12  C   UNL d   1       2.322  -2.388   0.450  0.00  0.00     0.224 C 
ATOM     13  N   UNL d   1       3.132  -1.461   1.083  0.00  0.00    -0.326 N 
ATOM     14  H   UNL d   1       2.690  -0.848   1.777  0.00  0.00     0.169 HD
ATOM     15  O   UNL d   1       2.687  -3.166  -0.428  0.00  0.00    -0.273 OA
BRANCH  13  16
ATOM     16  C   UNL d   1       4.512  -1.195   0.857  0.00  0.00     0.058 A 
ATOM     17  C   UNL d   1       5.310  -1.975   0.011  0.00  0.00     0.055 A 
ATOM     18  C   UNL d   1       6.662  -1.661  -0.185  0.00  0.00     0.036 A 
ATOM     19 CL   UNL d   1       7.626  -2.638  -1.222  0.00  0.00    -0.084 Cl
ATOM     20  C   UNL d   1       7.242  -0.570   0.455  0.00  0.00     0.026 A 
ATOM     21  C   UNL d   1       6.467   0.213   1.306  0.00  0.00     0.028 A 
ATOM     22  C   UNL d   1       5.118  -0.099   1.509  0.00  0.00     0.060 A 
ATOM     23 CL   UNL d   1       4.237   0.933   2.579  0.00  0.00    -0.082 Cl
ENDBRANCH  13  16
ENDBRANCH  11  12
ENDBRANCH   2  11
BRANCH   3  24
ATOM     24  C   UNL d   1      -3.637  -1.935   0.966  0.00  0.00     0.032 A 
ATOM     25  C   UNL d   1      -4.349  -1.829  -0.234  0.00  0.00     0.017 A 
ATOM     26  C   UNL d   1      -5.742  -1.697  -0.217  0.00  0.00     0.001 A 
ATOM     27  C   UNL d   1      -6.436  -1.747   0.991  0.00  0.00     0.000 A 
ATOM     28  C   UNL d   1      -5.744  -1.950   2.182  0.00  0.00     0.001 A 
ATOM     29  C   UNL d   1      -4.350  -2.042   2.170  0.00  0.00     0.017 A 
ENDBRANCH   3  24
TORSDOF 4
