REMARK  2 active torsions:
REMARK  status: ('A' for Active; 'I' for Inactive)
REMARK    1  A    between atoms: C_6  and  C_1 
REMARK    2  A    between atoms: C_7  and  C_3 
ROOT
ATOM      1  C   UNL d   1       0.866   0.936  -0.025  0.00  0.00     0.068 A 
ATOM      2  S   UNL d   1       2.521   0.465  -0.026  0.00  0.00    -0.085 SA
ATOM      3  C   UNL d   1       2.159  -1.209  -0.014  0.00  0.00     0.017 A 
ATOM      4  C   UNL d   1       0.059  -0.182  -0.006  0.00  0.00     0.033 A 
ATOM      5  C   UNL d   1       0.790  -1.405  -0.011  0.00  0.00     0.040 A 
ATOM      6 BR   UNL d   1      -1.829  -0.258   0.096  0.00  0.00    -0.050 Br
ENDROOT
BRANCH   3   7
ATOM      7  C   UNL d   1       3.241  -2.213  -0.038  0.00  0.00    -0.019 A 
ATOM      8  C   UNL d   1       4.475  -1.991   0.601  0.00  0.00     0.016 A 
ATOM      9  C   UNL d   1       5.502  -2.938   0.532  0.00  0.00     0.043 A 
ATOM     10  C   UNL d   1       5.299  -4.119  -0.167  0.00  0.00     0.116 A 
ATOM     11  C   UNL d   1       4.085  -4.377  -0.788  0.00  0.00     0.043 A 
ATOM     12  F   UNL d   1       6.287  -5.020  -0.246  0.00  0.00    -0.206 F 
ATOM     13  C   UNL d   1       3.059  -3.428  -0.723  0.00  0.00     0.016 A 
ENDBRANCH   3   7
BRANCH   1  14
ATOM     14  C   UNL d   1       0.592   2.371  -0.023  0.00  0.00     0.163 C 
ATOM     15  O   UNL d   1       1.353   3.192   0.492  0.00  0.00    -0.292 OA
ATOM     16  C   UNL d   1      -0.638   2.899  -0.721  0.00  0.00     0.097 C 
ENDBRANCH   1  14
TORSDOF 2
