REMARK  4 active torsions:
REMARK  status: ('A' for Active; 'I' for Inactive)
REMARK    1  A    between atoms: C_6  and  C_1 
REMARK       I    between atoms: N_10  and  C_6 
REMARK    2  A    between atoms: O_13  and  C_7 
REMARK    3  A    between atoms: N_8  and  N_10 
REMARK    4  A    between atoms: C_15  and  C_12 
ROOT
ATOM      1  C   UNL d   1      -0.636  -2.566   0.029  0.00  0.00     0.288 C 
ATOM      2  N   UNL d   1       0.249  -3.638   0.160  0.00  0.00    -0.265 N 
ATOM      3  O   UNL d   1      -0.283  -1.397   0.146  0.00  0.00    -0.264 OA
ATOM      4  H   UNL d   1      -0.075  -4.592   0.098  0.00  0.00     0.190 HD
ENDROOT
BRANCH   2   5
ATOM      5  N   UNL d   1       1.583  -3.399   0.339  0.00  0.00    -0.308 N 
ATOM      6  C   UNL d   1       2.343  -4.435   0.493  0.00  0.00     0.118 C 
ATOM      7  HN  UNL d   1       1.960  -2.451   0.351  1.00  0.00     0.186 HD
BRANCH   6   8
ATOM      8  C   UNL d   1       3.807  -4.286   0.671  0.00  0.00    -0.019 A 
ATOM      9  C   UNL d   1       4.403  -3.023   0.572  0.00  0.00     0.014 A 
ATOM     10  C   UNL d   1       5.782  -2.883   0.748  0.00  0.00     0.024 A 
ATOM     11  C   UNL d   1       6.561  -4.004   1.026  0.00  0.00     0.034 A 
ATOM     12  C   UNL d   1       5.974  -5.267   1.121  0.00  0.00     0.024 A 
ATOM     13 CL   UNL d   1       8.256  -3.829   1.258  0.00  0.00    -0.084 Cl
ATOM     14  C   UNL d   1       4.593  -5.412   0.941  0.00  0.00     0.014 A 
ENDBRANCH   6   8
ENDBRANCH   2   5
BRANCH   1  15
ATOM     15  C   UNL d   1      -2.013  -2.941  -0.255  0.00  0.00     0.123 A 
ATOM     16  N   UNL d   1      -3.053  -2.042  -0.433  0.00  0.00    -0.289 N 
ATOM     17  N   UNL d   1      -4.247  -2.634  -0.648  0.00  0.00    -0.278 N 
ATOM     18  C   UNL d   1      -3.019  -0.597  -0.420  0.00  0.00     0.178 C 
ATOM     19  C   UNL d   1      -3.955  -3.921  -0.652  0.00  0.00     0.157 A 
ATOM     20  HN  UNL d   1      -5.158  -2.192  -0.776  1.00  0.00     0.189 HD
ATOM     21  C   UNL d   1      -2.603  -4.189  -0.422  0.00  0.00     0.094 A 
BRANCH  19  22
ATOM     22  O   UNL d   1      -4.964  -4.764  -0.870  0.00  0.00    -0.345 OA
ATOM     23  H   UNL d   1      -4.641  -5.675  -0.866  0.00  0.00     0.219 HD
ENDBRANCH  19  22
ENDBRANCH   1  15
TORSDOF 4
