REMARK  6 active torsions:
REMARK  status: ('A' for Active; 'I' for Inactive)
REMARK    1  A    between atoms: C_2  and  C_1 
REMARK       I    between atoms: N_11  and  C_2 
REMARK    2  A    between atoms: C_5  and  C_13 
REMARK    3  A    between atoms: C_14  and  N_11 
REMARK    4  A    between atoms: S_12  and  C_15 
REMARK    5  A    between atoms: C_13  and  S_12 
REMARK    6  A    between atoms: C_15  and  C_14 
ROOT
ATOM      1  C   UNL d   1       0.654   3.780  -2.408  0.00  0.00     0.132 C 
ENDROOT
BRANCH   1   2
ATOM      2  N   UNL d   1       0.712   2.959  -1.216  0.00  0.00    -0.360 N 
ATOM      3  C   UNL d   1      -0.242   3.068  -0.234  0.00  0.00     0.221 C 
ATOM      4  O   UNL d   1      -1.137   3.904  -0.235  0.00  0.00    -0.273 OA
ATOM      5  H   UNL d   1       1.461   2.287  -1.118  0.00  0.00     0.162 HD
BRANCH   3   6
ATOM      6  C   UNL d   1      -0.095   2.076   0.866  0.00  0.00     0.078 A 
ATOM      7  C   UNL d   1      -1.238   1.815   1.819  0.00  0.00     0.015 A 
ATOM      8  C   UNL d   1      -0.018   2.549   2.297  0.00  0.00     0.015 A 
ENDBRANCH   3   6
ENDBRANCH   1   2
BRANCH   1   9
ATOM      9  C   UNL d   1       1.270   5.164  -2.200  0.00  0.00     0.094 C 
BRANCH   9  10
ATOM     10  S   UNL d   1       1.178   6.199  -3.698  0.00  0.00    -0.161 SA
BRANCH  10  11
ATOM     11  C   UNL d   1      -0.632   6.416  -3.804  0.00  0.00     0.139 C 
BRANCH  11  12
ATOM     12  C   UNL d   1      -0.989   7.206  -5.007  0.00  0.00     0.061 A 
ATOM     13  O   UNL d   1      -1.242   6.498  -6.147  0.00  0.00    -0.326 OA
ATOM     14  C   UNL d   1      -1.545   7.400  -7.114  0.00  0.00     0.142 A 
ATOM     15  C   UNL d   1      -1.505   8.679  -6.610  0.00  0.00     0.027 A 
ATOM     16  C   UNL d   1      -1.148   8.556  -5.246  0.00  0.00     0.035 A 
ENDBRANCH  11  12
ENDBRANCH  10  11
ENDBRANCH   9  10
ENDBRANCH   1   9
TORSDOF 6
