REMARK  6 active torsions:
REMARK  status: ('A' for Active; 'I' for Inactive)
REMARK    1  A    between atoms: S_11  and  C_3 
REMARK    2  A    between atoms: C_4  and  C_5 
REMARK    3  A    between atoms: C_6  and  C_19 
REMARK       I    between atoms: N_10  and  C_6 
REMARK    4  A    between atoms: C_20  and  N_10 
REMARK    5  A    between atoms: C_19  and  S_11 
REMARK    6  A    between atoms: C_23  and  C_13 
ROOT
ATOM      1  S   UNL d   1       0.101   2.812   0.777  0.00  0.00    -0.085 SA
ENDROOT
BRANCH   1   2
ATOM      2  C   UNL d   1      -0.329   1.094   0.579  0.00  0.00     0.145 A 
ATOM      3  N   UNL d   1      -1.204   0.737  -0.376  0.00  0.00    -0.335 N 
ATOM      4  C   UNL d   1      -1.397  -0.593  -0.545  0.00  0.00     0.069 A 
ATOM      5  HN  UNL d   1      -1.696   1.429  -0.942  1.00  0.00     0.168 HD
ATOM      6  C   UNL d   1      -0.745  -1.549   0.206  0.00  0.00     0.049 A 
ATOM      7  C   UNL d   1       0.108  -1.073   1.167  0.00  0.00     0.092 A 
ATOM      8  N   UNL d   1       0.335   0.235   1.370  0.00  0.00    -0.347 N 
ATOM      9  HN  UNL d   1       0.979   0.560   2.091  1.00  0.00     0.167 HD
BRANCH   4  10
ATOM     10  C   UNL d   1      -2.354  -0.964  -1.583  0.00  0.00     0.101 A 
ATOM     11  O   UNL d   1      -2.460  -2.302  -1.866  0.00  0.00    -0.321 OA
ATOM     12  C   UNL d   1      -3.398  -2.439  -2.834  0.00  0.00     0.142 A 
ATOM     13  C   UNL d   1      -3.908  -1.214  -3.189  0.00  0.00     0.027 A 
ATOM     14  C   UNL d   1      -3.231  -0.261  -2.386  0.00  0.00     0.041 A 
ENDBRANCH   4  10
ENDBRANCH   1   2
BRANCH   1  15
ATOM     15  C   UNL d   1      -1.385   3.583   0.088  0.00  0.00     0.185 C 
BRANCH  15  16
ATOM     16  C   UNL d   1      -1.396   5.102   0.219  0.00  0.00     0.231 C 
ATOM     17  N   UNL d   1      -0.187   5.749   0.014  0.00  0.00    -0.327 N 
ATOM     18  H   UNL d   1       0.606   5.167  -0.233  0.00  0.00     0.169 HD
ATOM     19  O   UNL d   1      -2.476   5.664   0.404  0.00  0.00    -0.272 OA
BRANCH  17  20
ATOM     20  C   UNL d   1       0.075   7.133   0.179  0.00  0.00     0.034 A 
ATOM     21  C   UNL d   1      -0.856   8.030   0.705  0.00  0.00     0.030 A 
ATOM     22  C   UNL d   1      -0.526   9.370   0.926  0.00  0.00     0.010 A 
ATOM     23  C   UNL d   1       0.748   9.861   0.623  0.00  0.00    -0.055 A 
ATOM     24  C   UNL d   1       1.677   8.973   0.058  0.00  0.00     0.010 A 
ATOM     25  C   UNL d   1       1.345   7.623  -0.156  0.00  0.00     0.030 A 
BRANCH  23  26
ATOM     26  C   UNL d   1       1.135  11.293   0.954  0.00  0.00     0.010 C 
ATOM     27  C   UNL d   1       0.239  12.319   0.252  0.00  0.00     0.015 C 
ATOM     28  C   UNL d   1       1.113  11.521   2.471  0.00  0.00     0.015 C 
ENDBRANCH  23  26
ENDBRANCH  17  20
ENDBRANCH  15  16
ENDBRANCH   1  15
TORSDOF 6
