REMARK  3 active torsions:
REMARK  status: ('A' for Active; 'I' for Inactive)
REMARK    1  A    between atoms: C_2  and  C_1 
REMARK       I    between atoms: N_3  and  C_1 
REMARK    2  A    between atoms: C_4  and  N_3 
REMARK    3  A    between atoms: N_12  and  C_6 
ROOT
ATOM      1  C   UNL d   1       1.711  -1.302  -0.031  0.00  0.00     0.253 C 
ATOM      2  N   UNL d   1       0.511  -0.713   0.307  0.00  0.00    -0.352 N 
ATOM      3  O   UNL d   1       1.784  -2.393  -0.583  0.00  0.00    -0.268 OA
ATOM      4  H   UNL d   1       0.530   0.106   0.895  0.00  0.00     0.163 HD
ENDROOT
BRANCH   1   5
ATOM      5  C   UNL d   1       2.951  -0.518   0.310  0.00  0.00     0.052 A 
ATOM      6  C   UNL d   1       4.200  -1.169   0.412  0.00  0.00     0.021 A 
ATOM      7  C   UNL d   1       5.337  -0.404   0.721  0.00  0.00     0.024 A 
ATOM      8  C   UNL d   1       5.266   0.984   0.850  0.00  0.00     0.002 A 
ATOM      9  C   UNL d   1       4.044   1.629   0.709  0.00  0.00     0.001 A 
ATOM     10  C   UNL d   1       2.894   0.884   0.442  0.00  0.00     0.019 A 
BRANCH   6  11
ATOM     11  N   UNL d   1       4.321  -2.573   0.447  0.00  0.00    -0.302 NA
ATOM     12  H   UNL d   1       3.525  -3.023  -0.026  0.00  0.00     0.124 HD
ATOM     13  H   UNL d   1       5.208  -2.917   0.097  0.00  0.00     0.124 HD
ENDBRANCH   6  11
ENDBRANCH   1   5
BRANCH   2  14
ATOM     14  C   UNL d   1      -0.797  -1.262  -0.032  0.00  0.00     0.085 C 
ATOM     15  C   UNL d   1      -1.177  -1.070  -1.512  0.00  0.00     0.034 C 
ATOM     16  C   UNL d   1      -1.526   0.382  -1.936  0.00  0.00    -0.045 C 
ATOM     17  C   UNL d   1      -0.244   1.206  -2.156  0.00  0.00     0.015 C 
ATOM     18  C   UNL d   1      -2.268   0.335  -3.291  0.00  0.00     0.015 C 
ATOM     19  C   UNL d   1      -2.455   1.074  -0.908  0.00  0.00     0.013 C 
ATOM     20  C   UNL d   1      -2.069   0.857   0.562  0.00  0.00    -0.016 C 
ATOM     21  C   UNL d   1      -1.873  -0.637   0.863  0.00  0.00     0.029 C 
ATOM     22  C   UNL d   1      -3.131   1.448   1.492  0.00  0.00     0.010 C 
ENDBRANCH   2  14
TORSDOF 3
