REMARK  11 active torsions:
REMARK  status: ('A' for Active; 'I' for Inactive)
REMARK    1  A    between atoms: C_2  and  C_1 
REMARK    2  A    between atoms: O_12  and  C_1 
REMARK    3  A    between atoms: C_4  and  C_3 
REMARK    4  A    between atoms: O_16  and  C_13 
REMARK    5  A    between atoms: C_17  and  O_16 
REMARK    6  A    between atoms: C_18  and  C_17 
REMARK    7  A    between atoms: C_22  and  C_18 
REMARK    8  A    between atoms: C_19  and  C_20 
REMARK    9  A    between atoms: C_20  and  C_21 
REMARK   10  A    between atoms: C_21  and  C_23 
REMARK   11  A    between atoms: C_23  and  C_22 
ROOT
ATOM      1  C   UNL d   1      -2.509  -2.630   3.607  0.00  0.00    -0.026 A 
ATOM      2  C   UNL d   1      -2.338  -2.376   4.979  0.00  0.00     0.015 A 
ATOM      3  C   UNL d   1      -3.441  -3.622   3.253  0.00  0.00     0.015 A 
ATOM      4  C   UNL d   1      -4.020  -4.003   5.572  0.00  0.00     0.068 A 
ATOM      5  C   UNL d   1      -3.073  -3.057   5.949  0.00  0.00     0.037 A 
ATOM      6  C   UNL d   1      -4.188  -4.292   4.219  0.00  0.00     0.037 A 
ENDROOT
BRANCH   1   7
ATOM      7  C   UNL d   1      -1.744  -1.883   2.587  0.00  0.00    -0.026 A 
ATOM      8  C   UNL d   1      -0.479  -1.349   2.888  0.00  0.00     0.013 A 
ATOM      9  C   UNL d   1       0.255  -0.642   1.945  0.00  0.00     0.019 A 
ATOM     10  C   UNL d   1      -0.236  -0.498   0.647  0.00  0.00     0.037 A 
ATOM     11  C   UNL d   1      -1.502  -0.994   0.320  0.00  0.00     0.019 A 
ATOM     12  C   UNL d   1      -2.249  -1.669   1.289  0.00  0.00     0.013 A 
BRANCH  10  13
ATOM     13  C   UNL d   1       0.577   0.163  -0.391  0.00  0.00     0.176 C 
ATOM     14  O   UNL d   1       0.093   0.746  -1.340  0.00  0.00    -0.646 OA
BRANCH  13  15
ATOM     15  O   UNL d   1       1.919   0.023  -0.213  0.00  0.00    -0.773 OA
ATOM     16  H   UNL d   1       2.170  -0.610   0.485  0.00  0.00     0.167 HD
ENDBRANCH  13  15
ENDBRANCH  10  13
ENDBRANCH   1   7
BRANCH   4  17
ATOM     17  O   UNL d   1      -4.798  -4.726   6.431  0.00  0.00    -0.351 OA
BRANCH  17  18
ATOM     18  C   UNL d   1      -5.122  -4.054   7.648  0.00  0.00     0.175 C 
BRANCH  18  19
ATOM     19  C   UNL d   1      -6.012  -4.968   8.481  0.00  0.00     0.027 C 
BRANCH  19  20
ATOM     20  C   UNL d   1      -6.386  -4.288   9.794  0.00  0.00     0.002 C 
BRANCH  20  21
ATOM     21  C   UNL d   1      -7.270  -5.186  10.652  0.00  0.00     0.000 C 
BRANCH  21  22
ATOM     22  C   UNL d   1      -7.636  -4.492  11.963  0.00  0.00     0.000 C 
BRANCH  22  23
ATOM     23  C   UNL d   1      -8.521  -5.391  12.823  0.00  0.00    -0.000 C 
BRANCH  23  24
ATOM     24  C   UNL d   1      -8.893  -4.708  14.135  0.00  0.00    -0.005 C 
ATOM     25  C   UNL d   1      -9.774  -5.608  14.985  0.00  0.00     0.005 C 
ENDBRANCH  23  24
ENDBRANCH  22  23
ENDBRANCH  21  22
ENDBRANCH  20  21
ENDBRANCH  19  20
ENDBRANCH  18  19
ENDBRANCH  17  18
ENDBRANCH   4  17
TORSDOF 11
