REMARK  9 active torsions:
REMARK  status: ('A' for Active; 'I' for Inactive)
REMARK    1  A    between atoms: S_9  and  C_2 
REMARK    2  A    between atoms: C_12  and  C_3 
REMARK       I    between atoms: C_8  and  N_11 
REMARK    3  A    between atoms: O_13  and  C_8 
REMARK    4  A    between atoms: C_18  and  S_9 
REMARK    5  A    between atoms: C_10  and  C_18 
REMARK       I    between atoms: N_14  and  C_10 
REMARK    6  A    between atoms: N_11  and  C_12 
REMARK    7  A    between atoms: C_17  and  O_13 
REMARK    8  A    between atoms: C_20  and  N_14 
REMARK    9  A    between atoms: C_21  and  C_20 
ROOT
ATOM      1  N   UNL d   1       0.945   0.122  -0.077  0.00  0.00    -0.318 N 
ATOM      2  C   UNL d   1       0.136   1.222  -0.039  0.00  0.00     0.162 C 
ATOM      3  C   UNL d   1       0.097  -0.947  -0.281  0.00  0.00     0.117 C 
ATOM      4  N   UNL d   1      -1.078   0.884  -0.402  0.00  0.00    -0.278 N 
ATOM      5  HN  UNL d   1      -1.859   1.522  -0.557  1.00  0.00     0.189 HD
ATOM      6  N   UNL d   1      -1.111  -0.481  -0.535  0.00  0.00    -0.285 N 
ATOM      7  HN  UNL d   1      -1.928  -1.039  -0.786  1.00  0.00     0.188 HD
ATOM      8  C   UNL d   1       2.375   0.055   0.075  0.00  0.00     0.160 C 
ENDROOT
BRANCH   2   9
ATOM      9  S   UNL d   1       0.597   2.739   0.648  0.00  0.00    -0.083 SA
BRANCH   9  10
ATOM     10  C   UNL d   1      -0.837   3.806   0.355  0.00  0.00     0.185 C 
BRANCH  10  11
ATOM     11  C   UNL d   1      -2.059   3.582   1.240  0.00  0.00     0.227 C 
ATOM     12  N   UNL d   1      -2.429   2.290   1.512  0.00  0.00    -0.356 N 
ATOM     13  H   UNL d   1      -1.964   1.539   1.013  0.00  0.00     0.162 HD
ATOM     14  O   UNL d   1      -2.731   4.545   1.616  0.00  0.00    -0.273 OA
BRANCH  12  15
ATOM     15  C   UNL d   1      -3.693   1.946   2.119  0.00  0.00     0.161 C 
BRANCH  15  16
ATOM     16  C   UNL d   1      -3.530   1.236   3.438  0.00  0.00    -0.041 A 
ATOM     17  C   UNL d   1      -2.839   1.846   4.496  0.00  0.00     0.009 A 
ATOM     18  C   UNL d   1      -2.781   1.240   5.752  0.00  0.00     0.001 A 
ATOM     19  C   UNL d   1      -3.414   0.017   5.966  0.00  0.00     0.000 A 
ATOM     20  C   UNL d   1      -4.092  -0.608   4.921  0.00  0.00     0.001 A 
ATOM     21  C   UNL d   1      -4.149  -0.004   3.664  0.00  0.00     0.009 A 
ENDBRANCH  15  16
ENDBRANCH  12  15
ENDBRANCH  10  11
ENDBRANCH   9  10
ENDBRANCH   2   9
BRANCH   3  22
ATOM     22  C   UNL d   1       0.471  -2.381  -0.129  0.00  0.00     0.203 C 
BRANCH  22  23
ATOM     23  N   UNL d   1       0.733  -2.970  -1.411  0.00  0.00    -0.330 N 
ATOM     24  C   UNL d   1       1.988  -3.236  -1.857  0.00  0.00     0.361 C 
ATOM     25  O   UNL d   1       3.005  -2.966  -1.229  0.00  0.00    -0.238 OA
ATOM     26  H   UNL d   1      -0.041  -3.228  -2.017  0.00  0.00     0.165 HD
BRANCH  24  27
ATOM     27  O   UNL d   1       1.930  -3.846  -3.062  0.00  0.00    -0.294 OA
BRANCH  27  28
ATOM     28  C   UNL d   1       3.153  -4.266  -3.729  0.00  0.00     0.061 C 
ATOM     29  C   UNL d   1       3.961  -5.239  -2.858  0.00  0.00     0.046 C 
ATOM     30  C   UNL d   1       2.698  -4.987  -5.011  0.00  0.00     0.046 C 
ATOM     31  C   UNL d   1       3.991  -3.048  -4.135  0.00  0.00     0.046 C 
ENDBRANCH  27  28
ENDBRANCH  24  27
ENDBRANCH  22  23
ENDBRANCH   3  22
TORSDOF 9
