REMARK  5 active torsions:
REMARK  status: ('A' for Active; 'I' for Inactive)
REMARK    1  A    between atoms: N_2  and  C_1 
REMARK    2  A    between atoms: N_3  and  C_6 
REMARK    3  A    between atoms: N_7  and  C_5 
REMARK    4  A    between atoms: C_14  and  N_7 
REMARK    5  A    between atoms: O_20  and  C_15 
ROOT
ATOM      1  C   UNL d   1      -0.396   0.963  -0.206  0.00  0.00     0.131 A 
ATOM      2  C   UNL d   1      -1.199  -0.104   0.228  0.00  0.00     0.074 A 
ATOM      3  C   UNL d   1       0.987   1.026   0.044  0.00  0.00     0.066 A 
ATOM      4  C   UNL d   1      -0.593  -1.154   0.923  0.00  0.00     0.105 A 
ATOM      5  C   UNL d   1       1.561  -0.067   0.717  0.00  0.00     0.034 A 
ATOM      6  C   UNL d   1       0.787  -1.150   1.153  0.00  0.00     0.038 A 
ENDROOT
BRANCH   3   7
ATOM      7  N   UNL d   1       1.785   2.117  -0.372  0.00  0.00    -0.354 N 
ATOM      8  H   UNL d   1       1.429   3.017  -0.046  0.00  0.00     0.166 HD
BRANCH   7   9
ATOM      9  C   UNL d   1       3.173   2.110  -0.617  0.00  0.00     0.032 A 
ATOM     10  C   UNL d   1       3.754   1.087  -1.377  0.00  0.00     0.032 A 
ATOM     11  C   UNL d   1       5.139   1.004  -1.542  0.00  0.00     0.039 A 
ATOM     12  C   UNL d   1       5.970   1.944  -0.940  0.00  0.00     0.068 A 
ATOM     13  C   UNL d   1       5.398   2.984  -0.203  0.00  0.00     0.039 A 
ATOM     14  C   UNL d   1       4.010   3.070  -0.042  0.00  0.00     0.032 A 
BRANCH  12  15
ATOM     15  O   UNL d   1       7.337   1.949  -0.993  0.00  0.00    -0.356 OA
ATOM     16  C   UNL d   1       7.951   0.857  -1.669  0.00  0.00     0.210 C 
ENDBRANCH  12  15
ENDBRANCH   7   9
ENDBRANCH   3   7
BRANCH   1  17
ATOM     17  N   UNL d   1      -1.035   1.998  -0.995  0.00  0.00    -0.113 N 
ATOM     18  O   UNL d   1      -1.623   1.638  -2.022  0.00  0.00    -0.532 OA
ATOM     19  O   UNL d   1      -0.972   3.157  -0.560  0.00  0.00    -0.532 OA
ENDBRANCH   1  17
BRANCH   4  20
ATOM     20  N   UNL d   1      -1.408  -2.269   1.421  0.00  0.00    -0.116 N 
ATOM     21  O   UNL d   1      -2.633  -2.197   1.261  0.00  0.00    -0.532 OA
ATOM     22  O   UNL d   1      -0.822  -3.206   1.980  0.00  0.00    -0.532 OA
ENDBRANCH   4  20
TORSDOF 5
