REMARK  4 active torsions:
REMARK  status: ('A' for Active; 'I' for Inactive)
REMARK    1  A    between atoms: N_2  and  C_1 
REMARK    2  A    between atoms: C_3  and  C_10 
REMARK    3  A    between atoms: N_11  and  N_4 
REMARK    4  A    between atoms: N_7  and  C_9 
ROOT
ATOM      1  C   UNL d   1       0.479   0.559   1.105  0.00  0.00     0.131 A 
ATOM      2  C   UNL d   1      -0.395  -0.541   1.016  0.00  0.00     0.054 A 
ATOM      3  C   UNL d   1       1.063   1.156  -0.019  0.00  0.00     0.082 A 
ATOM      4  C   UNL d   1      -0.737  -1.054  -0.241  0.00  0.00     0.050 A 
ATOM      5  C   UNL d   1       0.677   0.647  -1.272  0.00  0.00     0.034 A 
ATOM      6  C   UNL d   1      -0.203  -0.440  -1.384  0.00  0.00     0.018 A 
ENDROOT
BRANCH   3   7
ATOM      7  N   UNL d   1       2.024   2.182   0.139  0.00  0.00    -0.284 N 
ATOM      8  N   UNL d   1       2.765   2.303  -0.853  0.00  0.00    -0.244 N 
ATOM      9  HN  UNL d   1       2.577   1.842  -1.743  1.00  0.00     0.208 HD
ATOM     10  HN  UNL d   1       2.101   2.761   0.975  1.00  0.00     0.188 HD
BRANCH   8  11
ATOM     11  N   UNL d   1       3.847   3.101  -0.648  0.00  0.00    -0.309 N 
ATOM     12  C   UNL d   1       4.046   3.934   0.537  0.00  0.00     0.170 C 
ATOM     13  C   UNL d   1       3.785   5.404   0.198  0.00  0.00     0.189 C 
ATOM     14  O   UNL d   1       4.578   5.826  -0.929  0.00  0.00    -0.388 OA
ATOM     15  C   UNL d   1       4.277   5.034  -2.092  0.00  0.00     0.189 C 
ATOM     16  C   UNL d   1       4.562   3.550  -1.836  0.00  0.00     0.170 C 
ENDBRANCH   8  11
ENDBRANCH   3   7
BRANCH   1  17
ATOM     17  N   UNL d   1       0.766   1.085   2.425  0.00  0.00    -0.113 N 
ATOM     18  O   UNL d   1       1.197   0.282   3.266  0.00  0.00    -0.532 OA
ATOM     19  O   UNL d   1       0.496   2.273   2.639  0.00  0.00    -0.532 OA
ENDBRANCH   1  17
BRANCH   4  20
ATOM     20  C   UNL d   1      -1.666  -2.239  -0.383  0.00  0.00     0.417 C 
ATOM     21  F   UNL d   1      -2.112  -2.719   0.809  0.00  0.00    -0.166 F 
ATOM     22  F   UNL d   1      -2.777  -1.936  -1.107  0.00  0.00    -0.166 F 
ATOM     23  F   UNL d   1      -1.075  -3.288  -1.017  0.00  0.00    -0.166 F 
ENDBRANCH   4  20
TORSDOF 4
