REMARK  8 active torsions:
REMARK  status: ('A' for Active; 'I' for Inactive)
REMARK    1  A    between atoms: C_5  and  C_1 
REMARK    2  A    between atoms: C_8  and  N_4 
REMARK       I    between atoms: C_9  and  N_10 
REMARK    3  A    between atoms: C_23  and  C_9 
REMARK    4  A    between atoms: N_10  and  C_19 
REMARK    5  A    between atoms: C_11  and  C_24 
REMARK    6  A    between atoms: O_20  and  C_11 
REMARK    7  A    between atoms: C_25  and  C_23 
REMARK    8  A    between atoms: C_24  and  C_25 
ROOT
ATOM      1  C   UNL d   1       2.005   1.544  -0.011  0.00  0.00     0.056 A 
ATOM      2  C   UNL d   1       2.954   1.353  -1.026  0.00  0.00     0.034 A 
ATOM      3  C   UNL d   1       2.214   2.551   0.934  0.00  0.00     0.034 A 
ATOM      4  C   UNL d   1       4.314   3.164  -0.131  0.00  0.00     0.034 A 
ATOM      5  C   UNL d   1       4.094   2.169  -1.092  0.00  0.00     0.032 A 
ATOM      6  C   UNL d   1       3.357   3.352   0.867  0.00  0.00     0.032 A 
ENDROOT
BRANCH   4   7
ATOM      7  N   UNL d   1       5.496   3.933  -0.215  0.00  0.00    -0.327 N 
ATOM      8  C   UNL d   1       5.987   4.763   0.776  0.00  0.00     0.222 C 
ATOM      9  O   UNL d   1       5.522   4.914   1.902  0.00  0.00    -0.273 OA
ATOM     10  H   UNL d   1       6.101   3.746  -1.012  0.00  0.00     0.169 HD
BRANCH   8  11
ATOM     11  C   UNL d   1       7.266   5.482   0.398  0.00  0.00     0.103 C 
BRANCH  11  12
ATOM     12  C   UNL d   1       8.419   5.047   1.308  0.00  0.00     0.019 C 
BRANCH  12  13
ATOM     13  C   UNL d   1       8.780   3.567   1.183  0.00  0.00     0.110 C 
BRANCH  13  14
ATOM     14  C   UNL d   1       9.237   3.243  -0.213  0.00  0.00     0.139 C 
ATOM     15  O   UNL d   1       8.471   2.951  -1.119  0.00  0.00    -0.650 OA
BRANCH  14  16
ATOM     16  O   UNL d   1      10.567   3.391  -0.396  0.00  0.00    -0.776 OA
ATOM     17  H   UNL d   1      11.055   3.658   0.408  0.00  0.00     0.167 HD
ENDBRANCH  14  16
ENDBRANCH  13  14
ENDBRANCH  12  13
ENDBRANCH  11  12
ENDBRANCH   8  11
ENDBRANCH   4   7
BRANCH   1  18
ATOM     18  N   UNL d   1       0.841   0.728   0.048  0.00  0.00    -0.267 N 
ATOM     19  N   UNL d   1       0.662  -0.308  -0.811  0.00  0.00    -0.290 N 
ATOM     20  C   UNL d   1      -0.526  -0.850  -0.480  0.00  0.00     0.134 A 
ATOM     21  HN  UNL d   1       1.295  -0.612  -1.552  1.00  0.00     0.187 HD
ATOM     22  C   UNL d   1      -1.123  -0.141   0.589  0.00  0.00     0.055 A 
ATOM     23  C   UNL d   1      -0.228   0.847   0.911  0.00  0.00     0.119 A 
BRANCH  20  24
ATOM     24  C   UNL d   1      -1.116  -2.046  -1.176  0.00  0.00     0.434 C 
ATOM     25  F   UNL d   1      -0.338  -2.545  -2.171  0.00  0.00    -0.165 F 
ATOM     26  F   UNL d   1      -1.338  -3.069  -0.304  0.00  0.00    -0.165 F 
ATOM     27  F   UNL d   1      -2.324  -1.754  -1.732  0.00  0.00    -0.165 F 
ENDBRANCH  20  24
ENDBRANCH   1  18
TORSDOF 8
