REMARK  5 active torsions:
REMARK  status: ('A' for Active; 'I' for Inactive)
REMARK    1  A    between atoms: C_5  and  N_1 
REMARK    2  A    between atoms: C_2  and  N_6 
REMARK    3  A    between atoms: N_13  and  C_2 
REMARK    4  A    between atoms: N_6  and  N_3 
REMARK    5  A    between atoms: C_9  and  C_8 
ROOT
ATOM      1  N   UNL d   1      -0.556   3.491  -4.849  0.00  0.00    -0.302 N 
ATOM      2  HN  UNL d   1      -0.275   3.647  -5.817  1.00  0.00     0.186 HD
ATOM      3  C   UNL d   1       0.120   2.647  -4.128  0.00  0.00     0.032 C 
ATOM      4  C   UNL d   1      -0.167   2.296  -2.683  0.00  0.00     0.070 C 
ENDROOT
BRANCH   3   5
ATOM      5  C   UNL d   1       1.294   1.966  -4.791  0.00  0.00    -0.010 A 
ATOM      6  C   UNL d   1       2.095   1.036  -4.118  0.00  0.00     0.049 A 
ATOM      7  C   UNL d   1       3.189   0.452  -4.780  0.00  0.00     0.103 A 
ATOM      8  C   UNL d   1       3.489   0.781  -6.107  0.00  0.00     0.036 A 
ATOM      9  C   UNL d   1       2.687   1.700  -6.779  0.00  0.00     0.003 A 
ATOM     10  C   UNL d   1       1.600   2.287  -6.125  0.00  0.00     0.013 A 
BRANCH   7  11
ATOM     11  N   UNL d   1       4.037  -0.511  -4.065  0.00  0.00    -0.116 N 
ATOM     12  O   UNL d   1       3.745  -0.769  -2.888  0.00  0.00    -0.532 OA
ATOM     13  O   UNL d   1       4.994  -1.006  -4.676  0.00  0.00    -0.532 OA
ENDBRANCH   7  11
ENDBRANCH   3   5
BRANCH   1  14
ATOM     14  N   UNL d   1      -1.623   4.174  -4.358  0.00  0.00    -0.276 N 
ATOM     15  H   UNL d   1      -1.907   4.042  -3.401  0.00  0.00     0.189 HD
BRANCH  14  16
ATOM     16  C   UNL d   1      -2.322   5.083  -5.154  0.00  0.00     0.186 C 
ATOM     17  S   UNL d   1      -1.956   5.414  -6.756  0.00  0.00    -0.040 SA
BRANCH  16  18
ATOM     18  N   UNL d   1      -3.356   5.672  -4.442  0.00  0.00    -0.370 N 
ATOM     19  C   UNL d   1      -4.302   6.662  -4.926  0.00  0.00     0.148 C 
ATOM     20  H   UNL d   1      -3.478   5.395  -3.479  0.00  0.00     0.161 HD
ENDBRANCH  16  18
ENDBRANCH  14  16
ENDBRANCH   1  14
TORSDOF 5
