REMARK  3 active torsions:
REMARK  status: ('A' for Active; 'I' for Inactive)
REMARK    1  A    between atoms: N_4  and  C_11 
REMARK    2  A    between atoms: N_5  and  C_10 
REMARK    3  A    between atoms: O_22  and  N_14 
ROOT
ATOM      1  C   UNL d   1       1.174   0.896  -0.001  0.00  0.00     0.007 A 
ATOM      2  C   UNL d   1      -1.209   0.913  -0.002  0.00  0.00     0.007 A 
ATOM      3  C   UNL d   1      -0.007   1.792  -0.001  0.00  0.00     0.076 A 
ATOM      4  C   UNL d   1      -0.743  -0.418  -0.002  0.00  0.00    -0.012 A 
ATOM      5  C   UNL d   1       0.703  -0.426  -0.002  0.00  0.00    -0.012 A 
ATOM      6  C   UNL d   1       2.521   1.218   0.000  0.00  0.00     0.050 A 
ATOM      7  C   UNL d   1      -2.561   1.214  -0.003  0.00  0.00     0.050 A 
ATOM      8  C   UNL d   1      -3.462   0.140  -0.003  0.00  0.00     0.103 A 
ATOM      9  C   UNL d   1       3.425   0.146  -0.001  0.00  0.00     0.103 A 
ATOM     10  C   UNL d   1       1.601  -1.483  -0.002  0.00  0.00     0.015 A 
ATOM     11  C   UNL d   1      -1.638  -1.479  -0.002  0.00  0.00     0.015 A 
ATOM     12  N   UNL d   1       0.112   3.081   0.000  0.00  0.00    -0.268 N 
ATOM     13  HN  UNL d   1       1.009   3.567   0.001  1.00  0.00     0.194 HD
ATOM     14  C   UNL d   1       2.972  -1.194  -0.002  0.00  0.00     0.037 A 
ATOM     15  C   UNL d   1      -3.009  -1.197  -0.003  0.00  0.00     0.037 A 
ENDROOT
BRANCH  12  16
ATOM     16  O   UNL d   1      -1.121   3.731   0.000  0.00  0.00    -0.289 OA
ATOM     17  H   UNL d   1      -0.867   4.673   0.001  0.00  0.00     0.244 HD
ENDBRANCH  12  16
BRANCH   8  18
ATOM     18  N   UNL d   1      -4.907   0.409  -0.004  0.00  0.00    -0.116 N 
ATOM     19  O   UNL d   1      -5.275   1.592  -0.007  0.00  0.00    -0.532 OA
ATOM     20  O   UNL d   1      -5.673  -0.565  -0.003  0.00  0.00    -0.532 OA
ENDBRANCH   8  18
BRANCH   9  21
ATOM     21  N   UNL d   1       4.870   0.411   0.000  0.00  0.00    -0.116 N 
ATOM     22  O   UNL d   1       5.239   1.595   0.002  0.00  0.00    -0.532 OA
ATOM     23  O   UNL d   1       5.634  -0.564  -0.001  0.00  0.00    -0.532 OA
ENDBRANCH   9  21
TORSDOF 3
