REMARK  5 active torsions:
REMARK  status: ('A' for Active; 'I' for Inactive)
REMARK    1  A    between atoms: C_2  and  C_1 
REMARK    2  A    between atoms: N_11  and  C_2 
REMARK    3  A    between atoms: O_10  and  C_5 
REMARK    4  A    between atoms: O_15  and  N_6 
REMARK    5  A    between atoms: C_12  and  O_10 
ROOT
ATOM      1  C   UNL d   1       2.795   2.617   0.173  0.00  0.00     0.019 A 
ATOM      2  N   UNL d   1       4.766   4.026   0.060  0.00  0.00    -0.346 N 
ATOM      3  HN  UNL d   1       5.187   4.955   0.029  1.00  0.00     0.167 HD
ATOM      4  C   UNL d   1       5.521   2.905   0.047  0.00  0.00     0.147 A 
ATOM      5  C   UNL d   1       3.423   3.856   0.115  0.00  0.00     0.105 A 
ATOM      6  C   UNL d   1       3.607   1.481   0.216  0.00  0.00     0.020 A 
ATOM      7  C   UNL d   1       4.994   1.626   0.154  0.00  0.00     0.057 A 
ENDROOT
BRANCH   1   8
ATOM      8  C   UNL d   1       1.305   2.537   0.170  0.00  0.00     0.109 C 
ATOM      9  N   UNL d   1       0.625   3.650   0.156  0.00  0.00    -0.257 N 
ATOM     10  HN  UNL d   1       1.042   4.581   0.179  1.00  0.00     0.195 HD
BRANCH   9  11
ATOM     11  O   UNL d   1      -0.756   3.399   0.104  0.00  0.00    -0.289 OA
ATOM     12  H   UNL d   1      -1.126   4.302   0.131  0.00  0.00     0.244 HD
ENDBRANCH   9  11
BRANCH   8  13
ATOM     13  N   UNL d   1       0.680   1.312   0.164  0.00  0.00    -0.286 NA
ATOM     14  H   UNL d   1       1.054   0.636  -0.491  0.00  0.00     0.125 HD
ATOM     15  H   UNL d   1      -0.317   1.455   0.013  0.00  0.00     0.125 HD
ENDBRANCH   8  13
ENDBRANCH   1   8
BRANCH   4  16
ATOM     16  O   UNL d   1       6.902   3.007  -0.055  0.00  0.00    -0.294 OA
BRANCH  16  17
ATOM     17  C   UNL d   1       7.417   4.077  -0.753  0.00  0.00     0.077 A 
ATOM     18  C   UNL d   1       8.607   4.625  -0.269  0.00  0.00     0.039 A 
ATOM     19  C   UNL d   1       9.209   5.695  -0.939  0.00  0.00     0.026 A 
ATOM     20  C   UNL d   1       8.623   6.204  -2.097  0.00  0.00     0.034 A 
ATOM     21  C   UNL d   1       7.452   5.643  -2.602  0.00  0.00     0.026 A 
ATOM     22 CL   UNL d   1       9.355   7.529  -2.915  0.00  0.00    -0.084 Cl
ATOM     23  C   UNL d   1       6.858   4.567  -1.939  0.00  0.00     0.039 A 
ENDBRANCH  16  17
ENDBRANCH   4  16
TORSDOF 5
