REMARK  7 active torsions:
REMARK  status: ('A' for Active; 'I' for Inactive)
REMARK    1  A    between atoms: C_14  and  N_4 
REMARK    2  A    between atoms: C_21  and  N_11 
REMARK    3  A    between atoms: C_18  and  C_12 
REMARK    4  A    between atoms: C_15  and  C_14 
REMARK    5  A    between atoms: C_20  and  C_15 
REMARK    6  A    between atoms: C_26  and  C_21 
REMARK    7  A    between atoms: C_27  and  C_26 
ROOT
ATOM      1  N   UNL d   1       1.200  -0.621  -0.005  0.00  0.00    -0.203 N 
ATOM      2  C   UNL d   1       1.194   0.768  -0.109  0.00  0.00     0.136 A 
ATOM      3  C   UNL d   1      -1.206  -0.665  -0.043  0.00  0.00     0.062 A 
ATOM      4  N   UNL d   1      -0.003   1.431  -0.225  0.00  0.00    -0.319 N 
ATOM      5  C   UNL d   1      -1.152   0.662  -0.187  0.00  0.00     0.118 A 
ATOM      6  C   UNL d   1       0.043  -1.433   0.051  0.00  0.00     0.278 A 
ATOM      7  N   UNL d   1       2.461  -1.127   0.022  0.00  0.00    -0.289 N 
ATOM      8  HN  UNL d   1       2.738  -2.109   0.035  1.00  0.00     0.188 HD
ATOM      9  C   UNL d   1       2.508   1.154  -0.046  0.00  0.00     0.082 A 
ATOM     10  C   UNL d   1      -2.566   1.105  -0.299  0.00  0.00     0.271 C 
ATOM     11  N   UNL d   1      -3.351  -0.006  -0.039  0.00  0.00    -0.342 N 
ATOM     12  C   UNL d   1       3.261  -0.048   0.028  0.00  0.00     0.062 A 
ATOM     13  C   UNL d   1      -2.570  -1.224   0.031  0.00  0.00     0.173 C 
ATOM     14  O   UNL d   1       0.088  -2.649   0.153  0.00  0.00    -0.265 OA
ATOM     15  O   UNL d   1      -2.936   2.230  -0.583  0.00  0.00    -0.266 OA
ENDROOT
BRANCH   4  16
ATOM     16  C   UNL d   1      -0.025   2.910  -0.173  0.00  0.00     0.215 C 
BRANCH  16  17
ATOM     17  C   UNL d   1      -0.181   3.416   1.266  0.00  0.00     0.177 C 
ATOM     18  O   UNL d   1       0.529   2.980   2.175  0.00  0.00    -0.291 OA
BRANCH  17  19
ATOM     19  C   UNL d   1      -1.143   4.521   1.588  0.00  0.00     0.011 A 
ATOM     20  C   UNL d   1      -2.067   5.039   0.674  0.00  0.00     0.015 A 
ATOM     21  C   UNL d   1      -2.911   6.095   1.036  0.00  0.00     0.001 A 
ATOM     22  C   UNL d   1      -2.843   6.644   2.314  0.00  0.00     0.000 A 
ATOM     23  C   UNL d   1      -1.943   6.127   3.241  0.00  0.00     0.001 A 
ATOM     24  C   UNL d   1      -1.101   5.070   2.882  0.00  0.00     0.015 A 
ENDBRANCH  17  19
ENDBRANCH  16  17
ENDBRANCH   4  16
BRANCH  12  25
ATOM     25  C   UNL d   1       4.719  -0.154   0.084  0.00  0.00    -0.008 A 
ATOM     26  C   UNL d   1       5.385  -1.216  -0.542  0.00  0.00     0.014 A 
ATOM     27  C   UNL d   1       6.780  -1.296  -0.506  0.00  0.00     0.001 A 
ATOM     28  C   UNL d   1       7.520  -0.322   0.162  0.00  0.00     0.000 A 
ATOM     29  C   UNL d   1       6.869   0.738   0.790  0.00  0.00     0.001 A 
ATOM     30  C   UNL d   1       5.476   0.823   0.749  0.00  0.00     0.014 A 
ENDBRANCH  12  25
BRANCH  11  31
ATOM     31  C   UNL d   1      -4.803   0.019  -0.057  0.00  0.00     0.126 C 
BRANCH  31  32
ATOM     32  C   UNL d   1      -5.446  -0.612   1.179  0.00  0.00     0.020 C 
BRANCH  32  33
ATOM     33  C   UNL d   1      -5.072   0.088   2.487  0.00  0.00    -0.003 C 
ATOM     34  C   UNL d   1      -5.756  -0.576   3.675  0.00  0.00     0.005 C 
ENDBRANCH  32  33
ENDBRANCH  31  32
ENDBRANCH  11  31
TORSDOF 7
