REMARK  6 active torsions:
REMARK  status: ('A' for Active; 'I' for Inactive)
REMARK    1  A    between atoms: N_3  and  S_1 
REMARK    2  A    between atoms: C_7  and  S_1 
REMARK    3  A    between atoms: N_2  and  C_8 
REMARK    4  A    between atoms: C_11  and  N_3 
REMARK    5  A    between atoms: C_12  and  N_4 
REMARK    6  A    between atoms: C_19  and  C_12 
ROOT
ATOM      1  C   UNL d   1       1.441   0.292  -5.383  0.00  0.00     0.030 A 
ATOM      2  C   UNL d   1       0.806  -0.386  -2.718  0.00  0.00     0.042 A 
ATOM      3  C   UNL d   1       0.112   0.085  -4.980  0.00  0.00     0.031 A 
ATOM      4  C   UNL d   1       2.434   0.193  -4.400  0.00  0.00     0.031 A 
ATOM      5  C   UNL d   1      -0.205  -0.271  -3.664  0.00  0.00     0.032 A 
ATOM      6  C   UNL d   1       2.124  -0.127  -3.076  0.00  0.00     0.032 A 
ENDROOT
BRANCH   1   7
ATOM      7  N   UNL d   1       1.746   0.550  -6.706  0.00  0.00    -0.378 N 
ATOM      8  C   UNL d   1       2.977   0.027  -7.319  0.00  0.00     0.153 C 
ATOM      9  C   UNL d   1       3.887   1.172  -7.805  0.00  0.00     0.292 C 
ATOM     10  N   UNL d   1       3.219   2.137  -8.712  0.00  0.00     0.095 N 
ATOM     11  C   UNL d   1       2.056   2.689  -7.964  0.00  0.00     0.292 C 
ATOM     12  C   UNL d   1       1.051   1.639  -7.412  0.00  0.00     0.153 C 
BRANCH  10  13
ATOM     13  C   UNL d   1       2.754   1.521  -9.973  0.00  0.00     0.311 C 
BRANCH  13  14
ATOM     14  C   UNL d   1       3.837   0.913 -10.841  0.00  0.00    -0.030 A 
ATOM     15  C   UNL d   1       3.828  -0.461 -11.133  0.00  0.00     0.009 A 
ATOM     16  C   UNL d   1       4.794  -1.019 -11.973  0.00  0.00     0.001 A 
ATOM     17  C   UNL d   1       5.774  -0.208 -12.541  0.00  0.00     0.000 A 
ATOM     18  C   UNL d   1       5.788   1.159 -12.267  0.00  0.00     0.001 A 
ATOM     19  C   UNL d   1       4.829   1.716 -11.418  0.00  0.00     0.009 A 
ENDBRANCH  13  14
ENDBRANCH  10  13
ENDBRANCH   1   7
BRANCH   2  20
ATOM     20  N   UNL d   1       0.498  -0.828  -1.407  0.00  0.00    -0.281 N 
ATOM     21  H   UNL d   1       0.790  -0.254  -0.619  0.00  0.00     0.179 HD
BRANCH  20  22
ATOM     22  S   UNL d   1       0.514  -2.485  -1.074  0.00  0.00     0.263 S 
ATOM     23  O   UNL d   1      -0.442  -3.148  -1.927  0.00  0.00    -0.200 OA
ATOM     24  O   UNL d   1       0.438  -2.600   0.372  0.00  0.00    -0.200 OA
BRANCH  22  25
ATOM     25  C   UNL d   1       2.147  -3.015  -1.559  0.00  0.00     0.079 A 
ATOM     26  C   UNL d   1       3.198  -2.968  -0.637  0.00  0.00     0.025 A 
ATOM     27  C   UNL d   1       4.474  -3.378  -1.028  0.00  0.00     0.002 A 
ATOM     28  C   UNL d   1       4.694  -3.841  -2.327  0.00  0.00     0.000 A 
ATOM     29  C   UNL d   1       3.637  -3.910  -3.236  0.00  0.00     0.002 A 
ATOM     30  C   UNL d   1       2.357  -3.508  -2.852  0.00  0.00     0.025 A 
ENDBRANCH  22  25
ENDBRANCH  20  22
ENDBRANCH   2  20
TORSDOF 6
