REMARK  5 active torsions:
REMARK  status: ('A' for Active; 'I' for Inactive)
REMARK    1  A    between atoms: C_2  and  S_1 
REMARK    2  A    between atoms: N_7  and  S_1 
REMARK    3  A    between atoms: C_10  and  C_3 
REMARK    4  A    between atoms: C_5  and  C_11 
REMARK    5  A    between atoms: C_22  and  N_14 
ROOT
ATOM      1  C   UNL d   1       3.005   0.184   0.110  0.00  0.00     0.116 A 
ATOM      2  S   UNL d   1       3.611   0.453  -1.463  0.00  0.00    -0.075 SA
ATOM      3  C   UNL d   1       5.187   0.756  -0.872  0.00  0.00     0.035 A 
ATOM      4  C   UNL d   1       4.012   0.209   1.055  0.00  0.00     0.034 A 
ATOM      5  C   UNL d   1       5.273   0.545   0.489  0.00  0.00     0.023 A 
ENDROOT
BRANCH   1   6
ATOM      6  S   UNL d   1       1.255  -0.045   0.281  0.00  0.00     0.250 S 
ATOM      7  O   UNL d   1       1.032   0.067   1.702  0.00  0.00    -0.205 OA
ATOM      8  O   UNL d   1       0.954  -1.276  -0.419  0.00  0.00    -0.205 OA
BRANCH   6   9
ATOM      9  N   UNL d   1       0.421   1.219  -0.501  0.00  0.00    -0.203 NA
ATOM     10  C   UNL d   1       0.800   2.619  -0.144  0.00  0.00     0.127 C 
ATOM     11  C   UNL d   1       0.271   3.061   1.234  0.00  0.00     0.138 C 
ATOM     12  N   UNL d   1      -1.192   2.846   1.333  0.00  0.00    -0.379 N 
ATOM     13  C   UNL d   1      -1.637   1.486   0.947  0.00  0.00     0.138 C 
ATOM     14  C   UNL d   1      -1.073   1.085  -0.434  0.00  0.00     0.127 C 
BRANCH  12  15
ATOM     15  C   UNL d   1      -1.821   3.464   2.428  0.00  0.00     0.030 A 
ATOM     16  C   UNL d   1      -2.720   2.799   3.277  0.00  0.00     0.029 A 
ATOM     17  C   UNL d   1      -3.391   3.466   4.313  0.00  0.00     0.002 A 
ATOM     18  C   UNL d   1      -3.178   4.823   4.524  0.00  0.00     0.000 A 
ATOM     19  C   UNL d   1      -2.289   5.508   3.708  0.00  0.00     0.002 A 
ATOM     20  C   UNL d   1      -1.625   4.835   2.674  0.00  0.00     0.029 A 
ENDBRANCH  12  15
ENDBRANCH   6   9
ENDBRANCH   1   6
BRANCH   3  21
ATOM     21  C   UNL d   1       6.332   1.230  -1.712  0.00  0.00     0.074 A 
ATOM     22  C   UNL d   1       6.348   1.399  -3.114  0.00  0.00     0.077 A 
ATOM     23  C   UNL d   1       7.590   1.925  -3.381  0.00  0.00     0.184 A 
ATOM     24  O   UNL d   1       8.283   2.045  -2.218  0.00  0.00    -0.233 OA
ATOM     25  N   UNL d   1       7.501   1.597  -1.170  0.00  0.00    -0.260 N 
ATOM     26  HN  UNL d   1       7.761   1.556  -0.185  1.00  0.00     0.195 HD
BRANCH  23  27
ATOM     27  C   UNL d   1       8.281   2.372  -4.601  0.00  0.00     0.441 C 
ATOM     28  F   UNL d   1       7.535   2.141  -5.713  0.00  0.00    -0.164 F 
ATOM     29  F   UNL d   1       8.543   3.704  -4.581  0.00  0.00    -0.164 F 
ATOM     30  F   UNL d   1       9.465   1.736  -4.787  0.00  0.00    -0.164 F 
ENDBRANCH  23  27
ENDBRANCH   3  21
TORSDOF 5
