REMARK  5 active torsions:
REMARK  status: ('A' for Active; 'I' for Inactive)
REMARK    1  A    between atoms: N_7  and  C_1 
REMARK    2  A    between atoms: C_5  and  C_2 
REMARK    3  A    between atoms: C_10  and  C_13 
REMARK    4  A    between atoms: O_20  and  C_10 
REMARK    5  A    between atoms: C_23  and  O_20 
ROOT
ATOM      1  C   UNL d   1      -1.200  -1.525   0.142  0.00  0.00     0.044 A 
ATOM      2  C   UNL d   1       0.193   0.128   1.233  0.00  0.00     0.119 A 
ATOM      3  N   UNL d   1      -0.689   1.122   0.957  0.00  0.00    -0.352 N 
ATOM      4  HN  UNL d   1      -0.500   2.080   1.254  1.00  0.00     0.166 HD
ATOM      5  C   UNL d   1      -0.027  -1.185   0.827  0.00  0.00     0.064 A 
ATOM      6  C   UNL d   1      -2.126  -0.483  -0.151  0.00  0.00     0.017 A 
ATOM      7  C   UNL d   1      -1.812   0.825   0.289  0.00  0.00     0.045 A 
ATOM      8  C   UNL d   1      -3.363  -0.680  -0.816  0.00  0.00     0.016 A 
ATOM      9  C   UNL d   1      -2.710   1.857   0.048  0.00  0.00     0.030 A 
ATOM     10  C   UNL d   1      -4.242   0.372  -1.062  0.00  0.00     0.001 A 
ATOM     11  C   UNL d   1      -3.917   1.646  -0.624  0.00  0.00     0.002 A 
ENDROOT
BRANCH   1  12
ATOM     12  N   UNL d   1      -1.489  -2.866  -0.183  0.00  0.00    -0.380 N 
ATOM     13  C   UNL d   1      -0.972  -3.909   0.717  0.00  0.00     0.124 C 
ATOM     14  C   UNL d   1      -1.768  -5.198   0.499  0.00  0.00     0.034 C 
ATOM     15  C   UNL d   1      -1.794  -5.627  -0.977  0.00  0.00     0.088 C 
ATOM     16  C   UNL d   1      -2.219  -4.446  -1.869  0.00  0.00     0.034 C 
ATOM     17  C   UNL d   1      -1.357  -3.206  -1.607  0.00  0.00     0.124 C 
BRANCH  15  18
ATOM     18  C   UNL d   1      -0.444  -6.173  -1.423  0.00  0.00     0.263 C 
ATOM     19  O   UNL d   1       0.540  -6.285  -0.710  0.00  0.00    -0.265 OA
BRANCH  18  20
ATOM     20  O   UNL d   1      -0.489  -6.483  -2.751  0.00  0.00    -0.322 OA
BRANCH  20  21
ATOM     21  C   UNL d   1       0.772  -6.684  -3.404  0.00  0.00     0.174 C 
ATOM     22  C   UNL d   1       0.998  -8.153  -3.692  0.00  0.00     0.034 C 
ENDBRANCH  20  21
ENDBRANCH  18  20
ENDBRANCH  15  18
ENDBRANCH   1  12
BRANCH   2  23
ATOM     23  C   UNL d   1       1.447   0.438   2.036  0.00  0.00     0.432 C 
ATOM     24  F   UNL d   1       1.542   1.728   2.466  0.00  0.00    -0.165 F 
ATOM     25  F   UNL d   1       1.546  -0.333   3.161  0.00  0.00    -0.165 F 
ATOM     26  F   UNL d   1       2.591   0.195   1.331  0.00  0.00    -0.165 F 
ENDBRANCH   2  23
TORSDOF 5
