REMARK  6 active torsions:
REMARK  status: ('A' for Active; 'I' for Inactive)
REMARK    1  A    between atoms: C_8  and  C_1 
REMARK    2  A    between atoms: C_14  and  C_6 
REMARK    3  A    between atoms: C_9  and  C_16 
REMARK    4  A    between atoms: O_13  and  C_9 
REMARK    5  A    between atoms: C_15  and  C_14 
REMARK    6  A    between atoms: C_16  and  C_15 
ROOT
ATOM      1  C   UNL d   1       0.246   1.136  -0.067  0.00  0.00     0.154 A 
ATOM      2  N   UNL d   1       1.256   0.195  -0.119  0.00  0.00    -0.322 N 
ATOM      3  HN  UNL d   1       2.263   0.346  -0.192  1.00  0.00     0.169 HD
ATOM      4  N   UNL d   1      -0.983   0.596   0.037  0.00  0.00    -0.241 N 
ATOM      5  HN  UNL d   1      -1.879   1.079   0.098  1.00  0.00     0.196 HD
ATOM      6  C   UNL d   1       0.603  -0.939  -0.050  0.00  0.00     0.148 A 
ATOM      7  O   UNL d   1      -0.746  -0.779   0.044  0.00  0.00    -0.223 OA
ENDROOT
BRANCH   1   8
ATOM      8  C   UNL d   1       0.516   2.578  -0.101  0.00  0.00     0.078 A 
ATOM      9  N   UNL d   1       1.821   2.950  -0.199  0.00  0.00    -0.363 N 
ATOM     10  C   UNL d   1       2.092   4.271  -0.247  0.00  0.00     0.088 A 
ATOM     11  HN  UNL d   1       2.567   2.256  -0.236  1.00  0.00     0.165 HD
ATOM     12  C   UNL d   1       1.121   5.257  -0.192  0.00  0.00     0.017 A 
ATOM     13  C   UNL d   1      -0.207   4.865  -0.079  0.00  0.00     0.004 A 
ATOM     14  C   UNL d   1      -0.519   3.508  -0.032  0.00  0.00     0.033 A 
ENDBRANCH   1   8
BRANCH   6  15
ATOM     15  C   UNL d   1       1.131  -2.323   0.000  0.00  0.00     0.087 C 
BRANCH  15  16
ATOM     16  C   UNL d   1       2.515  -2.395   0.662  0.00  0.00     0.018 C 
BRANCH  16  17
ATOM     17  C   UNL d   1       2.551  -1.900   2.113  0.00  0.00     0.110 C 
BRANCH  17  18
ATOM     18  C   UNL d   1       1.670  -2.725   3.020  0.00  0.00     0.139 C 
ATOM     19  O   UNL d   1       1.432  -3.911   2.858  0.00  0.00    -0.650 OA
BRANCH  18  20
ATOM     20  O   UNL d   1       1.173  -2.023   4.061  0.00  0.00    -0.776 OA
ATOM     21  H   UNL d   1       1.436  -1.083   4.074  0.00  0.00     0.167 HD
ENDBRANCH  18  20
ENDBRANCH  17  18
ENDBRANCH  16  17
ENDBRANCH  15  16
ENDBRANCH   6  15
TORSDOF 6
