REMARK  4 active torsions:
REMARK  status: ('A' for Active; 'I' for Inactive)
REMARK    1  A    between atoms: N_5  and  C_1 
REMARK       I    between atoms: C_4  and  N_7 
REMARK       I    between atoms: N_10  and  C_4 
REMARK    2  A    between atoms: N_7  and  N_5 
REMARK    3  A    between atoms: C_15  and  N_10 
REMARK    4  A    between atoms: C_16  and  C_15 
ROOT
ATOM      1  C   UNL d   1       1.151   1.471  -0.207  0.00  0.00     0.126 C 
ATOM      2  N   UNL d   1      -0.010   0.893  -0.359  0.00  0.00    -0.374 N 
ATOM      3  HN  UNL d   1      -0.821   1.409  -0.700  1.00  0.00     0.161 HD
ATOM      4  C   UNL d   1       2.332   0.734   0.364  0.00  0.00     0.015 A 
ATOM      5  C   UNL d   1       2.064  -0.396   1.152  0.00  0.00    -0.043 A 
ATOM      6  C   UNL d   1      -0.096  -0.533  -0.017  0.00  0.00     0.126 C 
ATOM      7  C   UNL d   1       3.651   1.174   0.202  0.00  0.00     0.016 A 
ATOM      8  C   UNL d   1       0.639  -0.849   1.283  0.00  0.00     0.059 C 
ATOM      9  C   UNL d   1       3.106  -1.038   1.830  0.00  0.00     0.008 A 
ATOM     10  C   UNL d   1       4.690   0.508   0.859  0.00  0.00     0.001 A 
ATOM     11  C   UNL d   1       4.416  -0.583   1.682  0.00  0.00     0.001 A 
ENDROOT
BRANCH   1  12
ATOM     12  N   UNL d   1       1.297   2.813  -0.493  0.00  0.00    -0.281 N 
ATOM     13  H   UNL d   1       2.188   3.181  -0.829  0.00  0.00     0.188 HD
BRANCH  12  14
ATOM     14  N   UNL d   1       0.180   3.465  -1.043  0.00  0.00    -0.250 N 
ATOM     15  C   UNL d   1       0.454   4.458  -1.960  0.00  0.00     0.334 C 
ATOM     16  O   UNL d   1       1.592   4.809  -2.254  0.00  0.00    -0.246 OA
ATOM     17  N   UNL d   1      -0.694   5.013  -2.470  0.00  0.00    -0.342 N 
ATOM     18  H   UNL d   1      -1.482   4.974  -1.838  0.00  0.00     0.164 HD
ATOM     19  H   UNL d   1      -0.592   2.823  -1.230  0.00  0.00     0.192 HD
BRANCH  17  20
ATOM     20  C   UNL d   1      -0.628   6.147  -3.370  0.00  0.00     0.124 C 
BRANCH  20  21
ATOM     21  C   UNL d   1      -1.888   6.274  -4.220  0.00  0.00     0.015 C 
ATOM     22  C   UNL d   1      -2.104   5.065  -5.120  0.00  0.00     0.006 C 
ENDBRANCH  20  21
ENDBRANCH  17  20
ENDBRANCH  12  14
ENDBRANCH   1  12
TORSDOF 4
