REMARK  4 active torsions:
REMARK  status: ('A' for Active; 'I' for Inactive)
REMARK    1  A    between atoms: N_7  and  C_2 
REMARK    2  A    between atoms: S_22  and  C_3 
REMARK    3  A    between atoms: C_16  and  N_11 
REMARK    4  A    between atoms: C_25  and  S_22 
ROOT
ATOM      1  C   UNL d   1       0.855   0.305  -0.007  0.00  0.00     0.086 A 
ATOM      2  C   UNL d   1      -1.100  -1.156   0.033  0.00  0.00     0.077 A 
ATOM      3  C   UNL d   1       0.009   1.420  -0.027  0.00  0.00     0.092 A 
ATOM      4  N   UNL d   1      -1.337   1.291   0.009  0.00  0.00    -0.351 N 
ATOM      5  HN  UNL d   1      -1.941   2.113   0.018  1.00  0.00     0.166 HD
ATOM      6  C   UNL d   1       0.302  -1.001   0.037  0.00  0.00    -0.008 A 
ATOM      7  C   UNL d   1      -1.871   0.025   0.032  0.00  0.00     0.035 A 
ATOM      8  C   UNL d   1       2.280   0.473  -0.028  0.00  0.00     0.103 C 
ATOM      9  N   UNL d   1       3.440   0.557  -0.032  0.00  0.00    -0.191 NA
ATOM     10  C   UNL d   1       1.237  -2.189   0.054  0.00  0.00     0.052 C 
ATOM     11  C   UNL d   1      -3.377  -0.013   0.033  0.00  0.00     0.070 C 
ENDROOT
BRANCH   3  12
ATOM     12  S   UNL d   1       0.679   3.067  -0.272  0.00  0.00    -0.099 SA
BRANCH  12  13
ATOM     13  C   UNL d   1      -0.436   4.124   0.713  0.00  0.00     0.173 C 
ATOM     14  C   UNL d   1       0.100   5.503   0.760  0.00  0.00    -0.107 C 
ATOM     15  C   UNL d   1       0.565   6.609   0.786  0.00  0.00     0.013 C 
ENDBRANCH  12  13
ENDBRANCH   3  12
BRANCH   2  16
ATOM     16  N   UNL d   1      -1.722  -2.431   0.105  0.00  0.00    -0.298 N 
ATOM     17  N   UNL d   1      -1.508  -3.096  -0.933  0.00  0.00    -0.300 N 
ATOM     18  HN  UNL d   1      -0.967  -2.733  -1.718  1.00  0.00     0.187 HD
ATOM     19  HN  UNL d   1      -2.272  -2.761   0.898  1.00  0.00     0.187 HD
BRANCH  17  20
ATOM     20  C   UNL d   1      -2.075  -4.396  -0.933  0.00  0.00     0.051 A 
ATOM     21  C   UNL d   1      -1.736  -5.239  -2.002  0.00  0.00     0.054 A 
ATOM     22  C   UNL d   1      -2.321  -6.501  -2.140  0.00  0.00     0.037 A 
ATOM     23 CL   UNL d   1      -1.913  -7.487  -3.491  0.00  0.00    -0.084 Cl
ATOM     24  C   UNL d   1      -3.245  -6.959  -1.210  0.00  0.00     0.048 A 
ATOM     25  C   UNL d   1      -3.558  -6.149  -0.123  0.00  0.00     0.037 A 
ATOM     26  C   UNL d   1      -2.978  -4.884   0.025  0.00  0.00     0.054 A 
ATOM     27 CL   UNL d   1      -4.699  -6.707   1.041  0.00  0.00    -0.084 Cl
ENDBRANCH  17  20
ENDBRANCH   2  16
TORSDOF 4
