REMARK  9 active torsions:
REMARK  status: ('A' for Active; 'I' for Inactive)
REMARK    1  A    between atoms: O_19  and  C_1 
REMARK    2  A    between atoms: O_20  and  C_2 
REMARK    3  A    between atoms: C_3  and  C_6 
REMARK    4  A    between atoms: C_5  and  C_4 
REMARK       I    between atoms: N_12  and  C_5 
REMARK       I    between atoms: C_6  and  N_11 
REMARK    5  A    between atoms: O_24  and  C_7 
REMARK    6  A    between atoms: O_22  and  C_8 
REMARK    7  A    between atoms: O_23  and  C_9 
REMARK    8  A    between atoms: O_21  and  C_10 
REMARK    9  A    between atoms: N_11  and  N_12 
ROOT
ATOM      1  C   UNL d   1      -3.251   4.224  -0.390  0.00  0.00     0.270 C 
ATOM      2  N   UNL d   1      -2.598   3.009  -0.436  0.00  0.00    -0.263 N 
ATOM      3  O   UNL d   1      -4.465   4.327  -0.258  0.00  0.00    -0.266 OA
ATOM      4  H   UNL d   1      -1.657   2.903  -0.807  0.00  0.00     0.190 HD
ENDROOT
BRANCH   2   5
ATOM      5  N   UNL d   1      -3.364   1.833  -0.361  0.00  0.00    -0.263 N 
ATOM      6  C   UNL d   1      -2.797   0.681  -0.859  0.00  0.00     0.270 C 
ATOM      7  O   UNL d   1      -1.704   0.704  -1.431  0.00  0.00    -0.266 OA
ATOM      8  H   UNL d   1      -4.292   1.923   0.043  0.00  0.00     0.190 HD
BRANCH   6   9
ATOM      9  C   UNL d   1      -3.497  -0.620  -0.646  0.00  0.00     0.039 A 
ATOM     10  C   UNL d   1      -4.636  -0.776   0.146  0.00  0.00     0.057 A 
ATOM     11  C   UNL d   1      -5.129  -2.059   0.441  0.00  0.00     0.105 A 
ATOM     12  C   UNL d   1      -4.500  -3.201  -0.091  0.00  0.00     0.135 A 
ATOM     13  C   UNL d   1      -3.433  -3.035  -0.999  0.00  0.00     0.105 A 
ATOM     14  C   UNL d   1      -2.920  -1.755  -1.231  0.00  0.00     0.057 A 
BRANCH  11  15
ATOM     15  O   UNL d   1      -6.253  -2.027   1.229  0.00  0.00    -0.353 OA
ATOM     16  C   UNL d   1      -6.407  -3.078   2.175  0.00  0.00     0.210 C 
ENDBRANCH  11  15
BRANCH  12  17
ATOM     17  O   UNL d   1      -5.015  -4.435   0.218  0.00  0.00    -0.351 OA
ATOM     18  C   UNL d   1      -4.049  -5.423   0.585  0.00  0.00     0.210 C 
ENDBRANCH  12  17
BRANCH  13  19
ATOM     19  O   UNL d   1      -2.932  -4.158  -1.611  0.00  0.00    -0.353 OA
ATOM     20  C   UNL d   1      -2.222  -3.957  -2.830  0.00  0.00     0.210 C 
ENDBRANCH  13  19
ENDBRANCH   6   9
ENDBRANCH   2   5
BRANCH   1  21
ATOM     21  C   UNL d   1      -2.390   5.431  -0.485  0.00  0.00     0.039 A 
ATOM     22  C   UNL d   1      -2.893   6.571  -1.113  0.00  0.00     0.057 A 
ATOM     23  C   UNL d   1      -2.161   7.768  -1.144  0.00  0.00     0.105 A 
ATOM     24  C   UNL d   1      -0.907   7.825  -0.507  0.00  0.00     0.135 A 
ATOM     25  C   UNL d   1      -0.426   6.686   0.185  0.00  0.00     0.105 A 
ATOM     26  C   UNL d   1      -1.144   5.483   0.144  0.00  0.00     0.057 A 
BRANCH  23  27
ATOM     27  O   UNL d   1      -2.832   8.750  -1.823  0.00  0.00    -0.353 OA
ATOM     28  C   UNL d   1      -2.286  10.056  -1.891  0.00  0.00     0.210 C 
ENDBRANCH  23  27
BRANCH  24  29
ATOM     29  O   UNL d   1      -0.250   9.028  -0.432  0.00  0.00    -0.351 OA
ATOM     30  C   UNL d   1       1.102   9.020  -0.890  0.00  0.00     0.210 C 
ENDBRANCH  24  29
BRANCH  25  31
ATOM     31  O   UNL d   1       0.733   6.837   0.908  0.00  0.00    -0.353 OA
ATOM     32  C   UNL d   1       0.981   5.891   1.942  0.00  0.00     0.210 C 
ENDBRANCH  25  31
ENDBRANCH   1  21
TORSDOF 9
