REMARK  5 active torsions:
REMARK  status: ('A' for Active; 'I' for Inactive)
REMARK    1  A    between atoms: C_8  and  C_2 
REMARK    2  A    between atoms: S_15  and  C_5 
REMARK    3  A    between atoms: C_9  and  C_17 
REMARK    4  A    between atoms: O_16  and  C_12 
REMARK    5  A    between atoms: C_17  and  O_16 
ROOT
ATOM      1  C   UNL d   1       3.043  -1.435   0.020  0.00  0.00     0.032 A 
ATOM      2  N   UNL d   1       4.443  -3.139  -0.996  0.00  0.00    -0.346 N 
ATOM      3  HN  UNL d   1       4.608  -3.799  -1.755  1.00  0.00     0.167 HD
ATOM      4  C   UNL d   1       5.320  -3.013   0.021  0.00  0.00     0.142 A 
ATOM      5  C   UNL d   1       3.332  -2.358  -0.975  0.00  0.00     0.106 A 
ATOM      6  C   UNL d   1       3.970  -1.329   1.059  0.00  0.00     0.021 A 
ATOM      7  C   UNL d   1       5.121  -2.119   1.062  0.00  0.00     0.057 A 
ENDROOT
BRANCH   1   8
ATOM      8  C   UNL d   1       1.856  -0.598   0.009  0.00  0.00     0.176 A 
ATOM      9  O   UNL d   1       1.002  -0.704  -1.057  0.00  0.00    -0.267 OA
ATOM     10  C   UNL d   1       0.039   0.219  -0.737  0.00  0.00     0.201 A 
ATOM     11  N   UNL d   1       0.280   0.821   0.407  0.00  0.00    -0.272 N 
ATOM     12  N   UNL d   1       1.457   0.294   0.892  0.00  0.00    -0.277 N 
ATOM     13  HN  UNL d   1      -0.293   1.540   0.849  1.00  0.00     0.189 HD
ATOM     14  HN  UNL d   1       1.926   0.545   1.762  1.00  0.00     0.189 HD
BRANCH  10  15
ATOM     15  S   UNL d   1      -1.335   0.543  -1.740  0.00  0.00    -0.098 SA
ATOM     16  H   UNL d   1      -1.060  -0.355  -2.693  0.00  0.00     0.110 HD
ENDBRANCH  10  15
ENDBRANCH   1   8
BRANCH   4  17
ATOM     17  O   UNL d   1       6.428  -3.794  -0.126  0.00  0.00    -0.327 OA
BRANCH  17  18
ATOM     18  C   UNL d   1       7.048  -4.240   1.084  0.00  0.00     0.294 C 
BRANCH  18  19
ATOM     19  C   UNL d   1       8.214  -5.185   0.801  0.00  0.00     0.408 C 
ATOM     20  F   UNL d   1       8.447  -5.368  -0.515  0.00  0.00    -0.169 F 
ATOM     21  F   UNL d   1       9.356  -4.701   1.349  0.00  0.00    -0.169 F 
ATOM     22  F   UNL d   1       7.995  -6.402   1.352  0.00  0.00    -0.169 F 
ENDBRANCH  18  19
ENDBRANCH  17  18
ENDBRANCH   4  17
TORSDOF 5
