REMARK  2 active torsions:
REMARK  status: ('A' for Active; 'I' for Inactive)
REMARK    1  A    between atoms: C_10  and  C_1 
REMARK    2  A    between atoms: C_13  and  C_11 
ROOT
ATOM      1  C   UNL d   1       0.933  -1.354  -0.037  0.00  0.00     0.144 A 
ATOM      2  N   UNL d   1      -0.248  -0.623  -0.010  0.00  0.00    -0.235 N 
ATOM      3  C   UNL d   1      -0.210   0.780   0.013  0.00  0.00     0.130 A 
ATOM      4  N   UNL d   1       0.958   1.486   0.028  0.00  0.00    -0.339 N 
ATOM      5  HN  UNL d   1       0.964   2.506   0.058  1.00  0.00     0.167 HD
ATOM      6  C   UNL d   1       2.113  -0.701  -0.051  0.00  0.00     0.068 A 
ATOM      7  N   UNL d   1      -1.529  -1.066  -0.004  0.00  0.00    -0.297 N 
ATOM      8  HN  UNL d   1      -1.845  -2.036  -0.009  1.00  0.00     0.187 HD
ATOM      9  C   UNL d   1      -1.518   1.204   0.025  0.00  0.00     0.076 A 
ATOM     10  C   UNL d   1       2.067   0.797   0.001  0.00  0.00     0.062 A 
ATOM     11  C   UNL d   1      -2.291   0.030   0.012  0.00  0.00     0.026 A 
ATOM     12  C   UNL d   1      -3.768  -0.085   0.015  0.00  0.00     0.070 C 
ENDROOT
BRANCH  10  13
ATOM     13  C   UNL d   1       3.391   1.499   0.054  0.00  0.00     0.059 A 
ATOM     14  N   UNL d   1       4.501   0.726  -0.078  0.00  0.00    -0.364 N 
ATOM     15  C   UNL d   1       5.694   1.352   0.012  0.00  0.00     0.088 A 
ATOM     16  HN  UNL d   1       4.435  -0.279  -0.237  1.00  0.00     0.165 HD
ATOM     17  C   UNL d   1       5.838   2.712   0.234  0.00  0.00     0.017 A 
ATOM     18  C   UNL d   1       4.689   3.484   0.361  0.00  0.00     0.004 A 
ATOM     19  C   UNL d   1       3.442   2.873   0.266  0.00  0.00     0.032 A 
ENDBRANCH  10  13
BRANCH   1  20
ATOM     20  C   UNL d   1       0.874  -2.834  -0.037  0.00  0.00     0.434 C 
ATOM     21  F   UNL d   1      -0.354  -3.400   0.002  0.00  0.00    -0.165 F 
ATOM     22  F   UNL d   1       1.492  -3.342  -1.140  0.00  0.00    -0.165 F 
ATOM     23  F   UNL d   1       1.555  -3.338   1.030  0.00  0.00    -0.165 F 
ENDBRANCH   1  20
TORSDOF 2
