REMARK  2 active torsions:
REMARK  status: ('A' for Active; 'I' for Inactive)
REMARK    1  A    between atoms: C_3  and  C_1 
REMARK       I    between atoms: N_6  and  C_3 
REMARK    2  A    between atoms: C_4  and  C_5 
REMARK       I    between atoms: N_7  and  C_4 
ROOT
ATOM      1  C   UNL d   1      -0.842  -1.162  -0.115  0.00  0.00     0.045 C 
ATOM      2  C   UNL d   1       0.765  -1.171  -0.004  0.00  0.00    -0.020 C 
ATOM      3  C   UNL d   1       1.209   0.338  -0.124  0.00  0.00     0.087 C 
ATOM      4  C   UNL d   1      -1.201   0.271   0.310  0.00  0.00     0.020 C 
ATOM      5  C   UNL d   1      -0.092   1.142  -0.268  0.00  0.00     0.016 C 
ATOM      6  C   UNL d   1      -1.428  -2.224   0.844  0.00  0.00     0.026 C 
ATOM      7  C   UNL d   1       1.257  -1.636   1.404  0.00  0.00     0.017 C 
ATOM      8  C   UNL d   1       1.407  -2.196  -0.963  0.00  0.00     0.017 C 
ENDROOT
BRANCH   1   9
ATOM      9  C   UNL d   1      -1.348  -1.332  -1.593  0.00  0.00     0.229 C 
ATOM     10  N   UNL d   1      -2.638  -1.780  -1.861  0.00  0.00    -0.351 N 
ATOM     11  C   UNL d   1      -2.926  -2.316  -3.196  0.00  0.00     0.125 C 
ATOM     12  C   UNL d   1      -3.794  -1.631  -0.989  0.00  0.00     0.125 C 
ATOM     13  C   UNL d   1      -4.031  -1.528  -3.893  0.00  0.00     0.020 C 
ATOM     14  C   UNL d   1      -5.275  -1.445  -3.012  0.00  0.00     0.003 C 
ATOM     15  C   UNL d   1      -4.922  -0.856  -1.657  0.00  0.00     0.020 C 
ATOM     16  O   UNL d   1      -0.636  -0.992  -2.540  0.00  0.00    -0.273 OA
ENDBRANCH   1   9
BRANCH   3  17
ATOM     17  C   UNL d   1       2.262   0.725  -1.179  0.00  0.00     0.224 C 
ATOM     18  N   UNL d   1       2.696   2.051  -1.212  0.00  0.00    -0.352 N 
ATOM     19  C   UNL d   1       3.598   2.453  -2.295  0.00  0.00     0.125 C 
ATOM     20  C   UNL d   1       2.575   3.021  -0.124  0.00  0.00     0.125 C 
ATOM     21  C   UNL d   1       4.989   2.775  -1.758  0.00  0.00     0.020 C 
ATOM     22  C   UNL d   1       4.910   3.812  -0.639  0.00  0.00     0.003 C 
ATOM     23  C   UNL d   1       3.950   3.352   0.455  0.00  0.00     0.020 C 
ATOM     24  O   UNL d   1       2.748  -0.089  -1.958  0.00  0.00    -0.273 OA
ENDBRANCH   3  17
TORSDOF 2
