REMARK  4 active torsions:
REMARK  status: ('A' for Active; 'I' for Inactive)
REMARK    1  A    between atoms: C_2  and  S_1 
REMARK    2  A    between atoms: N_14  and  S_1 
REMARK    3  A    between atoms: C_7  and  C_19 
REMARK    4  A    between atoms: C_19  and  N_14 
ROOT
ATOM      1  S   UNL d   1       0.830  -0.187   0.002  0.00  0.00     0.261 S 
ATOM      2  O   UNL d   1       0.277   0.784  -0.909  0.00  0.00    -0.200 OA
ATOM      3  O   UNL d   1       2.241  -0.516  -0.003  0.00  0.00    -0.200 OA
ENDROOT
BRANCH   1   4
ATOM      4  C   UNL d   1      -0.053  -1.682  -0.221  0.00  0.00     0.110 A 
ATOM      5  C   UNL d   1      -1.453  -1.760  -0.131  0.00  0.00     0.108 A 
ATOM      6  C   UNL d   1      -2.156  -3.024  -0.332  0.00  0.00     0.086 A 
ATOM      7  N   UNL d   1      -2.369  -0.824   0.152  0.00  0.00    -0.238 N 
ATOM      8  N   UNL d   1      -3.468  -2.806  -0.192  0.00  0.00    -0.239 N 
ATOM      9  C   UNL d   1      -1.483  -4.229  -0.611  0.00  0.00     0.034 A 
ATOM     10  O   UNL d   1      -3.599  -1.456   0.080  0.00  0.00    -0.156 OA
ATOM     11  HN  UNL d   1      -4.217  -3.493  -0.270  1.00  0.00     0.197 HD
ATOM     12  C   UNL d   1      -0.083  -4.121  -0.689  0.00  0.00     0.004 A 
ATOM     13  C   UNL d   1       0.609  -2.896  -0.507  0.00  0.00     0.028 A 
ATOM     14  HN  UNL d   1      -2.196   0.156   0.375  1.00  0.00     0.197 HD
ENDBRANCH   1   4
BRANCH   1  15
ATOM     15  N   UNL d   1       0.439   0.280   1.562  0.00  0.00    -0.311 N 
ATOM     16  H   UNL d   1      -0.499   0.675   1.647  0.00  0.00     0.172 HD
BRANCH  15  17
ATOM     17  C   UNL d   1       0.944  -0.538   2.660  0.00  0.00     0.172 C 
BRANCH  17  18
ATOM     18  C   UNL d   1       0.471   0.068   3.948  0.00  0.00    -0.022 A 
ATOM     19  C   UNL d   1       1.196   1.063   4.716  0.00  0.00    -0.009 A 
ATOM     20  C   UNL d   1       0.488   1.448   5.860  0.00  0.00     0.015 A 
ATOM     21  C   UNL d   1       2.453   1.681   4.481  0.00  0.00     0.037 A 
ATOM     22  C   UNL d   1       0.984   2.424   6.749  0.00  0.00     0.021 A 
ATOM     23  S   UNL d   1      -0.996   0.592   6.000  0.00  0.00    -0.101 SA
ATOM     24  C   UNL d   1       2.219   3.019   6.484  0.00  0.00     0.025 A 
ATOM     25  C   UNL d   1       2.945   2.646   5.364  0.00  0.00     0.035 A 
ATOM     26 CL   UNL d   1       4.470   3.382   5.054  0.00  0.00    -0.084 Cl
ATOM     27  C   UNL d   1      -0.726  -0.263   4.555  0.00  0.00     0.060 A 
ENDBRANCH  17  18
ENDBRANCH  15  17
ENDBRANCH   1  15
TORSDOF 4
