REMARK  4 active torsions:
REMARK  status: ('A' for Active; 'I' for Inactive)
REMARK    1  A    between atoms: C_3  and  C_1 
REMARK    2  A    between atoms: C_9  and  C_2 
REMARK    3  A    between atoms: C_10  and  C_18 
REMARK    4  A    between atoms: C_17  and  N_16 
ROOT
ATOM      1  C   UNL d   1       0.306  -2.710  -0.085  0.00  0.00     0.056 A 
ATOM      2  N   UNL d   1       1.016  -3.195   0.987  0.00  0.00    -0.335 N 
ATOM      3  HN  UNL d   1       1.234  -2.655   1.824  1.00  0.00     0.168 HD
ATOM      4  C   UNL d   1       1.377  -4.443   0.793  0.00  0.00     0.149 A 
ATOM      5  S   UNL d   1       0.855  -5.105  -0.712  0.00  0.00    -0.064 SA
ATOM      6  C   UNL d   1       0.052  -3.631  -1.078  0.00  0.00     0.083 A 
ATOM      7  N   UNL d   1       2.125  -5.176   1.648  0.00  0.00    -0.335 N 
ATOM      8  H   UNL d   1       2.622  -5.991   1.307  0.00  0.00     0.168 HD
ENDROOT
BRANCH   1   9
ATOM      9  C   UNL d   1      -0.058  -1.297  -0.084  0.00  0.00     0.052 A 
ATOM     10  C   UNL d   1       0.733  -0.200   0.394  0.00  0.00     0.081 A 
ATOM     11  N   UNL d   1       0.078   0.951   0.161  0.00  0.00    -0.259 N 
ATOM     12  O   UNL d   1      -1.132   0.621  -0.401  0.00  0.00    -0.241 OA
ATOM     13  HN  UNL d   1       0.416   1.892   0.363  1.00  0.00     0.195 HD
ATOM     14  C   UNL d   1      -1.213  -0.723  -0.560  0.00  0.00     0.087 A 
ATOM     15  C   UNL d   1      -2.458  -1.228  -1.171  0.00  0.00     0.080 C 
BRANCH  10  16
ATOM     16  C   UNL d   1       2.095  -0.175   0.957  0.00  0.00     0.015 A 
ATOM     17  C   UNL d   1       2.477   0.669   2.019  0.00  0.00     0.048 A 
ATOM     18  C   UNL d   1       3.804   0.691   2.477  0.00  0.00     0.048 A 
ATOM     19 CL   UNL d   1       1.371   1.701   2.865  0.00  0.00    -0.083 Cl
ATOM     20  C   UNL d   1       4.754  -0.147   1.904  0.00  0.00     0.035 A 
ATOM     21  C   UNL d   1       4.399  -1.000   0.867  0.00  0.00     0.025 A 
ATOM     22 CL   UNL d   1       6.375  -0.127   2.478  0.00  0.00    -0.084 Cl
ATOM     23  C   UNL d   1       3.086  -0.998   0.387  0.00  0.00     0.017 A 
ENDBRANCH  10  16
ENDBRANCH   1   9
BRANCH   7  24
ATOM     24  C   UNL d   1       2.207  -4.983   3.044  0.00  0.00     0.056 A 
ATOM     25  C   UNL d   1       1.194  -4.310   3.748  0.00  0.00     0.047 A 
ATOM     26  C   UNL d   1       1.267  -4.094   5.133  0.00  0.00     0.050 A 
ATOM     27  C   UNL d   1       2.396  -4.544   5.825  0.00  0.00     0.018 A 
ATOM     28  C   UNL d   1       3.430  -5.193   5.146  0.00  0.00     0.027 A 
ATOM     29  C   UNL d   1       3.335  -5.408   3.768  0.00  0.00     0.060 A 
ATOM     30 CL   UNL d   1       4.648  -6.205   2.971  0.00  0.00    -0.082 Cl
BRANCH  26  31
ATOM     31  C   UNL d   1       0.136  -3.408   5.862  0.00  0.00     0.417 C 
ATOM     32  F   UNL d   1      -0.875  -2.997   5.048  0.00  0.00    -0.166 F 
ATOM     33  F   UNL d   1      -0.443  -4.221   6.790  0.00  0.00    -0.166 F 
ATOM     34  F   UNL d   1       0.550  -2.301   6.541  0.00  0.00    -0.166 F 
ENDBRANCH  26  31
ENDBRANCH   7  24
TORSDOF 4
