REMARK  1 active torsions:
REMARK  status: ('A' for Active; 'I' for Inactive)
REMARK    1  A    between atoms: N_13  and  C_11 
ROOT
ATOM      1  N   UNL d   1      -2.362  -0.636  -0.019  0.00  0.00    -0.284 N 
ATOM      2  C   UNL d   1      -1.365  -1.569  -0.010  0.00  0.00     0.261 A 
ATOM      3  C   UNL d   1      -1.868   0.641  -0.033  0.00  0.00     0.261 A 
ATOM      4  C   UNL d   1      -0.107  -0.831  -0.019  0.00  0.00     0.050 A 
ATOM      5  C   UNL d   1      -0.409   0.518  -0.034  0.00  0.00     0.048 A 
ATOM      6  C   UNL d   1       0.582   1.477  -0.013  0.00  0.00     0.020 A 
ATOM      7  O   UNL d   1      -1.441  -2.783   0.001  0.00  0.00    -0.267 OA
ATOM      8  C   UNL d   1       1.192  -1.297   0.014  0.00  0.00     0.041 A 
ATOM      9  O   UNL d   1      -2.469   1.698  -0.040  0.00  0.00    -0.267 OA
ATOM     10  C   UNL d   1      -3.768  -0.958  -0.002  0.00  0.00     0.163 C 
ATOM     11  C   UNL d   1       2.224  -0.355  -0.009  0.00  0.00     0.006 A 
ATOM     12  C   UNL d   1       1.909   1.024   0.019  0.00  0.00     0.024 A 
ENDROOT
BRANCH  11  13
ATOM     13  N   UNL d   1       3.546  -0.773   0.180  0.00  0.00    -0.303 NA
ATOM     14  H   UNL d   1       3.732  -1.725  -0.124  0.00  0.00     0.124 HD
ATOM     15  H   UNL d   1       4.249  -0.119  -0.149  0.00  0.00     0.124 HD
ENDBRANCH  11  13
TORSDOF 1
