REMARK  4 active torsions:
REMARK  status: ('A' for Active; 'I' for Inactive)
REMARK    1  A    between atoms: N_2  and  C_1 
REMARK    2  A    between atoms: N_3  and  C_1 
REMARK       I    between atoms: C_4  and  N_2 
REMARK    3  A    between atoms: C_8  and  C_4 
REMARK    4  A    between atoms: C_9  and  C_8 
ROOT
ATOM      1  N   UNL d   1       0.563   0.886  -0.542  0.00  0.00    -0.300 N 
ATOM      2  C   UNL d   1       1.213   1.981  -1.109  0.00  0.00     0.247 C 
ATOM      3  O   UNL d   1       2.403   2.243  -1.005  0.00  0.00    -0.268 OA
ATOM      4  H   UNL d   1      -0.408   0.770  -0.785  0.00  0.00     0.171 HD
ENDROOT
BRANCH   1   5
ATOM      5  C   UNL d   1       1.094  -0.221   0.139  0.00  0.00     0.176 C 
ATOM      6  S   UNL d   1       2.719  -0.480   0.459  0.00  0.00    -0.041 SA
BRANCH   5   7
ATOM      7  N   UNL d   1       0.081  -1.133   0.502  0.00  0.00    -0.354 N 
ATOM      8  C   UNL d   1      -1.091  -0.677   1.270  0.00  0.00     0.151 C 
ATOM      9  C   UNL d   1      -0.941  -1.065   2.750  0.00  0.00     0.187 C 
ATOM     10  O   UNL d   1      -0.760  -2.483   2.891  0.00  0.00    -0.388 OA
ATOM     11  C   UNL d   1       0.432  -2.912   2.210  0.00  0.00     0.187 C 
ATOM     12  C   UNL d   1       0.353  -2.569   0.718  0.00  0.00     0.151 C 
ENDBRANCH   5   7
ENDBRANCH   1   5
BRANCH   2  13
ATOM     13  C   UNL d   1       0.297   2.892  -1.857  0.00  0.00     0.076 C 
BRANCH  13  14
ATOM     14  C   UNL d   1       0.848   3.921  -2.521  0.00  0.00     0.024 C 
ATOM     15  C   UNL d   1       0.098   4.945  -3.174  0.00  0.00     0.004 A 
ATOM     16  S   UNL d   1       0.972   6.106  -4.116  0.00  0.00    -0.102 SA
ATOM     17  C   UNL d   1      -1.253   5.250  -3.182  0.00  0.00     0.019 A 
ATOM     18  C   UNL d   1      -0.431   7.018  -4.449  0.00  0.00     0.050 A 
ATOM     19  C   UNL d   1      -1.554   6.450  -3.898  0.00  0.00     0.008 A 
ENDBRANCH  13  14
ENDBRANCH   2  13
TORSDOF 4
