REMARK  7 active torsions:
REMARK  status: ('A' for Active; 'I' for Inactive)
REMARK    1  A    between atoms: N_2  and  C_1 
REMARK    2  A    between atoms: N_12  and  C_1 
REMARK    3  A    between atoms: C_3  and  N_2 
REMARK    4  A    between atoms: O_15  and  C_6 
REMARK    5  A    between atoms: O_16  and  C_9 
REMARK    6  A    between atoms: C_17  and  N_12 
REMARK    7  A    between atoms: C_14  and  C_17 
ROOT
ATOM      1  N   UNL d   1       0.315   3.499  -0.458  0.00  0.00    -0.197 NA
ATOM      2  C   UNL d   1      -0.528   2.815  -0.864  0.00  0.00     0.060 C 
ATOM      3  C   UNL d   1      -1.590   1.937  -1.379  0.00  0.00     0.143 C 
ENDROOT
BRANCH   3   4
ATOM      4  C   UNL d   1      -1.024   0.620  -1.920  0.00  0.00     0.139 C 
BRANCH   4   5
ATOM      5  N   UNL d   1      -0.231  -0.128  -0.927  0.00  0.00    -0.361 N 
ATOM      6  C   UNL d   1       1.196  -0.249  -1.234  0.00  0.00     0.152 C 
BRANCH   5   7
ATOM      7  C   UNL d   1      -0.800  -0.835   0.147  0.00  0.00     0.174 C 
ATOM      8  S   UNL d   1      -2.406  -1.322   0.210  0.00  0.00    -0.041 SA
BRANCH   7   9
ATOM      9  N   UNL d   1       0.089  -0.986   1.194  0.00  0.00    -0.331 N 
ATOM     10  H   UNL d   1       0.593  -0.137   1.439  0.00  0.00     0.168 HD
BRANCH   9  11
ATOM     11  C   UNL d   1       0.237  -2.027   2.134  0.00  0.00     0.070 A 
ATOM     12  C   UNL d   1      -0.146  -3.343   1.863  0.00  0.00     0.071 A 
ATOM     13  C   UNL d   1       0.150  -4.363   2.771  0.00  0.00     0.092 A 
ATOM     14  C   UNL d   1       0.756  -4.052   3.994  0.00  0.00     0.070 A 
ATOM     15  C   UNL d   1       1.144  -2.738   4.270  0.00  0.00     0.065 A 
ATOM     16 CL   UNL d   1       1.042  -5.238   5.217  0.00  0.00    -0.081 Cl
ATOM     17  C   UNL d   1       0.924  -1.730   3.329  0.00  0.00     0.096 A 
BRANCH  13  18
ATOM     18  O   UNL d   1      -0.233  -5.624   2.396  0.00  0.00    -0.354 OA
ATOM     19  C   UNL d   1       0.868  -6.529   2.276  0.00  0.00     0.210 C 
ENDBRANCH  13  18
BRANCH  17  20
ATOM     20  O   UNL d   1       1.314  -0.420   3.483  0.00  0.00    -0.354 OA
ATOM     21  C   UNL d   1       2.282  -0.159   4.495  0.00  0.00     0.210 C 
ENDBRANCH  17  20
ENDBRANCH   9  11
ENDBRANCH   7   9
ENDBRANCH   5   7
ENDBRANCH   4   5
ENDBRANCH   3   4
TORSDOF 7
