REMARK  3 active torsions:
REMARK  status: ('A' for Active; 'I' for Inactive)
REMARK    1  A    between atoms: C_2  and  C_1 
REMARK    2  A    between atoms: C_14  and  N_3 
REMARK    3  A    between atoms: C_11  and  C_4 
ROOT
ATOM      1  C   UNL d   1      -0.347  -2.760  -0.089  0.00  0.00     0.065 A 
ATOM      2  C   UNL d   1      -1.097  -3.394  -1.054  0.00  0.00     0.125 A 
ATOM      3  N   UNL d   1      -0.312  -4.996   0.332  0.00  0.00    -0.271 N 
ATOM      4  HN  UNL d   1      -0.124  -5.903   0.759  1.00  0.00     0.194 HD
ATOM      5  O   UNL d   1      -1.039  -4.742  -0.818  0.00  0.00    -0.236 OA
ATOM      6  C   UNL d   1       0.088  -3.799   0.762  0.00  0.00     0.132 A 
ENDROOT
BRANCH   1   7
ATOM      7  C   UNL d   1      -0.073  -1.309   0.049  0.00  0.00     0.153 C 
ATOM      8  N   UNL d   1       1.023  -0.706   0.650  0.00  0.00    -0.224 N 
ATOM      9  N   UNL d   1       0.713   0.593   0.870  0.00  0.00     0.001 NA
ATOM     10  N   UNL d   1      -0.419   0.807   0.216  0.00  0.00    -0.007 NA
ATOM     11  N   UNL d   1      -0.905  -0.356  -0.321  0.00  0.00    -0.269 N 
ATOM     12  HN  UNL d   1      -1.744  -0.464  -0.892  1.00  0.00     0.185 HD
BRANCH   8  13
ATOM     13  C   UNL d   1       2.318  -1.214   0.912  0.00  0.00     0.056 A 
ATOM     14  C   UNL d   1       2.833  -2.285   0.165  0.00  0.00     0.031 A 
ATOM     15  C   UNL d   1       4.098  -2.795   0.452  0.00  0.00     0.002 A 
ATOM     16  C   UNL d   1       4.861  -2.229   1.470  0.00  0.00     0.000 A 
ATOM     17  C   UNL d   1       4.372  -1.137   2.186  0.00  0.00     0.002 A 
ATOM     18  C   UNL d   1       3.108  -0.615   1.900  0.00  0.00     0.031 A 
ENDBRANCH   8  13
ENDBRANCH   1   7
BRANCH   2  19
ATOM     19  C   UNL d   1      -1.795  -3.005  -2.280  0.00  0.00     0.007 A 
ATOM     20  C   UNL d   1      -2.990  -3.619  -2.720  0.00  0.00    -0.049 A 
ATOM     21  C   UNL d   1      -3.682  -4.737  -1.983  0.00  0.00     0.049 C 
ATOM     22  C   UNL d   1      -3.565  -3.210  -3.940  0.00  0.00     0.007 A 
ATOM     23  C   UNL d   1      -2.994  -2.193  -4.703  0.00  0.00     0.001 A 
ATOM     24  C   UNL d   1      -1.829  -1.578  -4.268  0.00  0.00     0.001 A 
ATOM     25  C   UNL d   1      -1.234  -1.987  -3.075  0.00  0.00     0.015 A 
ENDBRANCH   2  19
TORSDOF 3
