REMARK  4 active torsions:
REMARK  status: ('A' for Active; 'I' for Inactive)
REMARK    1  A    between atoms: S_2  and  C_1 
REMARK    2  A    between atoms: C_5  and  S_2 
REMARK    3  A    between atoms: C_6  and  C_4 
REMARK    4  A    between atoms: O_11  and  C_6 
ROOT
ATOM      1  C   UNL d   1       1.306  -1.408   0.030  0.00  0.00     0.017 A 
ATOM      2  C   UNL d   1      -0.009  -0.807   0.026  0.00  0.00     0.008 A 
ATOM      3  C   UNL d   1      -1.322  -1.420   0.043  0.00  0.00     0.050 A 
ATOM      4  C   UNL d   1      -0.013   0.627   0.011  0.00  0.00    -0.024 A 
ATOM      5  C   UNL d   1       2.479  -0.623   0.000  0.00  0.00     0.020 A 
ATOM      6  C   UNL d   1      -2.496  -0.633   0.034  0.00  0.00     0.019 A 
ATOM      7  C   UNL d   1       2.415   0.757  -0.011  0.00  0.00     0.002 A 
ATOM      8  C   UNL d   1      -2.441   0.748   0.013  0.00  0.00     0.002 A 
ATOM      9  C   UNL d   1       1.177   1.372  -0.003  0.00  0.00     0.012 A 
ATOM     10  C   UNL d   1      -1.202   1.367   0.006  0.00  0.00     0.012 A 
ENDROOT
BRANCH   1  11
ATOM     11  S   UNL d   1       1.658  -3.154  -0.071  0.00  0.00    -0.089 SA
BRANCH  11  12
ATOM     12  C   UNL d   1       1.625  -3.797   1.612  0.00  0.00     0.016 A 
ATOM     13  C   UNL d   1       1.788  -5.205   1.821  0.00  0.00    -0.009 A 
ATOM     14  C   UNL d   1       1.807  -5.698   3.152  0.00  0.00    -0.025 A 
ATOM     15  C   UNL d   1       1.931  -6.165   0.783  0.00  0.00     0.013 A 
ATOM     16  C   UNL d   1       1.977  -7.072   3.397  0.00  0.00     0.012 A 
ATOM     17  C   UNL d   1       1.652  -4.815   4.228  0.00  0.00     0.012 A 
ATOM     18  C   UNL d   1       2.116  -7.981   2.351  0.00  0.00     0.001 A 
ATOM     19  C   UNL d   1       2.090  -7.528   1.042  0.00  0.00     0.001 A 
ATOM     20  C   UNL d   1       1.477  -3.452   4.013  0.00  0.00     0.002 A 
ATOM     21  C   UNL d   1       1.468  -2.945   2.716  0.00  0.00     0.020 A 
ENDBRANCH  11  12
ENDBRANCH   1  11
BRANCH   3  22
ATOM     22  C   UNL d   1      -1.652  -2.872   0.126  0.00  0.00     0.177 C 
ATOM     23  O   UNL d   1      -2.551  -3.297   0.836  0.00  0.00    -0.646 OA
BRANCH  22  24
ATOM     24  O   UNL d   1      -1.077  -3.632  -0.832  0.00  0.00    -0.773 OA
ATOM     25  H   UNL d   1      -0.241  -3.258  -1.176  0.00  0.00     0.167 HD
ENDBRANCH  22  24
ENDBRANCH   3  22
TORSDOF 4
