REMARK  6 active torsions:
REMARK  status: ('A' for Active; 'I' for Inactive)
REMARK    1  A    between atoms: C_2  and  C_1 
REMARK    2  A    between atoms: C_3  and  C_5 
REMARK    3  A    between atoms: C_4  and  C_6 
REMARK    4  A    between atoms: C_18  and  C_9 
REMARK    5  A    between atoms: C_16  and  S_17 
REMARK    6  A    between atoms: S_17  and  C_18 
ROOT
ATOM      1  C   UNL d   1      -2.493  -7.438  -6.826  0.00  0.00     0.050 A 
ATOM      2  C   UNL d   1      -1.326  -8.562  -5.004  0.00  0.00     0.050 A 
ATOM      3  C   UNL d   1      -2.026  -8.611  -6.219  0.00  0.00     0.032 A 
ATOM      4  C   UNL d   1      -2.245  -6.206  -6.198  0.00  0.00     0.034 A 
ATOM      5  C   UNL d   1      -1.088  -7.312  -4.398  0.00  0.00     0.034 A 
ATOM      6  C   UNL d   1      -1.554  -6.130  -4.981  0.00  0.00     0.002 A 
ENDROOT
BRANCH   6   7
ATOM      7  S   UNL d   1      -1.263  -4.495  -4.322  0.00  0.00    -0.124 SA
BRANCH   7   8
ATOM      8  C   UNL d   1      -1.244  -4.766  -2.511  0.00  0.00     0.138 C 
BRANCH   8   9
ATOM      9  C   UNL d   1      -1.080  -3.457  -1.770  0.00  0.00     0.040 A 
ATOM     10  N   UNL d   1       0.208  -3.057  -1.558  0.00  0.00    -0.366 N 
ATOM     11  C   UNL d   1       0.417  -1.867  -0.948  0.00  0.00     0.104 A 
ATOM     12  HN  UNL d   1       0.992  -3.640  -1.851  1.00  0.00     0.165 HD
ATOM     13  C   UNL d   1      -0.600  -1.036  -0.509  0.00  0.00     0.064 A 
ATOM     14  C   UNL d   1      -1.915  -1.462  -0.717  0.00  0.00     0.043 A 
ATOM     15  C   UNL d   1      -2.165  -2.680  -1.357  0.00  0.00     0.058 A 
ATOM     16 CL   UNL d   1      -3.804  -3.152  -1.596  0.00  0.00    -0.082 Cl
BRANCH  13  17
ATOM     17  C   UNL d   1      -0.260   0.264   0.150  0.00  0.00     0.418 C 
ATOM     18  F   UNL d   1      -1.352   0.965   0.561  0.00  0.00    -0.166 F 
ATOM     19  F   UNL d   1       0.432   1.099  -0.672  0.00  0.00    -0.166 F 
ATOM     20  F   UNL d   1       0.516   0.099   1.256  0.00  0.00    -0.166 F 
ENDBRANCH  13  17
ENDBRANCH   8   9
ENDBRANCH   7   8
ENDBRANCH   6   7
BRANCH   1  21
ATOM     21  C   UNL d   1      -3.254  -7.474  -8.130  0.00  0.00     0.417 C 
ATOM     22  F   UNL d   1      -3.420  -8.732  -8.625  0.00  0.00    -0.166 F 
ATOM     23  F   UNL d   1      -4.505  -6.951  -8.013  0.00  0.00    -0.166 F 
ATOM     24  F   UNL d   1      -2.639  -6.762  -9.114  0.00  0.00    -0.166 F 
ENDBRANCH   1  21
BRANCH   2  25
ATOM     25  C   UNL d   1      -0.826  -9.827  -4.345  0.00  0.00     0.417 C 
ATOM     26  F   UNL d   1      -1.158 -10.961  -5.021  0.00  0.00    -0.166 F 
ATOM     27  F   UNL d   1       0.529  -9.849  -4.216  0.00  0.00    -0.166 F 
ATOM     28  F   UNL d   1      -1.325  -9.983  -3.087  0.00  0.00    -0.166 F 
ENDBRANCH   2  25
TORSDOF 6
