REMARK  3 active torsions:
REMARK  status: ('A' for Active; 'I' for Inactive)
REMARK    1  A    between atoms: C_11  and  C_3 
REMARK    2  A    between atoms: N_4  and  C_12 
REMARK    3  A    between atoms: C_18  and  C_5 
ROOT
ATOM      1  C   UNL d   1      -0.006  -2.632  -0.066  0.00  0.00     0.013 A 
ATOM      2  C   UNL d   1      -0.485  -5.362  -0.112  0.00  0.00     0.128 A 
ATOM      3  N   UNL d   1      -1.380  -4.538  -0.718  0.00  0.00    -0.350 N 
ATOM      4  HN  UNL d   1      -2.211  -4.904  -1.183  1.00  0.00     0.166 HD
ATOM      5  C   UNL d   1      -1.118  -3.207  -0.678  0.00  0.00     0.104 A 
ATOM      6  C   UNL d   1       0.908  -3.514   0.520  0.00  0.00     0.019 A 
ATOM      7  C   UNL d   1       0.669  -4.891   0.509  0.00  0.00     0.051 A 
ENDROOT
BRANCH   1   8
ATOM      8  C   UNL d   1       0.228  -1.184  -0.035  0.00  0.00     0.086 A 
ATOM      9  N   UNL d   1       1.419  -0.618   0.022  0.00  0.00    -0.349 N 
ATOM     10  C   UNL d   1       1.302   0.765   0.007  0.00  0.00     0.050 A 
ATOM     11  HN  UNL d   1       2.302  -1.127   0.071  1.00  0.00     0.166 HD
ATOM     12  C   UNL d   1       0.004   1.233   0.017  0.00  0.00     0.082 A 
ATOM     13  S   UNL d   1      -1.094  -0.076  -0.010  0.00  0.00    -0.081 SA
BRANCH  10  14
ATOM     14  C   UNL d   1       2.476   1.632   0.002  0.00  0.00    -0.009 A 
ATOM     15  C   UNL d   1       2.437   2.912  -0.572  0.00  0.00     0.015 A 
ATOM     16  C   UNL d   1       3.571   3.732  -0.565  0.00  0.00     0.024 A 
ATOM     17  C   UNL d   1       4.751   3.275   0.014  0.00  0.00     0.034 A 
ATOM     18  C   UNL d   1       4.812   2.003   0.579  0.00  0.00     0.024 A 
ATOM     19 CL   UNL d   1       6.142   4.286   0.025  0.00  0.00    -0.084 Cl
ATOM     20  C   UNL d   1       3.678   1.183   0.568  0.00  0.00     0.015 A 
ENDBRANCH  10  14
ENDBRANCH   1   8
BRANCH   2  21
ATOM     21  N   UNL d   1      -0.762  -6.754  -0.108  0.00  0.00    -0.235 N 
ATOM     22  N   UNL d   1       0.014  -7.678   0.517  0.00  0.00    -0.287 N 
ATOM     23  C   UNL d   1      -0.664  -8.804   0.284  0.00  0.00     0.199 A 
ATOM     24  HN  UNL d   1       0.886  -7.546   1.029  1.00  0.00     0.188 HD
ATOM     25  N   UNL d   1      -1.799  -8.669  -0.457  0.00  0.00    -0.346 N 
ATOM     26  C   UNL d   1      -1.837  -7.377  -0.692  0.00  0.00     0.209 A 
ATOM     27  HN  UNL d   1      -2.456  -9.391  -0.755  1.00  0.00     0.167 HD
ENDBRANCH   2  21
TORSDOF 3
