REMARK  3 active torsions:
REMARK  status: ('A' for Active; 'I' for Inactive)
REMARK    1  A    between atoms: C_2  and  C_1 
REMARK       I    between atoms: N_4  and  C_2 
REMARK    2  A    between atoms: N_5  and  N_4 
REMARK    3  A    between atoms: C_8  and  N_5 
ROOT
ATOM      1  C   UNL d   1       1.631  -2.291  -1.676  0.00  0.00     0.269 C 
ATOM      2  N   UNL d   1       1.128  -3.554  -1.432  0.00  0.00    -0.283 N 
ATOM      3  O   UNL d   1       2.402  -1.713  -0.912  0.00  0.00    -0.266 OA
ATOM      4  H   UNL d   1       0.346  -3.918  -1.970  0.00  0.00     0.184 HD
ENDROOT
BRANCH   2   5
ATOM      5  N   UNL d   1       1.367  -4.122  -0.167  0.00  0.00    -0.203 NA
ATOM      6  H   UNL d   1       2.196  -3.685   0.249  0.00  0.00     0.153 HD
BRANCH   5   7
ATOM      7  C   UNL d   1       1.433  -5.544  -0.151  0.00  0.00     0.033 A 
ATOM      8  C   UNL d   1       2.219  -6.227   0.804  0.00  0.00    -0.039 A 
ATOM      9  C   UNL d   1       2.219  -7.641   0.830  0.00  0.00     0.015 A 
ATOM     10  C   UNL d   1       3.119  -5.540   1.798  0.00  0.00     0.050 C 
ATOM     11  C   UNL d   1       1.406  -8.389  -0.027  0.00  0.00    -0.061 A 
ATOM     12  C   UNL d   1       0.580  -7.713  -0.920  0.00  0.00     0.008 A 
ATOM     13  C   UNL d   1       1.413  -9.888   0.041  0.00  0.00     0.048 C 
ATOM     14  C   UNL d   1       0.587  -6.317  -0.966  0.00  0.00     0.026 A 
ENDBRANCH   5   7
ENDBRANCH   2   5
BRANCH   1  15
ATOM     15  C   UNL d   1       1.229  -1.652  -2.960  0.00  0.00     0.072 A 
ATOM     16  C   UNL d   1       0.127  -2.088  -3.705  0.00  0.00     0.135 A 
ATOM     17  C   UNL d   1      -0.198  -1.499  -4.923  0.00  0.00     0.085 A 
ATOM     18  F   UNL d   1      -0.646  -3.093  -3.265  0.00  0.00    -0.205 F 
ATOM     19  C   UNL d   1       0.591  -0.463  -5.404  0.00  0.00     0.119 A 
ATOM     20  C   UNL d   1       1.685  -0.000  -4.681  0.00  0.00     0.043 A 
ATOM     21  F   UNL d   1       0.296   0.096  -6.584  0.00  0.00    -0.206 F 
ATOM     22  C   UNL d   1       2.002  -0.589  -3.453  0.00  0.00     0.023 A 
ENDBRANCH   1  15
TORSDOF 3
