REMARK  2 active torsions:
REMARK  status: ('A' for Active; 'I' for Inactive)
REMARK    1  A    between atoms: N_4  and  C_1 
REMARK    2  A    between atoms: C_5  and  N_4 
ROOT
ATOM      1  N   UNL d   1      -1.223   2.397  -0.252  0.00  0.00    -0.372 N 
ATOM      2  H   UNL d   1      -2.084   2.082  -0.691  0.00  0.00     0.161 HD
ENDROOT
BRANCH   1   3
ATOM      3  C   UNL d   1      -0.580   1.298   0.210  0.00  0.00     0.101 A 
ATOM      4  N   UNL d   1      -1.208   0.151  -0.131  0.00  0.00    -0.353 N 
ATOM      5  C   UNL d   1      -0.653  -1.029   0.225  0.00  0.00     0.089 A 
ATOM      6  HN  UNL d   1      -2.086   0.176  -0.649  1.00  0.00     0.166 HD
ATOM      7  C   UNL d   1       0.529  -1.135   0.927  0.00  0.00     0.017 A 
ATOM      8  C   UNL d   1       1.166   0.042   1.285  0.00  0.00     0.005 A 
ATOM      9  C   UNL d   1       0.606   1.270   0.923  0.00  0.00     0.048 A 
ENDBRANCH   1   3
BRANCH   1  10
ATOM     10  C   UNL d   1      -1.104   3.837  -0.100  0.00  0.00     0.083 C 
ATOM     11  C   UNL d   1       0.179   4.435  -0.691  0.00  0.00     0.025 C 
ATOM     12  C   UNL d   1       1.229   4.925   0.303  0.00  0.00     0.002 C 
ATOM     13  C   UNL d   1       0.623   5.613   1.517  0.00  0.00     0.000 C 
ATOM     14  C   UNL d   1      -0.375   4.699   2.212  0.00  0.00     0.002 C 
ATOM     15  C   UNL d   1      -1.525   4.338   1.284  0.00  0.00     0.025 C 
ENDBRANCH   1  10
TORSDOF 2
