REMARK  7 active torsions:
REMARK  status: ('A' for Active; 'I' for Inactive)
REMARK    1  A    between atoms: C_8  and  N_1 
REMARK    2  A    between atoms: S_13  and  C_2 
REMARK    3  A    between atoms: O_29  and  C_3 
REMARK    4  A    between atoms: C_9  and  C_14 
REMARK    5  A    between atoms: C_10  and  C_16 
REMARK       I    between atoms: N_11  and  C_12 
REMARK    6  A    between atoms: C_12  and  C_17 
REMARK    7  A    between atoms: C_17  and  S_13 
ROOT
ATOM      1  N   UNL d   1       0.511   0.539  -0.163  0.00  0.00    -0.255 N 
ATOM      2  C   UNL d   1       0.975  -0.754   0.016  0.00  0.00     0.169 A 
ATOM      3  C   UNL d   1      -0.577   0.604   0.700  0.00  0.00     0.245 A 
ATOM      4  N   UNL d   1       0.229  -1.396   0.888  0.00  0.00    -0.276 N 
ATOM      5  HN  UNL d   1       0.352  -2.364   1.186  1.00  0.00     0.189 HD
ATOM      6  N   UNL d   1      -0.740  -0.537   1.325  0.00  0.00    -0.263 N 
ATOM      7  HN  UNL d   1      -1.461  -0.746   2.015  1.00  0.00     0.190 HD
ENDROOT
BRANCH   2   8
ATOM      8  S   UNL d   1       2.463  -1.391  -0.623  0.00  0.00    -0.083 SA
BRANCH   8   9
ATOM      9  C   UNL d   1       2.468  -3.055   0.095  0.00  0.00     0.185 C 
BRANCH   9  10
ATOM     10  C   UNL d   1       3.756  -3.781  -0.261  0.00  0.00     0.229 C 
ATOM     11  N   UNL d   1       4.907  -3.524   0.489  0.00  0.00    -0.351 N 
ATOM     12  C   UNL d   1       6.127  -4.241   0.126  0.00  0.00     0.126 C 
ATOM     13  C   UNL d   1       5.096  -2.348   1.341  0.00  0.00     0.126 C 
ATOM     14  C   UNL d   1       6.905  -4.636   1.374  0.00  0.00     0.033 C 
ATOM     15  C   UNL d   1       7.221  -3.432   2.268  0.00  0.00     0.096 C 
ATOM     16  C   UNL d   1       5.922  -2.674   2.588  0.00  0.00     0.033 C 
ATOM     17  O   UNL d   1       3.747  -4.620  -1.168  0.00  0.00    -0.273 OA
BRANCH  15  18
ATOM     18  C   UNL d   1       8.303  -2.521   1.683  0.00  0.00     0.391 C 
ATOM     19  F   UNL d   1       8.892  -3.059   0.595  0.00  0.00    -0.171 F 
ATOM     20  F   UNL d   1       7.828  -1.308   1.330  0.00  0.00    -0.171 F 
ATOM     21  F   UNL d   1       9.277  -2.314   2.600  0.00  0.00    -0.171 F 
ENDBRANCH  15  18
ENDBRANCH   9  10
ENDBRANCH   8   9
ENDBRANCH   2   8
BRANCH   1  22
ATOM     22  C   UNL d   1       1.030   1.587  -0.983  0.00  0.00     0.046 A 
ATOM     23  C   UNL d   1       1.641   1.293  -2.209  0.00  0.00     0.046 A 
ATOM     24  C   UNL d   1       2.225   2.304  -2.990  0.00  0.00     0.050 A 
ATOM     25  C   UNL d   1       2.136   3.631  -2.552  0.00  0.00     0.016 A 
ATOM     26  C   UNL d   1       1.498   3.938  -1.350  0.00  0.00     0.003 A 
ATOM     27  C   UNL d   1       0.955   2.922  -0.560  0.00  0.00     0.030 A 
BRANCH  24  28
ATOM     28  C   UNL d   1       2.962   1.969  -4.266  0.00  0.00     0.417 C 
ATOM     29  F   UNL d   1       2.959   0.639  -4.561  0.00  0.00    -0.166 F 
ATOM     30  F   UNL d   1       2.434   2.595  -5.352  0.00  0.00    -0.166 F 
ATOM     31  F   UNL d   1       4.271   2.338  -4.216  0.00  0.00    -0.166 F 
ENDBRANCH  24  28
ENDBRANCH   1  22
BRANCH   3  32
ATOM     32  O   UNL d   1      -1.431   1.611   0.840  0.00  0.00    -0.331 OA
ATOM     33  H   UNL d   1      -1.398   2.162   0.043  0.00  0.00     0.221 HD
ENDBRANCH   3  32
TORSDOF 7
