REMARK  3 active torsions:
REMARK  status: ('A' for Active; 'I' for Inactive)
REMARK    1  A    between atoms: N_2  and  S_1 
REMARK    2  A    between atoms: C_5  and  S_1 
REMARK    3  A    between atoms: C_3  and  N_4 
ROOT
ATOM      1  N   UNL d   1       0.433   0.166  -1.632  0.00  0.00    -0.205 NA
ATOM      2  N   UNL d   1       0.765   1.000  -4.570  0.00  0.00    -0.377 N 
ATOM      3  C   UNL d   1       0.781   1.549  -2.113  0.00  0.00     0.127 C 
ATOM      4  C   UNL d   1       0.265   1.907  -3.516  0.00  0.00     0.138 C 
ATOM      5  C   UNL d   1       0.115  -1.243  -3.680  0.00  0.00     0.035 C 
ATOM      6  C   UNL d   1       1.039  -0.882  -2.522  0.00  0.00     0.109 C 
ATOM      7  C   UNL d   1      -0.061  -0.195  -4.781  0.00  0.00     0.124 C 
ENDROOT
BRANCH   1   8
ATOM      8  S   UNL d   1       0.927  -0.076   0.015  0.00  0.00     0.243 S 
ATOM      9  O   UNL d   1       2.288   0.414   0.133  0.00  0.00    -0.206 OA
ATOM     10  O   UNL d   1       0.584  -1.430   0.399  0.00  0.00    -0.206 OA
BRANCH   8  11
ATOM     11  C   UNL d   1      -0.132   0.993   0.961  0.00  0.00     0.074 A 
ATOM     12  C   UNL d   1      -1.508   0.738   0.978  0.00  0.00     0.028 A 
ATOM     13  C   UNL d   1      -2.335   1.502   1.800  0.00  0.00     0.044 A 
ATOM     14  C   UNL d   1      -1.784   2.504   2.602  0.00  0.00     0.116 A 
ATOM     15  C   UNL d   1      -0.414   2.763   2.583  0.00  0.00     0.044 A 
ATOM     16  F   UNL d   1      -2.579   3.217   3.403  0.00  0.00    -0.206 F 
ATOM     17  C   UNL d   1       0.421   2.003   1.760  0.00  0.00     0.028 A 
ENDBRANCH   8  11
ENDBRANCH   1   8
BRANCH   2  18
ATOM     18  C   UNL d   1       1.640   1.414  -5.588  0.00  0.00     0.077 A 
ATOM     19  C   UNL d   1       2.653   0.551  -6.095  0.00  0.00     0.077 A 
ATOM     20 CL   UNL d   1       2.905  -1.080  -5.567  0.00  0.00    -0.080 Cl
ATOM     21  C   UNL d   1       3.566   1.008  -7.050  0.00  0.00     0.113 A 
ATOM     22  N   UNL d   1       3.585   2.257  -7.550  0.00  0.00    -0.372 N 
ATOM     23  C   UNL d   1       2.608   3.070  -7.104  0.00  0.00     0.113 A 
ATOM     24  HN  UNL d   1       4.290   2.567  -8.219  1.00  0.00     0.164 HD
ATOM     25  C   UNL d   1       1.621   2.703  -6.182  0.00  0.00     0.077 A 
ATOM     26 CL   UNL d   1       0.348   3.864  -5.974  0.00  0.00    -0.080 Cl
ENDBRANCH   2  18
TORSDOF 3
