REMARK  3 active torsions:
REMARK  status: ('A' for Active; 'I' for Inactive)
REMARK       I    between atoms: N_2  and  C_1 
REMARK       I    between atoms: N_3  and  C_1 
REMARK    1  A    between atoms: C_4  and  N_2 
REMARK    2  A    between atoms: C_5  and  N_3 
REMARK    3  A    between atoms: C_20  and  C_13 
ROOT
ATOM      1  C   UNL d   1       0.991  -0.010  -0.155  0.00  0.00     0.326 C 
ATOM      2  N   UNL d   1       0.300  -0.864   0.675  0.00  0.00    -0.294 N 
ATOM      3  N   UNL d   1       0.213   0.856  -0.876  0.00  0.00    -0.308 N 
ATOM      4  O   UNL d   1       2.219  -0.019  -0.130  0.00  0.00    -0.247 OA
ATOM      5  H   UNL d   1       0.894  -1.375   1.310  0.00  0.00     0.172 HD
ATOM      6  H   UNL d   1      -0.755   0.871  -0.583  0.00  0.00     0.170 HD
ENDROOT
BRANCH   2   7
ATOM      7  C   UNL d   1      -1.076  -1.127   0.680  0.00  0.00     0.109 A 
ATOM      8  N   UNL d   1      -1.849  -0.580  -0.283  0.00  0.00    -0.352 N 
ATOM      9  C   UNL d   1      -3.154  -0.905  -0.316  0.00  0.00     0.090 A 
ATOM     10  HN  UNL d   1      -1.453   0.064  -0.968  1.00  0.00     0.166 HD
ATOM     11  C   UNL d   1      -3.756  -1.719   0.622  0.00  0.00     0.024 A 
ATOM     12  C   UNL d   1      -2.971  -2.242   1.651  0.00  0.00    -0.054 A 
ATOM     13  C   UNL d   1      -1.601  -1.951   1.667  0.00  0.00     0.055 A 
BRANCH  12  14
ATOM     14  C   UNL d   1      -3.610  -3.064   2.739  0.00  0.00     0.034 C 
ATOM     15  C   UNL d   1      -4.159  -2.179   3.849  0.00  0.00     0.010 C 
ENDBRANCH  12  14
ENDBRANCH   2   7
BRANCH   3  16
ATOM     16  C   UNL d   1       0.667   1.907  -1.685  0.00  0.00     0.047 A 
ATOM     17  C   UNL d   1       0.066   3.190  -1.563  0.00  0.00     0.001 A 
ATOM     18  C   UNL d   1       0.489   4.214  -2.443  0.00  0.00    -0.024 A 
ATOM     19  C   UNL d   1      -0.887   3.525  -0.569  0.00  0.00     0.014 A 
ATOM     20  C   UNL d   1      -0.033   5.513  -2.305  0.00  0.00     0.012 A 
ATOM     21  C   UNL d   1       1.444   3.932  -3.433  0.00  0.00     0.012 A 
ATOM     22  C   UNL d   1      -0.959   5.816  -1.307  0.00  0.00     0.001 A 
ATOM     23  C   UNL d   1      -1.388   4.821  -0.441  0.00  0.00     0.001 A 
ATOM     24  C   UNL d   1       2.015   2.662  -3.539  0.00  0.00     0.003 A 
ATOM     25  C   UNL d   1       1.645   1.659  -2.650  0.00  0.00     0.030 A 
ENDBRANCH   3  16
TORSDOF 3
