REMARK  7 active torsions:
REMARK  status: ('A' for Active; 'I' for Inactive)
REMARK    1  A    between atoms: S_14  and  C_2 
REMARK    2  A    between atoms: N_7  and  C_3 
REMARK    3  A    between atoms: C_21  and  N_11 
REMARK    4  A    between atoms: C_20  and  S_14 
REMARK    5  A    between atoms: C_15  and  C_20 
REMARK       I    between atoms: N_16  and  C_15 
REMARK    6  A    between atoms: C_17  and  N_16 
REMARK    7  A    between atoms: S_23  and  C_22 
ROOT
ATOM      1  C   UNL d   1       0.649   0.211   0.503  0.00  0.00     0.086 A 
ATOM      2  C   UNL d   1      -0.222   1.285   0.686  0.00  0.00     0.092 A 
ATOM      3  C   UNL d   1      -1.285  -1.179  -0.029  0.00  0.00     0.077 A 
ATOM      4  N   UNL d   1      -1.559   1.175   0.524  0.00  0.00    -0.351 N 
ATOM      5  HN  UNL d   1      -2.167   1.985   0.646  1.00  0.00     0.166 HD
ATOM      6  C   UNL d   1       0.112  -1.045   0.134  0.00  0.00    -0.008 A 
ATOM      7  C   UNL d   1      -2.076  -0.038   0.193  0.00  0.00     0.035 A 
ATOM      8  C   UNL d   1       2.059   0.379   0.705  0.00  0.00     0.103 C 
ATOM      9  N   UNL d   1       3.203   0.503   0.849  0.00  0.00    -0.191 NA
ATOM     10  C   UNL d   1       1.034  -2.225  -0.071  0.00  0.00     0.052 C 
ATOM     11  C   UNL d   1      -3.573  -0.060   0.060  0.00  0.00     0.070 C 
ENDROOT
BRANCH   2  12
ATOM     12  S   UNL d   1       0.240   2.919   1.216  0.00  0.00    -0.101 SA
BRANCH  12  13
ATOM     13  C   UNL d   1       0.874   3.605  -0.334  0.00  0.00     0.184 C 
BRANCH  13  14
ATOM     14  C   UNL d   1      -0.121   3.849  -1.459  0.00  0.00     0.231 C 
ATOM     15  N   UNL d   1      -1.441   3.518  -1.231  0.00  0.00    -0.326 N 
ATOM     16  H   UNL d   1      -1.681   3.188  -0.297  0.00  0.00     0.169 HD
ATOM     17  O   UNL d   1       0.307   4.347  -2.502  0.00  0.00    -0.272 OA
BRANCH  15  18
ATOM     18  C   UNL d   1      -2.512   3.624  -2.147  0.00  0.00     0.035 A 
ATOM     19  C   UNL d   1      -2.333   3.863  -3.513  0.00  0.00     0.048 A 
ATOM     20  C   UNL d   1      -3.425   4.025  -4.374  0.00  0.00     0.002 A 
ATOM     21  C   UNL d   1      -4.717   3.897  -3.857  0.00  0.00     0.018 A 
ATOM     22  C   UNL d   1      -4.911   3.619  -2.503  0.00  0.00     0.004 A 
ATOM     23  C   UNL d   1      -3.812   3.478  -1.652  0.00  0.00     0.029 A 
BRANCH  20  24
ATOM     24  S   UNL d   1      -3.243   4.363  -6.122  0.00  0.00    -0.134 SA
ATOM     25  C   UNL d   1      -1.671   5.274  -6.163  0.00  0.00     0.095 C 
ENDBRANCH  20  24
ENDBRANCH  15  18
ENDBRANCH  13  14
ENDBRANCH  12  13
ENDBRANCH   2  12
BRANCH   3  26
ATOM     26  N   UNL d   1      -1.857  -2.445  -0.277  0.00  0.00    -0.298 N 
ATOM     27  N   UNL d   1      -2.513  -2.457  -1.339  0.00  0.00    -0.300 N 
ATOM     28  HN  UNL d   1      -2.513  -1.685  -2.006  1.00  0.00     0.187 HD
ATOM     29  HN  UNL d   1      -1.749  -3.252   0.338  1.00  0.00     0.187 HD
BRANCH  27  30
ATOM     30  C   UNL d   1      -3.256  -3.648  -1.528  0.00  0.00     0.048 A 
ATOM     31  C   UNL d   1      -3.313  -4.711  -0.611  0.00  0.00     0.031 A 
ATOM     32  C   UNL d   1      -4.072  -5.856  -0.877  0.00  0.00     0.002 A 
ATOM     33  C   UNL d   1      -4.795  -5.952  -2.063  0.00  0.00     0.000 A 
ATOM     34  C   UNL d   1      -4.771  -4.900  -2.975  0.00  0.00     0.002 A 
ATOM     35  C   UNL d   1      -4.009  -3.759  -2.705  0.00  0.00     0.031 A 
ENDBRANCH  27  30
ENDBRANCH   3  26
TORSDOF 7
