REMARK  6 active torsions:
REMARK  status: ('A' for Active; 'I' for Inactive)
REMARK    1  A    between atoms: N_2  and  C_1 
REMARK    2  A    between atoms: N_7  and  C_1 
REMARK    3  A    between atoms: C_3  and  N_2 
REMARK       I    between atoms: C_4  and  N_9 
REMARK    4  A    between atoms: O_15  and  C_4 
REMARK    5  A    between atoms: N_9  and  N_7 
REMARK    6  A    between atoms: C_16  and  O_15 
ROOT
ATOM      1  C   UNL d   1       0.856  -0.119  -0.110  0.00  0.00     0.186 C 
ATOM      2  S   UNL d   1       0.334  -1.546  -0.795  0.00  0.00    -0.040 SA
ENDROOT
BRANCH   1   3
ATOM      3  N   UNL d   1       0.524   1.080  -0.695  0.00  0.00    -0.361 N 
ATOM      4  H   UNL d   1      -0.077   0.998  -1.508  0.00  0.00     0.162 HD
BRANCH   3   5
ATOM      5  C   UNL d   1       1.343   2.280  -0.588  0.00  0.00     0.092 C 
ATOM      6  C   UNL d   1       1.207   3.301  -1.748  0.00  0.00     0.031 C 
ATOM      7  C   UNL d   1      -0.181   3.905  -1.776  0.00  0.00    -0.024 C 
ATOM      8  C   UNL d   1       1.961   4.480  -1.117  0.00  0.00     0.019 C 
ATOM      9  C   UNL d   1      -0.297   4.685  -0.691  0.00  0.00    -0.026 C 
ATOM     10  C   UNL d   1       1.000   4.583   0.073  0.00  0.00     0.010 C 
ATOM     11  C   UNL d   1       1.066   3.159   0.669  0.00  0.00     0.034 C 
ENDBRANCH   3   5
ENDBRANCH   1   3
BRANCH   1  12
ATOM     12  N   UNL d   1       1.653  -0.016   0.995  0.00  0.00    -0.272 N 
ATOM     13  H   UNL d   1       1.740   0.866   1.493  0.00  0.00     0.189 HD
BRANCH  12  14
ATOM     14  N   UNL d   1       2.453  -1.046   1.504  0.00  0.00    -0.243 N 
ATOM     15  C   UNL d   1       3.432  -0.635   2.379  0.00  0.00     0.379 C 
ATOM     16  O   UNL d   1       3.428   0.469   2.921  0.00  0.00    -0.237 OA
ATOM     17  H   UNL d   1       2.638  -1.846   0.906  0.00  0.00     0.192 HD
BRANCH  15  18
ATOM     18  O   UNL d   1       4.422  -1.556   2.486  0.00  0.00    -0.303 OA
BRANCH  18  19
ATOM     19  C   UNL d   1       5.559  -1.117   3.247  0.00  0.00     0.176 C 
ATOM     20  C   UNL d   1       6.516  -0.353   2.347  0.00  0.00     0.034 C 
ENDBRANCH  18  19
ENDBRANCH  15  18
ENDBRANCH  12  14
ENDBRANCH   1  12
TORSDOF 6
