REMARK  1 active torsions:
REMARK  status: ('A' for Active; 'I' for Inactive)
REMARK       I    between atoms: C_5  and  N_3 
REMARK       I    between atoms: N_11  and  C_5 
REMARK    1  A    between atoms: C_15  and  N_11 
ROOT
ATOM      1  C   UNL d   1       2.014   0.094   0.116  0.00  0.00     0.041 A 
ATOM      2  C   UNL d   1       3.446   0.253   0.019  0.00  0.00     0.080 C 
ATOM      3  N   UNL d   1       4.215  -0.083  -1.095  0.00  0.00    -0.205 N 
ATOM      4  S   UNL d   1       1.044   0.509  -1.239  0.00  0.00    -0.087 SA
ATOM      5  C   UNL d   1       3.883  -0.904  -2.204  0.00  0.00     0.346 C 
ATOM      6  C   UNL d   1       1.233  -0.252   1.210  0.00  0.00    -0.031 A 
ATOM      7  C   UNL d   1      -0.187  -0.239   0.883  0.00  0.00    -0.012 A 
ATOM      8  N   UNL d   1       5.441   0.542  -1.061  0.00  0.00    -0.301 N 
ATOM      9  HN  UNL d   1       6.128   0.622  -1.810  1.00  0.00     0.186 HD
ATOM     10  C   UNL d   1      -0.413   0.115  -0.447  0.00  0.00     0.016 A 
ATOM     11  N   UNL d   1       4.522  -0.430  -3.332  0.00  0.00    -0.307 N 
ATOM     12  C   UNL d   1       4.316   0.873   0.894  0.00  0.00     0.052 C 
ATOM     13  C   UNL d   1       5.519   1.017   0.183  0.00  0.00     0.110 C 
ATOM     14  O   UNL d   1       3.080  -1.813  -2.069  0.00  0.00    -0.245 OA
ATOM     15  C   UNL d   1       1.727  -0.619   2.576  0.00  0.00     0.050 C 
ATOM     16  C   UNL d   1      -1.325  -0.525   1.683  0.00  0.00     0.013 A 
ATOM     17  C   UNL d   1      -1.707   0.150  -1.004  0.00  0.00     0.019 A 
ATOM     18  C   UNL d   1      -2.614  -0.476   1.140  0.00  0.00     0.001 A 
ATOM     19  C   UNL d   1      -2.800  -0.153  -0.195  0.00  0.00     0.001 A 
ATOM     20  H   UNL d   1       5.106   0.392  -3.185  0.00  0.00     0.170 HD
ENDROOT
BRANCH  11  21
ATOM     21  C   UNL d   1       4.285  -0.845  -4.655  0.00  0.00     0.036 A 
ATOM     22  C   UNL d   1       3.618  -2.029  -4.977  0.00  0.00     0.029 A 
ATOM     23  C   UNL d   1       3.406  -2.379  -6.316  0.00  0.00     0.002 A 
ATOM     24  C   UNL d   1       3.845  -1.540  -7.337  0.00  0.00     0.000 A 
ATOM     25  C   UNL d   1       4.500  -0.354  -7.023  0.00  0.00     0.002 A 
ATOM     26  C   UNL d   1       4.733  -0.012  -5.685  0.00  0.00     0.029 A 
ENDBRANCH  11  21
TORSDOF 1
