REMARK  6 active torsions:
REMARK  status: ('A' for Active; 'I' for Inactive)
REMARK    1  A    between atoms: C_9  and  N_1 
REMARK    2  A    between atoms: C_7  and  N_10 
REMARK    3  A    between atoms: N_11  and  C_7 
REMARK    4  A    between atoms: C_8  and  C_9 
REMARK       I    between atoms: N_12  and  C_8 
REMARK    5  A    between atoms: N_10  and  N_12 
REMARK    6  A    between atoms: C_15  and  N_11 
ROOT
ATOM      1  C   UNL d   1       1.127  -2.513   2.501  0.00  0.00     0.254 C 
ATOM      2  N   UNL d   1       2.288  -2.738   1.780  0.00  0.00    -0.266 N 
ATOM      3  O   UNL d   1       1.074  -2.544   3.737  0.00  0.00    -0.270 OA
ATOM      4  H   UNL d   1       2.229  -2.883   0.776  0.00  0.00     0.190 HD
ENDROOT
BRANCH   1   5
ATOM      5  C   UNL d   1      -0.164  -2.382   1.663  0.00  0.00     0.234 C 
BRANCH   5   6
ATOM      6  N   UNL d   1      -0.006  -1.669   0.371  0.00  0.00    -0.336 N 
ATOM      7  C   UNL d   1       0.389  -0.313   0.421  0.00  0.00     0.052 A 
ATOM      8  C   UNL d   1       1.435   0.164  -0.397  0.00  0.00     0.032 A 
ATOM      9  C   UNL d   1      -0.338   0.619   1.183  0.00  0.00     0.031 A 
ATOM     10  C   UNL d   1       1.742   1.530  -0.435  0.00  0.00     0.021 A 
ATOM     11  S   UNL d   1       2.411  -0.965  -1.393  0.00  0.00    -0.086 SA
ATOM     12  C   UNL d   1       0.997   2.438   0.317  0.00  0.00     0.002 A 
ATOM     13  C   UNL d   1      -0.041   1.983   1.124  0.00  0.00     0.002 A 
ATOM     14  C   UNL d   1       1.187  -2.234  -1.698  0.00  0.00     0.032 A 
ATOM     15  C   UNL d   1       0.124  -2.449  -0.798  0.00  0.00     0.052 A 
ATOM     16  C   UNL d   1       1.304  -3.008  -2.858  0.00  0.00     0.021 A 
ATOM     17  C   UNL d   1      -0.870  -3.375  -1.155  0.00  0.00     0.031 A 
ATOM     18  C   UNL d   1      -0.782  -4.102  -2.346  0.00  0.00     0.002 A 
ATOM     19  C   UNL d   1       0.319  -3.938  -3.183  0.00  0.00     0.002 A 
ENDBRANCH   5   6
ENDBRANCH   1   5
BRANCH   2  20
ATOM     20  N   UNL d   1       3.514  -3.044   2.390  0.00  0.00    -0.273 N 
ATOM     21  H   UNL d   1       3.774  -4.028   2.435  0.00  0.00     0.189 HD
BRANCH  20  22
ATOM     22  C   UNL d   1       4.397  -2.090   2.922  0.00  0.00     0.191 C 
ATOM     23  S   UNL d   1       3.953  -0.580   3.479  0.00  0.00    -0.039 SA
BRANCH  22  24
ATOM     24  N   UNL d   1       5.703  -2.571   2.798  0.00  0.00    -0.332 N 
ATOM     25  H   UNL d   1       5.839  -3.107   1.953  0.00  0.00     0.168 HD
BRANCH  24  26
ATOM     26  C   UNL d   1       6.880  -2.324   3.537  0.00  0.00     0.034 A 
ATOM     27  C   UNL d   1       6.902  -1.789   4.826  0.00  0.00     0.031 A 
ATOM     28  C   UNL d   1       8.085  -1.787   5.576  0.00  0.00     0.026 A 
ATOM     29  C   UNL d   1       9.247  -2.321   5.038  0.00  0.00     0.034 A 
ATOM     30  C   UNL d   1       9.269  -2.782   3.724  0.00  0.00     0.026 A 
ATOM     31 CL   UNL d   1      10.670  -2.436   6.005  0.00  0.00    -0.084 Cl
ATOM     32  C   UNL d   1       8.084  -2.785   2.981  0.00  0.00     0.031 A 
ENDBRANCH  24  26
ENDBRANCH  22  24
ENDBRANCH  20  22
ENDBRANCH   2  20
TORSDOF 6
