REMARK  8 active torsions:
REMARK  status: ('A' for Active; 'I' for Inactive)
REMARK    1  A    between atoms: N_5  and  C_1 
REMARK    2  A    between atoms: C_2  and  S_12 
REMARK       I    between atoms: C_13  and  N_5 
REMARK    3  A    between atoms: C_11  and  C_7 
REMARK    4  A    between atoms: C_16  and  C_11 
REMARK    5  A    between atoms: S_12  and  C_20 
REMARK    6  A    between atoms: C_20  and  C_13 
REMARK    7  A    between atoms: O_21  and  C_16 
REMARK    8  A    between atoms: C_23  and  O_21 
ROOT
ATOM      1  N   UNL d   1       0.280  -2.660   0.166  0.00  0.00    -0.306 N 
ATOM      2  C   UNL d   1       1.287  -3.575  -0.057  0.00  0.00     0.233 C 
ATOM      3  O   UNL d   1       2.487  -3.321  -0.149  0.00  0.00    -0.272 OA
ATOM      4  H   UNL d   1      -0.671  -2.979   0.280  0.00  0.00     0.171 HD
ENDROOT
BRANCH   1   5
ATOM      5  C   UNL d   1       0.478  -1.312   0.102  0.00  0.00     0.151 A 
ATOM      6  N   UNL d   1       1.565  -0.647  -0.178  0.00  0.00    -0.339 N 
ATOM      7  C   UNL d   1       1.301   0.714  -0.178  0.00  0.00     0.027 A 
ATOM      8  HN  UNL d   1       2.476  -1.067  -0.368  1.00  0.00     0.168 HD
ATOM      9  C   UNL d   1      -0.000   1.043   0.162  0.00  0.00     0.078 A 
ATOM     10  S   UNL d   1      -0.920  -0.384   0.409  0.00  0.00    -0.064 SA
BRANCH   7  11
ATOM     11  C   UNL d   1       2.419   1.646  -0.506  0.00  0.00     0.168 C 
BRANCH  11  12
ATOM     12  C   UNL d   1       2.162   2.443  -1.764  0.00  0.00     0.264 C 
ATOM     13  O   UNL d   1       1.096   2.550  -2.350  0.00  0.00    -0.265 OA
BRANCH  12  14
ATOM     14  O   UNL d   1       3.328   3.044  -2.152  0.00  0.00    -0.322 OA
BRANCH  14  15
ATOM     15  C   UNL d   1       3.323   3.619  -3.467  0.00  0.00     0.174 C 
ATOM     16  C   UNL d   1       3.783   2.560  -4.452  0.00  0.00     0.034 C 
ENDBRANCH  14  15
ENDBRANCH  12  14
ENDBRANCH  11  12
ENDBRANCH   7  11
ENDBRANCH   1   5
BRANCH   2  17
ATOM     17  C   UNL d   1       0.809  -5.022  -0.084  0.00  0.00     0.185 C 
BRANCH  17  18
ATOM     18  S   UNL d   1      -0.773  -5.172  -0.972  0.00  0.00    -0.084 SA
BRANCH  18  19
ATOM     19  C   UNL d   1      -1.012  -6.882  -0.936  0.00  0.00     0.146 A 
ATOM     20  N   UNL d   1      -2.095  -7.498  -1.505  0.00  0.00    -0.341 N 
ATOM     21  C   UNL d   1      -1.948  -8.847  -1.296  0.00  0.00     0.109 A 
ATOM     22  C   UNL d   1      -3.213  -6.911  -2.201  0.00  0.00     0.158 C 
ATOM     23  C   UNL d   1      -0.770  -8.976  -0.599  0.00  0.00     0.107 A 
ATOM     24  N   UNL d   1      -0.203  -7.749  -0.372  0.00  0.00    -0.345 N 
ATOM     25  HN  UNL d   1       0.664  -7.552   0.127  1.00  0.00     0.167 HD
ENDBRANCH  18  19
ENDBRANCH  17  18
ENDBRANCH   2  17
TORSDOF 8
