REMARK  4 active torsions:
REMARK  status: ('A' for Active; 'I' for Inactive)
REMARK    1  A    between atoms: N_6  and  C_1 
REMARK    2  A    between atoms: N_9  and  C_1 
REMARK    3  A    between atoms: N_2  and  N_6 
REMARK    4  A    between atoms: C_4  and  C_8 
ROOT
ATOM      1  N   UNL d   1      -1.175   0.167  -1.165  0.00  0.00    -0.309 N 
ATOM      2  HN  UNL d   1      -1.707   0.112  -0.296  1.00  0.00     0.186 HD
ATOM      3  C   UNL d   1      -1.758   0.327  -2.313  0.00  0.00     0.120 C 
ENDROOT
BRANCH   1   4
ATOM      4  N   UNL d   1       0.185   0.074  -1.182  0.00  0.00    -0.277 N 
ATOM      5  H   UNL d   1       0.709   0.152  -2.048  0.00  0.00     0.189 HD
BRANCH   4   6
ATOM      6  C   UNL d   1       0.876  -0.091   0.005  0.00  0.00     0.186 C 
ATOM      7  S   UNL d   1       2.538  -0.164   0.003  0.00  0.00    -0.040 SA
BRANCH   6   8
ATOM      8  N   UNL d   1       0.042  -0.175   1.088  0.00  0.00    -0.370 N 
ATOM      9  C   UNL d   1       0.352  -0.341   2.486  0.00  0.00     0.148 C 
ATOM     10  H   UNL d   1      -0.931  -0.095   0.807  0.00  0.00     0.161 HD
ENDBRANCH   6   8
ENDBRANCH   4   6
ENDBRANCH   1   4
BRANCH   3  11
ATOM     11  C   UNL d   1      -3.231   0.458  -2.381  0.00  0.00     0.002 A 
ATOM     12  C   UNL d   1      -3.912   0.612  -3.593  0.00  0.00     0.045 A 
ATOM     13 CL   UNL d   1      -3.110   0.645  -5.122  0.00  0.00    -0.083 Cl
ATOM     14  C   UNL d   1      -5.306   0.746  -3.593  0.00  0.00     0.024 A 
ATOM     15  C   UNL d   1      -6.020   0.726  -2.393  0.00  0.00     0.002 A 
ATOM     16  C   UNL d   1      -5.347   0.569  -1.186  0.00  0.00     0.001 A 
ATOM     17  C   UNL d   1      -3.959   0.435  -1.179  0.00  0.00     0.014 A 
ENDBRANCH   3  11
TORSDOF 4
