REMARK  6 active torsions:
REMARK  status: ('A' for Active; 'I' for Inactive)
REMARK    1  A    between atoms: N_5  and  C_1 
REMARK    2  A    between atoms: N_6  and  C_2 
REMARK    3  A    between atoms: C_11  and  N_5 
REMARK    4  A    between atoms: C_12  and  N_6 
REMARK    5  A    between atoms: C_17  and  C_9 
REMARK    6  A    between atoms: C_18  and  C_10 
ROOT
ATOM      1  C   UNL d   1       0.678  -1.425  -0.059  0.00  0.00     0.118 C 
ATOM      2  C   UNL d   1      -0.691  -1.449  -0.070  0.00  0.00     0.118 C 
ATOM      3  C   UNL d   1       0.723   0.048   0.121  0.00  0.00     0.253 C 
ATOM      4  C   UNL d   1      -0.781   0.018  -0.051  0.00  0.00     0.253 C 
ATOM      5  O   UNL d   1       1.528   0.929   0.254  0.00  0.00    -0.281 OA
ATOM      6  O   UNL d   1      -1.612   0.898  -0.068  0.00  0.00    -0.281 OA
ENDROOT
BRANCH   1   7
ATOM      7  N   UNL d   1       1.660  -2.311  -0.143  0.00  0.00    -0.351 N 
ATOM      8  H   UNL d   1       2.541  -2.148   0.340  0.00  0.00     0.166 HD
BRANCH   7   9
ATOM      9  C   UNL d   1       1.860  -3.159  -1.267  0.00  0.00     0.032 A 
ATOM     10  C   UNL d   1       0.997  -3.163  -2.372  0.00  0.00     0.030 A 
ATOM     11  C   UNL d   1       1.233  -3.978  -3.480  0.00  0.00     0.010 A 
ATOM     12  C   UNL d   1       2.334  -4.837  -3.514  0.00  0.00    -0.055 A 
ATOM     13  C   UNL d   1       3.169  -4.885  -2.389  0.00  0.00     0.010 A 
ATOM     14  C   UNL d   1       2.928  -4.062  -1.276  0.00  0.00     0.030 A 
BRANCH  12  15
ATOM     15  C   UNL d   1       2.618  -5.685  -4.742  0.00  0.00     0.010 C 
ATOM     16  C   UNL d   1       1.471  -6.658  -5.032  0.00  0.00     0.015 C 
ATOM     17  C   UNL d   1       2.892  -4.812  -5.973  0.00  0.00     0.015 C 
ENDBRANCH  12  15
ENDBRANCH   7   9
ENDBRANCH   1   7
BRANCH   2  18
ATOM     18  N   UNL d   1      -1.651  -2.359  -0.108  0.00  0.00    -0.351 N 
ATOM     19  H   UNL d   1      -2.543  -2.141  -0.552  0.00  0.00     0.166 HD
BRANCH  18  20
ATOM     20  C   UNL d   1      -1.831  -3.359   0.887  0.00  0.00     0.032 A 
ATOM     21  C   UNL d   1      -0.936  -3.538   1.951  0.00  0.00     0.030 A 
ATOM     22  C   UNL d   1      -1.159  -4.496   2.942  0.00  0.00     0.010 A 
ATOM     23  C   UNL d   1      -2.280  -5.330   2.892  0.00  0.00    -0.055 A 
ATOM     24  C   UNL d   1      -3.150  -5.197   1.801  0.00  0.00     0.010 A 
ATOM     25  C   UNL d   1      -2.922  -4.231   0.806  0.00  0.00     0.030 A 
BRANCH  23  26
ATOM     26  C   UNL d   1      -2.546  -6.346   3.989  0.00  0.00     0.010 C 
ATOM     27  C   UNL d   1      -1.411  -7.370   4.098  0.00  0.00     0.015 C 
ATOM     28  C   UNL d   1      -2.771  -5.668   5.346  0.00  0.00     0.015 C 
ENDBRANCH  23  26
ENDBRANCH  18  20
ENDBRANCH   2  18
TORSDOF 6
