REMARK  3 active torsions:
REMARK  status: ('A' for Active; 'I' for Inactive)
REMARK    1  A    between atoms: C_4  and  C_1 
REMARK    2  A    between atoms: O_14  and  C_3 
REMARK    3  A    between atoms: C_13  and  N_6 
ROOT
ATOM      1  C   UNL d   1      -0.067   1.999  -0.014  0.00  0.00     0.016 A 
ATOM      2  C   UNL d   1      -0.940  -0.256  -0.030  0.00  0.00     0.069 A 
ATOM      3  C   UNL d   1      -1.158   1.127  -0.045  0.00  0.00     0.099 A 
ATOM      4  C   UNL d   1       0.355  -0.769   0.013  0.00  0.00     0.050 A 
ATOM      5  C   UNL d   1       1.235   1.488   0.031  0.00  0.00     0.039 A 
ATOM      6  C   UNL d   1       1.437   0.108   0.043  0.00  0.00     0.036 A 
ATOM      7 CL   UNL d   1      -2.276  -1.348  -0.065  0.00  0.00    -0.081 Cl
ATOM      8 CL   UNL d   1       3.038  -0.520   0.093  0.00  0.00    -0.084 Cl
ENDROOT
BRANCH   1   9
ATOM      9  C   UNL d   1      -0.284   3.463  -0.036  0.00  0.00     0.102 C 
ATOM     10  N   UNL d   1       0.704   4.293   0.081  0.00  0.00    -0.364 N 
ATOM     11  HN  UNL d   1       1.658   3.948   0.181  1.00  0.00     0.165 HD
BRANCH  10  12
ATOM     12  C   UNL d   1       0.445   5.676   0.067  0.00  0.00     0.047 A 
ATOM     13  C   UNL d   1       1.351   6.540  -0.546  0.00  0.00     0.117 A 
ATOM     14  N   UNL d   1       1.235   7.894  -0.588  0.00  0.00    -0.373 N 
ATOM     15  C   UNL d   1       0.158   8.420   0.029  0.00  0.00     0.088 A 
ATOM     16  HN  UNL d   1       1.925   8.479  -1.059  1.00  0.00     0.164 HD
ATOM     17  C   UNL d   1      -0.800   7.660   0.679  0.00  0.00     0.019 A 
ATOM     18  C   UNL d   1      -0.645   6.274   0.704  0.00  0.00     0.032 A 
ENDBRANCH  10  12
ENDBRANCH   1   9
BRANCH   3  19
ATOM     19  O   UNL d   1      -2.433   1.630  -0.082  0.00  0.00    -0.358 OA
ATOM     20  H   UNL d   1      -3.052   0.874  -0.098  0.00  0.00     0.217 HD
ENDBRANCH   3  19
TORSDOF 3
