REMARK  6 active torsions:
REMARK  status: ('A' for Active; 'I' for Inactive)
REMARK    1  A    between atoms: C_10  and  C_1 
REMARK    2  A    between atoms: S_8  and  C_2 
REMARK    3  A    between atoms: S_15  and  C_3 
REMARK    4  A    between atoms: C_9  and  S_8 
REMARK    5  A    between atoms: O_18  and  C_10 
REMARK    6  A    between atoms: C_24  and  O_18 
ROOT
ATOM      1  C   UNL d   1       2.996   0.935   0.028  0.00  0.00     0.091 A 
ATOM      2  C   UNL d   1       2.619  -0.416   0.150  0.00  0.00     0.037 A 
ATOM      3  C   UNL d   1       1.990   1.899  -0.026  0.00  0.00     0.087 A 
ATOM      4  N   UNL d   1       0.681   1.557   0.006  0.00  0.00    -0.348 N 
ATOM      5  HN  UNL d   1      -0.026   2.291  -0.041  1.00  0.00     0.166 HD
ATOM      6  C   UNL d   1       1.229  -0.771   0.198  0.00  0.00     0.011 A 
ATOM      7  C   UNL d   1       0.290   0.277   0.098  0.00  0.00     0.066 A 
ATOM      8  C   UNL d   1      -1.077  -0.040   0.060  0.00  0.00     0.061 A 
ATOM      9 CL   UNL d   1      -2.273   1.206  -0.121  0.00  0.00    -0.082 Cl
ATOM     10  C   UNL d   1       0.731  -2.097   0.318  0.00  0.00     0.015 A 
ATOM     11  C   UNL d   1      -0.632  -2.387   0.295  0.00  0.00     0.003 A 
ATOM     12  C   UNL d   1      -1.543  -1.353   0.156  0.00  0.00     0.026 A 
ENDROOT
BRANCH   2  13
ATOM     13  S   UNL d   1       3.848  -1.738   0.032  0.00  0.00    -0.081 SA
BRANCH  13  14
ATOM     14  C   UNL d   1       4.458  -1.887   1.670  0.00  0.00     0.046 A 
ATOM     15  S   UNL d   1       5.826  -2.895   1.940  0.00  0.00    -0.095 SA
ATOM     16  C   UNL d   1       5.803  -2.602   3.622  0.00  0.00     0.051 A 
ATOM     17  C   UNL d   1       4.782  -1.750   3.978  0.00  0.00     0.009 A 
ATOM     18  C   UNL d   1       4.004  -1.338   2.851  0.00  0.00     0.027 A 
ENDBRANCH  13  14
ENDBRANCH   2  13
BRANCH   1  19
ATOM     19  C   UNL d   1       4.409   1.361  -0.068  0.00  0.00     0.297 C 
ATOM     20  O   UNL d   1       4.967   2.089   0.732  0.00  0.00    -0.259 OA
BRANCH  19  21
ATOM     21  O   UNL d   1       4.930   0.840  -1.206  0.00  0.00    -0.318 OA
BRANCH  21  22
ATOM     22  C   UNL d   1       6.253   1.273  -1.571  0.00  0.00     0.174 C 
ATOM     23  C   UNL d   1       7.343   0.540  -0.812  0.00  0.00     0.034 C 
ENDBRANCH  21  22
ENDBRANCH  19  21
ENDBRANCH   1  19
BRANCH   3  24
ATOM     24  S   UNL d   1       2.284   3.652  -0.230  0.00  0.00    -0.116 SA
ATOM     25  C   UNL d   1       0.582   4.301  -0.218  0.00  0.00     0.097 C 
ENDBRANCH   3  24
TORSDOF 6
