REMARK  5 active torsions:
REMARK  status: ('A' for Active; 'I' for Inactive)
REMARK    1  A    between atoms: C_11  and  C_1 
REMARK    2  A    between atoms: C_2  and  C_14 
REMARK    3  A    between atoms: C_16  and  C_7 
REMARK    4  A    between atoms: C_17  and  C_8 
REMARK       I    between atoms: N_15  and  C_11 
REMARK    5  A    between atoms: C_14  and  N_15 
ROOT
ATOM      1  C   UNL d   1       0.180  -2.625  -0.281  0.00  0.00     0.256 C 
ATOM      2  N   UNL d   1      -0.640  -3.660  -0.691  0.00  0.00    -0.352 N 
ATOM      3  O   UNL d   1      -0.276  -1.587   0.190  0.00  0.00    -0.267 OA
ATOM      4  H   UNL d   1      -0.228  -4.513  -1.037  0.00  0.00     0.163 HD
ENDROOT
BRANCH   1   5
ATOM      5  C   UNL d   1       1.612  -2.829  -0.451  0.00  0.00     0.092 A 
ATOM      6  C   UNL d   1       2.652  -1.861  -0.710  0.00  0.00     0.083 A 
ATOM      7  N   UNL d   1       3.844  -2.474  -0.774  0.00  0.00    -0.259 N 
ATOM      8  O   UNL d   1       3.633  -3.791  -0.487  0.00  0.00    -0.241 OA
ATOM      9  HN  UNL d   1       4.739  -2.038  -0.996  1.00  0.00     0.195 HD
ATOM     10  C   UNL d   1       2.317  -4.008  -0.257  0.00  0.00     0.090 A 
ATOM     11  C   UNL d   1       2.005  -5.375   0.209  0.00  0.00     0.080 C 
BRANCH   6  12
ATOM     12  C   UNL d   1       2.609  -0.401  -0.899  0.00  0.00    -0.006 A 
ATOM     13  C   UNL d   1       1.524   0.248  -1.492  0.00  0.00     0.017 A 
ATOM     14  C   UNL d   1       1.536   1.639  -1.668  0.00  0.00     0.043 A 
ATOM     15  C   UNL d   1       2.641   2.380  -1.261  0.00  0.00     0.116 A 
ATOM     16  C   UNL d   1       3.736   1.761  -0.683  0.00  0.00     0.043 A 
ATOM     17  F   UNL d   1       2.648   3.709  -1.439  0.00  0.00    -0.206 F 
ATOM     18  C   UNL d   1       3.721   0.375  -0.502  0.00  0.00     0.017 A 
ENDBRANCH   6  12
ENDBRANCH   1   5
BRANCH   2  19
ATOM     19  C   UNL d   1      -2.056  -3.689  -0.367  0.00  0.00     0.166 C 
BRANCH  19  20
ATOM     20  C   UNL d   1      -2.942  -3.995  -1.531  0.00  0.00     0.020 A 
ATOM     21  C   UNL d   1      -4.377  -4.213  -1.493  0.00  0.00     0.075 A 
ATOM     22  N   UNL d   1      -4.843  -4.440  -2.731  0.00  0.00    -0.260 N 
ATOM     23  O   UNL d   1      -3.781  -4.343  -3.581  0.00  0.00    -0.242 OA
ATOM     24  HN  UNL d   1      -5.809  -4.646  -2.988  1.00  0.00     0.195 HD
ATOM     25  C   UNL d   1      -2.653  -4.065  -2.885  0.00  0.00     0.082 A 
ATOM     26  C   UNL d   1      -1.458  -3.881  -3.732  0.00  0.00     0.079 C 
BRANCH  21  27
ATOM     27  C   UNL d   1      -5.335  -4.199  -0.376  0.00  0.00    -0.007 A 
ATOM     28  C   UNL d   1      -4.999  -4.646   0.908  0.00  0.00     0.014 A 
ATOM     29  C   UNL d   1      -5.945  -4.640   1.940  0.00  0.00     0.001 A 
ATOM     30  C   UNL d   1      -7.247  -4.209   1.699  0.00  0.00     0.000 A 
ATOM     31  C   UNL d   1      -7.607  -3.779   0.426  0.00  0.00     0.001 A 
ATOM     32  C   UNL d   1      -6.657  -3.771  -0.600  0.00  0.00     0.014 A 
ENDBRANCH  21  27
ENDBRANCH  19  20
ENDBRANCH   2  19
TORSDOF 5
