REMARK  6 active torsions:
REMARK  status: ('A' for Active; 'I' for Inactive)
REMARK    1  A    between atoms: N_6  and  S_1 
REMARK    2  A    between atoms: C_2  and  N_4 
REMARK    3  A    between atoms: N_5  and  C_2 
REMARK    4  A    between atoms: N_4  and  C_3 
REMARK    5  A    between atoms: C_8  and  N_5 
REMARK    6  A    between atoms: C_12  and  N_6 
ROOT
ATOM      1  C   UNL d   1       0.047  -0.188   5.011  0.00  0.00     0.042 A 
ATOM      2  C   UNL d   1      -0.066   0.551   3.825  0.00  0.00     0.054 A 
ATOM      3  C   UNL d   1       0.704   0.217   2.712  0.00  0.00     0.024 A 
ATOM      4  C   UNL d   1       0.914  -1.296   5.063  0.00  0.00    -0.035 A 
ATOM      5  C   UNL d   1       1.704  -1.600   3.938  0.00  0.00     0.011 A 
ATOM      6  C   UNL d   1       1.617  -0.831   2.776  0.00  0.00     0.025 A 
ATOM      7  C   UNL d   1       0.914  -2.269   6.212  0.00  0.00     0.050 C 
ENDROOT
BRANCH   1   8
ATOM      8  N   UNL d   1      -0.588   0.259   6.190  0.00  0.00    -0.333 N 
ATOM      9  H   UNL d   1      -0.155  -0.005   7.066  0.00  0.00     0.168 HD
BRANCH   8  10
ATOM     10  C   UNL d   1      -1.796   0.894   6.354  0.00  0.00     0.176 C 
ATOM     11  S   UNL d   1      -3.153   0.717   5.394  0.00  0.00    -0.041 SA
BRANCH  10  12
ATOM     12  N   UNL d   1      -1.910   1.603   7.528  0.00  0.00    -0.333 N 
ATOM     13  H   UNL d   1      -2.867   1.754   7.830  0.00  0.00     0.168 HD
BRANCH  12  14
ATOM     14  C   UNL d   1      -0.963   2.497   8.090  0.00  0.00     0.040 A 
ATOM     15  C   UNL d   1      -1.163   2.985   9.396  0.00  0.00    -0.035 A 
ATOM     16  C   UNL d   1      -2.238   2.470  10.315  0.00  0.00     0.050 C 
ATOM     17  C   UNL d   1      -0.326   4.004   9.884  0.00  0.00     0.009 A 
ATOM     18  C   UNL d   1       0.706   4.520   9.103  0.00  0.00     0.001 A 
ATOM     19  C   UNL d   1       0.923   4.013   7.828  0.00  0.00     0.002 A 
ATOM     20  C   UNL d   1       0.099   3.006   7.325  0.00  0.00     0.030 A 
ENDBRANCH  12  14
ENDBRANCH  10  12
ENDBRANCH   8  10
ENDBRANCH   1   8
BRANCH   3  21
ATOM     21  N   UNL d   1       0.622   1.004   1.529  0.00  0.00    -0.186 NA
ATOM     22  H   UNL d   1       0.730   0.487   0.654  0.00  0.00     0.145 HD
BRANCH  21  23
ATOM     23  S   UNL d   1       1.572   2.403   1.451  0.00  0.00     0.210 S 
ATOM     24  O   UNL d   1       1.942   2.539   0.058  0.00  0.00    -0.211 OA
ATOM     25  O   UNL d   1       2.575   2.388   2.495  0.00  0.00    -0.211 OA
ATOM     26  C   UNL d   1       0.373   3.662   1.819  0.00  0.00     0.180 C 
ENDBRANCH  21  23
ENDBRANCH   3  21
TORSDOF 6
