REMARK  10 active torsions:
REMARK  status: ('A' for Active; 'I' for Inactive)
REMARK    1  A    between atoms: O_2  and  S_1 
REMARK    2  A    between atoms: C_3  and  S_1 
REMARK    3  A    between atoms: C_7  and  O_2 
REMARK    4  A    between atoms: N_6  and  C_12 
REMARK    5  A    between atoms: C_8  and  N_6 
REMARK    6  A    between atoms: C_11  and  C_7 
REMARK    7  A    between atoms: C_12  and  C_11 
REMARK    8  A    between atoms: O_16  and  C_11 
REMARK    9  A    between atoms: C_24  and  S_23 
REMARK   10  A    between atoms: O_27  and  S_23 
ROOT
ATOM      1  C   UNL d   2       1.513  -1.881  -1.353  0.00  0.00     0.072 A 
ATOM      2  C   UNL d   2       0.214  -1.904  -1.863  0.00  0.00     0.026 A 
ATOM      3  C   UNL d   2       2.058  -3.003  -0.725  0.00  0.00     0.026 A 
ATOM      4  C   UNL d   2       1.313  -4.181  -0.659  0.00  0.00     0.008 A 
ATOM      5  C   UNL d   2      -0.527  -3.085  -1.791  0.00  0.00     0.008 A 
ATOM      6  C   UNL d   2       0.025  -4.236  -1.210  0.00  0.00    -0.062 A 
ATOM      7  C   UNL d   2      -0.738  -5.529  -1.242  0.00  0.00     0.048 C 
ENDROOT
BRANCH   1   8
ATOM      8  S   UNL d   2       2.514  -0.432  -1.532  0.00  0.00     0.129 S 
ATOM      9  O   UNL d   2       1.638   0.706  -1.702  0.00  0.00    -0.598 OA
ATOM     10  O   UNL d   2       3.559  -0.746  -2.482  0.00  0.00    -0.598 OA
BRANCH   8  11
ATOM     11  O   UNL d   2       3.195  -0.229  -0.085  0.00  0.00    -0.292 OA
ATOM     12  H   UNL d   2       2.824   0.591   0.304  0.00  0.00     0.232 HD
ENDBRANCH   8  11
ENDBRANCH   1   8
TORSDOF 10
