REMARK  4 active torsions:
REMARK  status: ('A' for Active; 'I' for Inactive)
REMARK    1  A    between atoms: C_2  and  C_1 
REMARK    2  A    between atoms: C_3  and  C_2 
REMARK    3  A    between atoms: N_8  and  C_4 
REMARK    4  A    between atoms: C_9  and  N_8 
ROOT
ATOM      1  C   UNL d   1       0.899  -0.002  -0.032  0.00  0.00     0.111 C 
ATOM      2  C   UNL d   1       0.237   0.869  -0.816  0.00  0.00     0.116 C 
ATOM      3  C   UNL d   1       0.216  -0.962   0.758  0.00  0.00     0.105 C 
ATOM      4  N   UNL d   1      -0.353  -1.736   1.409  0.00  0.00    -0.191 NA
ENDROOT
BRANCH   1   5
ATOM      5  C   UNL d   1       2.402   0.006  -0.080  0.00  0.00     0.210 C 
ATOM      6  O   UNL d   1       2.953   0.426  -1.099  0.00  0.00    -0.285 OA
BRANCH   5   7
ATOM      7  C   UNL d   1       3.152  -0.471   1.081  0.00  0.00     0.056 A 
ATOM      8  S   UNL d   1       4.714  -1.142   0.836  0.00  0.00    -0.098 SA
ATOM      9  C   UNL d   1       4.925  -1.449   2.503  0.00  0.00     0.050 A 
ATOM     10  C   UNL d   1       3.846  -1.028   3.244  0.00  0.00     0.009 A 
ATOM     11  C   UNL d   1       2.828  -0.452   2.427  0.00  0.00     0.023 A 
ENDBRANCH   5   7
ENDBRANCH   1   5
BRANCH   2  12
ATOM     12  N   UNL d   1      -1.118   1.069  -0.910  0.00  0.00    -0.351 N 
ATOM     13  H   UNL d   1      -1.701   0.815  -0.116  0.00  0.00     0.166 HD
BRANCH  12  14
ATOM     14  C   UNL d   1      -1.817   1.944  -1.744  0.00  0.00     0.104 A 
ATOM     15  N   UNL d   1      -3.015   2.352  -1.276  0.00  0.00    -0.352 N 
ATOM     16  C   UNL d   1      -3.738   3.200  -2.041  0.00  0.00     0.089 A 
ATOM     17  HN  UNL d   1      -3.363   2.032  -0.372  1.00  0.00     0.166 HD
ATOM     18  C   UNL d   1      -3.334   3.652  -3.283  0.00  0.00     0.017 A 
ATOM     19  C   UNL d   1      -2.112   3.210  -3.767  0.00  0.00     0.005 A 
ATOM     20  C   UNL d   1      -1.340   2.351  -2.986  0.00  0.00     0.048 A 
ENDBRANCH  12  14
ENDBRANCH   2  12
TORSDOF 4
