REMARK  3 active torsions:
REMARK  status: ('A' for Active; 'I' for Inactive)
REMARK    1  A    between atoms: C_7  and  N_1 
REMARK    2  A    between atoms: C_16  and  C_7 
REMARK    3  A    between atoms: C_19  and  C_16 
ROOT
ATOM      1  N   UNL d   1       0.167  -1.600   0.083  0.00  0.00    -0.344 N 
ATOM      2  C   UNL d   1       1.283  -0.765   0.020  0.00  0.00     0.063 A 
ATOM      3  C   UNL d   1       0.786   0.550   0.115  0.00  0.00     0.006 A 
ATOM      4  C   UNL d   1      -0.637   0.495   0.119  0.00  0.00     0.005 A 
ATOM      5  C   UNL d   1      -1.007  -0.848   0.087  0.00  0.00     0.046 A 
ATOM      6  C   UNL d   1       2.680  -0.964  -0.126  0.00  0.00     0.040 A 
ATOM      7  C   UNL d   1       3.543   0.144  -0.082  0.00  0.00     0.040 A 
ATOM      8  C   UNL d   1      -2.365  -1.219   0.050  0.00  0.00     0.032 A 
ATOM      9  C   UNL d   1       1.675   1.648   0.128  0.00  0.00     0.033 A 
ATOM     10  C   UNL d   1      -1.637   1.494   0.116  0.00  0.00     0.033 A 
ATOM     11  C   UNL d   1       3.045   1.429   0.047  0.00  0.00     0.013 A 
ATOM     12 BR   UNL d   1       3.513  -2.626  -0.493  0.00  0.00    -0.049 Br
ATOM     13  C   UNL d   1      -2.981   1.120   0.073  0.00  0.00     0.011 A 
ATOM     14  C   UNL d   1      -3.343  -0.218   0.046  0.00  0.00     0.021 A 
ATOM     15 BR   UNL d   1       4.228   2.904   0.062  0.00  0.00    -0.051 Br
ATOM     16 BR   UNL d   1      -4.319   2.456   0.034  0.00  0.00    -0.051 Br
ENDROOT
BRANCH   1  17
ATOM     17  C   UNL d   1       0.152  -3.057   0.018  0.00  0.00     0.130 C 
BRANCH  17  18
ATOM     18  C   UNL d   1       0.685  -3.843   1.228  0.00  0.00     0.024 C 
BRANCH  18  19
ATOM     19  C   UNL d   1       0.151  -3.486   2.623  0.00  0.00    -0.021 C 
ATOM     20  C   UNL d   1      -1.341  -3.765   2.782  0.00  0.00     0.009 C 
ATOM     21  C   UNL d   1       0.929  -4.297   3.670  0.00  0.00     0.009 C 
ENDBRANCH  18  19
ENDBRANCH  17  18
ENDBRANCH   1  17
TORSDOF 3
