REMARK  8 active torsions:
REMARK  status: ('A' for Active; 'I' for Inactive)
REMARK    1  A    between atoms: N_3  and  C_1 
REMARK    2  A    between atoms: N_10  and  C_1 
REMARK    3  A    between atoms: C_2  and  N_3 
REMARK    4  A    between atoms: O_14  and  C_4 
REMARK    5  A    between atoms: O_15  and  C_6 
REMARK    6  A    between atoms: C_16  and  N_10 
REMARK    7  A    between atoms: C_12  and  C_20 
REMARK    8  A    between atoms: C_20  and  C_16 
ROOT
ATOM      1  N   UNL d   1       2.474  -0.040  -0.173  0.00  0.00    -0.367 N 
ATOM      2  H   UNL d   1       2.938   0.587   0.475  0.00  0.00     0.161 HD
ENDROOT
BRANCH   1   3
ATOM      3  C   UNL d   1       1.145   0.243  -0.349  0.00  0.00     0.172 C 
ATOM      4  S   UNL d   1       0.517   1.505   0.550  0.00  0.00    -0.041 SA
BRANCH   3   5
ATOM      5  N   UNL d   1       0.482  -0.591  -1.216  0.00  0.00    -0.332 N 
ATOM      6  H   UNL d   1       0.742  -1.556  -1.082  0.00  0.00     0.168 HD
BRANCH   5   7
ATOM      7  C   UNL d   1      -0.770  -0.377  -1.851  0.00  0.00     0.046 A 
ATOM      8  C   UNL d   1      -1.040   0.810  -2.574  0.00  0.00    -0.035 A 
ATOM      9  C   UNL d   1      -2.300   0.983  -3.177  0.00  0.00     0.009 A 
ATOM     10  C   UNL d   1      -0.037   1.909  -2.815  0.00  0.00     0.050 C 
ATOM     11  C   UNL d   1      -3.259  -0.020  -3.133  0.00  0.00     0.001 A 
ATOM     12  C   UNL d   1      -2.969  -1.215  -2.489  0.00  0.00     0.009 A 
ATOM     13  C   UNL d   1      -1.725  -1.422  -1.858  0.00  0.00    -0.035 A 
ATOM     14  C   UNL d   1      -1.563  -2.737  -1.141  0.00  0.00     0.050 C 
ENDBRANCH   5   7
ENDBRANCH   3   5
ENDBRANCH   1   3
BRANCH   1  15
ATOM     15  C   UNL d   1       3.257  -1.108  -0.785  0.00  0.00     0.126 C 
BRANCH  15  16
ATOM     16  C   UNL d   1       4.750  -0.959  -0.482  0.00  0.00     0.058 C 
BRANCH  16  17
ATOM     17  C   UNL d   1       5.563  -2.145  -0.940  0.00  0.00    -0.054 A 
ATOM     18  C   UNL d   1       6.140  -2.178  -2.221  0.00  0.00     0.046 A 
ATOM     19  C   UNL d   1       6.924  -3.272  -2.635  0.00  0.00     0.102 A 
ATOM     20  C   UNL d   1       7.120  -4.344  -1.749  0.00  0.00     0.101 A 
ATOM     21  C   UNL d   1       6.507  -4.332  -0.494  0.00  0.00     0.040 A 
ATOM     22  C   UNL d   1       5.740  -3.240  -0.087  0.00  0.00     0.010 A 
BRANCH  19  23
ATOM     23  O   UNL d   1       7.455  -3.380  -3.891  0.00  0.00    -0.353 OA
ATOM     24  C   UNL d   1       7.734  -2.173  -4.587  0.00  0.00     0.210 C 
ENDBRANCH  19  23
BRANCH  20  25
ATOM     25  O   UNL d   1       7.855  -5.477  -1.997  0.00  0.00    -0.353 OA
ATOM     26  C   UNL d   1       9.053  -5.283  -2.742  0.00  0.00     0.210 C 
ENDBRANCH  20  25
ENDBRANCH  16  17
ENDBRANCH  15  16
ENDBRANCH   1  15
TORSDOF 8
