REMARK  0 active torsions:
REMARK  status: ('A' for Active; 'I' for Inactive)
ROOT
ATOM      1  N   UNL d   1      -2.356  -0.027  -0.001  0.00  0.00    -0.022 NA
ATOM      2  N   UNL d   1      -1.568  -1.096  -0.002  0.00  0.00    -0.282 N 
ATOM      3  HN  UNL d   1      -1.877  -2.068  -0.004  1.00  0.00     0.184 HD
ATOM      4  C   UNL d   1      -0.268  -0.666  -0.002  0.00  0.00     0.074 A 
ATOM      5  C   UNL d   1      -0.239   0.721   0.001  0.00  0.00     0.075 A 
ATOM      6  N   UNL d   1      -1.564   1.057   0.001  0.00  0.00    -0.282 N 
ATOM      7  C   UNL d   1       0.940   1.465   0.003  0.00  0.00     0.057 A 
ATOM      8  C   UNL d   1       2.141   0.737   0.001  0.00  0.00     0.042 A 
ATOM      9  C   UNL d   1       0.939  -1.380  -0.003  0.00  0.00     0.041 A 
ATOM     10  C   UNL d   1       2.159  -0.671  -0.003  0.00  0.00    -0.038 A 
ATOM     11 CL   UNL d   1       3.612   1.649   0.004  0.00  0.00    -0.084 Cl
ATOM     12  C   UNL d   1       3.449  -1.445  -0.007  0.00  0.00     0.050 C 
ATOM     13  H   UNL d   1      -1.993   1.974   0.002  0.00  0.00     0.184 HD
ENDROOT
TORSDOF 0
