REMARK  1 active torsions:
REMARK  status: ('A' for Active; 'I' for Inactive)
REMARK    1  A    between atoms: C_2  and  N_1 
ROOT
ATOM      1  C   UNL d   1       1.197   2.196  -0.824  0.00  0.00     0.118 A 
ATOM      2  C   UNL d   1       1.025   3.610  -0.769  0.00  0.00     0.048 A 
ATOM      3  C   UNL d   1       1.636   4.327  -1.790  0.00  0.00     0.089 A 
ATOM      4  S   UNL d   1       1.381   6.007  -1.692  0.00  0.00    -0.083 SA
ATOM      5  C   UNL d   1       0.383   4.527   0.171  0.00  0.00    -0.039 A 
ATOM      6  N   UNL d   1       1.969   1.685  -1.815  0.00  0.00    -0.338 N 
ATOM      7  HN  UNL d   1       2.137   0.681  -1.871  1.00  0.00     0.168 HD
ATOM      8  C   UNL d   1       0.491   5.843  -0.250  0.00  0.00     0.059 A 
ATOM      9  N   UNL d   1       2.379   3.836  -2.795  0.00  0.00    -0.346 N 
ATOM     10  HN  UNL d   1       2.794   4.410  -3.529  1.00  0.00     0.167 HD
ATOM     11  C   UNL d   1       2.509   2.515  -2.723  0.00  0.00     0.182 A 
ATOM     12  C   UNL d   1      -0.307   4.157   1.442  0.00  0.00     0.050 C 
ENDROOT
BRANCH   1  13
ATOM     13  N   UNL d   1       0.684   1.327   0.133  0.00  0.00    -0.362 N 
ATOM     14  C   UNL d   1       1.407   0.065   0.370  0.00  0.00     0.156 C 
ATOM     15  C   UNL d   1       0.737  -1.139  -0.321  0.00  0.00     0.136 C 
ATOM     16  C   UNL d   1       1.384  -2.446   0.123  0.00  0.00     0.041 C 
ATOM     17  O   UNL d   1      -0.654  -1.219   0.040  0.00  0.00    -0.378 OA
ATOM     18  C   UNL d   1      -1.352  -0.047  -0.407  0.00  0.00     0.136 C 
ATOM     19  C   UNL d   1      -0.780   1.231   0.239  0.00  0.00     0.156 C 
ATOM     20  C   UNL d   1      -2.816  -0.218  -0.015  0.00  0.00     0.041 C 
ENDBRANCH   1  13
TORSDOF 1
