REMARK  3 active torsions:
REMARK  status: ('A' for Active; 'I' for Inactive)
REMARK    1  A    between atoms: C_2  and  C_1 
REMARK       I    between atoms: N_4  and  C_1 
REMARK    2  A    between atoms: N_7  and  N_4 
REMARK    3  A    between atoms: O_11  and  C_8 
ROOT
ATOM      1  C   UNL d   1       0.256   0.737   0.963  0.00  0.00     0.033 A 
ATOM      2  C   UNL d   1       0.623   2.050   1.287  0.00  0.00     0.020 A 
ATOM      3  C   UNL d   1      -0.911   0.193   1.506  0.00  0.00     0.020 A 
ATOM      4  C   UNL d   1      -1.341   2.268   2.692  0.00  0.00     0.068 A 
ATOM      5  C   UNL d   1      -1.712   0.965   2.352  0.00  0.00     0.038 A 
ATOM      6  C   UNL d   1      -0.175   2.812   2.152  0.00  0.00     0.038 A 
ENDROOT
BRANCH   1   7
ATOM      7  C   UNL d   1       1.106  -0.117   0.087  0.00  0.00     0.265 C 
ATOM      8  O   UNL d   1       1.195  -1.327   0.285  0.00  0.00    -0.266 OA
ATOM      9  N   UNL d   1       1.744   0.536  -0.961  0.00  0.00    -0.290 N 
ATOM     10  H   UNL d   1       1.423   1.462  -1.247  0.00  0.00     0.183 HD
BRANCH   9  11
ATOM     11  N   UNL d   1       2.493  -0.223  -1.889  0.00  0.00    -0.247 NA
ATOM     12  H   UNL d   1       2.366  -1.214  -1.628  0.00  0.00     0.143 HD
ATOM     13  H   UNL d   1       3.486  -0.049  -1.711  0.00  0.00     0.143 HD
ENDBRANCH   9  11
ENDBRANCH   1   7
BRANCH   4  14
ATOM     14  O   UNL d   1      -2.213   2.925   3.514  0.00  0.00    -0.356 OA
ATOM     15  C   UNL d   1      -1.640   3.898   4.380  0.00  0.00     0.210 C 
ENDBRANCH   4  14
TORSDOF 3
