REMARK  6 active torsions:
REMARK  status: ('A' for Active; 'I' for Inactive)
REMARK    1  A    between atoms: C_13  and  C_1 
REMARK    2  A    between atoms: C_2  and  C_7 
REMARK    3  A    between atoms: C_16  and  C_3 
REMARK    4  A    between atoms: C_8  and  N_4 
REMARK    5  A    between atoms: N_12  and  C_13 
REMARK    6  A    between atoms: O_31  and  C_28 
ROOT
ATOM      1  N   UNL d   1       3.406  -1.963  -0.295  0.00  0.00    -0.364 N 
ATOM      2  N   UNL d   1       3.357   0.987  -0.253  0.00  0.00     0.096 N 
ATOM      3  C   UNL d   1       3.607  -1.258   0.972  0.00  0.00     0.154 C 
ATOM      4  C   UNL d   1       2.767  -1.230  -1.394  0.00  0.00     0.154 C 
ATOM      5  C   UNL d   1       4.105   0.193   0.747  0.00  0.00     0.292 C 
ATOM      6  C   UNL d   1       3.320   0.205  -1.514  0.00  0.00     0.292 C 
ENDROOT
BRANCH   2   7
ATOM      7  C   UNL d   1       2.032   1.361   0.257  0.00  0.00     0.315 C 
BRANCH   7   8
ATOM      8  C   UNL d   1       1.299   2.254  -0.695  0.00  0.00     0.016 A 
ATOM      9  C   UNL d   1       1.697   3.498  -1.296  0.00  0.00     0.067 A 
ATOM     10  N   UNL d   1       0.749   3.938  -2.144  0.00  0.00    -0.300 N 
ATOM     11  N   UNL d   1      -0.240   3.047  -2.045  0.00  0.00    -0.311 N 
ATOM     12  HN  UNL d   1       0.780   4.770  -2.734  1.00  0.00     0.187 HD
ATOM     13  C   UNL d   1       0.026   2.030  -1.186  0.00  0.00     0.118 A 
ATOM     14  H   UNL d   1      -1.078   3.199  -2.597  0.00  0.00     0.186 HD
BRANCH   9  15
ATOM     15  C   UNL d   1       2.921   4.282  -1.104  0.00  0.00    -0.007 A 
ATOM     16  C   UNL d   1       3.543   4.908  -2.193  0.00  0.00     0.016 A 
ATOM     17  C   UNL d   1       4.695   5.687  -2.016  0.00  0.00     0.037 A 
ATOM     18  C   UNL d   1       5.234   5.850  -0.741  0.00  0.00     0.068 A 
ATOM     19  C   UNL d   1       4.608   5.251   0.350  0.00  0.00     0.037 A 
ATOM     20  C   UNL d   1       3.463   4.468   0.172  0.00  0.00     0.016 A 
BRANCH  18  21
ATOM     21  O   UNL d   1       6.337   6.601  -0.432  0.00  0.00    -0.356 OA
ATOM     22  C   UNL d   1       7.285   6.769  -1.479  0.00  0.00     0.210 C 
ENDBRANCH  18  21
ENDBRANCH   9  15
ENDBRANCH   7   8
ENDBRANCH   2   7
BRANCH   1  23
ATOM     23  C   UNL d   1       3.881  -3.237  -0.507  0.00  0.00     0.103 A 
ATOM     24  N   UNL d   1       4.305  -3.573  -1.744  0.00  0.00    -0.352 N 
ATOM     25  C   UNL d   1       4.841  -4.803  -1.947  0.00  0.00     0.106 A 
ATOM     26  HN  UNL d   1       4.224  -2.911  -2.516  1.00  0.00     0.166 HD
ATOM     27  C   UNL d   1       4.959  -5.770  -0.966  0.00  0.00     0.063 A 
ATOM     28  C   UNL d   1       4.473  -5.444   0.297  0.00  0.00     0.021 A 
ATOM     29  C   UNL d   1       3.942  -4.173   0.525  0.00  0.00     0.049 A 
BRANCH  27  30
ATOM     30  C   UNL d   1       5.586  -7.097  -1.252  0.00  0.00     0.418 C 
ATOM     31  F   UNL d   1       6.027  -7.232  -2.533  0.00  0.00    -0.166 F 
ATOM     32  F   UNL d   1       6.668  -7.340  -0.459  0.00  0.00    -0.166 F 
ATOM     33  F   UNL d   1       4.732  -8.136  -1.040  0.00  0.00    -0.166 F 
ENDBRANCH  27  30
ENDBRANCH   1  23
TORSDOF 6
