REMARK  7 active torsions:
REMARK  status: ('A' for Active; 'I' for Inactive)
REMARK    1  A    between atoms: C_8  and  C_1 
REMARK    2  A    between atoms: C_7  and  C_2 
REMARK    3  A    between atoms: C_9  and  C_3 
REMARK    4  A    between atoms: O_14  and  C_7 
REMARK    5  A    between atoms: O_15  and  C_8 
REMARK    6  A    between atoms: C_21  and  O_14 
REMARK    7  A    between atoms: C_22  and  O_15 
ROOT
ATOM      1  C   UNL d   1      -1.284  -1.034   0.123  0.00  0.00     0.052 C 
ATOM      2  C   UNL d   1       1.281  -1.005   0.099  0.00  0.00     0.052 C 
ATOM      3  C   UNL d   1       0.008  -1.838  -0.080  0.00  0.00     0.100 C 
ATOM      4  C   UNL d   1      -1.246   0.322   0.093  0.00  0.00     0.018 C 
ATOM      5  C   UNL d   1       1.215   0.347   0.082  0.00  0.00     0.018 C 
ATOM      6  N   UNL d   1      -0.019   0.967  -0.021  0.00  0.00    -0.362 N 
ATOM      7  C   UNL d   1      -2.424   1.261   0.175  0.00  0.00     0.069 C 
ATOM      8  C   UNL d   1       2.414   1.258   0.154  0.00  0.00     0.069 C 
ATOM      9  H   UNL d   1      -0.033   1.984  -0.014  0.00  0.00     0.165 HD
ENDROOT
BRANCH   3  10
ATOM     10  C   UNL d   1      -0.007  -2.490  -1.471  0.00  0.00    -0.045 A 
ATOM     11  C   UNL d   1      -0.099  -3.881  -1.612  0.00  0.00     0.009 A 
ATOM     12  C   UNL d   1      -0.121  -4.466  -2.880  0.00  0.00     0.007 A 
ATOM     13  C   UNL d   1      -0.052  -3.675  -4.035  0.00  0.00    -0.062 A 
ATOM     14  C   UNL d   1       0.033  -2.287  -3.898  0.00  0.00     0.007 A 
ATOM     15  C   UNL d   1      -0.079  -4.309  -5.392  0.00  0.00     0.048 C 
ATOM     16  C   UNL d   1       0.052  -1.703  -2.632  0.00  0.00     0.009 A 
ENDBRANCH   3  10
BRANCH   2  17
ATOM     17  C   UNL d   1       2.576  -1.729   0.214  0.00  0.00     0.292 C 
ATOM     18  O   UNL d   1       3.668  -1.256  -0.062  0.00  0.00    -0.259 OA
BRANCH  17  19
ATOM     19  O   UNL d   1       2.365  -3.001   0.642  0.00  0.00    -0.318 OA
BRANCH  19  20
ATOM     20  C   UNL d   1       3.494  -3.881   0.545  0.00  0.00     0.174 C 
ATOM     21  C   UNL d   1       3.493  -4.527  -0.829  0.00  0.00     0.034 C 
ENDBRANCH  19  20
ENDBRANCH  17  19
ENDBRANCH   2  17
BRANCH   1  22
ATOM     22  C   UNL d   1      -2.539  -1.818   0.306  0.00  0.00     0.292 C 
ATOM     23  O   UNL d   1      -3.664  -1.425   0.042  0.00  0.00    -0.259 OA
BRANCH  22  24
ATOM     24  O   UNL d   1      -2.252  -3.037   0.836  0.00  0.00    -0.318 OA
BRANCH  24  25
ATOM     25  C   UNL d   1      -3.374  -3.895   1.099  0.00  0.00     0.174 C 
ATOM     26  C   UNL d   1      -3.846  -4.581  -0.171  0.00  0.00     0.034 C 
ENDBRANCH  24  25
ENDBRANCH  22  24
ENDBRANCH   1  22
TORSDOF 7
