REMARK  3 active torsions:
REMARK  status: ('A' for Active; 'I' for Inactive)
REMARK    1  A    between atoms: C_2  and  C_3 
REMARK    2  A    between atoms: C_3  and  O_9 
REMARK    3  A    between atoms: O_9  and  N_6 
ROOT
ATOM      1  C   UNL d   1       2.158   0.818   0.329  0.00  0.00     0.020 A 
ATOM      2  C   UNL d   1       1.955  -0.338   1.054  0.00  0.00     0.065 A 
ATOM      3  N   UNL d   1       1.014   2.746  -0.668  0.00  0.00    -0.261 N 
ATOM      4  HN  UNL d   1       0.207   3.164  -1.131  1.00  0.00     0.194 HD
ATOM      5  C   UNL d   1       1.005   1.548  -0.170  0.00  0.00     0.045 C 
ATOM      6  O   UNL d   1       3.125  -0.915   1.415  0.00  0.00    -0.326 OA
ATOM      7  C   UNL d   1       3.564   0.955   0.234  0.00  0.00     0.040 A 
ATOM      8  C   UNL d   1       4.105  -0.118   0.910  0.00  0.00     0.143 A 
ATOM      9  C   UNL d   1       0.674  -0.983   1.423  0.00  0.00     0.066 C 
ATOM     10  C   UNL d   1      -0.334   0.805  -0.099  0.00  0.00     0.060 C 
ATOM     11  C   UNL d   1      -0.465   0.035   1.228  0.00  0.00     0.013 C 
ENDROOT
BRANCH   3  12
ATOM     12  O   UNL d   1       2.242   3.412  -0.507  0.00  0.00    -0.195 OA
BRANCH  12  13
ATOM     13  C   UNL d   1       2.167   4.641  -1.084  0.00  0.00     0.316 C 
ATOM     14  O   UNL d   1       1.453   4.976  -2.024  0.00  0.00    -0.257 OA
BRANCH  13  15
ATOM     15  C   UNL d   1       3.128   5.589  -0.468  0.00  0.00     0.063 A 
ATOM     16  C   UNL d   1       3.448   5.628   0.900  0.00  0.00     0.052 A 
ATOM     17  C   UNL d   1       4.274   6.646   1.397  0.00  0.00     0.048 A 
ATOM     18 CL   UNL d   1       2.826   4.521   2.073  0.00  0.00    -0.083 Cl
ATOM     19  C   UNL d   1       4.775   7.625   0.542  0.00  0.00     0.035 A 
ATOM     20  C   UNL d   1       4.473   7.594  -0.816  0.00  0.00     0.025 A 
ATOM     21 CL   UNL d   1       5.748   8.894   1.174  0.00  0.00    -0.084 Cl
ATOM     22  C   UNL d   1       3.652   6.582  -1.317  0.00  0.00     0.021 A 
ENDBRANCH  13  15
ENDBRANCH  12  13
ENDBRANCH   3  12
TORSDOF 3
