REMARK  8 active torsions:
REMARK  status: ('A' for Active; 'I' for Inactive)
REMARK    1  A    between atoms: C_9  and  N_1 
REMARK    2  A    between atoms: S_10  and  C_5 
REMARK    3  A    between atoms: C_14  and  S_10 
REMARK    4  A    between atoms: C_12  and  C_14 
REMARK    5  A    between atoms: C_18  and  C_12 
REMARK    6  A    between atoms: O_21  and  C_22 
REMARK    7  A    between atoms: C_23  and  O_21 
REMARK    8  A    between atoms: C_26  and  C_23 
ROOT
ATOM      1  N   UNL d   1      -0.267  -1.279  -0.095  0.00  0.00    -0.273 N 
ATOM      2  C   UNL d   1       0.967  -0.642   0.002  0.00  0.00     0.163 A 
ATOM      3  N   UNL d   1       0.798   0.665   0.057  0.00  0.00    -0.281 N 
ATOM      4  HN  UNL d   1       1.536   1.359   0.174  1.00  0.00     0.188 HD
ATOM      5  C   UNL d   1      -1.170  -0.222  -0.167  0.00  0.00     0.168 A 
ATOM      6  N   UNL d   1      -0.541   0.928  -0.069  0.00  0.00    -0.278 N 
ATOM      7  HN  UNL d   1      -0.972   1.852  -0.084  1.00  0.00     0.189 HD
ATOM      8  C   UNL d   1       2.257  -1.264  -0.043  0.00  0.00     0.120 A 
ATOM      9  O   UNL d   1       2.517  -2.401  -0.768  0.00  0.00    -0.319 OA
ATOM     10  C   UNL d   1       3.426  -0.879   0.594  0.00  0.00     0.043 A 
ATOM     11  C   UNL d   1       3.810  -2.748  -0.557  0.00  0.00     0.142 A 
ATOM     12  C   UNL d   1       4.415  -1.845   0.280  0.00  0.00     0.027 A 
ENDROOT
BRANCH   1  13
ATOM     13  C   UNL d   1      -0.527  -2.683  -0.065  0.00  0.00     0.043 A 
ATOM     14  C   UNL d   1       0.247  -3.541   0.734  0.00  0.00     0.033 A 
ATOM     15  C   UNL d   1      -0.016  -4.914   0.763  0.00  0.00     0.039 A 
ATOM     16  C   UNL d   1      -1.074  -5.441   0.028  0.00  0.00     0.069 A 
ATOM     17  C   UNL d   1      -1.818  -4.598  -0.801  0.00  0.00     0.039 A 
ATOM     18  C   UNL d   1      -1.549  -3.227  -0.846  0.00  0.00     0.033 A 
BRANCH  16  19
ATOM     19  O   UNL d   1      -1.305  -6.783   0.188  0.00  0.00    -0.347 OA
BRANCH  19  20
ATOM     20  C   UNL d   1      -2.656  -7.175  -0.069  0.00  0.00     0.214 C 
BRANCH  20  21
ATOM     21  C   UNL d   1      -2.989  -8.502   0.569  0.00  0.00    -0.034 A 
ATOM     22  C   UNL d   1      -4.270  -8.697   1.107  0.00  0.00     0.009 A 
ATOM     23  C   UNL d   1      -4.635  -9.933   1.646  0.00  0.00     0.001 A 
ATOM     24  C   UNL d   1      -3.725 -10.984   1.644  0.00  0.00     0.000 A 
ATOM     25  C   UNL d   1      -2.451 -10.806   1.106  0.00  0.00     0.001 A 
ATOM     26  C   UNL d   1      -2.084  -9.570   0.566  0.00  0.00     0.009 A 
ENDBRANCH  20  21
ENDBRANCH  19  20
ENDBRANCH  16  19
ENDBRANCH   1  13
BRANCH   5  27
ATOM     27  S   UNL d   1      -2.903  -0.367  -0.094  0.00  0.00    -0.084 SA
BRANCH  27  28
ATOM     28  C   UNL d   1      -3.449   1.109  -1.002  0.00  0.00     0.166 C 
BRANCH  28  29
ATOM     29  C   UNL d   1      -3.151   1.046  -2.493  0.00  0.00     0.169 C 
ATOM     30  O   UNL d   1      -2.537   0.121  -3.024  0.00  0.00    -0.291 OA
BRANCH  29  31
ATOM     31  C   UNL d   1      -3.660   2.162  -3.361  0.00  0.00     0.010 A 
ATOM     32  C   UNL d   1      -4.527   3.156  -2.887  0.00  0.00     0.015 A 
ATOM     33  C   UNL d   1      -4.993   4.157  -3.746  0.00  0.00     0.001 A 
ATOM     34  C   UNL d   1      -4.595   4.175  -5.084  0.00  0.00     0.000 A 
ATOM     35  C   UNL d   1      -3.731   3.194  -5.564  0.00  0.00     0.001 A 
ATOM     36  C   UNL d   1      -3.268   2.191  -4.709  0.00  0.00     0.015 A 
ENDBRANCH  29  31
ENDBRANCH  28  29
ENDBRANCH  27  28
ENDBRANCH   5  27
TORSDOF 8
