REMARK  5 active torsions:
REMARK  status: ('A' for Active; 'I' for Inactive)
REMARK    1  A    between atoms: C_7  and  C_1 
REMARK    2  A    between atoms: C_2  and  C_8 
REMARK    3  A    between atoms: C_8  and  C_7 
REMARK    4  A    between atoms: O_19  and  C_7 
REMARK    5  A    between atoms: O_20  and  C_8 
ROOT
ATOM      1  C   UNL d   1      -4.544  -1.089   0.050  0.00  0.00     0.221 C 
ENDROOT
BRANCH   1   2
ATOM      2  C   UNL d   1      -4.530  -2.588   0.042  0.00  0.00     0.114 A 
ATOM      3  N   UNL d   1      -4.655  -3.390  -0.999  0.00  0.00    -0.342 N 
ATOM      4  C   UNL d   1      -4.671  -4.664  -0.482  0.00  0.00     0.062 A 
ATOM      5  HN  UNL d   1      -4.725  -3.121  -1.981  1.00  0.00     0.167 HD
ATOM      6  C   UNL d   1      -4.793  -5.891  -1.143  0.00  0.00     0.055 A 
ATOM      7  C   UNL d   1      -4.568  -4.637   0.905  0.00  0.00     0.060 A 
ATOM      8  C   UNL d   1      -4.820  -7.054  -0.367  0.00  0.00     0.036 A 
ATOM      9 CL   UNL d   1      -4.972  -8.582  -1.150  0.00  0.00    -0.084 Cl
ATOM     10  C   UNL d   1      -4.731  -7.004   1.026  0.00  0.00     0.026 A 
ATOM     11  C   UNL d   1      -4.601  -5.784   1.699  0.00  0.00     0.033 A 
ATOM     12  N   UNL d   1      -4.446  -3.308   1.210  0.00  0.00    -0.342 N 
ATOM     13  H   UNL d   1      -4.373  -2.897   2.131  0.00  0.00     0.167 HD
ENDBRANCH   1   2
BRANCH   1  14
ATOM     14  C   UNL d   1      -5.285  -0.502  -1.178  0.00  0.00     0.221 C 
BRANCH  14  15
ATOM     15  C   UNL d   1      -6.735  -0.890  -1.205  0.00  0.00     0.114 A 
ATOM     16  N   UNL d   1      -7.734  -0.227  -0.654  0.00  0.00    -0.342 N 
ATOM     17  C   UNL d   1      -8.851  -0.997  -0.884  0.00  0.00     0.062 A 
ATOM     18  HN  UNL d   1      -7.688   0.666  -0.164  1.00  0.00     0.167 HD
ATOM     19  C   UNL d   1     -10.185  -0.764  -0.524  0.00  0.00     0.055 A 
ATOM     20  C   UNL d   1      -8.518  -2.168  -1.557  0.00  0.00     0.060 A 
ATOM     21  C   UNL d   1     -11.133  -1.739  -0.850  0.00  0.00     0.036 A 
ATOM     22 CL   UNL d   1     -12.782  -1.489  -0.412  0.00  0.00    -0.084 Cl
ATOM     23  C   UNL d   1     -10.774  -2.914  -1.516  0.00  0.00     0.026 A 
ATOM     24  C   UNL d   1      -9.447  -3.156  -1.888  0.00  0.00     0.033 A 
ATOM     25  N   UNL d   1      -7.166  -2.072  -1.758  0.00  0.00    -0.342 N 
ATOM     26  H   UNL d   1      -6.563  -2.779  -2.159  0.00  0.00     0.167 HD
ENDBRANCH  14  15
BRANCH  14  27
ATOM     27  O   UNL d   1      -5.244   0.932  -1.144  0.00  0.00    -0.385 OA
ATOM     28  H   UNL d   1      -6.050   1.213  -0.666  0.00  0.00     0.210 HD
ENDBRANCH  14  27
ENDBRANCH   1  14
BRANCH   1  29
ATOM     29  O   UNL d   1      -5.127  -0.693   1.306  0.00  0.00    -0.385 OA
ATOM     30  H   UNL d   1      -6.097  -0.741   1.198  0.00  0.00     0.210 HD
ENDBRANCH   1  29
TORSDOF 5
