REMARK  9 active torsions:
REMARK  status: ('A' for Active; 'I' for Inactive)
REMARK    1  A    between atoms: O_7  and  C_2 
REMARK    2  A    between atoms: C_3  and  C_14 
REMARK    3  A    between atoms: C_4  and  C_16 
REMARK    4  A    between atoms: C_14  and  O_7 
REMARK    5  A    between atoms: O_12  and  C_8 
REMARK    6  A    between atoms: S_10  and  C_9 
REMARK    7  A    between atoms: C_13  and  S_10 
REMARK    8  A    between atoms: C_11  and  C_13 
REMARK    9  A    between atoms: C_16  and  O_12 
ROOT
ATOM      1  C   UNL d   1      -0.618  -0.073  -0.033  0.00  0.00     0.112 A 
ATOM      2  C   UNL d   1      -0.006   1.197   0.085  0.00  0.00     0.109 A 
ATOM      3  C   UNL d   1      -2.048  -0.225  -0.021  0.00  0.00     0.105 C 
ATOM      4  N   UNL d   1      -3.203  -0.305  -0.029  0.00  0.00    -0.191 NA
ATOM      5  C   UNL d   1       0.173  -1.240  -0.135  0.00  0.00     0.092 A 
ATOM      6  C   UNL d   1       1.404   1.277   0.181  0.00  0.00     0.035 A 
ATOM      7  C   UNL d   1       1.557  -1.147  -0.006  0.00  0.00     0.040 A 
ATOM      8  C   UNL d   1       2.163   0.098   0.146  0.00  0.00     0.024 A 
ENDROOT
BRANCH   2   9
ATOM      9  O   UNL d   1      -0.683   2.387   0.191  0.00  0.00    -0.339 OA
BRANCH   9  10
ATOM     10  C   UNL d   1      -1.794   2.637  -0.685  0.00  0.00     0.293 C 
BRANCH  10  11
ATOM     11  C   UNL d   1      -1.858   4.098  -1.130  0.00  0.00     0.408 C 
ATOM     12  F   UNL d   1      -0.702   4.763  -0.910  0.00  0.00    -0.169 F 
ATOM     13  F   UNL d   1      -2.120   4.181  -2.456  0.00  0.00    -0.169 F 
ATOM     14  F   UNL d   1      -2.840   4.767  -0.483  0.00  0.00    -0.169 F 
ENDBRANCH  10  11
ENDBRANCH   9  10
ENDBRANCH   2   9
BRANCH   5  15
ATOM     15  O   UNL d   1      -0.488  -2.427  -0.363  0.00  0.00    -0.341 OA
BRANCH  15  16
ATOM     16  C   UNL d   1       0.305  -3.540  -0.809  0.00  0.00     0.293 C 
BRANCH  16  17
ATOM     17  C   UNL d   1      -0.543  -4.676  -1.378  0.00  0.00     0.408 C 
ATOM     18  F   UNL d   1      -1.863  -4.518  -1.151  0.00  0.00    -0.169 F 
ATOM     19  F   UNL d   1      -0.366  -4.780  -2.716  0.00  0.00    -0.169 F 
ATOM     20  F   UNL d   1      -0.174  -5.860  -0.834  0.00  0.00    -0.169 F 
ENDBRANCH  16  17
ENDBRANCH  15  16
ENDBRANCH   5  15
BRANCH   6  21
ATOM     21  S   UNL d   1       2.377   2.792   0.211  0.00  0.00    -0.122 SA
BRANCH  21  22
ATOM     22  C   UNL d   1       1.546   3.787   1.495  0.00  0.00     0.119 C 
BRANCH  22  23
ATOM     23  C   UNL d   1       2.283   5.079   1.766  0.00  0.00    -0.027 A 
ATOM     24  C   UNL d   1       3.071   5.294   2.906  0.00  0.00     0.041 A 
ATOM     25 CL   UNL d   1       3.332   4.061   4.088  0.00  0.00    -0.084 Cl
ATOM     26  C   UNL d   1       3.672   6.538   3.129  0.00  0.00     0.024 A 
ATOM     27  C   UNL d   1       3.511   7.576   2.211  0.00  0.00     0.002 A 
ATOM     28  C   UNL d   1       2.758   7.370   1.060  0.00  0.00     0.001 A 
ATOM     29  C   UNL d   1       2.151   6.133   0.839  0.00  0.00     0.009 A 
ENDBRANCH  22  23
ENDBRANCH  21  22
ENDBRANCH   6  21
TORSDOF 9
