REMARK  4 active torsions:
REMARK  status: ('A' for Active; 'I' for Inactive)
REMARK    1  A    between atoms: C_3  and  C_1 
REMARK    2  A    between atoms: N_14  and  C_2 
REMARK    3  A    between atoms: C_10  and  C_8 
REMARK    4  A    between atoms: O_20  and  C_17 
ROOT
ATOM      1  C   UNL d   1      -1.298   1.080   1.976  0.00  0.00     0.155 A 
ATOM      2  C   UNL d   1       0.965   1.060   2.342  0.00  0.00     0.121 A 
ATOM      3  N   UNL d   1      -0.102   1.597   1.701  0.00  0.00    -0.329 N 
ATOM      4  HN  UNL d   1       0.006   2.365   1.038  1.00  0.00     0.168 HD
ATOM      5  N   UNL d   1      -1.521   0.105   2.854  0.00  0.00    -0.332 N 
ATOM      6  HN  UNL d   1      -2.468  -0.224   3.045  1.00  0.00     0.168 HD
ATOM      7  C   UNL d   1      -0.455  -0.435   3.484  0.00  0.00     0.046 A 
ATOM      8  C   UNL d   1       0.826   0.022   3.245  0.00  0.00     0.064 A 
ENDROOT
BRANCH   7   9
ATOM      9  C   UNL d   1      -0.754  -1.493   4.471  0.00  0.00    -0.009 A 
ATOM     10  C   UNL d   1       0.132  -2.556   4.727  0.00  0.00     0.016 A 
ATOM     11  C   UNL d   1      -0.147  -3.527   5.701  0.00  0.00     0.037 A 
ATOM     12  C   UNL d   1      -1.327  -3.459   6.438  0.00  0.00     0.068 A 
ATOM     13  C   UNL d   1      -2.220  -2.419   6.197  0.00  0.00     0.037 A 
ATOM     14  C   UNL d   1      -1.944  -1.458   5.218  0.00  0.00     0.016 A 
BRANCH  12  15
ATOM     15  O   UNL d   1      -1.689  -4.317   7.438  0.00  0.00    -0.356 OA
ATOM     16  C   UNL d   1      -1.156  -5.633   7.353  0.00  0.00     0.210 C 
ENDBRANCH  12  15
ENDBRANCH   7   9
BRANCH   1  17
ATOM     17  N   UNL d   1      -2.390   1.636   1.345  0.00  0.00    -0.274 NA
ATOM     18  H   UNL d   1      -2.188   2.584   1.065  0.00  0.00     0.127 HD
ATOM     19  H   UNL d   1      -3.224   1.477   1.892  0.00  0.00     0.127 HD
ENDBRANCH   1  17
BRANCH   2  20
ATOM     20  C   UNL d   1       2.354   1.616   2.080  0.00  0.00     0.432 C 
ATOM     21  F   UNL d   1       2.387   2.683   1.235  0.00  0.00    -0.165 F 
ATOM     22  F   UNL d   1       3.193   0.684   1.543  0.00  0.00    -0.165 F 
ATOM     23  F   UNL d   1       2.965   2.034   3.228  0.00  0.00    -0.165 F 
ENDBRANCH   2  20
TORSDOF 4
