REMARK  4 active torsions:
REMARK  status: ('A' for Active; 'I' for Inactive)
REMARK       I    between atoms: N_2  and  C_1 
REMARK       I    between atoms: N_3  and  C_1 
REMARK    1  A    between atoms: C_5  and  N_2 
REMARK    2  A    between atoms: C_9  and  N_3 
REMARK    3  A    between atoms: C_12  and  N_3 
REMARK    4  A    between atoms: C_10  and  C_12 
ROOT
ATOM      1  N   UNL d   1      -1.236   1.628  -3.502  0.00  0.00    -0.197 NA
ATOM      2  C   UNL d   1      -1.458   1.110  -2.481  0.00  0.00     0.060 C 
ATOM      3  C   UNL d   1      -1.773   0.473  -1.185  0.00  0.00     0.144 C 
ENDROOT
BRANCH   3   4
ATOM      4  C   UNL d   1      -1.006  -0.849  -0.965  0.00  0.00     0.142 C 
BRANCH   4   5
ATOM      5  N   UNL d   1       0.468  -0.736  -0.988  0.00  0.00    -0.329 N 
ATOM      6  C   UNL d   1       1.024   0.014   0.061  0.00  0.00     0.323 C 
ATOM      7  N   UNL d   1       2.371   0.267  -0.053  0.00  0.00    -0.307 N 
ATOM      8  O   UNL d   1       0.328   0.437   0.982  0.00  0.00    -0.247 OA
ATOM      9  H   UNL d   1       2.694   0.420  -1.000  0.00  0.00     0.170 HD
BRANCH   7  10
ATOM     10  C   UNL d   1       3.136   0.919   0.948  0.00  0.00     0.058 A 
ATOM     11  C   UNL d   1       4.148   1.817   0.572  0.00  0.00     0.060 A 
ATOM     12 CL   UNL d   1       4.454   2.163  -1.095  0.00  0.00    -0.082 Cl
ATOM     13  C   UNL d   1       4.898   2.491   1.540  0.00  0.00     0.026 A 
ATOM     14  C   UNL d   1       4.672   2.244   2.893  0.00  0.00     0.002 A 
ATOM     15  C   UNL d   1       3.695   1.327   3.277  0.00  0.00     0.002 A 
ATOM     16  C   UNL d   1       2.926   0.671   2.310  0.00  0.00     0.031 A 
ENDBRANCH   7  10
BRANCH   5  17
ATOM     17  C   UNL d   1       1.284  -1.639  -1.854  0.00  0.00     0.080 C 
ATOM     18  C   UNL d   1       2.062  -2.681  -1.033  0.00  0.00     0.032 C 
ATOM     19  C   UNL d   1       0.509  -2.380  -2.952  0.00  0.00     0.032 C 
ENDBRANCH   5  17
ENDBRANCH   4   5
ENDBRANCH   3   4
TORSDOF 4
