REMARK  2 active torsions:
REMARK  status: ('A' for Active; 'I' for Inactive)
REMARK    1  A    between atoms: N_2  and  C_1 
REMARK    2  A    between atoms: C_15  and  N_4 
ROOT
ATOM      1  C   UNL d   1       0.172  -1.264   0.013  0.00  0.00     0.141 A 
ATOM      2  C   UNL d   1       0.443  -0.477  -1.126  0.00  0.00     0.158 A 
ATOM      3  C   UNL d   1       0.321  -0.994  -2.460  0.00  0.00     0.121 C 
ATOM      4  N   UNL d   1       0.190  -1.421  -3.532  0.00  0.00    -0.190 NA
ATOM      5  N   UNL d   1       0.417  -0.735   1.242  0.00  0.00    -0.349 N 
ATOM      6  HN  UNL d   1       0.229  -1.266   2.092  1.00  0.00     0.167 HD
ATOM      7  N   UNL d   1       0.938   0.796  -1.070  0.00  0.00    -0.353 N 
ATOM      8  HN  UNL d   1       1.113   1.350  -1.908  1.00  0.00     0.166 HD
ATOM      9  C   UNL d   1       0.918   0.522   1.298  0.00  0.00     0.106 A 
ATOM     10  C   UNL d   1       1.178   1.269   0.168  0.00  0.00     0.106 A 
ENDROOT
BRANCH   1  11
ATOM     11  N   UNL d   1      -0.202  -2.598  -0.051  0.00  0.00    -0.362 N 
ATOM     12  C   UNL d   1       0.025  -3.422   1.157  0.00  0.00     0.144 C 
ATOM     13  C   UNL d   1       0.177  -4.907   0.738  0.00  0.00     0.143 C 
ATOM     14  N   UNL d   1      -0.966  -5.342  -0.091  0.00  0.00    -0.378 N 
ATOM     15  C   UNL d   1      -1.298  -4.455  -1.225  0.00  0.00     0.143 C 
ATOM     16  C   UNL d   1      -1.446  -2.991  -0.748  0.00  0.00     0.144 C 
BRANCH  14  17
ATOM     17  C   UNL d   1      -1.763  -6.400   0.292  0.00  0.00     0.030 A 
ATOM     18  C   UNL d   1      -1.213  -7.548   0.884  0.00  0.00     0.029 A 
ATOM     19  C   UNL d   1      -2.006  -8.633   1.273  0.00  0.00     0.002 A 
ATOM     20  C   UNL d   1      -3.381  -8.593   1.078  0.00  0.00     0.000 A 
ATOM     21  C   UNL d   1      -3.955  -7.471   0.493  0.00  0.00     0.002 A 
ATOM     22  C   UNL d   1      -3.153  -6.392   0.105  0.00  0.00     0.029 A 
ENDBRANCH  14  17
ENDBRANCH   1  11
TORSDOF 2
