REMARK  4 active torsions:
REMARK  status: ('A' for Active; 'I' for Inactive)
REMARK    1  A    between atoms: C_8  and  C_4 
REMARK    2  A    between atoms: C_9  and  C_5 
REMARK    3  A    between atoms: N_14  and  C_12 
REMARK    4  A    between atoms: N_15  and  C_13 
ROOT
ATOM      1  C   UNL d   1      -1.279  -0.048   0.136  0.00  0.00    -0.007 C 
ATOM      2  C   UNL d   1       1.286   0.038   0.175  0.00  0.00    -0.007 C 
ATOM      3  C   UNL d   1       0.032  -0.770  -0.004  0.00  0.00     0.184 C 
ATOM      4  C   UNL d   1      -2.374  -0.815   0.270  0.00  0.00     0.024 C 
ATOM      5  C   UNL d   1       2.439  -0.649   0.322  0.00  0.00     0.024 C 
ATOM      6  O   UNL d   1       0.078  -1.969  -0.265  0.00  0.00    -0.287 OA
ATOM      7  C   UNL d   1       1.188   1.539   0.190  0.00  0.00     0.043 C 
ATOM      8  C   UNL d   1      -1.297   1.455   0.112  0.00  0.00     0.043 C 
ATOM      9  C   UNL d   1      -0.051   2.036  -0.539  0.00  0.00     0.009 C 
ENDROOT
BRANCH   4  10
ATOM     10  C   UNL d   1      -3.746  -0.320   0.463  0.00  0.00    -0.014 A 
ATOM     11  C   UNL d   1      -4.293  -0.049   1.722  0.00  0.00     0.046 A 
ATOM     12  C   UNL d   1      -5.630   0.363   1.847  0.00  0.00     0.054 A 
ATOM     13 CL   UNL d   1      -3.360  -0.202   3.172  0.00  0.00    -0.083 Cl
ATOM     14  C   UNL d   1      -6.473   0.527   0.735  0.00  0.00     0.031 A 
ATOM     15  C   UNL d   1      -5.893   0.281  -0.519  0.00  0.00     0.030 A 
ATOM     16  C   UNL d   1      -4.558  -0.137  -0.659  0.00  0.00     0.015 A 
BRANCH  14  17
ATOM     17  N   UNL d   1      -7.785   0.946   0.886  0.00  0.00    -0.390 N 
ATOM     18  C   UNL d   1      -8.592   0.500   2.022  0.00  0.00     0.149 C 
ATOM     19  C   UNL d   1      -8.535   1.574  -0.196  0.00  0.00     0.149 C 
ENDBRANCH  14  17
ENDBRANCH   4  10
BRANCH   5  20
ATOM     20  C   UNL d   1       3.733  -0.013   0.604  0.00  0.00    -0.014 A 
ATOM     21  C   UNL d   1       4.182   0.236   1.907  0.00  0.00     0.046 A 
ATOM     22  C   UNL d   1       5.375   0.941   2.132  0.00  0.00     0.054 A 
ATOM     23 CL   UNL d   1       3.286  -0.293   3.291  0.00  0.00    -0.083 Cl
ATOM     24  C   UNL d   1       6.166   1.424   1.079  0.00  0.00     0.031 A 
ATOM     25  C   UNL d   1       5.720   1.122  -0.218  0.00  0.00     0.030 A 
ATOM     26  C   UNL d   1       4.529   0.417  -0.457  0.00  0.00     0.015 A 
BRANCH  24  27
ATOM     27  N   UNL d   1       7.301   2.184   1.300  0.00  0.00    -0.390 N 
ATOM     28  C   UNL d   1       8.448   2.147   0.398  0.00  0.00     0.149 C 
ATOM     29  C   UNL d   1       7.492   2.959   2.523  0.00  0.00     0.149 C 
ENDBRANCH  24  27
ENDBRANCH   5  20
TORSDOF 4
