REMARK  6 active torsions:
REMARK  status: ('A' for Active; 'I' for Inactive)
REMARK    1  A    between atoms: C_2  and  C_1 
REMARK    2  A    between atoms: C_3  and  O_14 
REMARK    3  A    between atoms: N_9  and  C_4 
REMARK    4  A    between atoms: N_7  and  N_9 
REMARK    5  A    between atoms: O_14  and  C_25 
REMARK    6  A    between atoms: C_19  and  C_16 
ROOT
ATOM      1  N   UNL d   1      -1.592  -4.710  -4.335  0.00  0.00    -0.303 N 
ATOM      2  HN  UNL d   1      -1.704  -5.050  -3.380  1.00  0.00     0.186 HD
ATOM      3  C   UNL d   1      -1.209  -5.529  -5.274  0.00  0.00     0.032 C 
ATOM      4  C   UNL d   1      -1.037  -5.168  -6.736  0.00  0.00     0.070 C 
ENDROOT
BRANCH   3   5
ATOM      5  C   UNL d   1      -0.860  -6.941  -4.868  0.00  0.00    -0.012 A 
ATOM      6  C   UNL d   1      -0.814  -7.265  -3.504  0.00  0.00     0.016 A 
ATOM      7  C   UNL d   1      -0.395  -8.528  -3.082  0.00  0.00     0.038 A 
ATOM      8  C   UNL d   1      -0.014  -9.487  -4.017  0.00  0.00     0.076 A 
ATOM      9  C   UNL d   1      -0.133  -9.206  -5.380  0.00  0.00     0.038 A 
ATOM     10  C   UNL d   1      -0.534  -7.932  -5.803  0.00  0.00     0.016 A 
BRANCH   8  11
ATOM     11  O   UNL d   1       0.469 -10.665  -3.490  0.00  0.00    -0.307 OA
BRANCH  11  12
ATOM     12  C   UNL d   1       1.318 -11.433  -4.255  0.00  0.00     0.122 A 
ATOM     13  C   UNL d   1       2.556 -10.976  -4.723  0.00  0.00     0.085 A 
ATOM     14 CL   UNL d   1       3.199  -9.418  -4.364  0.00  0.00    -0.080 Cl
ATOM     15  C   UNL d   1       3.319 -11.841  -5.499  0.00  0.00     0.114 A 
ATOM     16  N   UNL d   1       2.962 -13.115  -5.791  0.00  0.00    -0.372 N 
ATOM     17  C   UNL d   1       1.793 -13.549  -5.264  0.00  0.00     0.114 A 
ATOM     18  HN  UNL d   1       3.543 -13.714  -6.377  1.00  0.00     0.164 HD
ATOM     19  C   UNL d   1       0.949 -12.759  -4.497  0.00  0.00     0.085 A 
ATOM     20 CL   UNL d   1      -0.508 -13.437  -3.876  0.00  0.00    -0.080 Cl
ENDBRANCH  11  12
ENDBRANCH   8  11
ENDBRANCH   3   5
BRANCH   1  21
ATOM     21  N   UNL d   1      -1.841  -3.419  -4.617  0.00  0.00    -0.284 N 
ATOM     22  H   UNL d   1      -1.952  -3.048  -5.554  0.00  0.00     0.188 HD
BRANCH  21  23
ATOM     23  C   UNL d   1      -2.375  -2.519  -3.690  0.00  0.00     0.141 A 
ATOM     24  N   UNL d   1      -2.791  -1.355  -4.266  0.00  0.00    -0.349 N 
ATOM     25  C   UNL d   1      -3.317  -0.387  -3.480  0.00  0.00     0.106 A 
ATOM     26  HN  UNL d   1      -2.707  -1.217  -5.273  1.00  0.00     0.167 HD
ATOM     27  C   UNL d   1      -3.470  -0.501  -2.111  0.00  0.00     0.065 A 
ATOM     28  C   UNL d   1      -3.041  -1.690  -1.522  0.00  0.00     0.045 A 
ATOM     29  C   UNL d   1      -2.482  -2.709  -2.305  0.00  0.00     0.080 A 
ATOM     30 CL   UNL d   1      -1.956  -4.109  -1.444  0.00  0.00    -0.080 Cl
BRANCH  27  31
ATOM     31  C   UNL d   1      -4.061   0.626  -1.325  0.00  0.00     0.418 C 
ATOM     32  F   UNL d   1      -4.205   0.347  -0.001  0.00  0.00    -0.166 F 
ATOM     33  F   UNL d   1      -5.298   0.978  -1.770  0.00  0.00    -0.166 F 
ATOM     34  F   UNL d   1      -3.305   1.756  -1.390  0.00  0.00    -0.166 F 
ENDBRANCH  27  31
ENDBRANCH  21  23
ENDBRANCH   1  21
TORSDOF 6
