REMARK  8 active torsions:
REMARK  status: ('A' for Active; 'I' for Inactive)
REMARK    1  A    between atoms: C_3  and  C_1 
REMARK    2  A    between atoms: S_4  and  C_2 
REMARK    3  A    between atoms: N_6  and  C_3 
REMARK    4  A    between atoms: C_11  and  S_4 
REMARK       I    between atoms: C_5  and  N_6 
REMARK    5  A    between atoms: C_12  and  C_5 
REMARK    6  A    between atoms: C_7  and  C_13 
REMARK    7  A    between atoms: O_16  and  C_7 
REMARK    8  A    between atoms: C_13  and  C_12 
ROOT
ATOM      1  C   UNL d   1       0.157   1.162  -0.128  0.00  0.00    -0.002 A 
ATOM      2  C   UNL d   1       1.566   1.303  -0.084  0.00  0.00     0.015 A 
ATOM      3  C   UNL d   1      -0.374  -0.146  -0.090  0.00  0.00     0.043 A 
ATOM      4 CL   UNL d   1      -2.075  -0.468  -0.084  0.00  0.00    -0.084 Cl
ATOM      5  C   UNL d   1       2.388   0.162  -0.018  0.00  0.00     0.019 A 
ATOM      6  C   UNL d   1       1.841  -1.118  -0.016  0.00  0.00     0.003 A 
ATOM      7  C   UNL d   1       0.461  -1.270  -0.043  0.00  0.00     0.024 A 
ENDROOT
BRANCH   1   8
ATOM      8  C   UNL d   1      -0.756   2.365  -0.245  0.00  0.00     0.164 C 
BRANCH   8   9
ATOM      9  N   UNL d   1      -0.746   3.216   0.930  0.00  0.00    -0.357 N 
ATOM     10  C   UNL d   1      -1.857   3.947   1.280  0.00  0.00     0.218 C 
ATOM     11  O   UNL d   1      -2.945   3.839   0.720  0.00  0.00    -0.274 OA
ATOM     12  H   UNL d   1       0.159   3.516   1.272  0.00  0.00     0.162 HD
BRANCH  10  13
ATOM     13  C   UNL d   1      -1.622   4.934   2.400  0.00  0.00     0.113 C 
BRANCH  13  14
ATOM     14  C   UNL d   1      -2.921   5.185   3.162  0.00  0.00     0.119 C 
BRANCH  14  15
ATOM     15  C   UNL d   1      -2.717   6.146   4.301  0.00  0.00     0.139 C 
ATOM     16  O   UNL d   1      -1.660   6.688   4.583  0.00  0.00    -0.650 OA
BRANCH  15  17
ATOM     17  O   UNL d   1      -3.853   6.359   5.005  0.00  0.00    -0.776 OA
ATOM     18  H   UNL d   1      -4.625   5.867   4.664  0.00  0.00     0.167 HD
ENDBRANCH  15  17
ENDBRANCH  14  15
ENDBRANCH  13  14
ENDBRANCH  10  13
ENDBRANCH   8   9
ENDBRANCH   1   8
BRANCH   2  19
ATOM     19  S   UNL d   1       2.382   2.890   0.057  0.00  0.00    -0.090 SA
BRANCH  19  20
ATOM     20  C   UNL d   1       2.937   3.323  -1.581  0.00  0.00     0.005 A 
ATOM     21  C   UNL d   1       3.219   4.680  -1.806  0.00  0.00     0.020 A 
ATOM     22  C   UNL d   1       3.728   5.120  -3.032  0.00  0.00     0.025 A 
ATOM     23  C   UNL d   1       3.964   4.201  -4.047  0.00  0.00     0.034 A 
ATOM     24  C   UNL d   1       3.685   2.851  -3.846  0.00  0.00     0.025 A 
ATOM     25 CL   UNL d   1       4.617   4.732  -5.547  0.00  0.00    -0.084 Cl
ATOM     26  C   UNL d   1       3.172   2.413  -2.618  0.00  0.00     0.020 A 
ENDBRANCH  19  20
ENDBRANCH   2  19
TORSDOF 8
