REMARK  3 active torsions:
REMARK  status: ('A' for Active; 'I' for Inactive)
REMARK    1  A    between atoms: C_11  and  N_1 
REMARK    2  A    between atoms: S_14  and  C_6 
REMARK    3  A    between atoms: C_18  and  C_11 
ROOT
ATOM      1  N   UNL d   1       3.136   1.045   0.064  0.00  0.00    -0.250 N 
ATOM      2  C   UNL d   1       1.725  -0.726   0.019  0.00  0.00     0.096 A 
ATOM      3  C   UNL d   1       3.127  -0.336   0.127  0.00  0.00     0.277 C 
ATOM      4  N   UNL d   1       1.846   1.558  -0.268  0.00  0.00    -0.289 N 
ATOM      5  C   UNL d   1       0.982   0.456  -0.109  0.00  0.00     0.081 A 
ATOM      6  C   UNL d   1       1.140  -1.963   0.059  0.00  0.00     0.088 A 
ATOM      7  N   UNL d   1      -0.207  -2.058   0.023  0.00  0.00    -0.348 N 
ATOM      8  HN  UNL d   1      -0.648  -2.977   0.037  1.00  0.00     0.166 HD
ATOM      9  C   UNL d   1      -0.427   0.368  -0.095  0.00  0.00     0.022 A 
ATOM     10  C   UNL d   1      -0.982  -0.941  -0.033  0.00  0.00     0.067 A 
ATOM     11  O   UNL d   1       4.083  -1.075   0.260  0.00  0.00    -0.265 OA
ATOM     12  C   UNL d   1      -2.379  -1.070  -0.027  0.00  0.00     0.061 A 
ATOM     13  C   UNL d   1       1.500   2.917   0.100  0.00  0.00     0.178 C 
ATOM     14  C   UNL d   1      -1.323   1.473  -0.131  0.00  0.00     0.016 A 
ATOM     15 CL   UNL d   1      -3.128  -2.636   0.022  0.00  0.00    -0.082 Cl
ATOM     16  C   UNL d   1      -2.708   1.308  -0.099  0.00  0.00     0.003 A 
ATOM     17  C   UNL d   1      -3.239   0.034  -0.055  0.00  0.00     0.026 A 
ENDROOT
BRANCH   1  18
ATOM     18  C   UNL d   1       4.361   1.821  -0.021  0.00  0.00     0.191 C 
BRANCH  18  19
ATOM     19  C   UNL d   1       4.803   2.317   1.338  0.00  0.00    -0.038 A 
ATOM     20  C   UNL d   1       5.209   1.406   2.328  0.00  0.00     0.009 A 
ATOM     21  C   UNL d   1       5.557   1.847   3.604  0.00  0.00     0.001 A 
ATOM     22  C   UNL d   1       5.516   3.205   3.906  0.00  0.00     0.000 A 
ATOM     23  C   UNL d   1       5.146   4.124   2.925  0.00  0.00     0.001 A 
ATOM     24  C   UNL d   1       4.798   3.684   1.646  0.00  0.00     0.009 A 
ENDBRANCH  18  19
ENDBRANCH   1  18
BRANCH   6  25
ATOM     25  S   UNL d   1       2.081  -3.472   0.133  0.00  0.00    -0.116 SA
ATOM     26  C   UNL d   1       0.789  -4.728  -0.014  0.00  0.00     0.097 C 
ENDBRANCH   6  25
TORSDOF 3
