REMARK  4 active torsions:
REMARK  status: ('A' for Active; 'I' for Inactive)
REMARK    1  A    between atoms: C_6  and  C_1 
REMARK    2  A    between atoms: O_10  and  N_7 
REMARK    3  A    between atoms: C_9  and  O_10 
REMARK    4  A    between atoms: C_12  and  C_9 
ROOT
ATOM      1  C   UNL d   1       3.587   0.076   0.038  0.00  0.00     0.046 C 
ATOM      2  N   UNL d   1       4.480  -0.873  -0.012  0.00  0.00    -0.261 N 
ATOM      3  HN  UNL d   1       5.486  -0.716  -0.067  1.00  0.00     0.194 HD
ATOM      4  C   UNL d   1       2.100  -0.242   0.130  0.00  0.00     0.071 C 
ENDROOT
BRANCH   1   5
ATOM      5  C   UNL d   1       4.014   1.480  -0.032  0.00  0.00     0.036 A 
ATOM      6  S   UNL d   1       2.963   2.619  -0.772  0.00  0.00    -0.087 SA
ATOM      7  C   UNL d   1       4.015   3.937  -0.499  0.00  0.00     0.016 A 
ATOM      8  C   UNL d   1       3.778   5.288  -0.828  0.00  0.00     0.019 A 
ATOM      9  C   UNL d   1       5.199   3.521   0.107  0.00  0.00    -0.012 A 
ATOM     10  C   UNL d   1       4.763   6.237  -0.553  0.00  0.00     0.001 A 
ATOM     11  C   UNL d   1       5.960   5.854   0.031  0.00  0.00     0.001 A 
ATOM     12  C   UNL d   1       6.184   4.513   0.362  0.00  0.00     0.013 A 
ATOM     13  C   UNL d   1       5.194   2.090   0.386  0.00  0.00    -0.031 A 
ATOM     14  C   UNL d   1       6.347   1.420   1.073  0.00  0.00     0.050 C 
ENDBRANCH   1   5
BRANCH   2  15
ATOM     15  O   UNL d   1       3.869  -2.150   0.022  0.00  0.00    -0.195 OA
BRANCH  15  16
ATOM     16  C   UNL d   1       4.785  -3.147  -0.168  0.00  0.00     0.315 C 
ATOM     17  O   UNL d   1       5.989  -3.037  -0.342  0.00  0.00    -0.257 OA
BRANCH  16  18
ATOM     18  C   UNL d   1       4.077  -4.459  -0.201  0.00  0.00     0.041 A 
ATOM     19  C   UNL d   1       2.837  -4.665   0.423  0.00  0.00     0.017 A 
ATOM     20  C   UNL d   1       2.219  -5.919   0.363  0.00  0.00     0.001 A 
ATOM     21  C   UNL d   1       2.832  -6.971  -0.318  0.00  0.00     0.000 A 
ATOM     22  C   UNL d   1       4.067  -6.775  -0.936  0.00  0.00     0.001 A 
ATOM     23  C   UNL d   1       4.690  -5.527  -0.873  0.00  0.00     0.017 A 
ENDBRANCH  16  18
ENDBRANCH  15  16
ENDBRANCH   2  15
TORSDOF 4
