REMARK  4 active torsions:
REMARK  status: ('A' for Active; 'I' for Inactive)
REMARK    1  A    between atoms: N_3  and  C_1 
REMARK    2  A    between atoms: N_4  and  C_1 
REMARK    3  A    between atoms: C_2  and  N_3 
REMARK    4  A    between atoms: C_5  and  N_4 
ROOT
ATOM      1  C   UNL d   1       1.199   0.316  -0.295  0.00  0.00     0.176 C 
ATOM      2  S   UNL d   1       2.785   0.720  -0.662  0.00  0.00    -0.041 SA
ENDROOT
BRANCH   1   3
ATOM      3  N   UNL d   1       0.513  -0.802  -0.786  0.00  0.00    -0.331 N 
ATOM      4  H   UNL d   1      -0.351  -0.507  -1.236  0.00  0.00     0.168 HD
BRANCH   3   5
ATOM      5  C   UNL d   1       1.107  -1.935  -1.410  0.00  0.00     0.062 A 
ATOM      6  C   UNL d   1       0.653  -2.315  -2.689  0.00  0.00     0.061 A 
ATOM      7 CL   UNL d   1      -0.583  -1.414  -3.502  0.00  0.00    -0.082 Cl
ATOM      8  C   UNL d   1       1.205  -3.414  -3.351  0.00  0.00     0.026 A 
ATOM      9  C   UNL d   1       2.203  -4.161  -2.732  0.00  0.00     0.002 A 
ATOM     10  C   UNL d   1       2.622  -3.828  -1.445  0.00  0.00     0.009 A 
ATOM     11  C   UNL d   1       2.062  -2.735  -0.755  0.00  0.00    -0.034 A 
ATOM     12  C   UNL d   1       2.496  -2.530   0.672  0.00  0.00     0.050 C 
ENDBRANCH   3   5
ENDBRANCH   1   3
BRANCH   1  13
ATOM     13  N   UNL d   1       0.334   1.026   0.541  0.00  0.00    -0.333 N 
ATOM     14  H   UNL d   1      -0.300   0.420   1.047  0.00  0.00     0.168 HD
BRANCH  13  15
ATOM     15  C   UNL d   1       0.421   2.363   0.994  0.00  0.00     0.040 A 
ATOM     16  C   UNL d   1      -0.071   2.719   2.264  0.00  0.00    -0.034 A 
ATOM     17  C   UNL d   1      -0.064   4.077   2.646  0.00  0.00     0.028 A 
ATOM     18  C   UNL d   1      -0.611   1.735   3.269  0.00  0.00     0.050 C 
ATOM     19  C   UNL d   1       0.434   5.056   1.789  0.00  0.00     0.011 A 
ATOM     20  C   UNL d   1       0.919   4.707   0.537  0.00  0.00     0.021 A 
ATOM     21 BR   UNL d   1       0.433   6.867   2.325  0.00  0.00    -0.051 Br
ATOM     22  C   UNL d   1       0.904   3.368   0.141  0.00  0.00     0.031 A 
ENDBRANCH  13  15
ENDBRANCH   1  13
TORSDOF 4
