REMARK  7 active torsions:
REMARK  status: ('A' for Active; 'I' for Inactive)
REMARK       I    between atoms: N_2  and  C_1 
REMARK       I    between atoms: N_4  and  C_1 
REMARK    1  A    between atoms: C_13  and  N_2 
REMARK    2  A    between atoms: C_11  and  N_4 
REMARK    3  A    between atoms: C_20  and  N_4 
REMARK    4  A    between atoms: C_7  and  C_8 
REMARK    5  A    between atoms: C_12  and  C_11 
REMARK    6  A    between atoms: C_16  and  C_12 
REMARK    7  A    between atoms: C_17  and  C_20 
ROOT
ATOM      1  N   UNL d   1      -4.398  -2.018  -0.295  0.00  0.00    -0.197 NA
ATOM      2  C   UNL d   1      -3.244  -1.954  -0.374  0.00  0.00     0.060 C 
ATOM      3  C   UNL d   1      -1.769  -1.879  -0.476  0.00  0.00     0.144 C 
ENDROOT
BRANCH   3   4
ATOM      4  C   UNL d   1      -1.208  -0.988   0.642  0.00  0.00     0.141 C 
BRANCH   4   5
ATOM      5  N   UNL d   1       0.263  -0.850   0.643  0.00  0.00    -0.333 N 
ATOM      6  C   UNL d   1       1.021   0.072  -0.076  0.00  0.00     0.322 C 
ATOM      7  N   UNL d   1       0.333   1.087  -0.700  0.00  0.00    -0.309 N 
ATOM      8  O   UNL d   1       2.246  -0.044  -0.109  0.00  0.00    -0.247 OA
ATOM      9  H   UNL d   1      -0.606   1.274  -0.393  0.00  0.00     0.170 HD
BRANCH   7  10
ATOM     10  C   UNL d   1       0.938   2.120  -1.462  0.00  0.00     0.036 A 
ATOM     11  C   UNL d   1       2.246   2.055  -1.939  0.00  0.00     0.030 A 
ATOM     12  C   UNL d   1       2.829   3.135  -2.605  0.00  0.00     0.010 A 
ATOM     13  C   UNL d   1       2.115   4.316  -2.853  0.00  0.00    -0.051 A 
ATOM     14  C   UNL d   1       0.781   4.355  -2.414  0.00  0.00     0.010 A 
ATOM     15  C   UNL d   1       0.198   3.272  -1.733  0.00  0.00     0.030 A 
BRANCH  13  16
ATOM     16  C   UNL d   1       2.809   5.484  -3.572  0.00  0.00    -0.024 C 
ATOM     17  C   UNL d   1       1.877   6.691  -3.808  0.00  0.00     0.019 C 
ATOM     18  C   UNL d   1       4.012   5.978  -2.735  0.00  0.00     0.019 C 
ATOM     19  C   UNL d   1       3.326   5.022  -4.953  0.00  0.00     0.019 C 
ENDBRANCH  13  16
ENDBRANCH   7  10
BRANCH   5  20
ATOM     20  C   UNL d   1       1.036  -1.917   1.313  0.00  0.00     0.133 C 
BRANCH  20  21
ATOM     21  C   UNL d   1       1.953  -1.422   2.450  0.00  0.00     0.077 C 
BRANCH  21  22
ATOM     22  C   UNL d   1       2.704  -2.574   3.070  0.00  0.00     0.010 A 
ATOM     23  N   UNL d   1       1.956  -3.528   3.678  0.00  0.00    -0.369 N 
ATOM     24  C   UNL d   1       2.611  -4.575   4.225  0.00  0.00     0.088 A 
ATOM     25  HN  UNL d   1       0.940  -3.457   3.720  1.00  0.00     0.165 HD
ATOM     26  C   UNL d   1       3.987  -4.724   4.200  0.00  0.00     0.017 A 
ATOM     27  C   UNL d   1       4.741  -3.737   3.580  0.00  0.00     0.003 A 
ATOM     28  C   UNL d   1       4.095  -2.643   3.007  0.00  0.00     0.025 A 
ENDBRANCH  21  22
ENDBRANCH  20  21
ENDBRANCH   5  20
ENDBRANCH   4   5
ENDBRANCH   3   4
TORSDOF 7
