REMARK  5 active torsions:
REMARK  status: ('A' for Active; 'I' for Inactive)
REMARK       I    between atoms: N_2  and  C_1 
REMARK    1  A    between atoms: C_6  and  C_1 
REMARK    2  A    between atoms: N_3  and  N_2 
REMARK    3  A    between atoms: C_4  and  N_3 
REMARK    4  A    between atoms: C_18  and  C_16 
REMARK    5  A    between atoms: C_20  and  C_18 
ROOT
ATOM      1  C   UNL d   1       0.993   0.059  -0.126  0.00  0.00     0.266 C 
ATOM      2  N   UNL d   1       0.296   1.235   0.093  0.00  0.00    -0.283 N 
ATOM      3  O   UNL d   1       2.218  -0.028  -0.098  0.00  0.00    -0.266 OA
ATOM      4  H   UNL d   1      -0.670   1.218   0.407  0.00  0.00     0.184 HD
ENDROOT
BRANCH   2   5
ATOM      5  N   UNL d   1       1.026   2.372   0.483  0.00  0.00    -0.203 NA
ATOM      6  H   UNL d   1       2.006   2.273   0.183  0.00  0.00     0.153 HD
BRANCH   5   7
ATOM      7  C   UNL d   1       0.498   3.590  -0.028  0.00  0.00     0.033 A 
ATOM      8  C   UNL d   1       0.801   4.803   0.621  0.00  0.00    -0.039 A 
ATOM      9  C   UNL d   1       0.278   6.011   0.119  0.00  0.00     0.015 A 
ATOM     10  C   UNL d   1       1.627   4.869   1.877  0.00  0.00     0.050 C 
ATOM     11  C   UNL d   1      -0.495   6.043  -1.047  0.00  0.00    -0.061 A 
ATOM     12  C   UNL d   1      -0.735   4.848  -1.724  0.00  0.00     0.008 A 
ATOM     13  C   UNL d   1      -1.030   7.348  -1.557  0.00  0.00     0.048 C 
ATOM     14  C   UNL d   1      -0.238   3.641  -1.225  0.00  0.00     0.026 A 
ENDBRANCH   5   7
ENDBRANCH   2   5
BRANCH   1  15
ATOM     15  C   UNL d   1       0.144  -1.133  -0.398  0.00  0.00     0.033 A 
ATOM     16  C   UNL d   1      -1.077  -1.006  -1.072  0.00  0.00     0.017 A 
ATOM     17  C   UNL d   1      -1.861  -2.133  -1.322  0.00  0.00     0.008 A 
ATOM     18  C   UNL d   1      -1.440  -3.401  -0.903  0.00  0.00    -0.058 A 
ATOM     19  C   UNL d   1      -0.201  -3.526  -0.257  0.00  0.00     0.008 A 
ATOM     20  C   UNL d   1       0.589  -2.400  -0.006  0.00  0.00     0.017 A 
BRANCH  18  21
ATOM     21  C   UNL d   1      -2.312  -4.609  -1.157  0.00  0.00     0.038 C 
BRANCH  21  22
ATOM     22  C   UNL d   1      -2.759  -5.339   0.115  0.00  0.00     0.000 C 
ATOM     23  C   UNL d   1      -3.604  -4.475   1.041  0.00  0.00     0.005 C 
ENDBRANCH  21  22
ENDBRANCH  18  21
ENDBRANCH   1  15
TORSDOF 5
