REMARK  7 active torsions:
REMARK  status: ('A' for Active; 'I' for Inactive)
REMARK    1  A    between atoms: N_6  and  C_1 
REMARK    2  A    between atoms: N_9  and  C_1 
REMARK    3  A    between atoms: N_2  and  N_6 
REMARK    4  A    between atoms: C_8  and  N_2 
REMARK    5  A    between atoms: C_4  and  C_8 
REMARK    6  A    between atoms: O_10  and  C_7 
REMARK    7  A    between atoms: C_13  and  O_10 
ROOT
ATOM      1  C   UNL d   1      -1.742   2.369   0.926  0.00  0.00     0.121 C 
ENDROOT
BRANCH   1   2
ATOM      2  C   UNL d   1      -3.205   2.267   1.042  0.00  0.00     0.014 A 
ATOM      3  C   UNL d   1      -3.880   1.145   1.550  0.00  0.00     0.080 A 
ATOM      4  C   UNL d   1      -5.282   1.182   1.604  0.00  0.00     0.037 A 
ATOM      5  C   UNL d   1      -5.994   2.318   1.212  0.00  0.00     0.003 A 
ATOM      6  C   UNL d   1      -5.313   3.436   0.741  0.00  0.00     0.001 A 
ATOM      7  C   UNL d   1      -3.922   3.410   0.655  0.00  0.00     0.015 A 
BRANCH   3   8
ATOM      8  O   UNL d   1      -3.367  -0.035   2.024  0.00  0.00    -0.351 OA
BRANCH   8   9
ATOM      9  C   UNL d   1      -2.105  -0.002   2.688  0.00  0.00     0.171 C 
ATOM     10  C   UNL d   1      -2.083  -1.058   3.779  0.00  0.00     0.034 C 
ENDBRANCH   8   9
ENDBRANCH   3   8
ENDBRANCH   1   2
BRANCH   1  11
ATOM     11  N   UNL d   1      -1.026   1.475   0.338  0.00  0.00    -0.309 N 
ATOM     12  HN  UNL d   1      -1.427   0.737  -0.240  1.00  0.00     0.186 HD
BRANCH  11  13
ATOM     13  N   UNL d   1       0.322   1.602   0.555  0.00  0.00    -0.277 N 
ATOM     14  H   UNL d   1       0.638   2.030   1.424  0.00  0.00     0.189 HD
BRANCH  13  15
ATOM     15  C   UNL d   1       1.201   0.765  -0.073  0.00  0.00     0.184 C 
ATOM     16  S   UNL d   1       2.740   0.504   0.483  0.00  0.00    -0.040 SA
BRANCH  15  17
ATOM     17  N   UNL d   1       0.730   0.183  -1.202  0.00  0.00    -0.375 N 
ATOM     18  H   UNL d   1       1.272  -0.493  -1.715  0.00  0.00     0.158 HD
ATOM     19  H   UNL d   1      -0.261   0.297  -1.384  0.00  0.00     0.158 HD
ENDBRANCH  15  17
ENDBRANCH  13  15
ENDBRANCH  11  13
ENDBRANCH   1  11
TORSDOF 7
