REMARK  4 active torsions:
REMARK  status: ('A' for Active; 'I' for Inactive)
REMARK       I    between atoms: C_3  and  N_1 
REMARK    1  A    between atoms: C_2  and  C_4 
REMARK    2  A    between atoms: C_10  and  C_3 
REMARK       I    between atoms: N_8  and  C_4 
REMARK    3  A    between atoms: C_6  and  C_12 
REMARK    4  A    between atoms: C_15  and  N_8 
ROOT
ATOM      1  N   UNL d   1      -2.113  -0.561  -0.561  0.00  0.00    -0.334 N 
ATOM      2  C   UNL d   1      -2.058   0.930  -0.630  0.00  0.00     0.180 C 
ATOM      3  C   UNL d   1      -2.651  -1.338  -1.598  0.00  0.00     0.254 C 
ATOM      4  C   UNL d   1      -1.442  -1.088   0.642  0.00  0.00     0.132 C 
ATOM      5  C   UNL d   1      -0.582   1.381  -0.644  0.00  0.00     0.040 C 
ATOM      6  C   UNL d   1       0.047  -0.654   0.736  0.00  0.00     0.008 C 
ATOM      7  C   UNL d   1       0.167   0.875   0.602  0.00  0.00    -0.006 C 
ATOM      8  O   UNL d   1      -3.224  -0.835  -2.563  0.00  0.00    -0.267 OA
ATOM      9  C   UNL d   1       0.962  -1.374  -0.270  0.00  0.00     0.006 C 
ATOM     10  C   UNL d   1       1.632   1.336   0.612  0.00  0.00     0.005 C 
ATOM     11  C   UNL d   1       2.405  -0.878  -0.267  0.00  0.00     0.000 C 
ATOM     12  C   UNL d   1       2.486   0.631  -0.434  0.00  0.00     0.000 C 
ENDROOT
BRANCH   2  13
ATOM     13  C   UNL d   1      -2.901   1.884  -1.536  0.00  0.00     0.241 C 
ATOM     14  N   UNL d   1      -4.202   1.510  -1.788  0.00  0.00    -0.351 N 
ATOM     15  H   UNL d   1      -4.271   0.509  -1.974  0.00  0.00     0.163 HD
ATOM     16  O   UNL d   1      -2.489   3.016  -1.813  0.00  0.00    -0.271 OA
BRANCH  14  17
ATOM     17  C   UNL d   1      -5.165   2.368  -2.504  0.00  0.00     0.022 C 
ATOM     18  C   UNL d   1      -4.676   2.694  -3.925  0.00  0.00     0.037 C 
ATOM     19  C   UNL d   1      -6.499   1.608  -2.608  0.00  0.00     0.037 C 
ATOM     20  C   UNL d   1      -5.432   3.674  -1.730  0.00  0.00     0.037 C 
ENDBRANCH  14  17
ENDBRANCH   2  13
BRANCH   3  21
ATOM     21  C   UNL d   1      -2.655  -2.836  -1.528  0.00  0.00     0.032 C 
ATOM     22  C   UNL d   1      -3.833  -3.545  -1.789  0.00  0.00     0.018 C 
ATOM     23  C   UNL d   1      -3.873  -4.942  -1.634  0.00  0.00     0.017 C 
ATOM     24  C   UNL d   1      -2.741  -5.650  -1.199  0.00  0.00     0.048 C 
ATOM     25  C   UNL d   1      -1.544  -4.949  -1.042  0.00  0.00     0.017 C 
ATOM     26  C   UNL d   1      -1.502  -3.571  -1.256  0.00  0.00     0.018 C 
BRANCH  24  27
ATOM     27  C   UNL d   1      -2.796  -7.135  -0.925  0.00  0.00     0.417 C 
ATOM     28  F   UNL d   1      -1.710  -7.594  -0.239  0.00  0.00    -0.166 F 
ATOM     29  F   UNL d   1      -3.877  -7.490  -0.177  0.00  0.00    -0.166 F 
ATOM     30  F   UNL d   1      -2.860  -7.878  -2.062  0.00  0.00    -0.166 F 
ENDBRANCH  24  27
ENDBRANCH   3  21
TORSDOF 4
