REMARK  6 active torsions:
REMARK  status: ('A' for Active; 'I' for Inactive)
REMARK    1  A    between atoms: C_11  and  N_1 
REMARK    2  A    between atoms: C_7  and  C_2 
REMARK    3  A    between atoms: O_17  and  C_8 
REMARK    4  A    between atoms: O_18  and  C_9 
REMARK    5  A    between atoms: O_19  and  C_10 
REMARK    6  A    between atoms: O_23  and  C_20 
ROOT
ATOM      1  N   UNL d   1       0.828  -0.643  -0.414  0.00  0.00    -0.271 N 
ATOM      2  C   UNL d   1       0.877   0.675  -0.005  0.00  0.00     0.140 A 
ATOM      3  N   UNL d   1      -0.247   1.134   0.469  0.00  0.00    -0.282 N 
ATOM      4  HN  UNL d   1      -0.433   2.064   0.844  1.00  0.00     0.188 HD
ATOM      5  C   UNL d   1      -0.484  -1.025  -0.171  0.00  0.00     0.199 A 
ATOM      6  N   UNL d   1      -1.116   0.098   0.352  0.00  0.00    -0.274 N 
ATOM      7  S   UNL d   1      -1.286  -2.475  -0.305  0.00  0.00    -0.039 SA
ATOM      8  H   UNL d   1      -2.074   0.152   0.680  0.00  0.00     0.189 HD
ENDROOT
BRANCH   2   9
ATOM      9  C   UNL d   1       2.060   1.557  -0.121  0.00  0.00     0.015 A 
ATOM     10  C   UNL d   1       2.871   1.551  -1.259  0.00  0.00     0.055 A 
ATOM     11  C   UNL d   1       4.012   2.359  -1.327  0.00  0.00     0.105 A 
ATOM     12  C   UNL d   1       4.290   3.242  -0.264  0.00  0.00     0.135 A 
ATOM     13  C   UNL d   1       3.430   3.298   0.856  0.00  0.00     0.105 A 
ATOM     14  C   UNL d   1       2.320   2.453   0.920  0.00  0.00     0.055 A 
BRANCH  11  15
ATOM     15  O   UNL d   1       4.853   2.363  -2.410  0.00  0.00    -0.353 OA
ATOM     16  C   UNL d   1       4.750   1.279  -3.327  0.00  0.00     0.210 C 
ENDBRANCH  11  15
BRANCH  12  17
ATOM     17  O   UNL d   1       5.328   4.147  -0.256  0.00  0.00    -0.351 OA
ATOM     18  C   UNL d   1       6.589   3.658  -0.696  0.00  0.00     0.210 C 
ENDBRANCH  12  17
BRANCH  13  19
ATOM     19  O   UNL d   1       3.759   4.208   1.832  0.00  0.00    -0.353 OA
ATOM     20  C   UNL d   1       3.069   4.119   3.072  0.00  0.00     0.210 C 
ENDBRANCH  13  19
ENDBRANCH   2   9
BRANCH   1  21
ATOM     21  C   UNL d   1       1.888  -1.471  -0.875  0.00  0.00     0.043 A 
ATOM     22  C   UNL d   1       3.178  -1.376  -0.333  0.00  0.00     0.033 A 
ATOM     23  C   UNL d   1       4.247  -2.119  -0.855  0.00  0.00     0.039 A 
ATOM     24  C   UNL d   1       4.035  -2.994  -1.915  0.00  0.00     0.068 A 
ATOM     25  C   UNL d   1       2.746  -3.150  -2.419  0.00  0.00     0.039 A 
ATOM     26  C   UNL d   1       1.686  -2.389  -1.913  0.00  0.00     0.033 A 
BRANCH  24  27
ATOM     27  O   UNL d   1       4.992  -3.770  -2.505  0.00  0.00    -0.356 OA
ATOM     28  C   UNL d   1       6.309  -3.229  -2.505  0.00  0.00     0.210 C 
ENDBRANCH  24  27
ENDBRANCH   1  21
TORSDOF 6
