REMARK  3 active torsions:
REMARK  status: ('A' for Active; 'I' for Inactive)
REMARK    1  A    between atoms: C_5  and  C_3 
REMARK       I    between atoms: N_8  and  C_5 
REMARK    2  A    between atoms: C_16  and  N_8 
REMARK    3  A    between atoms: C_17  and  N_8 
ROOT
ATOM      1  C   UNL d   1      -1.178  -0.590  -0.040  0.00  0.00     0.042 A 
ATOM      2  C   UNL d   1       0.055  -1.464  -0.029  0.00  0.00     0.195 A 
ATOM      3  C   UNL d   1      -2.561  -0.855  -0.081  0.00  0.00     0.047 A 
ATOM      4  C   UNL d   1      -0.661   0.743   0.002  0.00  0.00    -0.010 A 
ATOM      5  C   UNL d   1       1.235  -0.576  -0.020  0.00  0.00     0.026 A 
ATOM      6  C   UNL d   1       0.784   0.740   0.009  0.00  0.00    -0.011 A 
ATOM      7  O   UNL d   1       0.193  -2.665  -0.011  0.00  0.00    -0.287 OA
ATOM      8  C   UNL d   1      -1.494   1.845   0.020  0.00  0.00     0.013 A 
ATOM      9  C   UNL d   1      -3.368   0.303  -0.065  0.00  0.00     0.018 A 
ATOM     10  C   UNL d   1       2.577  -0.912  -0.043  0.00  0.00     0.016 A 
ATOM     11  C   UNL d   1       1.702   1.780   0.024  0.00  0.00     0.013 A 
ATOM     12  C   UNL d   1      -2.856   1.617  -0.013  0.00  0.00     0.002 A 
ATOM     13  C   UNL d   1       3.067   1.469  -0.002  0.00  0.00     0.001 A 
ATOM     14  C   UNL d   1       3.502   0.132  -0.037  0.00  0.00     0.001 A 
ENDROOT
BRANCH   3  15
ATOM     15  C   UNL d   1      -3.109  -2.274  -0.138  0.00  0.00     0.254 C 
ATOM     16  N   UNL d   1      -4.485  -2.645  -0.115  0.00  0.00    -0.349 N 
ATOM     17  O   UNL d   1      -2.282  -3.181  -0.202  0.00  0.00    -0.267 OA
BRANCH  16  18
ATOM     18  C   UNL d   1      -4.756  -4.095  -0.064  0.00  0.00     0.121 C 
ATOM     19  C   UNL d   1      -4.891  -4.738  -1.438  0.00  0.00     0.026 C 
ENDBRANCH  16  18
BRANCH  16  20
ATOM     20  C   UNL d   1      -5.625  -1.733  -0.189  0.00  0.00     0.121 C 
ATOM     21  C   UNL d   1      -7.040  -2.296  -0.236  0.00  0.00     0.026 C 
ENDBRANCH  16  20
ENDBRANCH   3  15
TORSDOF 3
