REMARK  5 active torsions:
REMARK  status: ('A' for Active; 'I' for Inactive)
REMARK    1  A    between atoms: C_5  and  C_1 
REMARK    2  A    between atoms: C_7  and  C_2 
REMARK       I    between atoms: N_14  and  C_7 
REMARK    3  A    between atoms: C_8  and  C_9 
REMARK    4  A    between atoms: C_11  and  N_15 
REMARK    5  A    between atoms: N_15  and  N_14 
ROOT
ATOM      1  C   UNL d   1       2.912   0.564   0.019  0.00  0.00     0.275 C 
ATOM      2  N   UNL d   1       3.375   1.858   0.161  0.00  0.00    -0.281 N 
ATOM      3  O   UNL d   1       1.781   0.343  -0.419  0.00  0.00    -0.266 OA
ATOM      4  H   UNL d   1       4.313   2.089   0.476  0.00  0.00     0.184 HD
ENDROOT
BRANCH   2   5
ATOM      5  N   UNL d   1       2.603   2.922  -0.337  0.00  0.00    -0.186 NA
ATOM      6  H   UNL d   1       1.637   2.633  -0.538  0.00  0.00     0.154 HD
BRANCH   5   7
ATOM      7  C   UNL d   1       2.589   4.062   0.513  0.00  0.00     0.120 A 
ATOM      8  N   UNL d   1       3.170   3.990   1.741  0.00  0.00    -0.353 N 
ATOM      9  C   UNL d   1       3.154   5.099   2.521  0.00  0.00     0.105 A 
ATOM     10  HN  UNL d   1       3.604   3.127   2.066  1.00  0.00     0.166 HD
ATOM     11  C   UNL d   1       2.635   6.325   2.126  0.00  0.00     0.065 A 
ATOM     12  C   UNL d   1       2.060   6.397   0.855  0.00  0.00     0.044 A 
ATOM     13  C   UNL d   1       2.020   5.259   0.049  0.00  0.00     0.074 A 
ATOM     14 CL   UNL d   1       1.309   5.390  -1.519  0.00  0.00    -0.081 Cl
BRANCH  11  15
ATOM     15  C   UNL d   1       2.706   7.498   3.050  0.00  0.00     0.418 C 
ATOM     16  F   UNL d   1       2.244   8.654   2.493  0.00  0.00    -0.166 F 
ATOM     17  F   UNL d   1       1.979   7.315   4.185  0.00  0.00    -0.166 F 
ATOM     18  F   UNL d   1       3.977   7.765   3.458  0.00  0.00    -0.166 F 
ENDBRANCH  11  15
ENDBRANCH   5   7
ENDBRANCH   2   5
BRANCH   1  19
ATOM     19  C   UNL d   1       3.839  -0.482   0.406  0.00  0.00     0.107 A 
ATOM     20  C   UNL d   1       3.576  -1.764   0.878  0.00  0.00     0.140 A 
ATOM     21  N   UNL d   1       4.735  -2.537   1.084  0.00  0.00    -0.349 N 
ATOM     22  C   UNL d   1       5.816  -1.859   0.777  0.00  0.00     0.048 A 
ATOM     23  HN  UNL d   1       4.734  -3.497   1.428  1.00  0.00     0.166 HD
ATOM     24  C   UNL d   1       7.198  -2.405   0.870  0.00  0.00     0.076 C 
ATOM     25  S   UNL d   1       5.541  -0.255   0.253  0.00  0.00    -0.070 SA
BRANCH  20  26
ATOM     26  C   UNL d   1       2.242  -2.382   1.211  0.00  0.00     0.434 C 
ATOM     27  F   UNL d   1       1.190  -1.538   1.117  0.00  0.00    -0.165 F 
ATOM     28  F   UNL d   1       1.968  -3.447   0.411  0.00  0.00    -0.165 F 
ATOM     29  F   UNL d   1       2.229  -2.845   2.490  0.00  0.00    -0.165 F 
ENDBRANCH  20  26
ENDBRANCH   1  19
TORSDOF 5
