REMARK  4 active torsions:
REMARK  status: ('A' for Active; 'I' for Inactive)
REMARK    1  A    between atoms: S_13  and  C_3 
REMARK    2  A    between atoms: C_12  and  C_10 
REMARK    3  A    between atoms: C_14  and  C_11 
REMARK    4  A    between atoms: C_18  and  S_13 
ROOT
ATOM      1  N   UNL d   1       0.297   0.651   0.013  0.00  0.00    -0.233 N 
ATOM      2  C   UNL d   1       0.136  -0.737   0.062  0.00  0.00     0.130 A 
ATOM      3  C   UNL d   1      -0.833   1.488  -0.001  0.00  0.00     0.102 A 
ATOM      4  N   UNL d   1       1.617   0.984  -0.011  0.00  0.00    -0.295 N 
ATOM      5  HN  UNL d   1       2.014   1.923  -0.026  1.00  0.00     0.187 HD
ATOM      6  N   UNL d   1      -1.089  -1.339   0.104  0.00  0.00    -0.337 N 
ATOM      7  HN  UNL d   1      -1.181  -2.354   0.150  1.00  0.00     0.167 HD
ATOM      8  C   UNL d   1       1.401  -1.274   0.045  0.00  0.00     0.077 A 
ATOM      9  C   UNL d   1      -2.063   0.942   0.023  0.00  0.00     0.073 A 
ATOM     10  C   UNL d   1      -2.138  -0.558   0.084  0.00  0.00     0.120 A 
ATOM     11  C   UNL d   1       2.286  -0.176  -0.010  0.00  0.00     0.037 A 
ENDROOT
BRANCH   3  12
ATOM     12  S   UNL d   1      -0.633   3.207  -0.169  0.00  0.00    -0.071 SA
BRANCH  12  13
ATOM     13  C   UNL d   1      -0.597   3.736   1.536  0.00  0.00     0.007 A 
ATOM     14  C   UNL d   1       0.342   3.253   2.454  0.00  0.00     0.019 A 
ATOM     15  C   UNL d   1       0.382   3.755   3.759  0.00  0.00     0.001 A 
ATOM     16  C   UNL d   1      -0.504   4.756   4.151  0.00  0.00     0.000 A 
ATOM     17  C   UNL d   1      -1.434   5.253   3.241  0.00  0.00     0.001 A 
ATOM     18  C   UNL d   1      -1.479   4.747   1.940  0.00  0.00     0.019 A 
ENDBRANCH  12  13
ENDBRANCH   3  12
BRANCH  10  19
ATOM     19  C   UNL d   1      -3.538  -1.181   0.115  0.00  0.00     0.432 C 
ATOM     20  F   UNL d   1      -4.530  -0.248   0.051  0.00  0.00    -0.165 F 
ATOM     21  F   UNL d   1      -3.750  -2.029  -0.927  0.00  0.00    -0.165 F 
ATOM     22  F   UNL d   1      -3.760  -1.893   1.252  0.00  0.00    -0.165 F 
ENDBRANCH  10  19
BRANCH  11  23
ATOM     23  C   UNL d   1       3.807  -0.190  -0.017  0.00  0.00    -0.007 C 
ATOM     24  C   UNL d   1       4.325  -0.208   1.434  0.00  0.00     0.021 C 
ATOM     25  C   UNL d   1       4.348  -1.435  -0.751  0.00  0.00     0.021 C 
ATOM     26  C   UNL d   1       4.382   1.054  -0.730  0.00  0.00     0.021 C 
ENDBRANCH  11  23
TORSDOF 4
