REMARK  5 active torsions:
REMARK  status: ('A' for Active; 'I' for Inactive)
REMARK    1  A    between atoms: C_8  and  N_1 
REMARK    2  A    between atoms: N_9  and  C_2 
REMARK    3  A    between atoms: C_6  and  C_3 
REMARK    4  A    between atoms: O_11  and  C_6 
REMARK    5  A    between atoms: C_14  and  O_11 
ROOT
ATOM      1  N   UNL d   1      -0.232  -1.278  -0.049  0.00  0.00    -0.286 N 
ATOM      2  C   UNL d   1       1.049  -0.679   0.011  0.00  0.00     0.110 A 
ATOM      3  C   UNL d   1       0.991   0.668  -0.025  0.00  0.00     0.121 A 
ATOM      4  C   UNL d   1      -1.293  -0.337  -0.050  0.00  0.00     0.152 A 
ATOM      5  S   UNL d   1      -0.610   1.287  -0.177  0.00  0.00    -0.051 SA
ATOM      6  S   UNL d   1      -2.942  -0.521   0.169  0.00  0.00    -0.052 SA
ENDROOT
BRANCH   1   7
ATOM      7  C   UNL d   1      -0.461  -2.701  -0.009  0.00  0.00     0.042 A 
ATOM      8  C   UNL d   1       0.336  -3.547   0.778  0.00  0.00     0.030 A 
ATOM      9  C   UNL d   1       0.121  -4.929   0.806  0.00  0.00     0.002 A 
ATOM     10  C   UNL d   1      -0.907  -5.492   0.058  0.00  0.00     0.000 A 
ATOM     11  C   UNL d   1      -1.708  -4.674  -0.731  0.00  0.00     0.002 A 
ATOM     12  C   UNL d   1      -1.474  -3.296  -0.776  0.00  0.00     0.030 A 
ENDBRANCH   1   7
BRANCH   2  13
ATOM     13  N   UNL d   1       2.231  -1.396   0.073  0.00  0.00    -0.287 NA
ATOM     14  H   UNL d   1       2.227  -2.208  -0.538  0.00  0.00     0.125 HD
ATOM     15  H   UNL d   1       3.067  -0.817  -0.062  0.00  0.00     0.125 HD
ENDBRANCH   2  13
BRANCH   3  16
ATOM     16  C   UNL d   1       2.166   1.569   0.089  0.00  0.00     0.303 C 
ATOM     17  O   UNL d   1       3.323   1.179   0.160  0.00  0.00    -0.259 OA
BRANCH  16  18
ATOM     18  O   UNL d   1       1.764   2.863   0.175  0.00  0.00    -0.317 OA
BRANCH  18  19
ATOM     19  C   UNL d   1       2.718   3.801   0.687  0.00  0.00     0.174 C 
ATOM     20  C   UNL d   1       2.544   3.867   2.193  0.00  0.00     0.034 C 
ENDBRANCH  18  19
ENDBRANCH  16  18
ENDBRANCH   3  16
TORSDOF 5
