REMARK  3 active torsions:
REMARK  status: ('A' for Active; 'I' for Inactive)
REMARK    1  A    between atoms: N_2  and  S_1 
REMARK    2  A    between atoms: C_9  and  S_1 
REMARK    3  A    between atoms: N_3  and  C_12 
ROOT
ATOM      1  S   UNL d   1       1.125  -0.038   0.063  0.00  0.00     0.244 S 
ATOM      2  O   UNL d   1       0.468   0.852   0.995  0.00  0.00    -0.206 OA
ATOM      3  O   UNL d   1       2.565  -0.071  -0.045  0.00  0.00    -0.206 OA
ENDROOT
BRANCH   1   4
ATOM      4  N   UNL d   1       0.489   0.283  -1.494  0.00  0.00    -0.189 NA
ATOM      5  C   UNL d   1       1.138  -0.461  -2.612  0.00  0.00     0.211 C 
ATOM      6  C   UNL d   1       2.513   0.079  -2.982  0.00  0.00     0.238 C 
ATOM      7  O   UNL d   1       3.331  -0.588  -3.611  0.00  0.00    -0.272 OA
ATOM      8  N   UNL d   1       2.762   1.393  -2.659  0.00  0.00    -0.296 N 
ATOM      9  C   UNL d   1       1.868   2.287  -2.117  0.00  0.00     0.238 C 
ATOM     10  H   UNL d   1       3.677   1.753  -2.891  0.00  0.00     0.171 HD
ATOM     11  C   UNL d   1       0.481   1.743  -1.817  0.00  0.00     0.211 C 
ATOM     12  O   UNL d   1       2.161   3.472  -1.985  0.00  0.00    -0.272 OA
ENDBRANCH   1   4
BRANCH   1  13
ATOM     13  C   UNL d   1       0.564  -1.688   0.429  0.00  0.00     0.074 A 
ATOM     14  C   UNL d   1       1.385  -2.784   0.135  0.00  0.00     0.027 A 
ATOM     15  C   UNL d   1       0.984  -4.071   0.508  0.00  0.00     0.037 A 
ATOM     16  C   UNL d   1      -0.223  -4.249   1.200  0.00  0.00     0.102 A 
ATOM     17  C   UNL d   1      -1.033  -3.148   1.518  0.00  0.00     0.037 A 
ATOM     18  C   UNL d   1      -0.636  -1.865   1.131  0.00  0.00     0.027 A 
BRANCH  16  19
ATOM     19  N   UNL d   1      -0.634  -5.598   1.609  0.00  0.00    -0.116 N 
ATOM     20  O   UNL d   1      -1.688  -5.709   2.252  0.00  0.00    -0.532 OA
ATOM     21  O   UNL d   1       0.094  -6.546   1.283  0.00  0.00    -0.532 OA
ENDBRANCH  16  19
ENDBRANCH   1  13
TORSDOF 3
