REMARK  2 active torsions:
REMARK  status: ('A' for Active; 'I' for Inactive)
REMARK    1  A    between atoms: C_6  and  N_1 
REMARK    2  A    between atoms: C_7  and  C_6 
ROOT
ATOM      1  N   UNL d   1       0.078  -1.578  -0.060  0.00  0.00    -0.341 N 
ATOM      2  C   UNL d   1       1.178  -0.742  -0.118  0.00  0.00     0.046 A 
ATOM      3  C   UNL d   1      -1.094  -0.843  -0.009  0.00  0.00     0.046 A 
ATOM      4  C   UNL d   1      -0.727   0.503   0.037  0.00  0.00     0.003 A 
ATOM      5  C   UNL d   1       0.700   0.565  -0.009  0.00  0.00     0.003 A 
ATOM      6  C   UNL d   1       2.550  -1.022  -0.249  0.00  0.00     0.030 A 
ATOM      7  C   UNL d   1      -2.439  -1.248  -0.000  0.00  0.00     0.030 A 
ATOM      8  C   UNL d   1       1.629   1.629   0.014  0.00  0.00     0.014 A 
ATOM      9  C   UNL d   1      -1.742   1.481   0.105  0.00  0.00     0.014 A 
ATOM     10  C   UNL d   1       3.446   0.051  -0.237  0.00  0.00     0.002 A 
ATOM     11  C   UNL d   1      -3.425  -0.259   0.054  0.00  0.00     0.002 A 
ATOM     12  C   UNL d   1      -3.084   1.089   0.108  0.00  0.00     0.001 A 
ATOM     13  C   UNL d   1       2.996   1.358  -0.095  0.00  0.00     0.001 A 
ENDROOT
BRANCH   1  14
ATOM     14  C   UNL d   1       0.144  -3.036   0.033  0.00  0.00     0.168 C 
BRANCH  14  15
ATOM     15  C   UNL d   1      -0.118  -3.777  -1.258  0.00  0.00    -0.040 A 
ATOM     16  C   UNL d   1      -0.164  -3.161  -2.517  0.00  0.00     0.009 A 
ATOM     17  C   UNL d   1      -0.422  -3.910  -3.668  0.00  0.00     0.001 A 
ATOM     18  C   UNL d   1      -0.622  -5.285  -3.581  0.00  0.00     0.000 A 
ATOM     19  C   UNL d   1      -0.556  -5.917  -2.342  0.00  0.00     0.001 A 
ATOM     20  C   UNL d   1      -0.303  -5.169  -1.191  0.00  0.00     0.009 A 
ENDBRANCH  14  15
ENDBRANCH   1  14
TORSDOF 2
