REMARK  4 active torsions:
REMARK  status: ('A' for Active; 'I' for Inactive)
REMARK    1  A    between atoms: C_11  and  C_3 
REMARK    2  A    between atoms: C_19  and  C_7 
REMARK    3  A    between atoms: O_24  and  C_11 
REMARK    4  A    between atoms: C_17  and  C_12 
ROOT
ATOM      1  N   UNL d   1      -0.122   1.409   0.023  0.00  0.00    -0.279 N 
ATOM      2  C   UNL d   1      -0.376   0.096   0.236  0.00  0.00     0.155 A 
ATOM      3  C   UNL d   1      -2.524   1.746   0.359  0.00  0.00     0.067 A 
ATOM      4  C   UNL d   1       1.160   1.720  -0.363  0.00  0.00     0.267 C 
ATOM      5  N   UNL d   1      -1.520  -0.417   0.523  0.00  0.00    -0.339 N 
ATOM      6  HN  UNL d   1      -1.613  -1.416   0.708  1.00  0.00     0.168 HD
ATOM      7  C   UNL d   1      -1.184   2.401   0.068  0.00  0.00     0.169 A 
ATOM      8  C   UNL d   1       2.038   0.520  -0.197  0.00  0.00     0.077 C 
ATOM      9  C   UNL d   1      -2.620   0.416   0.575  0.00  0.00     0.022 A 
ATOM     10  S   UNL d   1       1.056  -0.876   0.068  0.00  0.00    -0.048 SA
ATOM     11  C   UNL d   1       3.377   0.489  -0.146  0.00  0.00     0.036 C 
ATOM     12  O   UNL d   1       1.524   2.787  -0.835  0.00  0.00    -0.266 OA
ATOM     13  C   UNL d   1      -3.876  -0.384   0.840  0.00  0.00     0.069 C 
ENDROOT
BRANCH  11  14
ATOM     14  C   UNL d   1       4.208   1.692  -0.132  0.00  0.00    -0.032 A 
ATOM     15  C   UNL d   1       4.641   2.285  -1.323  0.00  0.00     0.051 A 
ATOM     16  C   UNL d   1       5.334   3.474  -1.228  0.00  0.00     0.105 A 
ATOM     17  O   UNL d   1       5.797   4.209  -2.275  0.00  0.00    -0.323 OA
ATOM     18  C   UNL d   1       5.613   4.060  -0.014  0.00  0.00     0.105 A 
ATOM     19  C   UNL d   1       6.330   5.357  -1.583  0.00  0.00     0.352 A 
ATOM     20  O   UNL d   1       6.281   5.237  -0.147  0.00  0.00    -0.323 OA
ATOM     21  C   UNL d   1       5.226   3.488   1.177  0.00  0.00     0.040 A 
ATOM     22  C   UNL d   1       4.512   2.288   1.114  0.00  0.00     0.014 A 
ENDBRANCH  11  14
BRANCH   7  23
ATOM     23  C   UNL d   1      -0.832   3.499   1.075  0.00  0.00    -0.030 A 
ATOM     24  C   UNL d   1      -0.715   3.235   2.449  0.00  0.00     0.009 A 
ATOM     25  C   UNL d   1      -0.347   4.251   3.335  0.00  0.00     0.001 A 
ATOM     26  C   UNL d   1      -0.089   5.537   2.861  0.00  0.00     0.000 A 
ATOM     27  C   UNL d   1      -0.202   5.813   1.502  0.00  0.00     0.001 A 
ATOM     28  C   UNL d   1      -0.572   4.803   0.615  0.00  0.00     0.009 A 
ENDBRANCH   7  23
BRANCH   3  29
ATOM     29  C   UNL d   1      -3.652   2.710   0.271  0.00  0.00     0.293 C 
ATOM     30  O   UNL d   1      -3.614   3.700  -0.447  0.00  0.00    -0.259 OA
BRANCH  29  31
ATOM     31  O   UNL d   1      -4.672   2.389   1.097  0.00  0.00    -0.323 OA
ATOM     32  C   UNL d   1      -5.811   3.251   1.022  0.00  0.00     0.213 C 
ENDBRANCH  29  31
ENDBRANCH   3  29
TORSDOF 4
