REMARK  7 active torsions:
REMARK  status: ('A' for Active; 'I' for Inactive)
REMARK    1  A    between atoms: C_2  and  C_1 
REMARK    2  A    between atoms: C_8  and  C_2 
REMARK    3  A    between atoms: O_14  and  C_3 
REMARK    4  A    between atoms: C_4  and  C_10 
REMARK    5  A    between atoms: O_13  and  C_4 
REMARK    6  A    between atoms: C_10  and  C_8 
REMARK    7  A    between atoms: O_15  and  C_11 
ROOT
ATOM      1  C   UNL d   1       1.406  -0.158   0.115  0.00  0.00     0.046 A 
ATOM      2  C   UNL d   1       0.624  -1.314   0.201  0.00  0.00     0.082 A 
ATOM      3  C   UNL d   1       0.769   1.078  -0.086  0.00  0.00     0.054 A 
ATOM      4  C   UNL d   1      -0.771  -1.218   0.116  0.00  0.00     0.040 A 
ATOM      5  C   UNL d   1      -0.621   1.179  -0.141  0.00  0.00     0.069 A 
ATOM      6  C   UNL d   1      -1.393   0.026  -0.061  0.00  0.00     0.039 A 
ENDROOT
BRANCH   1   7
ATOM      7  C   UNL d   1       2.890  -0.167   0.282  0.00  0.00     0.162 C 
ATOM      8  O   UNL d   1       3.587  -1.031  -0.241  0.00  0.00    -0.292 OA
BRANCH   7   9
ATOM      9  C   UNL d   1       3.474   0.961   1.108  0.00  0.00     0.093 C 
BRANCH   9  10
ATOM     10  C   UNL d   1       4.981   0.874   1.320  0.00  0.00     0.118 C 
BRANCH  10  11
ATOM     11  C   UNL d   1       5.433   2.117   2.047  0.00  0.00     0.258 C 
ATOM     12  O   UNL d   1       4.680   2.950   2.537  0.00  0.00    -0.265 OA
BRANCH  11  13
ATOM     13  O   UNL d   1       6.790   2.188   2.082  0.00  0.00    -0.326 OA
ATOM     14  C   UNL d   1       7.274   3.363   2.736  0.00  0.00     0.213 C 
ENDBRANCH  11  13
ENDBRANCH  10  11
ENDBRANCH   9  10
ENDBRANCH   7   9
ENDBRANCH   1   7
BRANCH   2  15
ATOM     15  O   UNL d   1       1.132  -2.539   0.534  0.00  0.00    -0.355 OA
ATOM     16  C   UNL d   1       1.715  -3.209  -0.585  0.00  0.00     0.210 C 
ENDBRANCH   2  15
BRANCH   5  17
ATOM     17  O   UNL d   1      -1.084   2.459  -0.272  0.00  0.00    -0.356 OA
ATOM     18  C   UNL d   1      -2.450   2.683   0.048  0.00  0.00     0.210 C 
ENDBRANCH   5  17
TORSDOF 7
