REMARK  6 active torsions:
REMARK  status: ('A' for Active; 'I' for Inactive)
REMARK    1  A    between atoms: C_2  and  C_1 
REMARK       I    between atoms: N_3  and  C_1 
REMARK    2  A    between atoms: C_8  and  N_3 
REMARK    3  A    between atoms: N_4  and  C_11 
REMARK    4  A    between atoms: O_14  and  C_6 
REMARK    5  A    between atoms: C_12  and  C_9 
REMARK    6  A    between atoms: O_20  and  C_13 
ROOT
ATOM      1  C   UNL d   1      -1.101   0.927  -0.809  0.00  0.00     0.037 A 
ATOM      2  C   UNL d   1      -1.784   1.012   0.406  0.00  0.00     0.059 A 
ATOM      3  C   UNL d   1      -3.181   1.075   0.459  0.00  0.00     0.034 A 
ATOM      4  C   UNL d   1      -3.223   1.142  -1.964  0.00  0.00     0.004 A 
ATOM      5  C   UNL d   1      -1.832   1.014  -1.998  0.00  0.00     0.029 A 
ATOM      6  C   UNL d   1      -3.891   1.159  -0.739  0.00  0.00     0.029 A 
ENDROOT
BRANCH   1   7
ATOM      7  N   UNL d   1       0.295   0.712  -0.902  0.00  0.00    -0.323 N 
ATOM      8  C   UNL d   1       1.150   0.440   0.156  0.00  0.00     0.259 C 
ATOM      9  O   UNL d   1       0.850   0.407   1.347  0.00  0.00    -0.267 OA
ATOM     10  H   UNL d   1       0.653   0.603  -1.840  0.00  0.00     0.169 HD
BRANCH   8  11
ATOM     11  C   UNL d   1       2.548   0.059  -0.186  0.00  0.00     0.065 A 
ATOM     12  C   UNL d   1       3.264  -0.765   0.700  0.00  0.00     0.081 A 
ATOM     13  C   UNL d   1       4.557  -1.185   0.398  0.00  0.00     0.037 A 
ATOM     14  C   UNL d   1       5.161  -0.766  -0.786  0.00  0.00     0.003 A 
ATOM     15  C   UNL d   1       4.476   0.079  -1.658  0.00  0.00     0.001 A 
ATOM     16  C   UNL d   1       3.175   0.497  -1.361  0.00  0.00     0.020 A 
BRANCH  12  17
ATOM     17  O   UNL d   1       2.755  -1.206   1.894  0.00  0.00    -0.360 OA
ATOM     18  H   UNL d   1       1.926  -0.704   2.065  0.00  0.00     0.217 HD
ENDBRANCH  12  17
ENDBRANCH   8  11
ENDBRANCH   1   7
BRANCH   3  19
ATOM     19  N   UNL d   1      -3.900   1.088   1.667  0.00  0.00    -0.365 N 
ATOM     20  C   UNL d   1      -3.490   0.340   2.643  0.00  0.00     0.099 C 
ATOM     21  HN  UNL d   1      -4.728   1.674   1.774  1.00  0.00     0.165 HD
BRANCH  20  22
ATOM     22  C   UNL d   1      -4.197   0.288   3.936  0.00  0.00    -0.021 A 
ATOM     23  C   UNL d   1      -5.396   0.979   4.113  0.00  0.00     0.015 A 
ATOM     24  C   UNL d   1      -6.064   0.895   5.334  0.00  0.00     0.037 A 
ATOM     25  C   UNL d   1      -5.551   0.116   6.373  0.00  0.00     0.068 A 
ATOM     26  C   UNL d   1      -4.338  -0.554   6.201  0.00  0.00     0.037 A 
ATOM     27  C   UNL d   1      -3.659  -0.471   4.980  0.00  0.00     0.015 A 
BRANCH  25  28
ATOM     28  O   UNL d   1      -6.295   0.117   7.521  0.00  0.00    -0.356 OA
ATOM     29  C   UNL d   1      -6.204  -1.063   8.310  0.00  0.00     0.210 C 
ENDBRANCH  25  28
ENDBRANCH  20  22
ENDBRANCH   3  19
TORSDOF 6
