REMARK  5 active torsions:
REMARK  status: ('A' for Active; 'I' for Inactive)
REMARK    1  A    between atoms: S_10  and  C_2 
REMARK    2  A    between atoms: C_11  and  S_10 
REMARK    3  A    between atoms: C_12  and  C_11 
REMARK    4  A    between atoms: C_14  and  C_12 
REMARK    5  A    between atoms: C_13  and  C_14 
ROOT
ATOM      1  N   UNL d   1      -0.769  -1.107   0.002  0.00  0.00    -0.302 N 
ATOM      2  C   UNL d   1      -1.411   0.087  -0.003  0.00  0.00     0.161 A 
ATOM      3  N   UNL d   1       0.590   1.295   0.009  0.00  0.00    -0.305 N 
ATOM      4  HN  UNL d   1       1.075   2.192   0.012  1.00  0.00     0.186 HD
ATOM      5  N   UNL d   1      -0.821   1.236  -0.000  0.00  0.00    -0.280 N 
ATOM      6  HN  UNL d   1      -1.370   2.095  -0.006  1.00  0.00     0.189 HD
ATOM      7  C   UNL d   1       0.588  -1.159   0.011  0.00  0.00     0.264 A 
ATOM      8  C   UNL d   1       1.253   0.183   0.015  0.00  0.00     0.181 A 
ATOM      9  O   UNL d   1       1.260  -2.178   0.015  0.00  0.00    -0.267 OA
ATOM     10  H   UNL d   1      -1.294  -1.967  -0.001  0.00  0.00     0.171 HD
ENDROOT
BRANCH   2  11
ATOM     11  S   UNL d   1      -3.139  -0.108  -0.014  0.00  0.00    -0.092 SA
BRANCH  11  12
ATOM     12  C   UNL d   1      -3.703   1.626  -0.012  0.00  0.00     0.082 C 
BRANCH  12  13
ATOM     13  C   UNL d   1      -5.236   1.670  -0.019  0.00  0.00     0.010 C 
BRANCH  13  14
ATOM     14  C   UNL d   1      -5.768   3.109  -0.021  0.00  0.00     0.000 C 
BRANCH  14  15
ATOM     15  C   UNL d   1      -7.300   3.142  -0.029  0.00  0.00    -0.005 C 
ATOM     16  C   UNL d   1      -7.836   4.566  -0.032  0.00  0.00     0.005 C 
ENDBRANCH  14  15
ENDBRANCH  13  14
ENDBRANCH  12  13
ENDBRANCH  11  12
ENDBRANCH   2  11
TORSDOF 5
