REMARK  2 active torsions:
REMARK  status: ('A' for Active; 'I' for Inactive)
REMARK    1  A    between atoms: C_3  and  C_1 
REMARK    2  A    between atoms: C_13  and  N_2 
ROOT
ATOM      1  C   UNL d   1      -0.156  -1.345  -0.136  0.00  0.00     0.150 C 
ATOM      2  N   UNL d   1      -1.025  -0.398  -0.683  0.00  0.00    -0.224 N 
ATOM      3  N   UNL d   1      -0.338   0.760  -0.838  0.00  0.00     0.001 NA
ATOM      4  N   UNL d   1       0.831   0.574  -0.249  0.00  0.00    -0.007 NA
ATOM      5  N   UNL d   1       0.963  -0.714   0.183  0.00  0.00    -0.269 N 
ATOM      6  HN  UNL d   1       1.770  -1.115   0.660  1.00  0.00     0.185 HD
ENDROOT
BRANCH   1   7
ATOM      7  C   UNL d   1      -0.346  -2.799  -0.077  0.00  0.00     0.033 A 
ATOM      8  C   UNL d   1       0.061  -3.606   1.005  0.00  0.00    -0.034 A 
ATOM      9  C   UNL d   1      -0.113  -5.024   0.920  0.00  0.00    -0.003 A 
ATOM     10  C   UNL d   1       0.706  -3.014   2.238  0.00  0.00     0.050 C 
ATOM     11  C   UNL d   1       0.313  -5.942   1.912  0.00  0.00     0.014 A 
ATOM     12  C   UNL d   1      -0.743  -5.548  -0.233  0.00  0.00     0.042 A 
ATOM     13  C   UNL d   1       0.101  -7.315   1.779  0.00  0.00     0.001 A 
ATOM     14  C   UNL d   1      -0.549  -7.802   0.653  0.00  0.00     0.002 A 
ATOM     15  C   UNL d   1      -0.963  -6.912  -0.337  0.00  0.00     0.030 A 
ATOM     16  N   UNL d   1      -1.135  -4.781  -1.256  0.00  0.00    -0.364 N 
ATOM     17  C   UNL d   1      -0.899  -3.456  -1.176  0.00  0.00     0.104 A 
ATOM     18  HN  UNL d   1      -1.597  -5.186  -2.070  1.00  0.00     0.165 HD
ENDBRANCH   1   7
BRANCH   2  19
ATOM     19  C   UNL d   1      -2.385  -0.491  -1.071  0.00  0.00     0.056 A 
ATOM     20  C   UNL d   1      -3.250  -1.415  -0.472  0.00  0.00     0.032 A 
ATOM     21  C   UNL d   1      -4.572  -1.519  -0.909  0.00  0.00     0.009 A 
ATOM     22  C   UNL d   1      -5.049  -0.704  -1.942  0.00  0.00    -0.062 A 
ATOM     23  C   UNL d   1      -4.191   0.239  -2.518  0.00  0.00     0.009 A 
ATOM     24  C   UNL d   1      -6.475  -0.831  -2.394  0.00  0.00     0.048 C 
ATOM     25  C   UNL d   1      -2.870   0.357  -2.077  0.00  0.00     0.032 A 
ENDBRANCH   2  19
TORSDOF 2
