REMARK  6 active torsions:
REMARK  status: ('A' for Active; 'I' for Inactive)
REMARK    1  A    between atoms: S_4  and  C_1 
REMARK    2  A    between atoms: C_17  and  N_2 
REMARK    3  A    between atoms: N_5  and  C_3 
REMARK    4  A    between atoms: C_8  and  S_4 
REMARK    5  A    between atoms: O_20  and  C_9 
REMARK    6  A    between atoms: C_19  and  C_17 
ROOT
ATOM      1  C   UNL d   1      -0.068  -1.436   0.152  0.00  0.00     0.171 A 
ATOM      2  N   UNL d   1       1.072  -0.680   0.082  0.00  0.00    -0.287 N 
ATOM      3  N   UNL d   1      -1.109  -0.654   0.327  0.00  0.00    -0.276 N 
ATOM      4  HN  UNL d   1      -2.081  -0.954   0.400  1.00  0.00     0.189 HD
ATOM      5  C   UNL d   1       0.652   0.614   0.262  0.00  0.00     0.240 A 
ATOM      6  N   UNL d   1      -0.652   0.645   0.393  0.00  0.00    -0.263 N 
ATOM      7  HN  UNL d   1      -1.224   1.480   0.520  1.00  0.00     0.190 HD
ENDROOT
BRANCH   1   8
ATOM      8  S   UNL d   1      -0.123  -3.141  -0.111  0.00  0.00    -0.032 SA
BRANCH   8   9
ATOM      9  C   UNL d   1      -0.238  -3.760   1.564  0.00  0.00     0.110 A 
ATOM     10  C   UNL d   1      -0.637  -5.060   1.874  0.00  0.00     0.138 A 
ATOM     11  C   UNL d   1      -0.726  -5.492   3.205  0.00  0.00     0.059 A 
ATOM     12  C   UNL d   1      -0.411  -4.593   4.210  0.00  0.00     0.028 A 
ATOM     13  C   UNL d   1      -0.006  -3.319   3.849  0.00  0.00     0.108 A 
ATOM     14 BR   UNL d   1      -0.518  -5.100   6.021  0.00  0.00    -0.050 Br
ATOM     15  N   UNL d   1       0.111  -2.900   2.560  0.00  0.00    -0.357 N 
ATOM     16  HN  UNL d   1       0.453  -1.963   2.345  1.00  0.00     0.166 HD
BRANCH  10  17
ATOM     17  N   UNL d   1      -0.945  -6.021   0.843  0.00  0.00    -0.113 N 
ATOM     18  O   UNL d   1      -0.056  -6.279   0.020  0.00  0.00    -0.532 OA
ATOM     19  O   UNL d   1      -2.049  -6.577   0.908  0.00  0.00    -0.532 OA
ENDBRANCH  10  17
ENDBRANCH   8   9
ENDBRANCH   1   8
BRANCH   2  20
ATOM     20  C   UNL d   1       2.422  -1.109  -0.220  0.00  0.00     0.161 C 
BRANCH  20  21
ATOM     21  C   UNL d   1       3.245  -1.266   1.026  0.00  0.00    -0.017 C 
ATOM     22  C   UNL d   1       4.356  -0.567   1.302  0.00  0.00     0.008 C 
ENDBRANCH  20  21
ENDBRANCH   2  20
BRANCH   5  23
ATOM     23  O   UNL d   1       1.419   1.694   0.282  0.00  0.00    -0.331 OA
ATOM     24  H   UNL d   1       2.336   1.426   0.449  0.00  0.00     0.221 HD
ENDBRANCH   5  23
TORSDOF 6
