REMARK  7 active torsions:
REMARK  status: ('A' for Active; 'I' for Inactive)
REMARK    1  A    between atoms: O_8  and  C_1 
REMARK    2  A    between atoms: O_10  and  N_2 
REMARK    3  A    between atoms: C_4  and  O_10 
REMARK       I    between atoms: N_9  and  C_4 
REMARK    4  A    between atoms: C_5  and  C_13 
REMARK    5  A    between atoms: N_17  and  C_5 
REMARK    6  A    between atoms: C_18  and  O_8 
REMARK    7  A    between atoms: C_23  and  N_9 
ROOT
ATOM      1  N   UNL d   1      -5.240  -5.729   0.954  0.00  0.00    -0.244 N 
ATOM      2  HN  UNL d   1      -6.209  -5.980   1.151  1.00  0.00     0.196 HD
ATOM      3  C   UNL d   1      -4.817  -4.963  -0.022  0.00  0.00     0.109 C 
ENDROOT
BRANCH   3   4
ATOM      4  C   UNL d   1      -5.770  -4.355  -1.012  0.00  0.00     0.004 A 
ATOM      5  C   UNL d   1      -7.136  -4.249  -0.749  0.00  0.00     0.017 A 
ATOM      6  C   UNL d   1      -7.984  -3.643  -1.691  0.00  0.00     0.038 A 
ATOM      7  C   UNL d   1      -7.481  -3.142  -2.900  0.00  0.00     0.076 A 
ATOM      8  C   UNL d   1      -6.111  -3.212  -3.145  0.00  0.00     0.038 A 
ATOM      9  C   UNL d   1      -5.271  -3.845  -2.223  0.00  0.00     0.017 A 
BRANCH   7  10
ATOM     10  O   UNL d   1      -8.423  -2.610  -3.757  0.00  0.00    -0.307 OA
BRANCH  10  11
ATOM     11  C   UNL d   1      -8.107  -2.366  -5.077  0.00  0.00     0.122 A 
ATOM     12  C   UNL d   1      -7.701  -3.361  -5.975  0.00  0.00     0.085 A 
ATOM     13 CL   UNL d   1      -7.561  -5.028  -5.558  0.00  0.00    -0.080 Cl
ATOM     14  C   UNL d   1      -7.440  -2.993  -7.291  0.00  0.00     0.114 A 
ATOM     15  N   UNL d   1      -7.608  -1.741  -7.779  0.00  0.00    -0.372 N 
ATOM     16  C   UNL d   1      -8.075  -0.816  -6.910  0.00  0.00     0.114 A 
ATOM     17  HN  UNL d   1      -7.394  -1.509  -8.749  1.00  0.00     0.164 HD
ATOM     18  C   UNL d   1      -8.333  -1.074  -5.569  0.00  0.00     0.085 A 
ATOM     19 CL   UNL d   1      -8.942   0.196  -4.576  0.00  0.00    -0.080 Cl
ENDBRANCH  10  11
ENDBRANCH   7  10
ENDBRANCH   3   4
BRANCH   3  20
ATOM     20  N   UNL d   1      -3.477  -4.663  -0.177  0.00  0.00    -0.286 NA
ATOM     21  H   UNL d   1      -2.926  -4.942   0.630  0.00  0.00     0.125 HD
ATOM     22  H   UNL d   1      -3.267  -3.710  -0.455  0.00  0.00     0.125 HD
ENDBRANCH   3  20
BRANCH   1  23
ATOM     23  O   UNL d   1      -4.094  -6.146   1.688  0.00  0.00    -0.179 OA
BRANCH  23  24
ATOM     24  C   UNL d   1      -4.319  -6.984   2.756  0.00  0.00     0.387 C 
ATOM     25  N   UNL d   1      -5.644  -7.249   3.017  0.00  0.00    -0.301 N 
ATOM     26  H   UNL d   1      -6.269  -6.782   2.372  0.00  0.00     0.171 HD
ATOM     27  O   UNL d   1      -3.357  -7.401   3.390  0.00  0.00    -0.236 OA
BRANCH  25  28
ATOM     28  C   UNL d   1      -6.163  -8.058   4.048  0.00  0.00     0.036 A 
ATOM     29  C   UNL d   1      -5.369  -8.768   4.954  0.00  0.00     0.029 A 
ATOM     30  C   UNL d   1      -5.943  -9.563   5.954  0.00  0.00     0.002 A 
ATOM     31  C   UNL d   1      -7.327  -9.654   6.062  0.00  0.00     0.000 A 
ATOM     32  C   UNL d   1      -8.132  -8.947   5.172  0.00  0.00     0.002 A 
ATOM     33  C   UNL d   1      -7.554  -8.155   4.170  0.00  0.00     0.029 A 
ENDBRANCH  25  28
ENDBRANCH  23  24
ENDBRANCH   1  23
TORSDOF 7
