REMARK  3 active torsions:
REMARK  status: ('A' for Active; 'I' for Inactive)
REMARK    1  A    between atoms: C_9  and  N_3 
REMARK    2  A    between atoms: C_13  and  N_6 
REMARK    3  A    between atoms: C_10  and  C_8 
ROOT
ATOM      1  C   UNL d   1      -0.016  -0.806  -0.610  0.00  0.00     0.260 C 
ATOM      2  C   UNL d   1       0.063   0.693  -0.720  0.00  0.00     0.149 C 
ATOM      3  N   UNL d   1      -1.660   0.079   0.766  0.00  0.00    -0.250 N 
ATOM      4  C   UNL d   1      -1.300  -1.076   0.110  0.00  0.00     0.263 C 
ATOM      5  C   UNL d   1      -0.996   1.165   0.243  0.00  0.00     0.241 C 
ATOM      6  N   UNL d   1       1.672  -0.108   0.727  0.00  0.00    -0.247 N 
ATOM      7  O   UNL d   1       0.989  -1.258   0.308  0.00  0.00    -0.261 OA
ATOM      8  C   UNL d   1       1.433   1.021  -0.164  0.00  0.00     0.164 C 
ATOM      9  O   UNL d   1      -1.881  -2.153   0.078  0.00  0.00    -0.270 OA
ATOM     10  O   UNL d   1      -1.163   2.359   0.476  0.00  0.00    -0.272 OA
ENDROOT
BRANCH   3  11
ATOM     11  C   UNL d   1      -2.530   0.104   1.889  0.00  0.00     0.045 A 
ATOM     12  C   UNL d   1      -2.650  -1.040   2.698  0.00  0.00     0.031 A 
ATOM     13  C   UNL d   1      -3.394  -1.021   3.880  0.00  0.00     0.009 A 
ATOM     14  C   UNL d   1      -4.065   0.137   4.272  0.00  0.00    -0.062 A 
ATOM     15  C   UNL d   1      -3.970   1.275   3.467  0.00  0.00     0.009 A 
ATOM     16  C   UNL d   1      -4.835   0.152   5.558  0.00  0.00     0.048 C 
ATOM     17  C   UNL d   1      -3.202   1.262   2.294  0.00  0.00     0.031 A 
ENDBRANCH   3  11
BRANCH   8  18
ATOM     18  C   UNL d   1       2.513   1.102  -1.240  0.00  0.00    -0.032 A 
ATOM     19  C   UNL d   1       2.774   2.334  -1.865  0.00  0.00     0.012 A 
ATOM     20  C   UNL d   1       3.793   2.444  -2.816  0.00  0.00     0.043 A 
ATOM     21  C   UNL d   1       4.550   1.328  -3.152  0.00  0.00     0.116 A 
ATOM     22  C   UNL d   1       4.305   0.099  -2.561  0.00  0.00     0.043 A 
ATOM     23  F   UNL d   1       5.534   1.442  -4.053  0.00  0.00    -0.206 F 
ATOM     24  C   UNL d   1       3.289  -0.014  -1.613  0.00  0.00     0.012 A 
ENDBRANCH   8  18
BRANCH   6  25
ATOM     25  C   UNL d   1       2.423  -0.081   1.896  0.00  0.00     0.058 A 
ATOM     26  C   UNL d   1       2.476  -1.216   2.722  0.00  0.00     0.031 A 
ATOM     27  C   UNL d   1       3.227  -1.232   3.901  0.00  0.00     0.002 A 
ATOM     28  C   UNL d   1       3.945  -0.104   4.281  0.00  0.00     0.000 A 
ATOM     29  C   UNL d   1       3.909   1.034   3.484  0.00  0.00     0.002 A 
ATOM     30  C   UNL d   1       3.155   1.042   2.304  0.00  0.00     0.031 A 
ENDBRANCH   6  25
TORSDOF 3
