REMARK  2 active torsions:
REMARK  status: ('A' for Active; 'I' for Inactive)
REMARK    1  A    between atoms: C_2  and  S_1 
REMARK    2  A    between atoms: N_8  and  S_1 
ROOT
ATOM      1  C   UNL d   1       0.436  -0.736  -1.567  0.00  0.00     0.090 A 
ATOM      2  C   UNL d   1       0.642  -2.099  -1.831  0.00  0.00     0.030 A 
ATOM      3  C   UNL d   1      -0.204   0.069  -2.526  0.00  0.00     0.028 A 
ATOM      4  C   UNL d   1       0.208  -2.637  -3.053  0.00  0.00     0.043 A 
ATOM      5  C   UNL d   1      -0.427  -1.829  -3.994  0.00  0.00     0.035 A 
ATOM      6  I   UNL d   1       1.568  -3.478  -0.539  0.00  0.00    -0.043 I 
ATOM      7  C   UNL d   1      -0.634  -0.478  -3.737  0.00  0.00     0.025 A 
ATOM      8 CL   UNL d   1      -0.963  -2.509  -5.480  0.00  0.00    -0.084 Cl
ENDROOT
BRANCH   1   9
ATOM      9  S   UNL d   1       0.898   0.034  -0.038  0.00  0.00     0.240 S 
ATOM     10  O   UNL d   1       0.322  -0.704   1.058  0.00  0.00    -0.206 OA
ATOM     11  O   UNL d   1       0.727   1.462  -0.161  0.00  0.00    -0.206 OA
BRANCH   9  12
ATOM     12  N   UNL d   1       2.561  -0.191   0.025  0.00  0.00    -0.225 NA
ATOM     13  H   UNL d   1       2.794  -0.889   0.733  0.00  0.00     0.136 HD
ATOM     14  H   UNL d   1       3.024   0.707   0.164  0.00  0.00     0.136 HD
ENDBRANCH   9  12
ENDBRANCH   1   9
TORSDOF 2
