REMARK  3 active torsions:
REMARK  status: ('A' for Active; 'I' for Inactive)
REMARK    1  A    between atoms: C_7  and  C_1 
REMARK    2  A    between atoms: C_8  and  C_5 
REMARK    3  A    between atoms: O_10  and  C_7 
ROOT
ATOM      1  C   UNL d   1      -0.066   1.075  -0.010  0.00  0.00     0.173 A 
ATOM      2  N   UNL d   1       0.193  -1.159   0.079  0.00  0.00    -0.337 N 
ATOM      3  HN  UNL d   1       0.601  -2.092   0.133  1.00  0.00     0.168 HD
ATOM      4  O   UNL d   1      -1.321   0.512  -0.021  0.00  0.00    -0.284 OA
ATOM      5  C   UNL d   1      -1.086  -0.840   0.025  0.00  0.00     0.159 A 
ATOM      6  C   UNL d   1       0.853   0.047   0.047  0.00  0.00     0.048 A 
ATOM      7  C   UNL d   1       2.330   0.104   0.055  0.00  0.00     0.071 C 
ENDROOT
BRANCH   5   8
ATOM      8  C   UNL d   1      -2.243  -1.726  -0.049  0.00  0.00     0.015 A 
ATOM      9  C   UNL d   1      -3.559  -1.244  -0.118  0.00  0.00     0.016 A 
ATOM     10  C   UNL d   1      -4.634  -2.129  -0.244  0.00  0.00     0.001 A 
ATOM     11  C   UNL d   1      -4.408  -3.503  -0.297  0.00  0.00     0.000 A 
ATOM     12  C   UNL d   1      -3.110  -3.997  -0.212  0.00  0.00     0.001 A 
ATOM     13  C   UNL d   1      -2.036  -3.114  -0.085  0.00  0.00     0.016 A 
ENDBRANCH   5   8
BRANCH   1  14
ATOM     14  C   UNL d   1       0.079   2.503  -0.070  0.00  0.00     0.203 C 
ATOM     15  O   UNL d   1       1.132   3.123  -0.062  0.00  0.00    -0.644 OA
BRANCH  14  16
ATOM     16  O   UNL d   1      -1.131   3.119  -0.146  0.00  0.00    -0.771 OA
ATOM     17  H   UNL d   1      -1.854   2.458  -0.145  0.00  0.00     0.167 HD
ENDBRANCH  14  16
ENDBRANCH   1  14
TORSDOF 3
