REMARK  5 active torsions:
REMARK  status: ('A' for Active; 'I' for Inactive)
REMARK    1  A    between atoms: C_7  and  C_1 
REMARK    2  A    between atoms: C_11  and  N_4 
REMARK    3  A    between atoms: S_15  and  C_5 
REMARK       I    between atoms: N_9  and  C_7 
REMARK    4  A    between atoms: C_8  and  C_10 
REMARK    5  A    between atoms: C_13  and  N_9 
ROOT
ATOM      1  C   UNL d   1      -0.363   1.086   0.315  0.00  0.00     0.084 A 
ATOM      2  N   UNL d   1       0.791  -0.835   0.772  0.00  0.00    -0.287 N 
ATOM      3  HN  UNL d   1       1.520  -1.479   1.080  1.00  0.00     0.188 HD
ATOM      4  N   UNL d   1      -0.403  -1.146   0.207  0.00  0.00    -0.266 N 
ATOM      5  C   UNL d   1       0.803   0.495   0.837  0.00  0.00     0.102 A 
ATOM      6  C   UNL d   1      -1.102  -0.009  -0.112  0.00  0.00     0.136 A 
ENDROOT
BRANCH   1   7
ATOM      7  C   UNL d   1      -0.817   2.463   0.167  0.00  0.00     0.260 C 
ATOM      8  N   UNL d   1       0.049   3.444   0.616  0.00  0.00    -0.323 N 
ATOM      9  H   UNL d   1       0.969   3.140   0.914  0.00  0.00     0.169 HD
ATOM     10  O   UNL d   1      -1.905   2.679  -0.362  0.00  0.00    -0.267 OA
BRANCH   8  11
ATOM     11  C   UNL d   1      -0.170   4.838   0.567  0.00  0.00     0.035 A 
ATOM     12  C   UNL d   1      -1.426   5.404   0.337  0.00  0.00     0.045 A 
ATOM     13  C   UNL d   1      -1.590   6.792   0.211  0.00  0.00     0.050 A 
ATOM     14  C   UNL d   1      -0.470   7.622   0.352  0.00  0.00     0.016 A 
ATOM     15  C   UNL d   1       0.782   7.072   0.629  0.00  0.00     0.003 A 
ATOM     16  C   UNL d   1       0.929   5.684   0.745  0.00  0.00     0.029 A 
BRANCH  13  17
ATOM     17  C   UNL d   1      -2.945   7.380  -0.094  0.00  0.00     0.417 C 
ATOM     18  F   UNL d   1      -3.936   6.454  -0.218  0.00  0.00    -0.166 F 
ATOM     19  F   UNL d   1      -3.366   8.246   0.870  0.00  0.00    -0.166 F 
ATOM     20  F   UNL d   1      -2.950   8.088  -1.258  0.00  0.00    -0.166 F 
ENDBRANCH  13  17
ENDBRANCH   8  11
ENDBRANCH   1   7
BRANCH   5  21
ATOM     21  S   UNL d   1       2.189   1.324   1.510  0.00  0.00    -0.114 SA
ATOM     22  C   UNL d   1       3.527   0.349   0.784  0.00  0.00     0.097 C 
ENDBRANCH   5  21
BRANCH   4  23
ATOM     23  C   UNL d   1      -0.788  -2.501   0.015  0.00  0.00     0.056 A 
ATOM     24  C   UNL d   1      -2.018  -2.846  -0.558  0.00  0.00     0.031 A 
ATOM     25  C   UNL d   1      -2.359  -4.194  -0.719  0.00  0.00     0.002 A 
ATOM     26  C   UNL d   1      -1.481  -5.199  -0.315  0.00  0.00     0.000 A 
ATOM     27  C   UNL d   1      -0.255  -4.861   0.252  0.00  0.00     0.002 A 
ATOM     28  C   UNL d   1       0.092  -3.520   0.417  0.00  0.00     0.031 A 
ENDBRANCH   4  23
TORSDOF 5
