REMARK  2 active torsions:
REMARK  status: ('A' for Active; 'I' for Inactive)
REMARK    1  A    between atoms: C_2  and  C_1 
REMARK       I    between atoms: N_5  and  C_2 
REMARK    2  A    between atoms: C_4  and  N_5 
ROOT
ATOM      1  C   UNL d   1       1.560   2.484  -0.251  0.00  0.00     0.260 C 
ATOM      2  N   UNL d   1       0.927   3.689  -0.010  0.00  0.00    -0.301 N 
ATOM      3  O   UNL d   1       2.753   2.365  -0.512  0.00  0.00    -0.267 OA
ATOM      4  H   UNL d   1      -0.031   3.702   0.305  0.00  0.00     0.171 HD
ENDROOT
BRANCH   1   5
ATOM      5  C   UNL d   1       0.690   1.310  -0.156  0.00  0.00     0.064 A 
ATOM      6  C   UNL d   1       1.134  -0.007  -0.168  0.00  0.00     0.065 A 
ATOM      7  O   UNL d   1       0.085  -0.868  -0.053  0.00  0.00    -0.319 OA
ATOM      8  C   UNL d   1       2.458  -0.662  -0.279  0.00  0.00     0.077 C 
ATOM      9  C   UNL d   1      -1.048  -0.125   0.009  0.00  0.00     0.050 A 
ATOM     10  C   UNL d   1      -0.737   1.215  -0.077  0.00  0.00     0.051 A 
ATOM     11  C   UNL d   1      -2.308  -0.883   0.141  0.00  0.00     0.076 C 
ENDBRANCH   1   5
BRANCH   2  12
ATOM     12  C   UNL d   1       1.551   4.896  -0.222  0.00  0.00     0.174 A 
ATOM     13  C   UNL d   1       1.100   6.181  -0.045  0.00  0.00     0.085 A 
ATOM     14  C   UNL d   1       2.136   6.992  -0.569  0.00  0.00     0.033 A 
ATOM     15  C   UNL d   1       2.167   8.459  -0.752  0.00  0.00     0.070 C 
ATOM     16  N   UNL d   1       3.176   6.253  -0.967  0.00  0.00    -0.264 N 
ATOM     17  O   UNL d   1       2.808   4.939  -0.743  0.00  0.00    -0.220 OA
ATOM     18  HN  UNL d   1       4.058   6.589  -1.354  1.00  0.00     0.194 HD
ENDBRANCH   2  12
TORSDOF 2
