REMARK  7 active torsions:
REMARK  status: ('A' for Active; 'I' for Inactive)
REMARK       I    between atoms: N_4  and  C_1 
REMARK    1  A    between atoms: C_8  and  C_1 
REMARK    2  A    between atoms: C_11  and  N_4 
REMARK    3  A    between atoms: C_5  and  C_10 
REMARK    4  A    between atoms: O_12  and  C_5 
REMARK    5  A    between atoms: C_6  and  C_8 
REMARK    6  A    between atoms: C_10  and  C_6 
REMARK    7  A    between atoms: C_18  and  C_13 
ROOT
ATOM      1  N   UNL d   1      -6.310  -3.190   2.083  0.00  0.00    -0.197 NA
ATOM      2  C   UNL d   1      -6.005  -2.147   1.674  0.00  0.00     0.063 C 
ATOM      3  C   UNL d   1      -5.634  -0.821   1.149  0.00  0.00     0.162 C 
ENDROOT
BRANCH   3   4
ATOM      4  C   UNL d   1      -4.225  -0.720   0.604  0.00  0.00    -0.045 A 
ATOM      5  C   UNL d   1      -3.561  -1.792  -0.009  0.00  0.00     0.010 A 
ATOM      6  C   UNL d   1      -2.214  -1.676  -0.386  0.00  0.00     0.030 A 
ATOM      7  C   UNL d   1      -1.510  -0.489  -0.158  0.00  0.00     0.034 A 
ATOM      8  C   UNL d   1      -2.214   0.619   0.312  0.00  0.00     0.030 A 
ATOM      9  C   UNL d   1      -3.554   0.506   0.692  0.00  0.00     0.010 A 
BRANCH   7  10
ATOM     10  N   UNL d   1      -0.110  -0.492  -0.357  0.00  0.00    -0.327 N 
ATOM     11  C   UNL d   1       0.782   0.462   0.120  0.00  0.00     0.222 C 
ATOM     12  O   UNL d   1       0.478   1.505   0.694  0.00  0.00    -0.273 OA
ATOM     13  H   UNL d   1       0.288  -1.355  -0.707  0.00  0.00     0.169 HD
BRANCH  11  14
ATOM     14  C   UNL d   1       2.238   0.061  -0.101  0.00  0.00     0.112 C 
BRANCH  14  15
ATOM     15  C   UNL d   1       3.326   1.046   0.425  0.00  0.00    -0.030 C 
ATOM     16  C   UNL d   1       4.713   0.457   0.075  0.00  0.00     0.016 C 
ATOM     17  C   UNL d   1       3.222   2.406  -0.306  0.00  0.00     0.016 C 
BRANCH  15  18
ATOM     18  C   UNL d   1       3.244   1.336   1.950  0.00  0.00     0.119 C 
BRANCH  18  19
ATOM     19  C   UNL d   1       3.348   0.148   2.882  0.00  0.00     0.140 C 
ATOM     20  O   UNL d   1       3.551  -1.008   2.551  0.00  0.00    -0.650 OA
BRANCH  19  21
ATOM     21  O   UNL d   1       3.209   0.511   4.180  0.00  0.00    -0.776 OA
ATOM     22  H   UNL d   1       3.032   1.464   4.303  0.00  0.00     0.167 HD
ENDBRANCH  19  21
ENDBRANCH  18  19
ENDBRANCH  15  18
ENDBRANCH  14  15
ENDBRANCH  11  14
ENDBRANCH   7  10
ENDBRANCH   3   4
TORSDOF 7
