REMARK  2 active torsions:
REMARK  status: ('A' for Active; 'I' for Inactive)
REMARK    1  A    between atoms: C_5  and  C_1 
REMARK    2  A    between atoms: N_12  and  C_6 
ROOT
ATOM      1  C   UNL d   1       1.543  -0.086  -0.028  0.00  0.00     0.177 A 
ATOM      2  S   UNL d   1       0.182  -1.141   0.038  0.00  0.00    -0.029 SA
ATOM      3  N   UNL d   1       1.215   1.192  -0.047  0.00  0.00    -0.288 N 
ATOM      4  HN  UNL d   1       1.893   1.953  -0.098  1.00  0.00     0.187 HD
ATOM      5  C   UNL d   1      -0.817   0.253   0.068  0.00  0.00     0.159 A 
ATOM      6  N   UNL d   1      -0.151   1.382   0.009  0.00  0.00    -0.279 N 
ATOM      7  HN  UNL d   1      -0.594   2.300   0.006  1.00  0.00     0.189 HD
ENDROOT
BRANCH   1   8
ATOM      8  C   UNL d   1       2.934  -0.623  -0.059  0.00  0.00     0.440 C 
ATOM      9  F   UNL d   1       2.988  -1.984  -0.045  0.00  0.00    -0.164 F 
ATOM     10  F   UNL d   1       3.610  -0.232  -1.173  0.00  0.00    -0.164 F 
ATOM     11  F   UNL d   1       3.668  -0.206   1.008  0.00  0.00    -0.164 F 
ENDBRANCH   1   8
BRANCH   5  12
ATOM     12  N   UNL d   1      -2.156   0.158   0.135  0.00  0.00    -0.379 N 
ATOM     13  H   UNL d   1      -2.602  -0.709  -0.139  0.00  0.00     0.158 HD
ATOM     14  H   UNL d   1      -2.681   0.995  -0.097  0.00  0.00     0.158 HD
ENDBRANCH   5  12
TORSDOF 2
