REMARK  8 active torsions:
REMARK  status: ('A' for Active; 'I' for Inactive)
REMARK    1  A    between atoms: N_3  and  S_1 
REMARK    2  A    between atoms: C_11  and  S_1 
REMARK    3  A    between atoms: C_2  and  N_3 
REMARK    4  A    between atoms: C_16  and  C_8 
REMARK    5  A    between atoms: C_15  and  C_9 
REMARK       I    between atoms: C_14  and  N_17 
REMARK    6  A    between atoms: N_17  and  C_25 
REMARK    7  A    between atoms: O_34  and  C_26 
REMARK    8  A    between atoms: O_35  and  C_27 
ROOT
ATOM      1  C   UNL d   1       0.737   0.432  -2.718  0.00  0.00     0.172 A 
ATOM      2  N   UNL d   1      -0.249   0.570  -3.602  0.00  0.00    -0.331 N 
ATOM      3  HN  UNL d   1      -1.172   0.160  -3.456  1.00  0.00     0.168 HD
ATOM      4  N   UNL d   1       1.976   0.918  -2.793  0.00  0.00    -0.331 N 
ATOM      5  HN  UNL d   1       2.662   0.769  -2.053  1.00  0.00     0.168 HD
ATOM      6  C   UNL d   1       0.053   1.289  -4.701  0.00  0.00     0.046 A 
ATOM      7  C   UNL d   1       2.265   1.618  -3.908  0.00  0.00     0.046 A 
ATOM      8  C   UNL d   1       1.313   1.833  -4.889  0.00  0.00     0.060 A 
ENDROOT
BRANCH   1   9
ATOM      9  N   UNL d   1       0.496  -0.409  -1.633  0.00  0.00    -0.151 NA
ATOM     10  H   UNL d   1       1.066  -0.114  -0.844  0.00  0.00     0.149 HD
BRANCH   9  11
ATOM     11  S   UNL d   1       0.909  -2.003  -1.969  0.00  0.00     0.248 S 
ATOM     12  O   UNL d   1       1.732  -2.431  -0.856  0.00  0.00    -0.205 OA
ATOM     13  O   UNL d   1       1.364  -2.174  -3.334  0.00  0.00    -0.205 OA
BRANCH  11  14
ATOM     14  C   UNL d   1      -0.649  -2.852  -1.817  0.00  0.00     0.075 A 
ATOM     15  C   UNL d   1      -1.470  -3.006  -2.936  0.00  0.00     0.027 A 
ATOM     16  C   UNL d   1      -2.620  -3.802  -2.846  0.00  0.00     0.031 A 
ATOM     17  C   UNL d   1      -2.954  -4.450  -1.646  0.00  0.00     0.034 A 
ATOM     18  C   UNL d   1      -2.128  -4.271  -0.533  0.00  0.00     0.031 A 
ATOM     19  C   UNL d   1      -0.976  -3.481  -0.616  0.00  0.00     0.027 A 
BRANCH  17  20
ATOM     20  N   UNL d   1      -4.104  -5.274  -1.641  0.00  0.00    -0.328 N 
ATOM     21  C   UNL d   1      -4.594  -6.017  -0.581  0.00  0.00     0.218 C 
ATOM     22  O   UNL d   1      -4.133  -6.072   0.554  0.00  0.00    -0.274 OA
ATOM     23  C   UNL d   1      -5.826  -6.818  -0.926  0.00  0.00     0.117 C 
ATOM     24  H   UNL d   1      -4.604  -5.338  -2.519  0.00  0.00     0.169 HD
ENDBRANCH  17  20
ENDBRANCH  11  14
ENDBRANCH   9  11
ENDBRANCH   1   9
BRANCH   6  25
ATOM     25  C   UNL d   1      -1.027   1.442  -5.696  0.00  0.00    -0.009 A 
ATOM     26  C   UNL d   1      -2.373   1.527  -5.300  0.00  0.00     0.016 A 
ATOM     27  C   UNL d   1      -3.405   1.675  -6.237  0.00  0.00     0.037 A 
ATOM     28  C   UNL d   1      -3.110   1.734  -7.597  0.00  0.00     0.068 A 
ATOM     29  C   UNL d   1      -1.782   1.672  -8.010  0.00  0.00     0.037 A 
ATOM     30  C   UNL d   1      -0.756   1.515  -7.074  0.00  0.00     0.016 A 
BRANCH  28  31
ATOM     31  O   UNL d   1      -4.025   1.892  -8.600  0.00  0.00    -0.356 OA
ATOM     32  C   UNL d   1      -5.307   1.329  -8.346  0.00  0.00     0.210 C 
ENDBRANCH  28  31
ENDBRANCH   6  25
BRANCH   7  33
ATOM     33  C   UNL d   1       3.659   2.094  -4.050  0.00  0.00    -0.009 A 
ATOM     34  C   UNL d   1       4.734   1.357  -3.521  0.00  0.00     0.016 A 
ATOM     35  C   UNL d   1       6.065   1.772  -3.688  0.00  0.00     0.037 A 
ATOM     36  C   UNL d   1       6.352   2.941  -4.386  0.00  0.00     0.068 A 
ATOM     37  C   UNL d   1       5.300   3.688  -4.913  0.00  0.00     0.037 A 
ATOM     38  C   UNL d   1       3.974   3.275  -4.745  0.00  0.00     0.016 A 
BRANCH  36  39
ATOM     39  O   UNL d   1       7.593   3.461  -4.622  0.00  0.00    -0.356 OA
ATOM     40  C   UNL d   1       8.700   2.756  -4.078  0.00  0.00     0.210 C 
ENDBRANCH  36  39
ENDBRANCH   7  33
TORSDOF 8
