REMARK  4 active torsions:
REMARK  status: ('A' for Active; 'I' for Inactive)
REMARK    1  A    between atoms: C_14  and  C_1 
REMARK    2  A    between atoms: C_2  and  N_7 
REMARK    3  A    between atoms: C_3  and  C_4 
REMARK    4  A    between atoms: N_13  and  C_14 
ROOT
ATOM      1  N   UNL d   1       1.046  -1.720   0.460  0.00  0.00    -0.265 NA
ATOM      2  N   UNL d   1      -1.603  -3.082   0.226  0.00  0.00     0.095 N 
ATOM      3  C   UNL d   1       0.566  -2.253  -0.839  0.00  0.00     0.127 C 
ATOM      4  C   UNL d   1      -0.017  -1.536   1.481  0.00  0.00     0.127 C 
ATOM      5  C   UNL d   1      -0.470  -3.392  -0.675  0.00  0.00     0.287 C 
ATOM      6  C   UNL d   1      -1.004  -2.717   1.534  0.00  0.00     0.287 C 
ENDROOT
BRANCH   1   7
ATOM      7  C   UNL d   1       1.751  -0.503   0.231  0.00  0.00     0.104 A 
ATOM      8  N   UNL d   1       1.107   0.670   0.473  0.00  0.00    -0.354 N 
ATOM      9  C   UNL d   1       1.719   1.838   0.176  0.00  0.00     0.105 A 
ATOM     10  HN  UNL d   1       0.169   0.668   0.875  1.00  0.00     0.166 HD
ATOM     11  C   UNL d   1       2.980   1.926  -0.381  0.00  0.00     0.065 A 
ATOM     12  C   UNL d   1       3.664   0.728  -0.600  0.00  0.00     0.044 A 
ATOM     13  C   UNL d   1       3.057  -0.494  -0.290  0.00  0.00     0.073 A 
ATOM     14 CL   UNL d   1       3.981  -1.932  -0.546  0.00  0.00    -0.081 Cl
BRANCH  11  15
ATOM     15  C   UNL d   1       3.571   3.264  -0.690  0.00  0.00     0.418 C 
ATOM     16  F   UNL d   1       4.480   3.223  -1.703  0.00  0.00    -0.166 F 
ATOM     17  F   UNL d   1       2.638   4.184  -1.064  0.00  0.00    -0.166 F 
ATOM     18  F   UNL d   1       4.221   3.803   0.377  0.00  0.00    -0.166 F 
ENDBRANCH  11  15
ENDBRANCH   1   7
BRANCH   2  19
ATOM     19  C   UNL d   1      -2.446  -2.014  -0.359  0.00  0.00     0.313 C 
BRANCH  19  20
ATOM     20  C   UNL d   1      -3.602  -1.688   0.535  0.00  0.00    -0.002 A 
ATOM     21  C   UNL d   1      -4.719  -2.470   0.761  0.00  0.00     0.098 A 
ATOM     22  N   UNL d   1      -5.484  -1.863   1.720  0.00  0.00    -0.365 N 
ATOM     23  C   UNL d   1      -4.897  -0.686   2.125  0.00  0.00     0.043 A 
ATOM     24  H   UNL d   1      -6.344  -2.234   2.097  0.00  0.00     0.165 HD
ATOM     25  C   UNL d   1      -3.754  -0.509   1.345  0.00  0.00    -0.000 A 
ATOM     26  C   UNL d   1      -5.285   0.221   3.117  0.00  0.00     0.030 A 
ATOM     27  C   UNL d   1      -3.000   0.668   1.527  0.00  0.00     0.014 A 
ATOM     28  C   UNL d   1      -3.364   1.580   2.522  0.00  0.00     0.001 A 
ATOM     29  C   UNL d   1      -4.485   1.350   3.314  0.00  0.00     0.002 A 
ENDBRANCH  19  20
ENDBRANCH   2  19
TORSDOF 4
