REMARK  3 active torsions:
REMARK  status: ('A' for Active; 'I' for Inactive)
REMARK    1  A    between atoms: N_2  and  C_1 
REMARK    2  A    between atoms: C_4  and  N_2 
REMARK    3  A    between atoms: C_16  and  C_10 
ROOT
ATOM      1  N   UNL d   1       2.343   0.032   0.592  0.00  0.00    -0.336 N 
ATOM      2  HN  UNL d   1       2.822  -0.868   0.604  1.00  0.00     0.168 HD
ENDROOT
BRANCH   1   3
ATOM      3  C   UNL d   1       1.060   0.081   0.656  0.00  0.00     0.141 C 
ATOM      4  N   UNL d   1       0.193   1.134   0.656  0.00  0.00    -0.365 N 
ATOM      5  C   UNL d   1      -1.055   0.940   1.379  0.00  0.00     0.093 C 
ATOM      6  H   UNL d   1       0.615   2.053   0.694  0.00  0.00     0.162 HD
ATOM      7  C   UNL d   1      -1.230  -0.567   1.637  0.00  0.00     0.107 C 
ATOM      8  S   UNL d   1       0.179  -1.419   0.870  0.00  0.00    -0.092 SA
BRANCH   5   9
ATOM      9  C   UNL d   1      -2.230   1.530   0.594  0.00  0.00     0.021 C 
ATOM     10  C   UNL d   1      -2.160   3.049   0.492  0.00  0.00     0.007 C 
ENDBRANCH   5   9
ENDBRANCH   1   3
BRANCH   1  11
ATOM     11  C   UNL d   1       3.084   1.226   0.507  0.00  0.00     0.046 A 
ATOM     12  C   UNL d   1       3.156   2.129   1.593  0.00  0.00    -0.035 A 
ATOM     13  C   UNL d   1       3.890   3.322   1.460  0.00  0.00     0.009 A 
ATOM     14  C   UNL d   1       2.451   1.883   2.900  0.00  0.00     0.050 C 
ATOM     15  C   UNL d   1       4.600   3.590   0.297  0.00  0.00     0.001 A 
ATOM     16  C   UNL d   1       4.586   2.673  -0.750  0.00  0.00     0.009 A 
ATOM     17  C   UNL d   1       3.833   1.491  -0.659  0.00  0.00    -0.035 A 
ATOM     18  C   UNL d   1       3.916   0.514  -1.802  0.00  0.00     0.050 C 
ENDBRANCH   1  11
TORSDOF 3
