REMARK  4 active torsions:
REMARK  status: ('A' for Active; 'I' for Inactive)
REMARK    1  A    between atoms: C_5  and  C_1 
REMARK    2  A    between atoms: N_8  and  C_2 
REMARK       I    between atoms: C_9  and  N_8 
REMARK       I    between atoms: N_10  and  C_9 
REMARK    3  A    between atoms: N_14  and  N_10 
REMARK    4  A    between atoms: C_13  and  N_14 
ROOT
ATOM      1  C   UNL d   1      -1.521  -0.886   0.085  0.00  0.00     0.097 A 
ATOM      2  C   UNL d   1      -0.104  -1.136   0.080  0.00  0.00     0.097 A 
ATOM      3  N   UNL d   1      -1.755   0.429   0.233  0.00  0.00    -0.258 N 
ATOM      4  HN  UNL d   1      -2.666   0.887   0.268  1.00  0.00     0.195 HD
ATOM      5  C   UNL d   1       0.465   0.103   0.270  0.00  0.00     0.101 A 
ATOM      6  O   UNL d   1      -0.524   1.034   0.330  0.00  0.00    -0.240 OA
ATOM      7  C   UNL d   1       1.818   0.615   0.560  0.00  0.00     0.081 C 
ENDROOT
BRANCH   2   8
ATOM      8  N   UNL d   1       0.490  -2.383   0.057  0.00  0.00    -0.304 N 
ATOM      9  C   UNL d   1       1.486  -2.887  -0.708  0.00  0.00     0.335 C 
ATOM     10  N   UNL d   1       2.134  -2.087  -1.605  0.00  0.00    -0.267 N 
ATOM     11  O   UNL d   1       1.656  -4.112  -0.667  0.00  0.00    -0.246 OA
ATOM     12  H   UNL d   1       2.315  -1.102  -1.439  0.00  0.00     0.186 HD
ATOM     13  H   UNL d   1      -0.071  -3.147   0.414  0.00  0.00     0.171 HD
BRANCH  10  14
ATOM     14  N   UNL d   1       3.131  -2.748  -2.360  0.00  0.00    -0.186 NA
ATOM     15  H   UNL d   1       2.730  -3.534  -2.873  0.00  0.00     0.154 HD
BRANCH  14  16
ATOM     16  C   UNL d   1       3.891  -1.908  -3.198  0.00  0.00     0.098 A 
ATOM     17  N   UNL d   1       3.857  -0.565  -3.033  0.00  0.00    -0.356 N 
ATOM     18  C   UNL d   1       4.689   0.173  -3.805  0.00  0.00     0.089 A 
ATOM     19  HN  UNL d   1       3.231  -0.128  -2.356  1.00  0.00     0.166 HD
ATOM     20  C   UNL d   1       5.570  -0.360  -4.734  0.00  0.00     0.017 A 
ATOM     21  C   UNL d   1       5.605  -1.738  -4.886  0.00  0.00     0.005 A 
ATOM     22  C   UNL d   1       4.761  -2.521  -4.104  0.00  0.00     0.044 A 
ENDBRANCH  14  16
ENDBRANCH  10  14
ENDBRANCH   2   8
BRANCH   1  23
ATOM     23  C   UNL d   1      -2.616  -1.846  -0.100  0.00  0.00     0.038 A 
ATOM     24  C   UNL d   1      -2.750  -2.982   0.725  0.00  0.00     0.048 A 
ATOM     25 CL   UNL d   1      -1.734  -3.282   2.097  0.00  0.00    -0.083 Cl
ATOM     26  C   UNL d   1      -3.747  -3.939   0.487  0.00  0.00     0.025 A 
ATOM     27  C   UNL d   1      -4.660  -3.761  -0.546  0.00  0.00     0.003 A 
ATOM     28  C   UNL d   1      -4.572  -2.629  -1.348  0.00  0.00     0.025 A 
ATOM     29  C   UNL d   1      -3.554  -1.685  -1.141  0.00  0.00     0.048 A 
ATOM     30 CL   UNL d   1      -3.509  -0.367  -2.266  0.00  0.00    -0.083 Cl
ENDBRANCH   1  23
TORSDOF 4
