REMARK  3 active torsions:
REMARK  status: ('A' for Active; 'I' for Inactive)
REMARK    1  A    between atoms: C_2  and  C_1 
REMARK       I    between atoms: N_4  and  C_2 
REMARK    2  A    between atoms: N_5  and  N_4 
REMARK    3  A    between atoms: C_8  and  N_5 
ROOT
ATOM      1  C   UNL d   1       2.366  -1.984   0.185  0.00  0.00     0.269 C 
ATOM      2  N   UNL d   1       2.491  -3.361   0.215  0.00  0.00    -0.282 N 
ATOM      3  O   UNL d   1       1.299  -1.409  -0.016  0.00  0.00    -0.266 OA
ATOM      4  H   UNL d   1       3.403  -3.808   0.230  0.00  0.00     0.184 HD
ENDROOT
BRANCH   2   5
ATOM      5  N   UNL d   1       1.384  -4.140  -0.157  0.00  0.00    -0.200 NA
ATOM      6  H   UNL d   1       0.502  -3.641   0.026  0.00  0.00     0.153 HD
BRANCH   5   7
ATOM      7  C   UNL d   1       1.361  -5.441   0.412  0.00  0.00     0.066 A 
ATOM      8  C   UNL d   1       0.130  -6.032   0.740  0.00  0.00     0.139 A 
ATOM      9  F   UNL d   1      -1.001  -5.321   0.609  0.00  0.00    -0.204 F 
ATOM     10  C   UNL d   1       0.042  -7.343   1.211  0.00  0.00     0.044 A 
ATOM     11  C   UNL d   1       1.199  -8.106   1.344  0.00  0.00     0.003 A 
ATOM     12  C   UNL d   1       2.431  -7.555   0.997  0.00  0.00     0.002 A 
ATOM     13  C   UNL d   1       2.509  -6.240   0.523  0.00  0.00     0.028 A 
ENDBRANCH   5   7
ENDBRANCH   2   5
BRANCH   1  14
ATOM     14  C   UNL d   1       3.610  -1.198   0.430  0.00  0.00     0.072 A 
ATOM     15  C   UNL d   1       4.835  -1.801   0.742  0.00  0.00     0.135 A 
ATOM     16  C   UNL d   1       5.968  -1.040   1.015  0.00  0.00     0.085 A 
ATOM     17  F   UNL d   1       4.956  -3.137   0.787  0.00  0.00    -0.205 F 
ATOM     18  C   UNL d   1       5.879   0.344   0.970  0.00  0.00     0.119 A 
ATOM     19  C   UNL d   1       4.682   0.973   0.645  0.00  0.00     0.043 A 
ATOM     20  F   UNL d   1       6.960   1.082   1.247  0.00  0.00    -0.206 F 
ATOM     21  C   UNL d   1       3.546   0.204   0.374  0.00  0.00     0.023 A 
ENDBRANCH   1  14
TORSDOF 3
