REMARK  1 active torsions:
REMARK  status: ('A' for Active; 'I' for Inactive)
REMARK       I    between atoms: C_3  and  N_4 
REMARK    1  A    between atoms: N_4  and  C_5 
ROOT
ATOM      1  C   UNL d   1      -0.045   0.650  -0.015  0.00  0.00     0.058 A 
ATOM      2  C   UNL d   1      -1.202   1.440  -0.044  0.00  0.00     0.055 A 
ATOM      3  C   UNL d   1      -2.469   0.849  -0.041  0.00  0.00     0.036 A 
ATOM      4  C   UNL d   1      -0.148  -0.743   0.017  0.00  0.00     0.055 A 
ATOM      5  C   UNL d   1      -1.409  -1.340   0.023  0.00  0.00     0.028 A 
ATOM      6 CL   UNL d   1       1.483   1.460  -0.022  0.00  0.00    -0.082 Cl
ATOM      7  C   UNL d   1      -2.562  -0.548  -0.006  0.00  0.00     0.031 A 
ATOM      8 CL   UNL d   1       1.234  -1.779   0.050  0.00  0.00    -0.083 Cl
ENDROOT
BRANCH   3   9
ATOM      9  N   UNL d   1      -3.679   1.576  -0.074  0.00  0.00    -0.327 N 
ATOM     10  C   UNL d   1      -3.829   2.950  -0.120  0.00  0.00     0.218 C 
ATOM     11  O   UNL d   1      -2.929   3.784  -0.134  0.00  0.00    -0.274 OA
ATOM     12  C   UNL d   1      -5.271   3.395  -0.154  0.00  0.00     0.117 C 
ATOM     13  H   UNL d   1      -4.528   1.024  -0.068  0.00  0.00     0.169 HD
ENDBRANCH   3   9
TORSDOF 1
