REMARK  5 active torsions:
REMARK  status: ('A' for Active; 'I' for Inactive)
REMARK    1  A    between atoms: N_4  and  C_1 
REMARK       I    between atoms: C_5  and  N_4 
REMARK    2  A    between atoms: C_10  and  C_5 
REMARK    3  A    between atoms: S_9  and  C_10 
REMARK    4  A    between atoms: C_12  and  S_9 
REMARK    5  A    between atoms: C_11  and  C_12 
ROOT
ATOM      1  N   UNL d   1       3.866   0.068   0.250  0.00  0.00    -0.355 N 
ATOM      2  C   UNL d   1       4.737   1.071  -0.134  0.00  0.00     0.227 C 
ATOM      3  O   UNL d   1       4.405   1.993  -0.876  0.00  0.00    -0.273 OA
ATOM      4  H   UNL d   1       4.227  -0.693   0.818  0.00  0.00     0.162 HD
ENDROOT
BRANCH   1   5
ATOM      5  C   UNL d   1       2.495   0.034  -0.231  0.00  0.00     0.092 C 
ATOM      6  C   UNL d   1       1.668  -1.146   0.327  0.00  0.00     0.064 C 
ATOM      7  C   UNL d   1       0.638  -1.325  -0.747  0.00  0.00    -0.050 A 
ATOM      8  C   UNL d   1      -0.562  -2.010  -0.678  0.00  0.00     0.007 A 
ATOM      9  C   UNL d   1       1.050  -0.717  -1.937  0.00  0.00    -0.050 A 
ATOM     10  C   UNL d   1      -1.360  -2.068  -1.824  0.00  0.00     0.001 A 
ATOM     11  C   UNL d   1      -0.944  -1.459  -3.019  0.00  0.00     0.001 A 
ATOM     12  C   UNL d   1       0.275  -0.782  -3.082  0.00  0.00     0.007 A 
ATOM     13  C   UNL d   1       2.386  -0.066  -1.773  0.00  0.00     0.064 C 
ENDBRANCH   1   5
BRANCH   2  14
ATOM     14  C   UNL d   1       6.132   0.983   0.447  0.00  0.00     0.176 C 
BRANCH  14  15
ATOM     15  S   UNL d   1       6.938  -0.604   0.072  0.00  0.00    -0.155 SA
BRANCH  15  16
ATOM     16  C   UNL d   1       6.967  -0.521  -1.756  0.00  0.00     0.112 C 
BRANCH  16  17
ATOM     17  C   UNL d   1       7.594  -1.774  -2.324  0.00  0.00    -0.049 A 
ATOM     18  C   UNL d   1       6.809  -2.910  -2.574  0.00  0.00     0.008 A 
ATOM     19  C   UNL d   1       7.393  -4.091  -3.038  0.00  0.00     0.001 A 
ATOM     20  C   UNL d   1       8.767  -4.148  -3.261  0.00  0.00     0.000 A 
ATOM     21  C   UNL d   1       9.557  -3.025  -3.025  0.00  0.00     0.001 A 
ATOM     22  C   UNL d   1       8.976  -1.845  -2.557  0.00  0.00     0.008 A 
ENDBRANCH  16  17
ENDBRANCH  15  16
ENDBRANCH  14  15
ENDBRANCH   2  14
TORSDOF 5
