REMARK  5 active torsions:
REMARK  status: ('A' for Active; 'I' for Inactive)
REMARK    1  A    between atoms: C_8  and  C_1 
REMARK    2  A    between atoms: S_10  and  C_2 
REMARK    3  A    between atoms: O_12  and  C_5 
REMARK    4  A    between atoms: O_13  and  C_8 
REMARK    5  A    between atoms: C_19  and  O_13 
ROOT
ATOM      1  C   UNL d   1       2.379   0.742  -0.079  0.00  0.00     0.106 A 
ATOM      2  C   UNL d   1       2.309  -0.648  -0.029  0.00  0.00     0.089 A 
ATOM      3  N   UNL d   1       1.122  -1.299   0.069  0.00  0.00    -0.348 N 
ATOM      4  HN  UNL d   1       1.115  -2.317   0.128  1.00  0.00     0.166 HD
ATOM      5  C   UNL d   1       1.159   1.444  -0.045  0.00  0.00     0.097 A 
ATOM      6  C   UNL d   1      -0.079   0.773   0.037  0.00  0.00     0.027 A 
ATOM      7  C   UNL d   1      -0.051  -0.628   0.089  0.00  0.00     0.068 A 
ATOM      8  C   UNL d   1      -1.279  -1.306   0.134  0.00  0.00     0.061 A 
ATOM      9 CL   UNL d   1      -1.328  -3.040   0.182  0.00  0.00    -0.082 Cl
ATOM     10  C   UNL d   1      -1.320   1.452   0.039  0.00  0.00     0.017 A 
ATOM     11  C   UNL d   1      -2.525   0.755   0.076  0.00  0.00     0.003 A 
ATOM     12  C   UNL d   1      -2.506  -0.630   0.124  0.00  0.00     0.026 A 
ENDROOT
BRANCH   1  13
ATOM     13  C   UNL d   1       3.618   1.527  -0.264  0.00  0.00     0.298 C 
ATOM     14  O   UNL d   1       3.588   2.623  -0.812  0.00  0.00    -0.259 OA
BRANCH  13  15
ATOM     15  O   UNL d   1       4.713   0.949   0.268  0.00  0.00    -0.318 OA
BRANCH  15  16
ATOM     16  C   UNL d   1       5.973   1.546  -0.079  0.00  0.00     0.174 C 
ATOM     17  C   UNL d   1       6.463   0.961  -1.393  0.00  0.00     0.034 C 
ENDBRANCH  15  16
ENDBRANCH  13  15
ENDBRANCH   1  13
BRANCH   2  18
ATOM     18  S   UNL d   1       3.718  -1.747  -0.184  0.00  0.00    -0.116 SA
ATOM     19  C   UNL d   1       2.926  -3.373  -0.042  0.00  0.00     0.097 C 
ENDBRANCH   2  18
BRANCH   5  20
ATOM     20  O   UNL d   1       1.109   2.823  -0.113  0.00  0.00    -0.359 OA
ATOM     21  H   UNL d   1       1.979   3.169  -0.411  0.00  0.00     0.217 HD
ENDBRANCH   5  20
TORSDOF 5
