REMARK  3 active torsions:
REMARK  status: ('A' for Active; 'I' for Inactive)
REMARK    1  A    between atoms: N_2  and  C_1 
REMARK    2  A    between atoms: N_3  and  C_1 
REMARK    3  A    between atoms: C_5  and  N_3 
ROOT
ATOM      1  C   UNL d   1       1.096  -0.013  -0.057  0.00  0.00     0.179 C 
ATOM      2  S   UNL d   1       2.781  -0.057  -0.192  0.00  0.00    -0.040 SA
ENDROOT
BRANCH   1   3
ATOM      3  N   UNL d   1       0.311   1.140  -0.311  0.00  0.00    -0.323 N 
ATOM      4  C   UNL d   1      -0.952   1.418   0.335  0.00  0.00     0.043 A 
ATOM      5  C   UNL d   1      -1.791   2.434  -0.167  0.00  0.00    -0.031 A 
ATOM      6  C   UNL d   1      -1.347   0.765   1.514  0.00  0.00     0.030 A 
ATOM      7  C   UNL d   1      -3.013   2.718   0.472  0.00  0.00     0.009 A 
ATOM      8  C   UNL d   1      -1.410   3.295  -1.343  0.00  0.00     0.042 C 
ATOM      9  C   UNL d   1      -3.399   2.029   1.616  0.00  0.00     0.001 A 
ATOM     10  C   UNL d   1      -2.559   1.060   2.145  0.00  0.00     0.002 A 
ATOM     11  C   UNL d   1      -0.149   2.838  -2.052  0.00  0.00     0.025 C 
ATOM     12  C   UNL d   1       0.861   2.283  -1.066  0.00  0.00     0.132 C 
ENDBRANCH   1   3
BRANCH   1  13
ATOM     13  N   UNL d   1       0.339  -1.159   0.174  0.00  0.00    -0.333 N 
ATOM     14  H   UNL d   1      -0.537  -1.190  -0.333  0.00  0.00     0.168 HD
BRANCH  13  15
ATOM     15  C   UNL d   1       0.624  -2.256   1.027  0.00  0.00     0.040 A 
ATOM     16  C   UNL d   1      -0.016  -3.494   0.848  0.00  0.00    -0.035 A 
ATOM     17  C   UNL d   1       0.180  -4.513   1.808  0.00  0.00     0.015 A 
ATOM     18  C   UNL d   1      -0.873  -3.844  -0.338  0.00  0.00     0.050 C 
ATOM     19  C   UNL d   1       0.994  -4.317   2.931  0.00  0.00    -0.061 A 
ATOM     20  C   UNL d   1       1.629  -3.088   3.089  0.00  0.00     0.009 A 
ATOM     21  C   UNL d   1       1.154  -5.403   3.951  0.00  0.00     0.048 C 
ATOM     22  C   UNL d   1       1.444  -2.072   2.150  0.00  0.00     0.030 A 
ENDBRANCH  13  15
ENDBRANCH   1  13
TORSDOF 3
