REMARK  3 active torsions:
REMARK  status: ('A' for Active; 'I' for Inactive)
REMARK       I    between atoms: C_2  and  N_1 
REMARK       I    between atoms: N_7  and  C_2 
REMARK    1  A    between atoms: C_16  and  N_7 
REMARK    2  A    between atoms: O_22  and  C_10 
REMARK    3  A    between atoms: O_23  and  C_12 
ROOT
ATOM      1  N   UNL d   1      -2.462   0.683  -0.227  0.00  0.00    -0.325 N 
ATOM      2  C   UNL d   1      -3.288   1.043  -1.282  0.00  0.00     0.323 C 
ATOM      3  C   UNL d   1      -0.046   0.648   0.225  0.00  0.00    -0.026 A 
ATOM      4  C   UNL d   1      -1.341   1.444   0.341  0.00  0.00     0.118 C 
ATOM      5  C   UNL d   1      -0.054  -0.746   0.030  0.00  0.00    -0.045 A 
ATOM      6  C   UNL d   1       1.181   1.319   0.301  0.00  0.00     0.049 A 
ATOM      7  N   UNL d   1      -3.142   2.322  -1.767  0.00  0.00    -0.309 N 
ATOM      8  C   UNL d   1      -2.567  -0.687   0.280  0.00  0.00     0.133 C 
ATOM      9  C   UNL d   1       2.392   0.633   0.157  0.00  0.00     0.102 A 
ATOM     10  C   UNL d   1       1.163  -1.438  -0.085  0.00  0.00     0.047 A 
ATOM     11  C   UNL d   1       2.386  -0.764  -0.013  0.00  0.00     0.102 A 
ATOM     12  O   UNL d   1      -4.117   0.247  -1.720  0.00  0.00    -0.247 OA
ATOM     13  C   UNL d   1      -1.351  -1.502  -0.149  0.00  0.00     0.059 C 
ATOM     14  C   UNL d   1      -1.614   1.859   1.794  0.00  0.00     0.037 C 
ATOM     15  H   UNL d   1      -2.253   2.770  -1.643  0.00  0.00     0.170 HD
ENDROOT
BRANCH   7  16
ATOM     16  C   UNL d   1      -4.056   3.026  -2.586  0.00  0.00     0.039 A 
ATOM     17  C   UNL d   1      -5.346   2.568  -2.867  0.00  0.00     0.069 A 
ATOM     18  C   UNL d   1      -6.244   3.369  -3.572  0.00  0.00     0.104 A 
ATOM     19  O   UNL d   1      -7.499   2.853  -3.759  0.00  0.00    -0.346 OA
ATOM     20  C   UNL d   1      -5.856   4.627  -4.033  0.00  0.00     0.102 A 
ATOM     21  C   UNL d   1      -8.441   3.889  -4.048  0.00  0.00     0.202 C 
ATOM     22  C   UNL d   1      -7.902   4.824  -5.119  0.00  0.00     0.202 C 
ATOM     23  O   UNL d   1      -6.699   5.478  -4.697  0.00  0.00    -0.346 OA
ATOM     24  C   UNL d   1      -4.563   5.080  -3.792  0.00  0.00     0.042 A 
ATOM     25  C   UNL d   1      -3.665   4.283  -3.071  0.00  0.00     0.032 A 
ENDBRANCH   7  16
BRANCH   9  26
ATOM     26  O   UNL d   1       3.612   1.261   0.212  0.00  0.00    -0.353 OA
ATOM     27  C   UNL d   1       3.634   2.601  -0.268  0.00  0.00     0.210 C 
ENDBRANCH   9  26
BRANCH  11  28
ATOM     28  O   UNL d   1       3.614  -1.369  -0.124  0.00  0.00    -0.353 OA
ATOM     29  C   UNL d   1       3.633  -2.780  -0.294  0.00  0.00     0.210 C 
ENDBRANCH  11  28
TORSDOF 3
