REMARK  4 active torsions:
REMARK  status: ('A' for Active; 'I' for Inactive)
REMARK    1  A    between atoms: C_3  and  C_1 
REMARK    2  A    between atoms: C_15  and  N_2 
REMARK    3  A    between atoms: C_16  and  C_8 
REMARK    4  A    between atoms: N_17  and  C_16 
ROOT
ATOM      1  C   UNL d   1      -0.514  -2.807   0.192  0.00  0.00     0.050 A 
ATOM      2  C   UNL d   1      -1.028  -3.377  -0.967  0.00  0.00     0.054 A 
ATOM      3  N   UNL d   1      -1.179  -4.724  -1.107  0.00  0.00    -0.347 N 
ATOM      4  HN  UNL d   1      -1.518  -5.127  -1.980  1.00  0.00     0.167 HD
ATOM      5  C   UNL d   1      -0.310  -3.710   1.226  0.00  0.00     0.106 A 
ATOM      6  N   UNL d   1      -0.459  -5.048   1.128  0.00  0.00    -0.355 N 
ATOM      7  HN  UNL d   1      -0.271  -5.671   1.913  1.00  0.00     0.166 HD
ATOM      8  C   UNL d   1      -0.868  -5.508  -0.059  0.00  0.00     0.077 A 
ATOM      9  C   UNL d   1      -1.026  -6.987  -0.223  0.00  0.00     0.089 C 
ENDROOT
BRANCH   1  10
ATOM     10  C   UNL d   1      -0.256  -1.380   0.376  0.00  0.00     0.152 A 
ATOM     11  N   UNL d   1       0.808  -0.788   1.065  0.00  0.00    -0.224 N 
ATOM     12  N   UNL d   1       0.518   0.527   1.228  0.00  0.00     0.001 NA
ATOM     13  N   UNL d   1      -0.589   0.750   0.543  0.00  0.00    -0.007 NA
ATOM     14  N   UNL d   1      -1.088  -0.411   0.029  0.00  0.00    -0.269 N 
ATOM     15  HN  UNL d   1      -1.942  -0.513  -0.520  1.00  0.00     0.185 HD
BRANCH  11  16
ATOM     16  C   UNL d   1       1.993  -1.338   1.625  0.00  0.00     0.056 A 
ATOM     17  C   UNL d   1       2.579  -2.505   1.118  0.00  0.00     0.031 A 
ATOM     18  C   UNL d   1       3.680  -3.074   1.766  0.00  0.00     0.002 A 
ATOM     19  C   UNL d   1       4.211  -2.475   2.907  0.00  0.00     0.000 A 
ATOM     20  C   UNL d   1       3.665  -1.287   3.387  0.00  0.00     0.002 A 
ATOM     21  C   UNL d   1       2.571  -0.708   2.740  0.00  0.00     0.031 A 
ENDBRANCH  11  16
ENDBRANCH   1  10
BRANCH   2  22
ATOM     22  C   UNL d   1      -1.535  -2.563  -2.148  0.00  0.00     0.329 C 
BRANCH  22  23
ATOM     23  N   UNL d   1      -0.523  -1.761  -2.867  0.00  0.00     0.085 N 
ATOM     24  C   UNL d   1       0.467  -2.608  -3.533  0.00  0.00     0.309 C 
ATOM     25  C   UNL d   1      -1.208  -0.928  -3.864  0.00  0.00     0.309 C 
ENDBRANCH  22  23
ENDBRANCH   2  22
TORSDOF 4
