REMARK  0 active torsions:
REMARK  status: ('A' for Active; 'I' for Inactive)
ROOT
ATOM      1  C   UNL d   1       1.393  -1.368  -0.006  0.00  0.00     0.302 A 
ATOM      2  C   UNL d   1       2.331   0.772  -0.073  0.00  0.00     0.186 A 
ATOM      3  N   UNL d   1       1.217   1.419  -0.006  0.00  0.00    -0.333 N 
ATOM      4  HN  UNL d   1       1.195   2.439   0.016  1.00  0.00     0.168 HD
ATOM      5  O   UNL d   1       2.479  -0.566  -0.078  0.00  0.00    -0.254 OA
ATOM      6  C   UNL d   1       0.056  -0.729   0.083  0.00  0.00     0.072 A 
ATOM      7  C   UNL d   1       0.047   0.666   0.033  0.00  0.00     0.051 A 
ATOM      8  C   UNL d   1       3.597   1.449  -0.173  0.00  0.00     0.126 A 
ATOM      9  O   UNL d   1       4.738   0.716  -0.376  0.00  0.00    -0.318 OA
ATOM     10  O   UNL d   1       1.532  -2.580  -0.056  0.00  0.00    -0.259 OA
ATOM     11  C   UNL d   1      -1.161  -1.442   0.162  0.00  0.00    -0.043 A 
ATOM     12  C   UNL d   1       3.925   2.792  -0.131  0.00  0.00     0.043 A 
ATOM     13  C   UNL d   1       5.771   1.589  -0.470  0.00  0.00     0.142 A 
ATOM     14  C   UNL d   1       5.325   2.880  -0.322  0.00  0.00     0.027 A 
ATOM     15  C   UNL d   1      -1.167   1.358  -0.007  0.00  0.00     0.030 A 
ATOM     16  C   UNL d   1      -2.372   0.667  -0.028  0.00  0.00     0.003 A 
ATOM     17  C   UNL d   1      -2.368  -0.722   0.061  0.00  0.00     0.008 A 
ATOM     18  C   UNL d   1      -1.291  -2.931   0.336  0.00  0.00     0.049 C 
ENDROOT
TORSDOF 0
