REMARK  4 active torsions:
REMARK  status: ('A' for Active; 'I' for Inactive)
REMARK    1  A    between atoms: C_2  and  C_1 
REMARK       I    between atoms: N_7  and  C_1 
REMARK    2  A    between atoms: C_3  and  C_5 
REMARK    3  A    between atoms: C_4  and  C_6 
REMARK    4  A    between atoms: C_8  and  N_7 
ROOT
ATOM      1  C   UNL d   1      -3.172   0.490   0.605  0.00  0.00     0.050 A 
ATOM      2  C   UNL d   1      -3.265   1.419  -1.646  0.00  0.00     0.050 A 
ATOM      3  C   UNL d   1      -1.104   1.091  -0.553  0.00  0.00     0.036 A 
ATOM      4  C   UNL d   1      -3.911   0.915  -0.510  0.00  0.00     0.032 A 
ATOM      5  C   UNL d   1      -1.862   1.507  -1.650  0.00  0.00     0.045 A 
ATOM      6  C   UNL d   1      -1.767   0.580   0.569  0.00  0.00     0.045 A 
ENDROOT
BRANCH   3   7
ATOM      7  N   UNL d   1       0.309   1.111  -0.533  0.00  0.00    -0.323 N 
ATOM      8  C   UNL d   1       1.138   1.681  -1.489  0.00  0.00     0.262 C 
ATOM      9  O   UNL d   1       0.763   2.416  -2.396  0.00  0.00    -0.267 OA
ATOM     10  H   UNL d   1       0.752   0.678   0.271  0.00  0.00     0.169 HD
BRANCH   8  11
ATOM     11  C   UNL d   1       2.587   1.374  -1.384  0.00  0.00     0.109 A 
ATOM     12  C   UNL d   1       3.384   1.437  -2.532  0.00  0.00     0.135 A 
ATOM     13  F   UNL d   1       2.861   1.728  -3.732  0.00  0.00    -0.205 F 
ATOM     14  C   UNL d   1       4.751   1.160  -2.479  0.00  0.00     0.043 A 
ATOM     15  C   UNL d   1       5.345   0.814  -1.269  0.00  0.00     0.006 A 
ATOM     16  C   UNL d   1       4.564   0.742  -0.117  0.00  0.00     0.043 A 
ATOM     17  C   UNL d   1       3.196   1.020  -0.181  0.00  0.00     0.135 A 
ATOM     18  F   UNL d   1       2.479   0.928   0.950  0.00  0.00    -0.205 F 
ENDBRANCH   8  11
ENDBRANCH   3   7
BRANCH   2  19
ATOM     19  C   UNL d   1      -4.036   1.860  -2.868  0.00  0.00     0.417 C 
ATOM     20  F   UNL d   1      -5.376   1.628  -2.768  0.00  0.00    -0.166 F 
ATOM     21  F   UNL d   1      -3.907   3.191  -3.119  0.00  0.00    -0.166 F 
ATOM     22  F   UNL d   1      -3.634   1.218  -3.999  0.00  0.00    -0.166 F 
ENDBRANCH   2  19
BRANCH   1  23
ATOM     23  C   UNL d   1      -3.860  -0.059   1.832  0.00  0.00     0.417 C 
ATOM     24  F   UNL d   1      -5.208  -0.190   1.688  0.00  0.00    -0.166 F 
ATOM     25  F   UNL d   1      -3.400  -1.294   2.175  0.00  0.00    -0.166 F 
ATOM     26  F   UNL d   1      -3.674   0.727   2.926  0.00  0.00    -0.166 F 
ENDBRANCH   1  23
TORSDOF 4
