REMARK  5 active torsions:
REMARK  status: ('A' for Active; 'I' for Inactive)
REMARK    1  A    between atoms: C_2  and  C_1 
REMARK    2  A    between atoms: O_7  and  C_1 
REMARK    3  A    between atoms: N_3  and  O_7 
REMARK    4  A    between atoms: C_6  and  C_5 
REMARK    5  A    between atoms: N_19  and  C_5 
ROOT
ATOM      1  N   UNL d   1      -2.972  -0.521  -2.206  0.00  0.00    -0.246 N 
ATOM      2  HN  UNL d   1      -3.510  -0.655  -3.062  1.00  0.00     0.196 HD
ATOM      3  C   UNL d   1      -1.698  -0.759  -2.103  0.00  0.00     0.109 C 
ENDROOT
BRANCH   3   4
ATOM      4  C   UNL d   1      -0.987  -1.320  -3.300  0.00  0.00     0.004 A 
ATOM      5  C   UNL d   1      -1.450  -1.039  -4.596  0.00  0.00     0.024 A 
ATOM      6  C   UNL d   1      -0.770  -1.594  -5.671  0.00  0.00    -0.022 A 
ATOM      7  C   UNL d   1      -0.988  -1.428  -7.127  0.00  0.00     0.068 C 
ATOM      8  C   UNL d   1       0.341  -2.400  -5.472  0.00  0.00     0.075 A 
ATOM      9  C   UNL d   1      -0.096  -2.562  -7.636  0.00  0.00     0.180 C 
ATOM     10  O   UNL d   1       0.903  -2.864  -6.633  0.00  0.00    -0.350 OA
ATOM     11  C   UNL d   1       0.821  -2.686  -4.212  0.00  0.00     0.038 A 
ATOM     12  C   UNL d   1       0.145  -2.144  -3.115  0.00  0.00     0.017 A 
ENDBRANCH   3   4
BRANCH   3  13
ATOM     13  N   UNL d   1      -0.967  -0.519  -0.962  0.00  0.00    -0.286 NA
ATOM     14  H   UNL d   1      -1.447   0.093  -0.311  0.00  0.00     0.125 HD
ATOM     15  H   UNL d   1      -0.003  -0.241  -1.112  0.00  0.00     0.125 HD
ENDBRANCH   3  13
BRANCH   1  16
ATOM     16  O   UNL d   1      -3.525  -0.053  -0.987  0.00  0.00    -0.193 OA
BRANCH  16  17
ATOM     17  C   UNL d   1      -4.880   0.165  -1.138  0.00  0.00     0.322 C 
ATOM     18  O   UNL d   1      -5.501   0.052  -2.195  0.00  0.00    -0.257 OA
BRANCH  17  19
ATOM     19  C   UNL d   1      -5.513   0.572   0.110  0.00  0.00     0.082 A 
ATOM     20  S   UNL d   1      -4.692   0.638   1.613  0.00  0.00    -0.096 SA
ATOM     21  C   UNL d   1      -6.100   1.147   2.446  0.00  0.00     0.050 A 
ATOM     22  C   UNL d   1      -7.180   1.275   1.603  0.00  0.00     0.009 A 
ATOM     23  C   UNL d   1      -6.842   0.941   0.261  0.00  0.00     0.026 A 
ENDBRANCH  17  19
ENDBRANCH  16  17
ENDBRANCH   1  16
TORSDOF 5
