REMARK  4 active torsions:
REMARK  status: ('A' for Active; 'I' for Inactive)
REMARK    1  A    between atoms: C_2  and  C_3 
REMARK    2  A    between atoms: C_6  and  C_4 
REMARK    3  A    between atoms: O_13  and  C_9 
REMARK    4  A    between atoms: O_17  and  C_10 
ROOT
ATOM      1  C   UNL d   1      -0.107  -2.864  -0.730  0.00  0.00    -0.031 A 
ATOM      2  C   UNL d   1      -0.378  -3.609   0.459  0.00  0.00     0.015 A 
ATOM      3  C   UNL d   1      -0.791  -4.969   0.311  0.00  0.00     0.079 A 
ATOM      4  C   UNL d   1      -0.258  -3.494  -1.992  0.00  0.00     0.009 A 
ATOM      5  C   UNL d   1      -0.678  -4.812  -2.106  0.00  0.00     0.003 A 
ATOM      6  C   UNL d   1      -0.948  -5.542  -0.961  0.00  0.00     0.037 A 
ENDROOT
BRANCH   1   7
ATOM      7  C   UNL d   1       0.355  -1.389  -0.753  0.00  0.00     0.112 C 
ATOM      8  C   UNL d   1       1.799  -1.290  -1.313  0.00  0.00     0.228 C 
ATOM      9  N   UNL d   1       2.332  -0.033  -1.566  0.00  0.00    -0.356 N 
ATOM     10  O   UNL d   1       2.484  -2.299  -1.509  0.00  0.00    -0.273 OA
ATOM     11  C   UNL d   1       3.653   0.043  -2.176  0.00  0.00     0.152 C 
ATOM     12  C   UNL d   1       1.817   1.195  -0.976  0.00  0.00     0.125 C 
ATOM     13  C   UNL d   1       0.545   1.681  -1.650  0.00  0.00     0.020 C 
ATOM     14  C   UNL d   1      -0.691   0.925  -1.184  0.00  0.00     0.003 C 
ATOM     15  C   UNL d   1      -0.673  -0.557  -1.551  0.00  0.00     0.019 C 
ENDBRANCH   1   7
BRANCH   2  16
ATOM     16  C   UNL d   1      -0.269  -3.000   1.818  0.00  0.00    -0.020 A 
ATOM     17  C   UNL d   1       0.902  -2.345   2.248  0.00  0.00     0.049 A 
ATOM     18  C   UNL d   1       0.950  -1.663   3.470  0.00  0.00     0.069 A 
ATOM     19  C   UNL d   1      -0.147  -1.717   4.329  0.00  0.00     0.037 A 
ATOM     20  C   UNL d   1      -1.288  -2.426   3.966  0.00  0.00     0.004 A 
ATOM     21  C   UNL d   1      -1.353  -3.040   2.714  0.00  0.00     0.012 A 
BRANCH  18  22
ATOM     22  O   UNL d   1       1.988  -0.895   3.924  0.00  0.00    -0.356 OA
ATOM     23  C   UNL d   1       3.132  -0.799   3.086  0.00  0.00     0.210 C 
ENDBRANCH  18  22
ENDBRANCH   2  16
BRANCH   3  24
ATOM     24  O   UNL d   1      -1.034  -5.676   1.470  0.00  0.00    -0.355 OA
ATOM     25  C   UNL d   1      -1.251  -7.077   1.356  0.00  0.00     0.210 C 
ENDBRANCH   3  24
TORSDOF 4
