REMARK  4 active torsions:
REMARK  status: ('A' for Active; 'I' for Inactive)
REMARK    1  A    between atoms: C_7  and  N_1 
REMARK    2  A    between atoms: N_4  and  N_13 
REMARK    3  A    between atoms: C_6  and  N_4 
REMARK    4  A    between atoms: N_13  and  C_16 
ROOT
ATOM      1  N   UNL d   1      -1.185  -3.291  -5.091  0.00  0.00    -0.304 N 
ATOM      2  HN  UNL d   1      -1.554  -2.435  -4.677  1.00  0.00     0.186 HD
ENDROOT
BRANCH   1   3
ATOM      3  N   UNL d   1      -0.174  -3.989  -4.501  0.00  0.00    -0.301 N 
ATOM      4  H   UNL d   1      -0.291  -5.001  -4.439  0.00  0.00     0.187 HD
BRANCH   3   5
ATOM      5  C   UNL d   1       0.381  -3.458  -3.314  0.00  0.00     0.048 A 
ATOM      6  C   UNL d   1       1.061  -4.318  -2.437  0.00  0.00     0.033 A 
ATOM      7  C   UNL d   1       1.663  -3.833  -1.273  0.00  0.00     0.038 A 
ATOM      8  C   UNL d   1       1.619  -2.464  -0.996  0.00  0.00     0.103 A 
ATOM      9  C   UNL d   1       0.987  -1.581  -1.879  0.00  0.00     0.038 A 
ATOM     10  C   UNL d   1       0.380  -2.083  -3.036  0.00  0.00     0.033 A 
BRANCH   8  11
ATOM     11  N   UNL d   1       2.251  -1.950   0.227  0.00  0.00    -0.116 N 
ATOM     12  O   UNL d   1       2.213  -0.728   0.428  0.00  0.00    -0.532 OA
ATOM     13  O   UNL d   1       2.788  -2.772   0.986  0.00  0.00    -0.532 OA
ENDBRANCH   8  11
ENDBRANCH   3   5
ENDBRANCH   1   3
BRANCH   1  14
ATOM     14  C   UNL d   1      -1.656  -3.766  -6.206  0.00  0.00     0.038 C 
ATOM     15  C   UNL d   1      -2.755  -3.064  -6.833  0.00  0.00     0.019 A 
ATOM     16  C   UNL d   1      -3.107  -3.369  -8.129  0.00  0.00     0.064 A 
ATOM     17  C   UNL d   1      -3.647  -2.048  -6.422  0.00  0.00     0.040 A 
ATOM     18  O   UNL d   1      -4.159  -2.627  -8.544  0.00  0.00    -0.326 OA
ATOM     19  C   UNL d   1      -2.492  -4.363  -9.037  0.00  0.00     0.066 C 
ATOM     20  C   UNL d   1      -4.485  -1.821  -7.495  0.00  0.00     0.143 A 
ATOM     21  C   UNL d   1      -1.129  -4.790  -8.456  0.00  0.00     0.013 C 
ATOM     22  C   UNL d   1      -1.177  -5.026  -6.935  0.00  0.00     0.060 C 
ENDBRANCH   1  14
TORSDOF 4
