REMARK  2 active torsions:
REMARK  status: ('A' for Active; 'I' for Inactive)
REMARK    1  A    between atoms: C_12  and  C_8 
REMARK    2  A    between atoms: O_18  and  C_12 
ROOT
ATOM      1  N   UNL d   1       0.937   0.753  -0.011  0.00  0.00    -0.273 N 
ATOM      2  C   UNL d   1      -1.427   0.764  -0.012  0.00  0.00     0.100 A 
ATOM      3  C   UNL d   1      -0.227   1.548  -0.015  0.00  0.00     0.272 A 
ATOM      4  C   UNL d   1       0.845  -0.648  -0.012  0.00  0.00     0.114 A 
ATOM      5  N   UNL d   1      -0.250  -1.355  -0.019  0.00  0.00    -0.341 N 
ATOM      6  HN  UNL d   1      -0.249  -2.375  -0.026  1.00  0.00     0.167 HD
ATOM      7  C   UNL d   1      -1.425  -0.600  -0.015  0.00  0.00     0.057 A 
ATOM      8  C   UNL d   1       3.341   0.712   0.004  0.00  0.00     0.053 A 
ATOM      9  C   UNL d   1       2.180   1.389  -0.002  0.00  0.00     0.120 A 
ATOM     10  C   UNL d   1       3.307  -0.735   0.026  0.00  0.00     0.023 A 
ATOM     11  C   UNL d   1       2.139  -1.391   0.006  0.00  0.00     0.050 A 
ATOM     12  S   UNL d   1      -2.999   1.403  -0.002  0.00  0.00    -0.094 SA
ATOM     13  C   UNL d   1      -2.720  -1.162  -0.009  0.00  0.00     0.038 A 
ATOM     14  C   UNL d   1      -3.686  -0.175  -0.004  0.00  0.00     0.053 A 
ATOM     15  O   UNL d   1      -0.208   2.778  -0.023  0.00  0.00    -0.266 OA
ENDROOT
BRANCH   8  16
ATOM     16  C   UNL d   1       4.587   1.524   0.045  0.00  0.00     0.177 C 
ATOM     17  O   UNL d   1       4.625   2.679   0.442  0.00  0.00    -0.646 OA
BRANCH  16  18
ATOM     18  O   UNL d   1       5.686   0.889  -0.412  0.00  0.00    -0.773 OA
ATOM     19  H   UNL d   1       5.533   0.038  -0.856  0.00  0.00     0.167 HD
ENDBRANCH  16  18
ENDBRANCH   8  16
TORSDOF 2
