REMARK  3 active torsions:
REMARK  status: ('A' for Active; 'I' for Inactive)
REMARK    1  A    between atoms: C_3  and  C_1 
REMARK    2  A    between atoms: C_2  and  C_3 
REMARK    3  A    between atoms: C_13  and  C_5 
ROOT
ATOM      1  C   UNL d   1      -4.092  -0.660  -0.709  0.00  0.00     0.118 C 
ATOM      2  C   UNL d   1      -5.328  -1.189  -0.505  0.00  0.00     0.061 C 
ATOM      3  C   UNL d   1      -3.920   0.353  -1.692  0.00  0.00     0.105 C 
ATOM      4  N   UNL d   1      -3.792   1.169  -2.507  0.00  0.00    -0.191 NA
ATOM      5  S   UNL d   1      -6.752  -0.635  -1.398  0.00  0.00    -0.120 SA
ATOM      6  S   UNL d   1      -5.727  -2.526   0.547  0.00  0.00    -0.120 SA
ATOM      7  C   UNL d   1      -6.911  -3.258  -0.620  0.00  0.00     0.090 C 
ATOM      8  C   UNL d   1      -7.772  -2.130  -1.160  0.00  0.00     0.090 C 
ENDROOT
BRANCH   1   9
ATOM      9  C   UNL d   1      -2.851  -1.243  -0.097  0.00  0.00     0.207 C 
ATOM     10  O   UNL d   1      -2.822  -2.410   0.270  0.00  0.00    -0.286 OA
BRANCH   9  11
ATOM     11  C   UNL d   1      -1.600  -0.478  -0.075  0.00  0.00     0.047 A 
ATOM     12  C   UNL d   1      -0.310  -1.117  -0.100  0.00  0.00     0.051 A 
ATOM     13  C   UNL d   1       0.655  -0.139  -0.041  0.00  0.00     0.061 A 
ATOM     14  O   UNL d   1       0.040   1.073   0.039  0.00  0.00    -0.318 OA
ATOM     15  C   UNL d   1      -1.311   0.876   0.047  0.00  0.00     0.063 A 
ATOM     16  C   UNL d   1      -2.074   2.134   0.221  0.00  0.00     0.077 C 
BRANCH  13  17
ATOM     17  C   UNL d   1       2.165  -0.131  -0.042  0.00  0.00    -0.002 C 
ATOM     18  C   UNL d   1       2.730  -1.564  -0.084  0.00  0.00     0.021 C 
ATOM     19  C   UNL d   1       2.675   0.631  -1.278  0.00  0.00     0.021 C 
ATOM     20  C   UNL d   1       2.692   0.558   1.230  0.00  0.00     0.021 C 
ENDBRANCH  13  17
ENDBRANCH   9  11
ENDBRANCH   1   9
TORSDOF 3
