REMARK  8 active torsions:
REMARK  status: ('A' for Active; 'I' for Inactive)
REMARK    1  A    between atoms: N_3  and  S_1 
REMARK    2  A    between atoms: C_9  and  S_1 
REMARK    3  A    between atoms: N_2  and  C_6 
REMARK    4  A    between atoms: C_4  and  N_3 
REMARK    5  A    between atoms: C_12  and  C_4 
REMARK    6  A    between atoms: C_4  and  C_5 
REMARK    7  A    between atoms: O_17  and  C_5 
REMARK    8  A    between atoms: C_16  and  C_12 
ROOT
ATOM      1  C   UNL d   1       0.979  -0.329  -2.494  0.00  0.00     0.173 C 
ENDROOT
BRANCH   1   2
ATOM      2  C   UNL d   1       0.295  -0.727  -3.813  0.00  0.00     0.070 C 
BRANCH   2   3
ATOM      3  C   UNL d   1      -1.180  -0.411  -3.876  0.00  0.00    -0.056 A 
ATOM      4  C   UNL d   1      -1.637   0.913  -3.800  0.00  0.00     0.009 A 
ATOM      5  C   UNL d   1      -3.006   1.192  -3.812  0.00  0.00     0.036 A 
ATOM      6  C   UNL d   1      -3.925   0.141  -3.913  0.00  0.00     0.102 A 
ATOM      7  C   UNL d   1      -3.482  -1.183  -4.009  0.00  0.00     0.036 A 
ATOM      8  C   UNL d   1      -2.113  -1.453  -3.990  0.00  0.00     0.009 A 
BRANCH   6   9
ATOM      9  N   UNL d   1      -5.364   0.429  -3.922  0.00  0.00    -0.116 N 
ATOM     10  O   UNL d   1      -5.716   1.614  -3.833  0.00  0.00    -0.532 OA
ATOM     11  O   UNL d   1      -6.144  -0.529  -4.029  0.00  0.00    -0.532 OA
ENDBRANCH   6   9
ENDBRANCH   2   3
ENDBRANCH   1   2
BRANCH   1  12
ATOM     12  C   UNL d   1       0.331  -1.068  -1.323  0.00  0.00     0.159 C 
ATOM     13  O   UNL d   1      -0.622  -0.665  -0.675  0.00  0.00    -0.649 OA
BRANCH  12  14
ATOM     14  O   UNL d   1       0.891  -2.288  -1.113  0.00  0.00    -0.775 OA
ATOM     15  H   UNL d   1       1.673  -2.398  -1.696  0.00  0.00     0.167 HD
ENDBRANCH  12  14
ENDBRANCH   1  12
BRANCH   1  16
ATOM     16  N   UNL d   1       2.425  -0.732  -2.578  0.00  0.00    -0.201 NA
ATOM     17  H   UNL d   1       2.847  -0.658  -3.509  0.00  0.00     0.141 HD
BRANCH  16  18
ATOM     18  S   UNL d   1       3.475   0.054  -1.478  0.00  0.00     0.242 S 
ATOM     19  O   UNL d   1       2.709   1.022  -0.728  0.00  0.00    -0.206 OA
ATOM     20  O   UNL d   1       4.636   0.407  -2.255  0.00  0.00    -0.206 OA
BRANCH  18  21
ATOM     21  C   UNL d   1       3.909  -1.300  -0.433  0.00  0.00     0.074 A 
ATOM     22  C   UNL d   1       4.566  -2.392  -1.010  0.00  0.00     0.025 A 
ATOM     23  C   UNL d   1       4.876  -3.498  -0.226  0.00  0.00     0.002 A 
ATOM     24  C   UNL d   1       4.541  -3.504   1.131  0.00  0.00     0.000 A 
ATOM     25  C   UNL d   1       3.887  -2.407   1.701  0.00  0.00     0.002 A 
ATOM     26  C   UNL d   1       3.564  -1.297   0.919  0.00  0.00     0.025 A 
ENDBRANCH  18  21
ENDBRANCH  16  18
ENDBRANCH   1  16
TORSDOF 8
