REMARK  7 active torsions:
REMARK  status: ('A' for Active; 'I' for Inactive)
REMARK    1  A    between atoms: C_4  and  C_3 
REMARK    2  A    between atoms: S_11  and  C_5 
REMARK    3  A    between atoms: C_7  and  N_12 
REMARK    4  A    between atoms: N_20  and  C_7 
REMARK    5  A    between atoms: C_10  and  C_16 
REMARK       I    between atoms: N_13  and  C_10 
REMARK    6  A    between atoms: C_16  and  S_11 
REMARK    7  A    between atoms: N_12  and  N_13 
ROOT
ATOM      1  N   UNL d   1      -1.121   1.343  -0.119  0.00  0.00    -0.352 N 
ATOM      2  HN  UNL d   1      -1.142   2.361  -0.190  1.00  0.00     0.166 HD
ATOM      3  C   UNL d   1      -2.281   0.638  -0.070  0.00  0.00     0.118 A 
ATOM      4  C   UNL d   1      -1.069  -1.439   0.022  0.00  0.00     0.015 A 
ATOM      5  C   UNL d   1      -2.286  -0.752  -0.008  0.00  0.00     0.053 A 
ATOM      6  C   UNL d   1       0.050   0.693  -0.074  0.00  0.00     0.044 A 
ATOM      7  C   UNL d   1       0.149  -0.712   0.003  0.00  0.00     0.007 A 
ATOM      8  C   UNL d   1       1.444  -1.290   0.079  0.00  0.00     0.015 A 
ATOM      9  C   UNL d   1       1.208   1.457  -0.085  0.00  0.00     0.030 A 
ATOM     10  C   UNL d   1       2.594  -0.500   0.061  0.00  0.00     0.001 A 
ATOM     11  C   UNL d   1       2.476   0.879  -0.020  0.00  0.00     0.002 A 
ENDROOT
BRANCH   4  12
ATOM     12  S   UNL d   1      -1.174  -3.226   0.214  0.00  0.00    -0.120 SA
BRANCH  12  13
ATOM     13  C   UNL d   1      -0.658  -3.779  -1.450  0.00  0.00     0.184 C 
BRANCH  13  14
ATOM     14  C   UNL d   1      -0.672  -5.299  -1.532  0.00  0.00     0.245 C 
ATOM     15  N   UNL d   1      -1.878  -5.894  -1.206  0.00  0.00    -0.267 N 
ATOM     16  H   UNL d   1      -2.564  -5.393  -0.642  0.00  0.00     0.190 HD
ATOM     17  O   UNL d   1       0.296  -5.947  -1.929  0.00  0.00    -0.271 OA
BRANCH  15  18
ATOM     18  N   UNL d   1      -1.898  -7.294  -1.097  0.00  0.00    -0.274 N 
ATOM     19  H   UNL d   1      -1.086  -7.772  -1.481  0.00  0.00     0.189 HD
BRANCH  18  20
ATOM     20  C   UNL d   1      -2.992  -7.978  -0.589  0.00  0.00     0.186 C 
ATOM     21  S   UNL d   1      -4.416  -7.226  -0.131  0.00  0.00    -0.040 SA
BRANCH  20  22
ATOM     22  N   UNL d   1      -2.736  -9.332  -0.504  0.00  0.00    -0.370 N 
ATOM     23  C   UNL d   1      -3.599 -10.352   0.066  0.00  0.00     0.148 C 
ATOM     24  H   UNL d   1      -1.782  -9.619  -0.668  0.00  0.00     0.161 HD
ENDBRANCH  20  22
ENDBRANCH  18  20
ENDBRANCH  15  18
ENDBRANCH  13  14
ENDBRANCH  12  13
ENDBRANCH   4  12
BRANCH   3  25
ATOM     25  C   UNL d   1      -3.609   1.383  -0.063  0.00  0.00     0.432 C 
ATOM     26  F   UNL d   1      -3.495   2.740  -0.043  0.00  0.00    -0.165 F 
ATOM     27  F   UNL d   1      -4.375   1.090  -1.155  0.00  0.00    -0.165 F 
ATOM     28  F   UNL d   1      -4.379   1.060   1.018  0.00  0.00    -0.165 F 
ENDBRANCH   3  25
TORSDOF 7
