REMARK  8 active torsions:
REMARK  status: ('A' for Active; 'I' for Inactive)
REMARK    1  A    between atoms: N_2  and  C_1 
REMARK    2  A    between atoms: C_3  and  C_1 
REMARK    3  A    between atoms: C_5  and  C_1 
REMARK    4  A    between atoms: N_6  and  C_1 
REMARK       I    between atoms: C_4  and  N_2 
REMARK    5  A    between atoms: C_7  and  C_4 
REMARK    6  A    between atoms: O_20  and  C_5 
REMARK    7  A    between atoms: C_9  and  N_6 
REMARK    8  A    between atoms: C_28  and  O_20 
ROOT
ATOM      1  C   UNL d   1       0.960  -0.000   0.031  0.00  0.00     0.297 C 
ENDROOT
BRANCH   1   2
ATOM      2  N   UNL d   1       0.500  -0.068   1.427  0.00  0.00    -0.315 N 
ATOM      3  C   UNL d   1       0.338   1.013   2.248  0.00  0.00     0.254 C 
ATOM      4  O   UNL d   1       0.585   2.163   1.921  0.00  0.00    -0.268 OA
ATOM      5  H   UNL d   1       0.050  -0.940   1.688  0.00  0.00     0.166 HD
BRANCH   3   6
ATOM      6  C   UNL d   1      -0.238   0.689   3.583  0.00  0.00     0.033 A 
ATOM      7  C   UNL d   1       0.183  -0.453   4.275  0.00  0.00     0.041 A 
ATOM      8  C   UNL d   1      -0.414  -0.778   5.495  0.00  0.00     0.035 A 
ATOM      9 CL   UNL d   1       0.092  -2.190   6.337  0.00  0.00    -0.084 Cl
ATOM     10  C   UNL d   1      -1.420   0.025   6.028  0.00  0.00     0.024 A 
ATOM     11  C   UNL d   1      -1.828   1.173   5.345  0.00  0.00     0.003 A 
ATOM     12  C   UNL d   1      -1.233   1.510   4.122  0.00  0.00     0.017 A 
ENDBRANCH   3   6
ENDBRANCH   1   2
BRANCH   1  13
ATOM     13  C   UNL d   1       0.278   1.091  -0.871  0.00  0.00     0.442 C 
ATOM     14  F   UNL d   1      -0.880   1.560  -0.345  0.00  0.00    -0.166 F 
ATOM     15  F   UNL d   1       1.099   2.159  -1.063  0.00  0.00    -0.166 F 
ATOM     16  F   UNL d   1      -0.036   0.638  -2.113  0.00  0.00    -0.166 F 
ENDBRANCH   1  13
BRANCH   1  17
ATOM     17  C   UNL d   1       0.496  -1.320  -0.624  0.00  0.00     0.318 C 
ATOM     18  O   UNL d   1      -0.462  -1.969  -0.202  0.00  0.00    -0.260 OA
BRANCH  17  19
ATOM     19  O   UNL d   1       1.276  -1.703  -1.675  0.00  0.00    -0.318 OA
BRANCH  19  20
ATOM     20  C   UNL d   1       0.928  -2.946  -2.301  0.00  0.00     0.174 C 
ATOM     21  C   UNL d   1       1.460  -4.124  -1.504  0.00  0.00     0.034 C 
ENDBRANCH  19  20
ENDBRANCH  17  19
ENDBRANCH   1  17
BRANCH   1  22
ATOM     22  N   UNL d   1       2.442   0.118   0.068  0.00  0.00    -0.348 N 
ATOM     23  H   UNL d   1       2.749   1.089   0.036  0.00  0.00     0.163 HD
BRANCH  22  24
ATOM     24  C   UNL d   1       3.352  -0.751   0.644  0.00  0.00     0.030 A 
ATOM     25  C   UNL d   1       3.015  -1.953   1.274  0.00  0.00     0.036 A 
ATOM     26  C   UNL d   1       3.984  -2.843   1.776  0.00  0.00    -0.054 A 
ATOM     27  C   UNL d   1       3.532  -4.098   2.473  0.00  0.00     0.049 C 
ATOM     28  C   UNL d   1       5.346  -2.541   1.617  0.00  0.00    -0.056 A 
ATOM     29  C   UNL d   1       5.699  -1.358   0.960  0.00  0.00     0.009 A 
ATOM     30  C   UNL d   1       6.421  -3.459   2.126  0.00  0.00     0.049 C 
ATOM     31  C   UNL d   1       4.716  -0.484   0.481  0.00  0.00     0.030 A 
ENDBRANCH  22  24
ENDBRANCH   1  22
TORSDOF 8
