REMARK  4 active torsions:
REMARK  status: ('A' for Active; 'I' for Inactive)
REMARK    1  A    between atoms: N_7  and  C_1 
REMARK    2  A    between atoms: N_8  and  C_2 
REMARK    3  A    between atoms: S_6  and  C_3 
REMARK    4  A    between atoms: N_13  and  S_6 
ROOT
ATOM      1  C   UNL d   1       0.375   0.367   0.983  0.00  0.00     0.138 A 
ATOM      2  C   UNL d   1       0.138   1.293  -0.028  0.00  0.00     0.107 A 
ATOM      3  C   UNL d   1       0.789  -0.969  -0.877  0.00  0.00     0.119 A 
ATOM      4  C   UNL d   1       0.752  -0.924   0.497  0.00  0.00     0.071 A 
ATOM      5  S   UNL d   1       0.395   0.536  -1.567  0.00  0.00    -0.057 SA
ENDROOT
BRANCH   2   6
ATOM      6  N   UNL d   1      -0.231   2.610   0.082  0.00  0.00    -0.370 N 
ATOM      7  C   UNL d   1       0.139   3.598  -0.952  0.00  0.00     0.153 C 
ATOM      8  C   UNL d   1       0.230   5.003  -0.311  0.00  0.00     0.289 C 
ATOM      9  N   UNL d   1      -1.008   5.414   0.379  0.00  0.00     0.086 N 
ATOM     10  C   UNL d   1      -1.393   4.381   1.362  0.00  0.00     0.289 C 
ATOM     11  H   UNL d   1      -0.831   6.288   0.876  0.00  0.00     0.316 HD
ATOM     12  C   UNL d   1      -1.500   2.964   0.753  0.00  0.00     0.153 C 
ENDBRANCH   2   6
BRANCH   1  13
ATOM     13  N   UNL d   1       0.261   0.659   2.383  0.00  0.00    -0.113 N 
ATOM     14  O   UNL d   1       0.925   1.601   2.834  0.00  0.00    -0.532 OA
ATOM     15  O   UNL d   1      -0.481  -0.089   3.034  0.00  0.00    -0.532 OA
ENDBRANCH   1  13
BRANCH   3  16
ATOM     16  S   UNL d   1       1.135  -2.289  -2.013  0.00  0.00     0.246 S 
ATOM     17  O   UNL d   1       2.178  -1.804  -2.880  0.00  0.00    -0.206 OA
ATOM     18  O   UNL d   1       1.272  -3.456  -1.177  0.00  0.00    -0.206 OA
BRANCH  16  19
ATOM     19  N   UNL d   1      -0.250  -2.500  -2.934  0.00  0.00    -0.225 NA
ATOM     20  H   UNL d   1      -0.433  -1.713  -3.554  0.00  0.00     0.136 HD
ATOM     21  H   UNL d   1      -1.043  -2.830  -2.388  0.00  0.00     0.136 HD
ENDBRANCH  16  19
ENDBRANCH   3  16
TORSDOF 4
