REMARK  5 active torsions:
REMARK  status: ('A' for Active; 'I' for Inactive)
REMARK    1  A    between atoms: C_5  and  N_1 
REMARK    2  A    between atoms: S_2  and  C_7 
REMARK    3  A    between atoms: N_10  and  S_2 
REMARK    4  A    between atoms: C_19  and  N_10 
REMARK    5  A    between atoms: C_13  and  C_19 
ROOT
ATOM      1  C   UNL d   1       2.823  -1.636   0.106  0.00  0.00     0.067 A 
ATOM      2  C   UNL d   1       5.039  -3.339   0.324  0.00  0.00     0.076 A 
ATOM      3  C   UNL d   1       3.076  -2.603  -0.878  0.00  0.00     0.062 A 
ATOM      4  C   UNL d   1       4.195  -3.433  -0.782  0.00  0.00     0.051 A 
ATOM      5  C   UNL d   1       3.714  -1.511   1.188  0.00  0.00     0.033 A 
ATOM      6  C   UNL d   1       4.806  -2.377   1.310  0.00  0.00     0.027 A 
ATOM      7 CL   UNL d   1       2.127  -2.721  -2.320  0.00  0.00    -0.082 Cl
ENDROOT
BRANCH   1   8
ATOM      8  N   UNL d   1       1.724  -0.759   0.016  0.00  0.00    -0.250 N 
ATOM      9  C   UNL d   1       0.419  -1.177   0.013  0.00  0.00     0.232 A 
ATOM     10  C   UNL d   1      -0.477   0.029  -0.035  0.00  0.00     0.123 A 
ATOM     11  O   UNL d   1      -0.001  -2.321   0.124  0.00  0.00    -0.273 OA
ATOM     12  C   UNL d   1       0.482   1.212  -0.182  0.00  0.00     0.050 A 
ATOM     13  C   UNL d   1       1.858   0.603  -0.029  0.00  0.00     0.240 A 
ATOM     14  C   UNL d   1       0.256   2.328   0.836  0.00  0.00     0.020 C 
ATOM     15  C   UNL d   1       0.329   1.933  -1.524  0.00  0.00     0.020 C 
ATOM     16  O   UNL d   1       2.899   1.245  -0.008  0.00  0.00    -0.272 OA
ATOM     17  C   UNL d   1      -0.804   3.228   0.216  0.00  0.00     0.001 C 
ATOM     18  C   UNL d   1      -0.750   2.986  -1.290  0.00  0.00     0.001 C 
ENDBRANCH   1   8
BRANCH   2  19
ATOM     19  S   UNL d   1       6.470  -4.390   0.437  0.00  0.00     0.241 S 
ATOM     20  O   UNL d   1       7.223  -4.221  -0.783  0.00  0.00    -0.206 OA
ATOM     21  O   UNL d   1       7.056  -4.164   1.741  0.00  0.00    -0.206 OA
BRANCH  19  22
ATOM     22  N   UNL d   1       5.821  -5.943   0.473  0.00  0.00    -0.209 NA
ATOM     23  H   UNL d   1       4.979  -6.010   1.046  0.00  0.00     0.140 HD
BRANCH  22  24
ATOM     24  C   UNL d   1       5.691  -6.628  -0.820  0.00  0.00     0.169 C 
BRANCH  24  25
ATOM     25  C   UNL d   1       5.120  -7.975  -0.572  0.00  0.00     0.066 A 
ATOM     26  O   UNL d   1       3.759  -8.066  -0.563  0.00  0.00    -0.326 OA
ATOM     27  C   UNL d   1       3.453  -9.371  -0.345  0.00  0.00     0.142 A 
ATOM     28  C   UNL d   1       4.600 -10.118  -0.200  0.00  0.00     0.027 A 
ATOM     29  C   UNL d   1       5.679  -9.214  -0.345  0.00  0.00     0.036 A 
ENDBRANCH  24  25
ENDBRANCH  22  24
ENDBRANCH  19  22
ENDBRANCH   2  19
TORSDOF 5
