REMARK  2 active torsions:
REMARK  status: ('A' for Active; 'I' for Inactive)
REMARK    1  A    between atoms: C_7  and  C_1 
REMARK    2  A    between atoms: C_9  and  C_4 
ROOT
ATOM      1  C   UNL d   1      -0.393   1.246   0.086  0.00  0.00     0.163 A 
ATOM      2  N   UNL d   1       0.902  -0.560  -0.645  0.00  0.00    -0.260 N 
ATOM      3  HN  UNL d   1       1.703  -1.141  -0.895  1.00  0.00     0.194 HD
ATOM      4  C   UNL d   1       0.950   0.677  -0.261  0.00  0.00     0.060 A 
ATOM      5  C   UNL d   1      -1.270   0.074  -0.262  0.00  0.00     0.294 A 
ATOM      6  O   UNL d   1      -0.464  -0.967  -0.658  0.00  0.00    -0.198 OA
ATOM      7  O   UNL d   1      -2.490   0.030  -0.208  0.00  0.00    -0.262 OA
ENDROOT
BRANCH   1   8
ATOM      8  C   UNL d   1      -0.526   1.560   1.554  0.00  0.00    -0.003 C 
ATOM      9  C   UNL d   1      -1.298   2.522   2.087  0.00  0.00    -0.083 C 
ATOM     10  C   UNL d   1      -2.156   3.507   1.341  0.00  0.00     0.034 C 
ATOM     11  C   UNL d   1      -1.399   2.783   3.571  0.00  0.00     0.034 C 
ATOM     12  C   UNL d   1      -2.262   4.661   2.327  0.00  0.00     0.005 C 
ATOM     13  C   UNL d   1      -2.352   3.971   3.680  0.00  0.00     0.005 C 
ENDBRANCH   1   8
BRANCH   4  14
ATOM     14  C   UNL d   1       2.212   1.446  -0.205  0.00  0.00    -0.011 A 
ATOM     15  C   UNL d   1       2.224   2.844  -0.250  0.00  0.00     0.013 A 
ATOM     16  C   UNL d   1       3.443   3.528  -0.260  0.00  0.00     0.001 A 
ATOM     17  C   UNL d   1       4.647   2.824  -0.211  0.00  0.00     0.000 A 
ATOM     18  C   UNL d   1       4.637   1.432  -0.156  0.00  0.00     0.001 A 
ATOM     19  C   UNL d   1       3.423   0.743  -0.158  0.00  0.00     0.013 A 
ENDBRANCH   4  14
TORSDOF 2
