REMARK  3 active torsions:
REMARK  status: ('A' for Active; 'I' for Inactive)
REMARK    1  A    between atoms: C_12  and  N_1 
REMARK    2  A    between atoms: C_7  and  N_2 
REMARK    3  A    between atoms: C_16  and  C_12 
ROOT
ATOM      1  N   UNL d   1      -0.723   1.144  -0.076  0.00  0.00    -0.265 N 
ATOM      2  N   UNL d   1      -0.637  -1.233  -0.100  0.00  0.00    -0.273 N 
ATOM      3  C   UNL d   1      -1.431  -0.068  -0.063  0.00  0.00     0.336 A 
ATOM      4  C   UNL d   1       0.663   1.255  -0.087  0.00  0.00     0.270 A 
ATOM      5  C   UNL d   1       1.424  -0.021  -0.080  0.00  0.00     0.095 A 
ATOM      6  C   UNL d   1       0.742  -1.167  -0.081  0.00  0.00     0.127 A 
ATOM      7  O   UNL d   1      -2.660  -0.090   0.013  0.00  0.00    -0.246 OA
ATOM      8  O   UNL d   1       1.254   2.334  -0.085  0.00  0.00    -0.266 OA
ATOM      9 BR   UNL d   1       3.287   0.018  -0.064  0.00  0.00    -0.044 Br
ENDROOT
BRANCH   2  10
ATOM     10  C   UNL d   1      -1.279  -2.518  -0.077  0.00  0.00     0.049 A 
ATOM     11  C   UNL d   1      -2.218  -2.916  -1.050  0.00  0.00    -0.035 A 
ATOM     12  C   UNL d   1      -2.596  -2.086  -2.246  0.00  0.00     0.050 C 
ATOM     13  C   UNL d   1      -2.800  -4.195  -0.950  0.00  0.00     0.009 A 
ATOM     14  C   UNL d   1      -2.432  -5.080   0.063  0.00  0.00     0.001 A 
ATOM     15  C   UNL d   1      -1.480  -4.700   1.000  0.00  0.00     0.002 A 
ATOM     16  C   UNL d   1      -0.908  -3.430   0.930  0.00  0.00     0.031 A 
ENDBRANCH   2  10
BRANCH   1  17
ATOM     17  C   UNL d   1      -1.495   2.385   0.019  0.00  0.00     0.137 C 
BRANCH  17  18
ATOM     18  C   UNL d   1      -1.825   3.036  -1.331  0.00  0.00     0.016 C 
ATOM     19  C   UNL d   1      -2.766   2.219  -2.201  0.00  0.00     0.006 C 
ENDBRANCH  17  18
ENDBRANCH   1  17
TORSDOF 3
