REMARK  8 active torsions:
REMARK  status: ('A' for Active; 'I' for Inactive)
REMARK    1  A    between atoms: C_2  and  S_1 
REMARK    2  A    between atoms: N_5  and  S_1 
REMARK    3  A    between atoms: N_9  and  N_5 
REMARK       I    between atoms: C_10  and  N_9 
REMARK    4  A    between atoms: C_13  and  C_10 
REMARK    5  A    between atoms: C_17  and  C_13 
REMARK    6  A    between atoms: S_15  and  C_17 
REMARK    7  A    between atoms: C_16  and  S_15 
REMARK    8  A    between atoms: O_24  and  C_18 
ROOT
ATOM      1  N   UNL d   1       0.374  -0.724   2.609  0.00  0.00    -0.260 N 
ATOM      2  C   UNL d   1       0.554  -0.164   3.849  0.00  0.00     0.237 C 
ATOM      3  O   UNL d   1       1.416  -0.570   4.631  0.00  0.00    -0.272 OA
ATOM      4  H   UNL d   1      -0.347  -0.415   1.953  0.00  0.00     0.190 HD
ENDROOT
BRANCH   1   5
ATOM      5  N   UNL d   1       1.266  -1.788   2.176  0.00  0.00    -0.219 N 
ATOM      6  H   UNL d   1       2.034  -2.046   2.802  0.00  0.00     0.200 HD
BRANCH   5   7
ATOM      7  S   UNL d   1       1.542  -1.998   0.521  0.00  0.00     0.293 S 
ATOM      8  O   UNL d   1       2.073  -0.751  -0.003  0.00  0.00    -0.197 OA
ATOM      9  O   UNL d   1       2.211  -3.263   0.320  0.00  0.00    -0.197 OA
BRANCH   7  10
ATOM     10  C   UNL d   1       0.004  -2.166  -0.282  0.00  0.00     0.167 A 
ATOM     11  N   UNL d   1      -1.200  -2.183   0.405  0.00  0.00    -0.340 N 
ATOM     12  C   UNL d   1      -2.121  -2.297  -0.525  0.00  0.00     0.183 A 
ATOM     13  HN  UNL d   1      -1.341  -2.120   1.413  1.00  0.00     0.167 HD
ATOM     14  N   UNL d   1      -1.569  -2.326  -1.776  0.00  0.00    -0.354 N 
ATOM     15  C   UNL d   1      -0.214  -2.232  -1.645  0.00  0.00     0.135 A 
ATOM     16  C   UNL d   1      -2.312  -2.443  -3.005  0.00  0.00     0.156 C 
ENDBRANCH   7  10
ENDBRANCH   5   7
ENDBRANCH   1   5
BRANCH   2  17
ATOM     17  C   UNL d   1      -0.408   0.946   4.242  0.00  0.00     0.115 C 
BRANCH  17  18
ATOM     18  C   UNL d   1      -0.805   1.952   3.164  0.00  0.00     0.089 C 
BRANCH  18  19
ATOM     19  S   UNL d   1      -1.918   1.236   1.902  0.00  0.00    -0.130 SA
BRANCH  19  20
ATOM     20  C   UNL d   1      -2.238   2.660   0.878  0.00  0.00     0.000 A 
ATOM     21  C   UNL d   1      -1.218   3.408   0.282  0.00  0.00     0.021 A 
ATOM     22  C   UNL d   1      -1.523   4.485  -0.564  0.00  0.00     0.038 A 
ATOM     23  C   UNL d   1      -2.853   4.816  -0.826  0.00  0.00     0.068 A 
ATOM     24  C   UNL d   1      -3.870   4.062  -0.237  0.00  0.00     0.038 A 
ATOM     25  C   UNL d   1      -3.566   2.990   0.605  0.00  0.00     0.021 A 
BRANCH  23  26
ATOM     26  O   UNL d   1      -3.294   5.831  -1.628  0.00  0.00    -0.356 OA
ATOM     27  C   UNL d   1      -2.308   6.619  -2.281  0.00  0.00     0.210 C 
ENDBRANCH  23  26
ENDBRANCH  19  20
ENDBRANCH  18  19
ENDBRANCH  17  18
ENDBRANCH   2  17
TORSDOF 8
