REMARK  9 active torsions:
REMARK  status: ('A' for Active; 'I' for Inactive)
REMARK    1  A    between atoms: C_5  and  C_1 
REMARK    2  A    between atoms: C_2  and  C_6 
REMARK    3  A    between atoms: C_3  and  C_7 
REMARK    4  A    between atoms: C_4  and  C_8 
REMARK    5  A    between atoms: C_9  and  N_10 
REMARK    6  A    between atoms: C_17  and  C_9 
REMARK    7  A    between atoms: N_10  and  C_11 
REMARK    8  A    between atoms: C_23  and  C_14 
REMARK    9  A    between atoms: C_20  and  N_18 
ROOT
ATOM      1  C   UNL d   1      -1.992   1.820  -5.149  0.00  0.00     0.044 C 
ATOM      2  C   UNL d   1      -1.867   0.601  -5.711  0.00  0.00     0.047 C 
ENDROOT
BRANCH   1   3
ATOM      3  N   UNL d   1      -2.702   2.872  -5.693  0.00  0.00    -0.355 N 
ATOM      4  H   UNL d   1      -2.956   3.601  -5.030  0.00  0.00     0.166 HD
BRANCH   3   5
ATOM      5  C   UNL d   1      -2.703   3.321  -7.028  0.00  0.00     0.034 A 
ATOM      6  C   UNL d   1      -1.684   3.026  -7.940  0.00  0.00     0.045 A 
ATOM      7  C   UNL d   1      -1.755   3.455  -9.277  0.00  0.00     0.050 A 
ATOM      8  C   UNL d   1      -2.890   4.159  -9.706  0.00  0.00     0.032 A 
ATOM      9  C   UNL d   1      -3.933   4.449  -8.815  0.00  0.00     0.050 A 
ATOM     10  C   UNL d   1      -3.810   4.050  -7.475  0.00  0.00     0.045 A 
BRANCH   7  11
ATOM     11  C   UNL d   1      -0.616   3.151 -10.220  0.00  0.00     0.417 C 
ATOM     12  F   UNL d   1      -0.838   3.577 -11.494  0.00  0.00    -0.166 F 
ATOM     13  F   UNL d   1      -0.355   1.818 -10.310  0.00  0.00    -0.166 F 
ATOM     14  F   UNL d   1       0.549   3.737  -9.829  0.00  0.00    -0.166 F 
ENDBRANCH   7  11
BRANCH   9  15
ATOM     15  C   UNL d   1      -5.186   5.157  -9.267  0.00  0.00     0.417 C 
ATOM     16  F   UNL d   1      -5.288   5.267 -10.620  0.00  0.00    -0.166 F 
ATOM     17  F   UNL d   1      -6.317   4.519  -8.858  0.00  0.00    -0.166 F 
ATOM     18  F   UNL d   1      -5.272   6.424  -8.777  0.00  0.00    -0.166 F 
ENDBRANCH   9  15
ENDBRANCH   3   5
ENDBRANCH   1   3
BRANCH   1  19
ATOM     19  C   UNL d   1      -1.342   2.147  -3.862  0.00  0.00    -0.009 A 
ATOM     20  C   UNL d   1      -0.057   2.714  -3.879  0.00  0.00     0.015 A 
ATOM     21  C   UNL d   1       0.565   3.093  -2.687  0.00  0.00     0.024 A 
ATOM     22  C   UNL d   1      -0.095   2.903  -1.476  0.00  0.00     0.034 A 
ATOM     23  C   UNL d   1      -1.365   2.326  -1.444  0.00  0.00     0.024 A 
ATOM     24 CL   UNL d   1       0.655   3.397  -0.009  0.00  0.00    -0.084 Cl
ATOM     25  C   UNL d   1      -1.992   1.951  -2.638  0.00  0.00     0.015 A 
ENDBRANCH   1  19
BRANCH   2  26
ATOM     26  C   UNL d   1      -1.196  -0.535  -5.046  0.00  0.00     0.090 C 
ATOM     27  N   UNL d   1      -0.683  -1.512  -5.715  0.00  0.00    -0.366 N 
ATOM     28  HN  UNL d   1      -0.748  -1.523  -6.732  1.00  0.00     0.165 HD
BRANCH  27  29
ATOM     29  C   UNL d   1      -0.032  -2.561  -5.041  0.00  0.00     0.033 A 
ATOM     30  C   UNL d   1       0.096  -3.780  -5.713  0.00  0.00     0.045 A 
ATOM     31  C   UNL d   1       0.790  -4.865  -5.148  0.00  0.00     0.050 A 
ATOM     32  C   UNL d   1       1.347  -4.721  -3.869  0.00  0.00     0.032 A 
ATOM     33  C   UNL d   1       1.245  -3.507  -3.177  0.00  0.00     0.050 A 
ATOM     34  C   UNL d   1       0.565  -2.436  -3.780  0.00  0.00     0.045 A 
BRANCH  31  35
ATOM     35  C   UNL d   1       0.948  -6.145  -5.932  0.00  0.00     0.417 C 
ATOM     36  F   UNL d   1       1.697  -7.082  -5.285  0.00  0.00    -0.166 F 
ATOM     37  F   UNL d   1      -0.243  -6.744  -6.205  0.00  0.00    -0.166 F 
ATOM     38  F   UNL d   1       1.558  -5.949  -7.133  0.00  0.00    -0.166 F 
ENDBRANCH  31  35
BRANCH  33  39
ATOM     39  C   UNL d   1       1.862  -3.313  -1.814  0.00  0.00     0.417 C 
ATOM     40  F   UNL d   1       2.567  -4.391  -1.376  0.00  0.00    -0.166 F 
ATOM     41  F   UNL d   1       2.725  -2.260  -1.783  0.00  0.00    -0.166 F 
ATOM     42  F   UNL d   1       0.928  -3.058  -0.857  0.00  0.00    -0.166 F 
ENDBRANCH  33  39
ENDBRANCH  27  29
ENDBRANCH   2  26
TORSDOF 9
