REMARK  3 active torsions:
REMARK  status: ('A' for Active; 'I' for Inactive)
REMARK    1  A    between atoms: C_2  and  N_1 
REMARK    2  A    between atoms: O_5  and  C_8 
REMARK    3  A    between atoms: C_9  and  O_5 
ROOT
ATOM      1  C   UNL d   1       0.249  -0.886  -0.826  0.00  0.00     0.103 A 
ATOM      2  C   UNL d   1       0.755  -2.187  -0.687  0.00  0.00     0.039 A 
ATOM      3  C   UNL d   1      -0.843  -0.633  -1.666  0.00  0.00     0.039 A 
ATOM      4  C   UNL d   1      -0.880  -2.974  -2.293  0.00  0.00     0.076 A 
ATOM      5  C   UNL d   1       0.172  -3.232  -1.406  0.00  0.00     0.040 A 
ATOM      6  C   UNL d   1      -1.407  -1.683  -2.395  0.00  0.00     0.040 A 
ENDROOT
BRANCH   4   7
ATOM      7  O   UNL d   1      -1.494  -3.943  -3.053  0.00  0.00    -0.311 OA
BRANCH   7   8
ATOM      8  C   UNL d   1      -0.729  -4.936  -3.623  0.00  0.00     0.076 A 
ATOM      9  C   UNL d   1      -1.343  -6.184  -3.753  0.00  0.00     0.039 A 
ATOM     10  C   UNL d   1      -0.643  -7.255  -4.315  0.00  0.00     0.026 A 
ATOM     11  C   UNL d   1       0.668  -7.071  -4.751  0.00  0.00     0.034 A 
ATOM     12  C   UNL d   1       1.273  -5.818  -4.660  0.00  0.00     0.026 A 
ATOM     13 CL   UNL d   1       1.545  -8.395  -5.411  0.00  0.00    -0.084 Cl
ATOM     14  C   UNL d   1       0.566  -4.743  -4.116  0.00  0.00     0.039 A 
ENDBRANCH   7   8
ENDBRANCH   4   7
BRANCH   1  15
ATOM     15  N   UNL d   1       0.875   0.219  -0.088  0.00  0.00    -0.116 N 
ATOM     16  O   UNL d   1       1.881  -0.036   0.587  0.00  0.00    -0.532 OA
ATOM     17  O   UNL d   1       0.362   1.343  -0.191  0.00  0.00    -0.532 OA
ENDBRANCH   1  15
TORSDOF 3
