REMARK  3 active torsions:
REMARK  status: ('A' for Active; 'I' for Inactive)
REMARK    1  A    between atoms: C_2  and  C_1 
REMARK    2  A    between atoms: C_6  and  C_2 
REMARK    3  A    between atoms: C_10  and  C_6 
ROOT
ATOM      1  C   UNL d   1      -2.265   0.059  -0.090  0.00  0.00     0.098 A 
ATOM      2  N   UNL d   1      -1.528  -0.578  -0.983  0.00  0.00    -0.343 N 
ATOM      3  HN  UNL d   1      -1.857  -1.230  -1.694  1.00  0.00     0.167 HD
ATOM      4  N   UNL d   1      -1.466   0.863   0.694  0.00  0.00    -0.343 N 
ATOM      5  C   UNL d   1      -0.231  -0.188  -0.762  0.00  0.00     0.060 A 
ATOM      6  C   UNL d   1      -0.161   0.687   0.315  0.00  0.00     0.060 A 
ATOM      7  C   UNL d   1       0.942  -0.532  -1.445  0.00  0.00     0.032 A 
ATOM      8  C   UNL d   1       1.039   1.217   0.793  0.00  0.00     0.032 A 
ATOM      9  C   UNL d   1       2.204   0.850   0.108  0.00  0.00     0.002 A 
ATOM     10  C   UNL d   1       2.158   0.000  -1.000  0.00  0.00     0.002 A 
ATOM     11  H   UNL d   1      -1.776   1.497   1.416  0.00  0.00     0.167 HD
ENDROOT
BRANCH   1  12
ATOM     12  C   UNL d   1      -3.773  -0.028   0.004  0.00  0.00     0.072 C 
ATOM     13  C   UNL d   1      -4.372   0.693  -1.222  0.00  0.00     0.031 C 
ATOM     14  C   UNL d   1      -4.222  -1.496  -0.044  0.00  0.00     0.031 C 
BRANCH  12  15
ATOM     15  C   UNL d   1      -4.282   0.660   1.294  0.00  0.00     0.145 C 
ATOM     16  O   UNL d   1      -4.854   1.754   1.246  0.00  0.00    -0.296 OA
BRANCH  15  17
ATOM     17  C   UNL d   1      -4.010   0.005   2.657  0.00  0.00     0.048 C 
ATOM     18  C   UNL d   1      -3.731   1.093   3.701  0.00  0.00     0.017 C 
ATOM     19  C   UNL d   1      -5.194  -0.841   3.108  0.00  0.00     0.017 C 
ENDBRANCH  15  17
ENDBRANCH  12  15
ENDBRANCH   1  12
TORSDOF 3
