REMARK  2 active torsions:
REMARK  status: ('A' for Active; 'I' for Inactive)
REMARK    1  A    between atoms: C_6  and  N_1 
REMARK    2  A    between atoms: S_14  and  C_2 
ROOT
ATOM      1  N   UNL d   1       1.004  -0.653  -0.034  0.00  0.00    -0.241 N 
ATOM      2  C   UNL d   1       0.894   0.694   0.131  0.00  0.00     0.167 A 
ATOM      3  C   UNL d   1      -0.294  -1.103  -0.134  0.00  0.00     0.347 A 
ATOM      4  N   UNL d   1      -0.326   1.147   0.167  0.00  0.00    -0.276 N 
ATOM      5  HN  UNL d   1      -0.635   2.112   0.289  1.00  0.00     0.189 HD
ATOM      6  N   UNL d   1      -1.093   0.030   0.001  0.00  0.00    -0.249 N 
ATOM      7  O   UNL d   1      -0.716  -2.243  -0.257  0.00  0.00    -0.245 OA
ATOM      8  H   UNL d   1      -2.105   0.049   0.016  0.00  0.00     0.192 HD
ENDROOT
BRANCH   1   9
ATOM      9  C   UNL d   1       2.134  -1.488  -0.016  0.00  0.00     0.049 A 
ATOM     10  C   UNL d   1       2.292  -2.467  -1.003  0.00  0.00     0.069 A 
ATOM     11  C   UNL d   1       3.440  -3.261  -1.023  0.00  0.00     0.104 A 
ATOM     12  O   UNL d   1       3.557  -4.143  -2.066  0.00  0.00    -0.346 OA
ATOM     13  C   UNL d   1       4.416  -3.111  -0.034  0.00  0.00     0.102 A 
ATOM     14  C   UNL d   1       4.591  -5.105  -1.833  0.00  0.00     0.202 C 
ATOM     15  C   UNL d   1       5.841  -4.443  -1.274  0.00  0.00     0.202 C 
ATOM     16  O   UNL d   1       5.573  -3.843  -0.002  0.00  0.00    -0.346 OA
ATOM     17  C   UNL d   1       4.234  -2.184   0.988  0.00  0.00     0.042 A 
ATOM     18  C   UNL d   1       3.105  -1.363   0.988  0.00  0.00     0.033 A 
ENDBRANCH   1   9
BRANCH   2  19
ATOM     19  S   UNL d   1       2.258   1.760   0.170  0.00  0.00    -0.105 SA
ATOM     20  H   UNL d   1       3.139   0.934  -0.410  0.00  0.00     0.110 HD
ENDBRANCH   2  19
TORSDOF 2
