REMARK  7 active torsions:
REMARK  status: ('A' for Active; 'I' for Inactive)
REMARK    1  A    between atoms: C_6  and  N_1 
REMARK    2  A    between atoms: S_12  and  C_2 
REMARK    3  A    between atoms: C_17  and  C_9 
REMARK    4  A    between atoms: C_18  and  C_10 
REMARK    5  A    between atoms: C_28  and  S_12 
REMARK    6  A    between atoms: C_13  and  N_16 
REMARK    7  A    between atoms: C_15  and  C_28 
REMARK       I    between atoms: N_16  and  C_15 
ROOT
ATOM      1  S   UNL d   1       7.168   0.862  -0.034  0.00  0.00    -0.083 SA
ENDROOT
BRANCH   1   2
ATOM      2  C   UNL d   1       6.309   0.569  -1.504  0.00  0.00     0.170 C 
ATOM      3  N   UNL d   1       6.896   0.462  -2.731  0.00  0.00    -0.241 N 
ATOM      4  C   UNL d   1       5.838   0.365  -3.610  0.00  0.00     0.347 C 
ATOM      5  N   UNL d   1       4.702   0.242  -2.811  0.00  0.00    -0.249 N 
ATOM      6  O   UNL d   1       5.840   0.413  -4.824  0.00  0.00    -0.245 OA
ATOM      7  N   UNL d   1       5.017   0.412  -1.494  0.00  0.00    -0.275 N 
ATOM      8  H   UNL d   1       3.751   0.231  -3.149  0.00  0.00     0.192 HD
ATOM      9  HN  UNL d   1       4.388   0.415  -0.692  1.00  0.00     0.189 HD
BRANCH   3  10
ATOM     10  C   UNL d   1       8.169   0.917  -3.095  0.00  0.00     0.049 A 
ATOM     11  C   UNL d   1       8.295   2.175  -3.691  0.00  0.00     0.069 A 
ATOM     12  C   UNL d   1       9.559   2.698  -3.931  0.00  0.00     0.104 A 
ATOM     13  O   UNL d   1       9.599   3.964  -4.451  0.00  0.00    -0.346 OA
ATOM     14  C   UNL d   1      10.701   1.958  -3.605  0.00  0.00     0.102 A 
ATOM     15  C   UNL d   1      10.907   4.286  -4.930  0.00  0.00     0.202 C 
ATOM     16  C   UNL d   1      11.961   3.874  -3.915  0.00  0.00     0.202 C 
ATOM     17  O   UNL d   1      11.972   2.449  -3.755  0.00  0.00    -0.346 OA
ATOM     18  C   UNL d   1      10.575   0.668  -3.092  0.00  0.00     0.042 A 
ATOM     19  C   UNL d   1       9.306   0.150  -2.820  0.00  0.00     0.033 A 
ENDBRANCH   3  10
ENDBRANCH   1   2
BRANCH   1  20
ATOM     20  C   UNL d   1       7.426   2.651  -0.092  0.00  0.00     0.185 C 
BRANCH  20  21
ATOM     21  C   UNL d   1       6.204   3.555  -0.046  0.00  0.00     0.231 C 
ATOM     22  N   UNL d   1       4.997   2.975   0.263  0.00  0.00    -0.326 N 
ATOM     23  H   UNL d   1       5.011   2.042   0.662  0.00  0.00     0.169 HD
ATOM     24  O   UNL d   1       6.357   4.765  -0.221  0.00  0.00    -0.272 OA
BRANCH  22  25
ATOM     25  C   UNL d   1       3.742   3.618   0.192  0.00  0.00     0.035 A 
ATOM     26  C   UNL d   1       3.459   4.617  -0.749  0.00  0.00     0.037 A 
ATOM     27  C   UNL d   1       2.165   5.153  -0.877  0.00  0.00    -0.048 A 
ATOM     28  C   UNL d   1       1.189   4.692   0.029  0.00  0.00     0.015 A 
ATOM     29  C   UNL d   1       1.438   3.687   0.989  0.00  0.00    -0.048 A 
ATOM     30  C   UNL d   1       2.732   3.153   1.038  0.00  0.00     0.037 A 
BRANCH  27  31
ATOM     31  C   UNL d   1       1.770   6.074  -2.051  0.00  0.00    -0.024 C 
ATOM     32  C   UNL d   1       1.193   5.173  -3.166  0.00  0.00     0.019 C 
ATOM     33  C   UNL d   1       0.694   7.115  -1.660  0.00  0.00     0.019 C 
ATOM     34  C   UNL d   1       2.953   6.870  -2.646  0.00  0.00     0.019 C 
ENDBRANCH  27  31
BRANCH  29  35
ATOM     35  C   UNL d   1       0.288   3.165   1.870  0.00  0.00    -0.024 C 
ATOM     36  C   UNL d   1       0.690   1.967   2.761  0.00  0.00     0.019 C 
ATOM     37  C   UNL d   1      -0.236   4.280   2.803  0.00  0.00     0.019 C 
ATOM     38  C   UNL d   1      -0.862   2.675   0.959  0.00  0.00     0.019 C 
ENDBRANCH  29  35
ENDBRANCH  22  25
ENDBRANCH  20  21
ENDBRANCH   1  20
TORSDOF 7
