REMARK  23 active torsions:
REMARK  status: ('A' for Active; 'I' for Inactive)
REMARK    1  A    between atoms: C_1  and  O_12 
REMARK    2  A    between atoms: C_2  and  O_13 
REMARK    3  A    between atoms: C_3  and  O_8 
REMARK    4  A    between atoms: C_4  and  O_14 
REMARK    5  A    between atoms: C_5  and  C_6 
REMARK    6  A    between atoms: C_5  and  O_8 
REMARK    7  A    between atoms: C_11  and  C_5 
REMARK    8  A    between atoms: C_6  and  O_17 
REMARK    9  A    between atoms: C_6  and  C_10 
REMARK   10  A    between atoms: C_9  and  C_28 
REMARK   11  A    between atoms: C_10  and  O_18 
REMARK   12  A    between atoms: C_29  and  C_11 
REMARK   13  A    between atoms: C_11  and  O_19 
REMARK   14  A    between atoms: C_20  and  O_12 
REMARK   15  A    between atoms: C_21  and  O_13 
REMARK   16  A    between atoms: C_22  and  O_14 
REMARK   17  A    between atoms: C_23  and  O_17 
REMARK   18  A    between atoms: C_24  and  O_18 
REMARK   19  A    between atoms: C_25  and  O_19 
REMARK   20  A    between atoms: C_26  and  O_31 
REMARK   21  A    between atoms: C_27  and  O_30 
REMARK   22  A    between atoms: O_30  and  C_28 
REMARK   23  A    between atoms: O_31  and  C_29 
ROOT
ATOM      1  C   UNL d   1      -1.722  -3.194   3.034  0.00  0.00     0.270 C 
ATOM      2  C   UNL d   1      -0.439  -3.081   2.319  0.00  0.00     0.094 C 
ATOM      3  N   UNL d   1       0.583  -3.044   1.772  0.00  0.00    -0.194 NA
ENDROOT
BRANCH   1   4
ATOM      4  O   UNL d   1      -1.561  -2.530   4.330  0.00  0.00    -0.299 OA
BRANCH   4   5
ATOM      5  C   UNL d   1      -2.255  -1.396   4.578  0.00  0.00     0.256 C 
ATOM      6  O   UNL d   1      -3.045  -0.870   3.811  0.00  0.00    -0.266 OA
ATOM      7  C   UNL d   1      -1.886  -0.835   5.923  0.00  0.00     0.126 C 
ENDBRANCH   4   5
ENDBRANCH   1   4
BRANCH   1   8
ATOM      8  C   UNL d   1      -2.025  -4.683   3.374  0.00  0.00     0.207 C 
BRANCH   8   9
ATOM      9  C   UNL d   1      -1.749  -5.823   2.293  0.00  0.00     0.189 C 
BRANCH   9  10
ATOM     10  O   UNL d   1      -2.945  -6.149   1.587  0.00  0.00    -0.348 OA
BRANCH  10  11
ATOM     11  C   UNL d   1      -2.969  -7.051   0.457  0.00  0.00     0.293 C 
ATOM     12  C   UNL d   1      -1.711  -7.209  -0.460  0.00  0.00     0.219 C 
ATOM     13  C   UNL d   1      -1.839  -8.374  -1.489  0.00  0.00     0.198 C 
ATOM     14  C   UNL d   1      -2.465  -9.632  -0.847  0.00  0.00     0.195 C 
ATOM     15  C   UNL d   1      -3.738  -9.256  -0.088  0.00  0.00     0.181 C 
ATOM     16  O   UNL d   1      -3.393  -8.326   0.956  0.00  0.00    -0.348 OA
BRANCH  12  17
ATOM     17  O   UNL d   1      -1.222  -5.979  -1.041  0.00  0.00    -0.308 OA
BRANCH  17  18
ATOM     18  C   UNL d   1      -1.938  -5.388  -2.029  0.00  0.00     0.255 C 
ATOM     19  O   UNL d   1      -3.065  -5.719  -2.363  0.00  0.00    -0.266 OA
ATOM     20  C   UNL d   1      -1.144  -4.257  -2.613  0.00  0.00     0.126 C 
ENDBRANCH  17  18
ENDBRANCH  12  17
BRANCH  13  21
ATOM     21  O   UNL d   1      -0.501  -8.771  -1.932  0.00  0.00    -0.311 OA
BRANCH  21  22
ATOM     22  C   UNL d   1       0.003  -8.199  -3.054  0.00  0.00     0.255 C 
ATOM     23  O   UNL d   1      -0.563  -7.347  -3.732  0.00  0.00    -0.266 OA
ATOM     24  C   UNL d   1       1.387  -8.705  -3.341  0.00  0.00     0.126 C 
ENDBRANCH  21  22
ENDBRANCH  13  21
BRANCH  14  25
ATOM     25  O   UNL d   1      -2.734 -10.618  -1.874  0.00  0.00    -0.311 OA
BRANCH  25  26
ATOM     26  C   UNL d   1      -2.153 -11.840  -1.710  0.00  0.00     0.255 C 
ATOM     27  O   UNL d   1      -1.454 -12.175  -0.764  0.00  0.00    -0.266 OA
ATOM     28  C   UNL d   1      -2.523 -12.766  -2.831  0.00  0.00     0.126 C 
ENDBRANCH  25  26
ENDBRANCH  14  25
BRANCH  15  29
ATOM     29  C   UNL d   1      -4.387 -10.480   0.583  0.00  0.00     0.213 C 
BRANCH  29  30
ATOM     30  O   UNL d   1      -5.620 -10.107   1.235  0.00  0.00    -0.319 OA
BRANCH  30  31
ATOM     31  C   UNL d   1      -6.688  -9.950   0.409  0.00  0.00     0.254 C 
ATOM     32  O   UNL d   1      -6.676 -10.145  -0.799  0.00  0.00    -0.266 OA
ATOM     33  C   UNL d   1      -7.887  -9.472   1.169  0.00  0.00     0.126 C 
ENDBRANCH  30  31
ENDBRANCH  29  30
ENDBRANCH  15  29
ENDBRANCH  10  11
ENDBRANCH   9  10
BRANCH   9  34
ATOM     34  C   UNL d   1      -0.962  -6.986   3.015  0.00  0.00     0.188 C 
BRANCH  34  35
ATOM     35  C   UNL d   1      -1.535  -7.526   4.339  0.00  0.00     0.213 C 
BRANCH  35  36
ATOM     36  O   UNL d   1      -0.537  -8.390   4.949  0.00  0.00    -0.319 OA
BRANCH  36  37
ATOM     37  C   UNL d   1       0.400  -7.764   5.717  0.00  0.00     0.254 C 
ATOM     38  O   UNL d   1       0.319  -6.608   6.112  0.00  0.00    -0.266 OA
ATOM     39  C   UNL d   1       1.554  -8.678   6.012  0.00  0.00     0.126 C 
ENDBRANCH  36  37
ENDBRANCH  35  36
ENDBRANCH  34  35
BRANCH  34  40
ATOM     40  O   UNL d   1      -0.759  -8.140   2.163  0.00  0.00    -0.311 OA
BRANCH  40  41
ATOM     41  C   UNL d   1       0.486  -8.694   2.148  0.00  0.00     0.255 C 
ATOM     42  O   UNL d   1       1.473  -8.241   2.708  0.00  0.00    -0.266 OA
ATOM     43  C   UNL d   1       0.501  -9.931   1.304  0.00  0.00     0.126 C 
ENDBRANCH  40  41
ENDBRANCH  34  40
ENDBRANCH   9  34
ENDBRANCH   8   9
BRANCH   8  44
ATOM     44  O   UNL d   1      -3.285  -4.855   4.105  0.00  0.00    -0.310 OA
BRANCH  44  45
ATOM     45  C   UNL d   1      -4.413  -4.230   3.667  0.00  0.00     0.255 C 
ATOM     46  O   UNL d   1      -4.540  -3.682   2.583  0.00  0.00    -0.266 OA
ATOM     47  C   UNL d   1      -5.479  -4.258   4.728  0.00  0.00     0.126 C 
ENDBRANCH  44  45
ENDBRANCH   8  44
ENDBRANCH   1   8
TORSDOF 23
