REMARK  4 active torsions:
REMARK  status: ('A' for Active; 'I' for Inactive)
REMARK    1  A    between atoms: C_8  and  C_1 
REMARK    2  A    between atoms: C_15  and  C_4 
REMARK       I    between atoms: C_9  and  N_7 
REMARK    3  A    between atoms: N_11  and  C_8 
REMARK       I    between atoms: C_10  and  N_11 
REMARK    4  A    between atoms: C_12  and  C_10 
ROOT
ATOM      1  C   UNL d   1       0.546  -2.724  -0.030  0.00  0.00     0.166 C 
ENDROOT
BRANCH   1   2
ATOM      2  C   UNL d   1      -0.168  -2.441   1.252  0.00  0.00     0.020 A 
ATOM      3  C   UNL d   1      -1.562  -2.088   1.401  0.00  0.00     0.075 A 
ATOM      4  N   UNL d   1      -1.850  -1.858   2.693  0.00  0.00    -0.260 N 
ATOM      5  O   UNL d   1      -0.696  -2.069   3.398  0.00  0.00    -0.242 OA
ATOM      6  HN  UNL d   1      -2.754  -1.580   3.075  1.00  0.00     0.195 HD
ATOM      7  C   UNL d   1       0.306  -2.412   2.552  0.00  0.00     0.082 A 
ATOM      8  C   UNL d   1       1.610  -2.651   3.205  0.00  0.00     0.079 C 
BRANCH   3   9
ATOM      9  C   UNL d   1      -2.614  -1.926   0.387  0.00  0.00    -0.007 A 
ATOM     10  C   UNL d   1      -3.609  -0.950   0.563  0.00  0.00     0.014 A 
ATOM     11  C   UNL d   1      -4.621  -0.773  -0.385  0.00  0.00     0.001 A 
ATOM     12  C   UNL d   1      -4.649  -1.568  -1.527  0.00  0.00     0.000 A 
ATOM     13  C   UNL d   1      -3.682  -2.554  -1.707  0.00  0.00     0.001 A 
ATOM     14  C   UNL d   1      -2.682  -2.742  -0.750  0.00  0.00     0.014 A 
ENDBRANCH   3   9
ENDBRANCH   1   2
BRANCH   1  15
ATOM     15  N   UNL d   1       1.947  -3.020   0.165  0.00  0.00    -0.356 N 
ATOM     16  C   UNL d   1       2.447  -4.303   0.072  0.00  0.00     0.222 C 
ATOM     17  O   UNL d   1       1.766  -5.269  -0.255  0.00  0.00    -0.273 OA
ATOM     18  H   UNL d   1       2.564  -2.255   0.406  0.00  0.00     0.162 HD
BRANCH  16  19
ATOM     19  C   UNL d   1       3.928  -4.413   0.424  0.00  0.00     0.081 C 
ATOM     20  C   UNL d   1       4.821  -3.880  -0.718  0.00  0.00     0.034 C 
ATOM     21  C   UNL d   1       5.225  -4.944  -1.744  0.00  0.00     0.126 C 
ATOM     22  N   UNL d   1       5.670  -6.153  -1.064  0.00  0.00    -0.352 N 
ATOM     23  C   UNL d   1       4.615  -6.771  -0.273  0.00  0.00     0.126 C 
ATOM     24  C   UNL d   1       7.032  -6.347  -0.871  0.00  0.00     0.215 C 
ATOM     25  C   UNL d   1       4.285  -5.841   0.890  0.00  0.00     0.034 C 
ATOM     26  O   UNL d   1       7.874  -5.626  -1.418  0.00  0.00    -0.274 OA
ATOM     27  C   UNL d   1       7.503  -7.487  -0.004  0.00  0.00     0.117 C 
ENDBRANCH  16  19
ENDBRANCH   1  15
TORSDOF 4
