REMARK  5 active torsions:
REMARK  status: ('A' for Active; 'I' for Inactive)
REMARK    1  A    between atoms: C_7  and  C_1 
REMARK    2  A    between atoms: C_10  and  N_5 
REMARK       I    between atoms: N_8  and  C_7 
REMARK       I    between atoms: C_9  and  N_8 
REMARK    3  A    between atoms: O_20  and  C_9 
REMARK    4  A    between atoms: C_11  and  C_10 
REMARK    5  A    between atoms: C_21  and  O_20 
ROOT
ATOM      1  C   UNL d   1      -0.592  -1.260   0.113  0.00  0.00     0.116 C 
ATOM      2  N   UNL d   1      -0.852   1.129  -0.186  0.00  0.00    -0.274 N 
ATOM      3  C   UNL d   1       0.499   1.352  -0.170  0.00  0.00     0.329 C 
ATOM      4  C   UNL d   1      -1.449  -0.098  -0.203  0.00  0.00     0.266 C 
ATOM      5  N   UNL d   1       1.281   0.230   0.064  0.00  0.00    -0.304 N 
ATOM      6  C   UNL d   1       0.723  -1.029   0.234  0.00  0.00     0.118 C 
ATOM      7  O   UNL d   1       0.938   2.480  -0.371  0.00  0.00    -0.246 OA
ATOM      8  O   UNL d   1      -2.636  -0.239  -0.492  0.00  0.00    -0.267 OA
ATOM      9  H   UNL d   1      -1.427   1.925  -0.419  0.00  0.00     0.173 HD
ENDROOT
BRANCH   1  10
ATOM     10  C   UNL d   1      -1.101  -2.659   0.262  0.00  0.00     0.266 C 
ATOM     11  N   UNL d   1      -2.383  -2.848  -0.212  0.00  0.00    -0.269 N 
ATOM     12  C   UNL d   1      -3.200  -3.942  -0.082  0.00  0.00     0.367 C 
ATOM     13  H   UNL d   1      -2.858  -2.072  -0.662  0.00  0.00     0.174 HD
ATOM     14  O   UNL d   1      -4.282  -3.989  -0.657  0.00  0.00    -0.238 OA
ATOM     15  O   UNL d   1      -0.370  -3.537   0.708  0.00  0.00    -0.267 OA
BRANCH  12  16
ATOM     16  O   UNL d   1      -2.732  -4.891   0.764  0.00  0.00    -0.304 OA
BRANCH  16  17
ATOM     17  C   UNL d   1      -3.645  -5.952   1.078  0.00  0.00     0.176 C 
ATOM     18  C   UNL d   1      -4.684  -5.471   2.078  0.00  0.00     0.034 C 
ENDBRANCH  16  17
ENDBRANCH  12  16
ENDBRANCH   1  10
BRANCH   5  19
ATOM     19  C   UNL d   1       2.739   0.376   0.041  0.00  0.00     0.179 C 
BRANCH  19  20
ATOM     20  C   UNL d   1       3.257   0.085  -1.341  0.00  0.00     0.001 A 
ATOM     21  S   UNL d   1       3.771  -1.496  -1.763  0.00  0.00    -0.105 SA
ATOM     22  C   UNL d   1       4.174  -1.014  -3.351  0.00  0.00     0.050 A 
ATOM     23  C   UNL d   1       3.937   0.326  -3.561  0.00  0.00     0.008 A 
ATOM     24  C   UNL d   1       3.406   0.961  -2.400  0.00  0.00     0.017 A 
ENDBRANCH  19  20
ENDBRANCH   5  19
TORSDOF 5
