REMARK  6 active torsions:
REMARK  status: ('A' for Active; 'I' for Inactive)
REMARK    1  A    between atoms: N_4  and  C_1 
REMARK    2  A    between atoms: N_8  and  C_1 
REMARK    3  A    between atoms: C_3  and  N_4 
REMARK    4  A    between atoms: N_5  and  N_8 
REMARK    5  A    between atoms: N_11  and  C_9 
REMARK    6  A    between atoms: C_15  and  C_14 
ROOT
ATOM      1  N   UNL d   1       2.522  -0.051  -0.191  0.00  0.00    -0.276 N 
ATOM      2  H   UNL d   1       3.026   0.324   0.608  0.00  0.00     0.189 HD
ENDROOT
BRANCH   1   3
ATOM      3  N   UNL d   1       3.168  -0.842  -1.096  0.00  0.00    -0.309 N 
ATOM      4  C   UNL d   1       4.437  -0.990  -0.853  0.00  0.00     0.118 C 
ATOM      5  HN  UNL d   1       2.699  -1.277  -1.891  1.00  0.00     0.186 HD
BRANCH   4   6
ATOM      6  C   UNL d   1       5.313  -1.827  -1.698  0.00  0.00    -0.019 A 
ATOM      7  C   UNL d   1       4.792  -2.531  -2.775  0.00  0.00     0.015 A 
ATOM      8  C   UNL d   1       5.634  -3.327  -3.564  0.00  0.00     0.030 A 
ATOM      9  C   UNL d   1       7.011  -3.446  -3.308  0.00  0.00     0.029 A 
ATOM     10  C   UNL d   1       7.505  -2.718  -2.212  0.00  0.00     0.030 A 
ATOM     11  C   UNL d   1       6.675  -1.917  -1.411  0.00  0.00     0.015 A 
BRANCH   9  12
ATOM     12  N   UNL d   1       7.826  -4.233  -4.101  0.00  0.00    -0.390 N 
ATOM     13  C   UNL d   1       7.322  -5.416  -4.791  0.00  0.00     0.149 C 
ATOM     14  C   UNL d   1       9.249  -3.963  -4.268  0.00  0.00     0.149 C 
ENDBRANCH   9  12
ENDBRANCH   4   6
ENDBRANCH   1   3
BRANCH   1  15
ATOM     15  C   UNL d   1       1.222   0.374  -0.344  0.00  0.00     0.191 C 
ATOM     16  S   UNL d   1       0.588   1.348   0.865  0.00  0.00    -0.039 SA
BRANCH  15  17
ATOM     17  N   UNL d   1       0.581  -0.081  -1.474  0.00  0.00    -0.332 N 
ATOM     18  H   UNL d   1       0.938  -0.968  -1.811  0.00  0.00     0.168 HD
BRANCH  17  19
ATOM     19  C   UNL d   1      -0.461   0.548  -2.202  0.00  0.00     0.042 A 
ATOM     20  C   UNL d   1      -1.398  -0.202  -2.945  0.00  0.00    -0.013 A 
ATOM     21  C   UNL d   1      -2.328   0.502  -3.750  0.00  0.00     0.042 A 
ATOM     22  C   UNL d   1      -1.484  -1.702  -2.866  0.00  0.00     0.052 C 
ATOM     23 CL   UNL d   1      -3.504  -0.322  -4.720  0.00  0.00    -0.084 Cl
ATOM     24  C   UNL d   1      -2.340   1.899  -3.800  0.00  0.00     0.024 A 
ATOM     25  C   UNL d   1      -1.426   2.625  -3.052  0.00  0.00     0.004 A 
ATOM     26  C   UNL d   1      -0.490   1.952  -2.268  0.00  0.00     0.030 A 
ENDBRANCH  17  19
ENDBRANCH  15  17
ENDBRANCH   1  15
TORSDOF 6
