REMARK  5 active torsions:
REMARK  status: ('A' for Active; 'I' for Inactive)
REMARK    1  A    between atoms: C_4  and  C_1 
REMARK    2  A    between atoms: C_5  and  C_1 
REMARK    3  A    between atoms: O_7  and  N_2 
REMARK    4  A    between atoms: C_6  and  O_7 
REMARK    5  A    between atoms: C_10  and  C_6 
ROOT
ATOM      1  C   UNL d   1       1.092  -0.104   0.072  0.00  0.00     0.089 C 
ATOM      2  N   UNL d   1       0.370  -1.186   0.127  0.00  0.00    -0.255 N 
ATOM      3  HN  UNL d   1      -0.648  -1.164   0.060  1.00  0.00     0.195 HD
ENDROOT
BRANCH   1   4
ATOM      4  C   UNL d   1       0.381   1.175  -0.012  0.00  0.00     0.034 A 
ATOM      5  S   UNL d   1      -1.141   1.352   0.773  0.00  0.00    -0.100 SA
ATOM      6  C   UNL d   1      -1.296   2.976   0.277  0.00  0.00     0.050 A 
ATOM      7  C   UNL d   1      -0.224   3.390  -0.482  0.00  0.00     0.008 A 
ATOM      8  C   UNL d   1       0.736   2.349  -0.658  0.00  0.00     0.022 A 
ENDBRANCH   1   4
BRANCH   1   9
ATOM      9  C   UNL d   1       2.551   0.006   0.095  0.00  0.00     0.034 A 
ATOM     10  S   UNL d   1       3.550  -1.085  -0.778  0.00  0.00    -0.100 SA
ATOM     11  C   UNL d   1       4.984  -0.300  -0.286  0.00  0.00     0.050 A 
ATOM     12  C   UNL d   1       4.724   0.808   0.485  0.00  0.00     0.008 A 
ATOM     13  C   UNL d   1       3.327   0.975   0.716  0.00  0.00     0.022 A 
ENDBRANCH   1   9
BRANCH   2  14
ATOM     14  O   UNL d   1       1.083  -2.385   0.284  0.00  0.00    -0.198 OA
BRANCH  14  15
ATOM     15  C   UNL d   1       0.213  -3.448   0.194  0.00  0.00     0.288 C 
ATOM     16  O   UNL d   1      -1.000  -3.365   0.019  0.00  0.00    -0.262 OA
BRANCH  15  17
ATOM     17  C   UNL d   1       0.923  -4.796   0.371  0.00  0.00     0.039 C 
ATOM     18  C   UNL d   1       2.454  -4.695   0.333  0.00  0.00     0.025 C 
ATOM     19  C   UNL d   1       0.487  -5.382   1.721  0.00  0.00     0.025 C 
ATOM     20  C   UNL d   1       0.467  -5.726  -0.767  0.00  0.00     0.025 C 
ENDBRANCH  15  17
ENDBRANCH  14  15
ENDBRANCH   2  14
TORSDOF 5
