REMARK  9 active torsions:
REMARK  status: ('A' for Active; 'I' for Inactive)
REMARK    1  A    between atoms: S_2  and  C_1 
REMARK    2  A    between atoms: S_3  and  C_1 
REMARK    3  A    between atoms: C_6  and  C_1 
REMARK    4  A    between atoms: C_9  and  S_2 
REMARK    5  A    between atoms: C_10  and  S_3 
REMARK    6  A    between atoms: C_4  and  C_9 
REMARK    7  A    between atoms: O_12  and  C_4 
REMARK    8  A    between atoms: C_5  and  C_10 
REMARK    9  A    between atoms: O_11  and  C_5 
ROOT
ATOM      1  C   UNL d   1       1.099   0.042   0.051  0.00  0.00     0.080 C 
ATOM      2  C   UNL d   1       2.626   0.131   0.223  0.00  0.00     0.044 C 
ENDROOT
BRANCH   1   3
ATOM      3  S   UNL d   1       0.293  -0.350   1.689  0.00  0.00    -0.133 SA
BRANCH   3   4
ATOM      4  C   UNL d   1       0.973  -2.018   2.023  0.00  0.00     0.185 C 
BRANCH   4   5
ATOM      5  C   UNL d   1       0.468  -2.563   3.347  0.00  0.00     0.149 C 
ATOM      6  O   UNL d   1       1.072  -3.406   3.995  0.00  0.00    -0.649 OA
BRANCH   5   7
ATOM      7  O   UNL d   1      -0.746  -2.101   3.727  0.00  0.00    -0.776 OA
ATOM      8  H   UNL d   1      -1.061  -1.401   3.116  0.00  0.00     0.167 HD
ENDBRANCH   5   7
ENDBRANCH   4   5
ENDBRANCH   3   4
ENDBRANCH   1   3
BRANCH   1   9
ATOM      9  S   UNL d   1       0.482   1.747  -0.495  0.00  0.00    -0.133 SA
BRANCH   9  10
ATOM     10  C   UNL d   1       1.072   2.837   0.856  0.00  0.00     0.185 C 
BRANCH  10  11
ATOM     11  C   UNL d   1       0.626   4.278   0.658  0.00  0.00     0.149 C 
ATOM     12  O   UNL d   1       0.926   5.173   1.436  0.00  0.00    -0.649 OA
BRANCH  11  13
ATOM     13  O   UNL d   1      -0.126   4.507  -0.439  0.00  0.00    -0.776 OA
ATOM     14  H   UNL d   1      -0.262   3.677  -0.946  0.00  0.00     0.167 HD
ENDBRANCH  11  13
ENDBRANCH  10  11
ENDBRANCH   9  10
ENDBRANCH   1   9
BRANCH   1  15
ATOM     15  C   UNL d   1       0.639  -0.967  -1.023  0.00  0.00    -0.030 A 
ATOM     16  C   UNL d   1      -0.732  -1.110  -1.336  0.00  0.00     0.009 A 
ATOM     17  C   UNL d   1      -1.169  -1.987  -2.332  0.00  0.00     0.001 A 
ATOM     18  C   UNL d   1      -0.250  -2.755  -3.034  0.00  0.00     0.000 A 
ATOM     19  C   UNL d   1       1.105  -2.650  -2.739  0.00  0.00     0.001 A 
ATOM     20  C   UNL d   1       1.545  -1.766  -1.747  0.00  0.00     0.009 A 
ENDBRANCH   1  15
TORSDOF 9
