REMARK  4 active torsions:
REMARK  status: ('A' for Active; 'I' for Inactive)
REMARK    1  A    between atoms: C_10  and  N_1 
REMARK    2  A    between atoms: N_16  and  C_2 
REMARK    3  A    between atoms: C_6  and  C_3 
REMARK    4  A    between atoms: C_17  and  C_11 
ROOT
ATOM      1  N   UNL d   1      -0.084  -1.247   0.046  0.00  0.00    -0.238 N 
ATOM      2  C   UNL d   1       1.246  -0.806  -0.075  0.00  0.00     0.136 A 
ATOM      3  C   UNL d   1       1.195   0.575  -0.103  0.00  0.00     0.067 A 
ATOM      4  N   UNL d   1      -0.944  -0.206   0.076  0.00  0.00    -0.296 N 
ATOM      5  HN  UNL d   1      -1.960  -0.248   0.152  1.00  0.00     0.187 HD
ATOM      6  C   UNL d   1      -0.181   0.892  -0.013  0.00  0.00     0.039 A 
ATOM      7  C   UNL d   1      -0.821   2.236   0.020  0.00  0.00     0.071 C 
ENDROOT
BRANCH   3   8
ATOM      8  C   UNL d   1       2.364   1.515  -0.130  0.00  0.00     0.090 A 
ATOM      9  N   UNL d   1       2.230   2.826  -0.047  0.00  0.00    -0.349 N 
ATOM     10  C   UNL d   1       3.480   3.440  -0.044  0.00  0.00     0.050 A 
ATOM     11  HN  UNL d   1       1.338   3.318   0.007  1.00  0.00     0.166 HD
ATOM     12  C   UNL d   1       4.551   2.572  -0.102  0.00  0.00     0.082 A 
ATOM     13  S   UNL d   1       4.001   0.969  -0.223  0.00  0.00    -0.081 SA
BRANCH  10  14
ATOM     14  C   UNL d   1       3.640   4.884   0.064  0.00  0.00    -0.009 A 
ATOM     15  C   UNL d   1       2.671   5.652   0.718  0.00  0.00     0.014 A 
ATOM     16  C   UNL d   1       2.840   7.032   0.864  0.00  0.00     0.001 A 
ATOM     17  C   UNL d   1       3.976   7.658   0.350  0.00  0.00     0.000 A 
ATOM     18  C   UNL d   1       4.939   6.909  -0.318  0.00  0.00     0.001 A 
ATOM     19  C   UNL d   1       4.771   5.531  -0.464  0.00  0.00     0.014 A 
ENDBRANCH  10  14
ENDBRANCH   3   8
BRANCH   2  20
ATOM     20  N   UNL d   1       2.329  -1.639  -0.056  0.00  0.00    -0.383 N 
ATOM     21  H   UNL d   1       2.287  -2.533   0.435  0.00  0.00     0.157 HD
ATOM     22  H   UNL d   1       3.259  -1.232   0.018  0.00  0.00     0.157 HD
ENDBRANCH   2  20
BRANCH   1  23
ATOM     23  C   UNL d   1      -0.524  -2.600   0.168  0.00  0.00     0.081 A 
ATOM     24  C   UNL d   1       0.206  -3.606  -0.499  0.00  0.00     0.057 A 
ATOM     25  C   UNL d   1      -0.037  -4.954  -0.249  0.00  0.00     0.036 A 
ATOM     26 CL   UNL d   1       0.949  -6.151  -0.990  0.00  0.00    -0.084 Cl
ATOM     27  C   UNL d   1      -1.045  -5.328   0.628  0.00  0.00     0.026 A 
ATOM     28  C   UNL d   1      -1.836  -4.344   1.226  0.00  0.00     0.028 A 
ATOM     29  C   UNL d   1      -1.591  -2.978   1.000  0.00  0.00     0.062 A 
ATOM     30 CL   UNL d   1      -2.583  -1.890   1.905  0.00  0.00    -0.082 Cl
ENDBRANCH   1  23
TORSDOF 4
