REMARK  8 active torsions:
REMARK  status: ('A' for Active; 'I' for Inactive)
REMARK    1  A    between atoms: C_11  and  N_1 
REMARK    2  A    between atoms: C_12  and  C_2 
REMARK    3  A    between atoms: S_10  and  C_3 
REMARK    4  A    between atoms: C_8  and  C_14 
REMARK       I    between atoms: N_9  and  C_8 
REMARK    5  A    between atoms: C_14  and  S_10 
REMARK    6  A    between atoms: C_17  and  C_12 
REMARK    7  A    between atoms: O_27  and  C_13 
REMARK    8  A    between atoms: O_29  and  C_15 
ROOT
ATOM      1  N   UNL d   1      -0.424  -1.293   0.266  0.00  0.00    -0.279 N 
ATOM      2  C   UNL d   1       0.816  -0.704  -0.013  0.00  0.00     0.109 A 
ATOM      3  C   UNL d   1      -1.289  -0.198   0.341  0.00  0.00     0.168 A 
ATOM      4  N   UNL d   1       0.646   0.592  -0.218  0.00  0.00    -0.286 N 
ATOM      5  HN  UNL d   1       1.371   1.248  -0.508  1.00  0.00     0.188 HD
ATOM      6  N   UNL d   1      -0.657   0.904   0.023  0.00  0.00    -0.278 N 
ATOM      7  HN  UNL d   1      -1.070   1.836  -0.033  1.00  0.00     0.189 HD
ENDROOT
BRANCH   2   8
ATOM      8  C   UNL d   1       2.162  -1.366   0.022  0.00  0.00     0.117 C 
BRANCH   8   9
ATOM      9  C   UNL d   1       3.082  -0.760   1.066  0.00  0.00    -0.048 A 
ATOM     10  C   UNL d   1       3.129  -1.296   2.363  0.00  0.00     0.047 A 
ATOM     11  C   UNL d   1       3.901  -0.699   3.375  0.00  0.00     0.102 A 
ATOM     12  C   UNL d   1       4.675   0.432   3.070  0.00  0.00     0.101 A 
ATOM     13  C   UNL d   1       4.654   0.940   1.763  0.00  0.00     0.040 A 
ATOM     14  C   UNL d   1       3.860   0.362   0.773  0.00  0.00     0.010 A 
BRANCH  11  15
ATOM     15  O   UNL d   1       3.954  -1.221   4.641  0.00  0.00    -0.353 OA
ATOM     16  C   UNL d   1       2.800  -1.925   5.087  0.00  0.00     0.210 C 
ENDBRANCH  11  15
BRANCH  12  17
ATOM     17  O   UNL d   1       5.490   1.159   3.899  0.00  0.00    -0.353 OA
ATOM     18  C   UNL d   1       5.410   0.932   5.298  0.00  0.00     0.210 C 
ENDBRANCH  12  17
ENDBRANCH   8   9
ENDBRANCH   2   8
BRANCH   1  19
ATOM     19  C   UNL d   1      -0.725  -2.687   0.391  0.00  0.00     0.043 A 
ATOM     20  C   UNL d   1      -1.728  -3.138   1.265  0.00  0.00     0.033 A 
ATOM     21  C   UNL d   1      -2.080  -4.490   1.315  0.00  0.00     0.044 A 
ATOM     22  C   UNL d   1      -1.404  -5.405   0.525  0.00  0.00     0.116 A 
ATOM     23  C   UNL d   1      -0.387  -4.990  -0.323  0.00  0.00     0.044 A 
ATOM     24  F   UNL d   1      -1.738  -6.700   0.577  0.00  0.00    -0.206 F 
ATOM     25  C   UNL d   1      -0.055  -3.632  -0.403  0.00  0.00     0.033 A 
ENDBRANCH   1  19
BRANCH   3  26
ATOM     26  S   UNL d   1      -2.995  -0.261   0.672  0.00  0.00    -0.083 SA
BRANCH  26  27
ATOM     27  C   UNL d   1      -3.541   1.427   0.288  0.00  0.00     0.185 C 
BRANCH  27  28
ATOM     28  C   UNL d   1      -4.999   1.577   0.709  0.00  0.00     0.229 C 
ATOM     29  N   UNL d   1      -5.290   2.038   1.986  0.00  0.00    -0.347 N 
ATOM     30  C   UNL d   1      -6.688   2.225   2.393  0.00  0.00     0.152 C 
ATOM     31  C   UNL d   1      -4.336   2.259   3.077  0.00  0.00     0.152 C 
ATOM     32  C   UNL d   1      -7.000   1.380   3.633  0.00  0.00     0.187 C 
ATOM     33  O   UNL d   1      -6.082   1.677   4.701  0.00  0.00    -0.388 OA
ATOM     34  C   UNL d   1      -4.728   1.415   4.298  0.00  0.00     0.187 C 
ATOM     35  O   UNL d   1      -5.897   1.278  -0.085  0.00  0.00    -0.273 OA
ENDBRANCH  27  28
ENDBRANCH  26  27
ENDBRANCH   3  26
TORSDOF 8
