REMARK  3 active torsions:
REMARK  status: ('A' for Active; 'I' for Inactive)
REMARK    1  A    between atoms: C_2  and  C_1 
REMARK       I    between atoms: N_3  and  C_2 
REMARK    2  A    between atoms: C_5  and  C_11 
REMARK    3  A    between atoms: O_18  and  C_5 
ROOT
ATOM      1  C   UNL d   1       2.259  -1.976   0.033  0.00  0.00     0.256 C 
ATOM      2  N   UNL d   1       2.446  -3.342   0.316  0.00  0.00    -0.348 N 
ATOM      3  O   UNL d   1       2.034  -1.556  -1.101  0.00  0.00    -0.267 OA
ATOM      4  C   UNL d   1       2.506  -3.879   1.674  0.00  0.00     0.127 C 
ATOM      5  C   UNL d   1       2.061  -4.264  -0.749  0.00  0.00     0.127 C 
ATOM      6  C   UNL d   1       2.622  -6.243   0.728  0.00  0.00     0.087 C 
ATOM      7  C   UNL d   1       3.160  -5.259   1.769  0.00  0.00     0.035 C 
ATOM      8  C   UNL d   1       2.753  -5.620  -0.660  0.00  0.00     0.035 C 
ENDROOT
BRANCH   1   9
ATOM      9  C   UNL d   1       2.299  -0.974   1.118  0.00  0.00     0.070 A 
ATOM     10  C   UNL d   1       3.170   0.113   1.005  0.00  0.00     0.135 A 
ATOM     11  C   UNL d   1       3.205   1.102   1.984  0.00  0.00     0.085 A 
ATOM     12  F   UNL d   1       4.005   0.224  -0.038  0.00  0.00    -0.205 F 
ATOM     13  C   UNL d   1       2.361   0.996   3.082  0.00  0.00     0.119 A 
ATOM     14  C   UNL d   1       1.466  -0.063   3.202  0.00  0.00     0.043 A 
ATOM     15  F   UNL d   1       2.402   1.932   4.038  0.00  0.00    -0.206 F 
ATOM     16  C   UNL d   1       1.414  -1.038   2.204  0.00  0.00     0.023 A 
ENDBRANCH   1   9
BRANCH   6  17
ATOM     17  C   UNL d   1       1.192  -6.666   1.029  0.00  0.00     0.143 C 
ATOM     18  O   UNL d   1       0.486  -6.178   1.897  0.00  0.00    -0.650 OA
BRANCH  17  19
ATOM     19  O   UNL d   1       0.758  -7.680   0.247  0.00  0.00    -0.776 OA
ATOM     20  H   UNL d   1       1.421  -8.024  -0.380  0.00  0.00     0.167 HD
ENDBRANCH  17  19
ENDBRANCH   6  17
TORSDOF 3
