REMARK  10 active torsions:
REMARK  status: ('A' for Active; 'I' for Inactive)
REMARK    1  A    between atoms: C_14  and  C_1 
REMARK    2  A    between atoms: N_10  and  C_2 
REMARK    3  A    between atoms: C_15  and  C_6 
REMARK    4  A    between atoms: C_11  and  C_9 
REMARK       I    between atoms: C_13  and  N_10 
REMARK    5  A    between atoms: C_16  and  C_13 
REMARK    6  A    between atoms: O_25  and  C_14 
REMARK    7  A    between atoms: O_26  and  C_15 
REMARK    8  A    between atoms: C_31  and  O_25 
REMARK    9  A    between atoms: C_32  and  O_26 
REMARK   10  A    between atoms: O_30  and  C_27 
ROOT
ATOM      1  C   UNL d   1      -1.973   0.911   0.072  0.00  0.00     0.110 A 
ATOM      2  C   UNL d   1      -0.831   1.667   0.281  0.00  0.00     0.071 A 
ATOM      3  C   UNL d   1       0.354   0.849   0.388  0.00  0.00     0.027 A 
ATOM      4  C   UNL d   1       0.057  -0.476   0.117  0.00  0.00     0.088 A 
ATOM      5  S   UNL d   1      -1.595  -0.750  -0.138  0.00  0.00    -0.063 SA
ATOM      6  C   UNL d   1       2.630   0.062   0.745  0.00  0.00     0.072 A 
ATOM      7  N   UNL d   1       0.918  -1.507   0.077  0.00  0.00    -0.345 N 
ATOM      8  HN  UNL d   1       0.620  -2.449  -0.177  1.00  0.00     0.166 HD
ATOM      9  C   UNL d   1       2.213  -1.222   0.397  0.00  0.00     0.134 A 
ATOM     10  C   UNL d   1       1.696   1.113   0.738  0.00  0.00     0.036 A 
ENDROOT
BRANCH   2  11
ATOM     11  N   UNL d   1      -0.882   3.062   0.404  0.00  0.00    -0.321 N 
ATOM     12  C   UNL d   1      -0.030   3.899  -0.299  0.00  0.00     0.256 C 
ATOM     13  O   UNL d   1       0.878   3.550  -1.041  0.00  0.00    -0.267 OA
ATOM     14  H   UNL d   1      -1.811   3.448   0.570  0.00  0.00     0.169 HD
BRANCH  12  15
ATOM     15  C   UNL d   1      -0.384   5.338  -0.184  0.00  0.00     0.032 A 
ATOM     16  C   UNL d   1      -0.701   5.886   1.066  0.00  0.00     0.020 A 
ATOM     17  C   UNL d   1      -1.066   7.231   1.169  0.00  0.00     0.038 A 
ATOM     18  C   UNL d   1      -1.133   8.032   0.029  0.00  0.00     0.068 A 
ATOM     19  C   UNL d   1      -0.796   7.485  -1.215  0.00  0.00     0.038 A 
ATOM     20  C   UNL d   1      -0.415   6.143  -1.325  0.00  0.00     0.020 A 
BRANCH  18  21
ATOM     21  O   UNL d   1      -1.511   9.346  -0.002  0.00  0.00    -0.356 OA
ATOM     22  C   UNL d   1      -1.939   9.923   1.227  0.00  0.00     0.210 C 
ENDBRANCH  18  21
ENDBRANCH  12  15
ENDBRANCH   2  11
BRANCH   1  23
ATOM     23  C   UNL d   1      -3.362   1.305  -0.104  0.00  0.00     0.302 C 
ATOM     24  O   UNL d   1      -4.300   0.569  -0.386  0.00  0.00    -0.259 OA
BRANCH  23  25
ATOM     25  O   UNL d   1      -3.474   2.663   0.023  0.00  0.00    -0.317 OA
BRANCH  25  26
ATOM     26  C   UNL d   1      -4.684   3.232  -0.502  0.00  0.00     0.174 C 
ATOM     27  C   UNL d   1      -4.484   3.494  -1.985  0.00  0.00     0.034 C 
ENDBRANCH  25  26
ENDBRANCH  23  25
ENDBRANCH   1  23
BRANCH   6  28
ATOM     28  C   UNL d   1       3.980   0.407   1.224  0.00  0.00     0.295 C 
ATOM     29  O   UNL d   1       4.161   1.081   2.225  0.00  0.00    -0.259 OA
BRANCH  28  30
ATOM     30  O   UNL d   1       4.920  -0.045   0.367  0.00  0.00    -0.318 OA
BRANCH  30  31
ATOM     31  C   UNL d   1       6.275   0.298   0.709  0.00  0.00     0.174 C 
ATOM     32  C   UNL d   1       6.808  -0.553   1.853  0.00  0.00     0.034 C 
ENDBRANCH  30  31
ENDBRANCH  28  30
ENDBRANCH   6  28
BRANCH   9  33
ATOM     33  C   UNL d   1       3.157  -2.413   0.335  0.00  0.00     0.433 C 
ATOM     34  F   UNL d   1       4.277  -2.318   1.101  0.00  0.00    -0.165 F 
ATOM     35  F   UNL d   1       2.561  -3.570   0.759  0.00  0.00    -0.165 F 
ATOM     36  F   UNL d   1       3.584  -2.672  -0.935  0.00  0.00    -0.165 F 
ENDBRANCH   9  33
TORSDOF 10
