REMARK  13 active torsions:
REMARK  status: ('A' for Active; 'I' for Inactive)
REMARK    1  A    between atoms: C_2  and  S_1 
REMARK    2  A    between atoms: O_7  and  S_1 
REMARK    3  A    between atoms: O_11  and  C_6 
REMARK    4  A    between atoms: C_13  and  O_7 
REMARK    5  A    between atoms: O_12  and  C_9 
REMARK    6  A    between atoms: C_16  and  C_13 
REMARK    7  A    between atoms: C_22  and  C_16 
REMARK    8  A    between atoms: C_17  and  C_18 
REMARK    9  A    between atoms: C_18  and  C_21 
REMARK   10  A    between atoms: C_19  and  C_23 
REMARK   11  A    between atoms: C_20  and  C_19 
REMARK   12  A    between atoms: C_21  and  C_20 
REMARK   13  A    between atoms: C_23  and  C_22 
ROOT
ATOM      1  S   UNL d   1       1.087   0.613   0.208  0.00  0.00     0.300 S 
ATOM      2  O   UNL d   1       0.406  -0.628  -0.111  0.00  0.00    -0.193 OA
ATOM      3  O   UNL d   1       0.772   1.375   1.397  0.00  0.00    -0.193 OA
ENDROOT
BRANCH   1   4
ATOM      4  C   UNL d   1       0.917   1.697  -1.179  0.00  0.00     0.122 A 
ATOM      5  C   UNL d   1       2.120   2.131  -1.779  0.00  0.00     0.065 A 
ATOM      6  C   UNL d   1       2.109   2.801  -2.996  0.00  0.00     0.069 A 
ATOM      7  C   UNL d   1       0.883   3.092  -3.585  0.00  0.00     0.039 A 
ATOM      8  C   UNL d   1      -0.312   2.701  -2.970  0.00  0.00     0.041 A 
ATOM      9  C   UNL d   1      -0.317   1.997  -1.758  0.00  0.00     0.092 A 
BRANCH   6  10
ATOM     10  O   UNL d   1       3.211   3.184  -3.705  0.00  0.00    -0.356 OA
ATOM     11  C   UNL d   1       4.482   2.794  -3.192  0.00  0.00     0.210 C 
ENDBRANCH   6  10
BRANCH   9  12
ATOM     12  O   UNL d   1      -1.570   1.619  -1.374  0.00  0.00    -0.354 OA
ATOM     13  C   UNL d   1      -1.902   1.654   0.009  0.00  0.00     0.210 C 
ENDBRANCH   9  12
ENDBRANCH   1   4
BRANCH   1  14
ATOM     14  O   UNL d   1       2.680   0.284   0.264  0.00  0.00    -0.272 OA
BRANCH  14  15
ATOM     15  C   UNL d   1       3.113  -0.643   1.238  0.00  0.00     0.190 C 
BRANCH  15  16
ATOM     16  C   UNL d   1       4.619  -0.802   1.090  0.00  0.00     0.028 C 
BRANCH  16  17
ATOM     17  C   UNL d   1       5.212  -1.754   2.122  0.00  0.00     0.002 C 
BRANCH  17  18
ATOM     18  C   UNL d   1       4.644  -3.166   1.997  0.00  0.00     0.000 C 
BRANCH  18  19
ATOM     19  C   UNL d   1       5.246  -4.097   3.041  0.00  0.00     0.000 C 
BRANCH  19  20
ATOM     20  C   UNL d   1       4.635  -5.489   2.919  0.00  0.00     0.000 C 
BRANCH  20  21
ATOM     21  C   UNL d   1       5.219  -6.426   3.970  0.00  0.00     0.000 C 
BRANCH  21  22
ATOM     22  C   UNL d   1       4.618  -7.822   3.845  0.00  0.00    -0.000 C 
BRANCH  22  23
ATOM     23  C   UNL d   1       5.207  -8.764   4.891  0.00  0.00    -0.005 C 
ATOM     24  C   UNL d   1       4.613 -10.156   4.769  0.00  0.00     0.005 C 
ENDBRANCH  22  23
ENDBRANCH  21  22
ENDBRANCH  20  21
ENDBRANCH  19  20
ENDBRANCH  18  19
ENDBRANCH  17  18
ENDBRANCH  16  17
ENDBRANCH  15  16
ENDBRANCH  14  15
ENDBRANCH   1  14
TORSDOF 13
