REMARK  7 active torsions:
REMARK  status: ('A' for Active; 'I' for Inactive)
REMARK    1  A    between atoms: C_9  and  C_2 
REMARK    2  A    between atoms: C_8  and  C_3 
REMARK    3  A    between atoms: C_10  and  C_4 
REMARK    4  A    between atoms: C_7  and  C_5 
REMARK    5  A    between atoms: C_11  and  C_6 
REMARK    6  A    between atoms: C_13  and  C_12 
REMARK    7  A    between atoms: N_15  and  C_14 
ROOT
ATOM      1  C   UNL d   1       0.783  -0.042   0.016  0.00  0.00    -0.012 A 
ATOM      2  C   UNL d   1      -0.092  -1.226  -0.005  0.00  0.00    -0.003 A 
ATOM      3  C   UNL d   1      -0.081   1.149   0.025  0.00  0.00    -0.003 A 
ATOM      4  C   UNL d   1      -1.366  -0.770  -0.077  0.00  0.00    -0.002 A 
ATOM      5  C   UNL d   1      -1.361   0.707  -0.066  0.00  0.00    -0.002 A 
ATOM      6  C   UNL d   1       2.131  -0.007  -0.001  0.00  0.00     0.013 C 
ENDROOT
BRANCH   2   7
ATOM      7  C   UNL d   1       0.251  -2.646   0.148  0.00  0.00    -0.024 A 
ATOM      8  C   UNL d   1       0.433  -3.462  -0.973  0.00  0.00     0.012 A 
ATOM      9  C   UNL d   1       0.735  -4.816  -0.815  0.00  0.00     0.001 A 
ATOM     10  C   UNL d   1       0.847  -5.363   0.462  0.00  0.00     0.000 A 
ATOM     11  C   UNL d   1       0.670  -4.557   1.585  0.00  0.00     0.001 A 
ATOM     12  C   UNL d   1       0.377  -3.201   1.429  0.00  0.00     0.012 A 
ENDBRANCH   2   7
BRANCH   3  13
ATOM     13  C   UNL d   1       0.324   2.556   0.107  0.00  0.00    -0.024 A 
ATOM     14  C   UNL d   1       0.407   3.185   1.355  0.00  0.00     0.012 A 
ATOM     15  C   UNL d   1       0.819   4.516   1.448  0.00  0.00     0.001 A 
ATOM     16  C   UNL d   1       1.152   5.225   0.295  0.00  0.00     0.000 A 
ATOM     17  C   UNL d   1       1.067   4.607  -0.952  0.00  0.00     0.001 A 
ATOM     18  C   UNL d   1       0.653   3.276  -1.048  0.00  0.00     0.012 A 
ENDBRANCH   3  13
BRANCH   6  19
ATOM     19  C   UNL d   1       2.964  -1.166  -0.221  0.00  0.00     0.001 C 
ATOM     20  C   UNL d   1       3.950  -1.599   0.579  0.00  0.00     0.001 C 
BRANCH  20  21
ATOM     21  C   UNL d   1       4.604  -2.862   0.295  0.00  0.00     0.017 C 
ATOM     22  C   UNL d   1       5.575  -3.421   1.032  0.00  0.00     0.084 C 
BRANCH  22  23
ATOM     23  N   UNL d   1       6.211  -4.643   0.852  0.00  0.00    -0.398 N 
ATOM     24  C   UNL d   1       5.875  -5.606  -0.197  0.00  0.00     0.148 C 
ATOM     25  C   UNL d   1       7.261  -5.107   1.759  0.00  0.00     0.148 C 
ENDBRANCH  22  23
ENDBRANCH  20  21
ENDBRANCH   6  19
BRANCH   4  26
ATOM     26  C   UNL d   1      -2.561  -1.622  -0.105  0.00  0.00    -0.024 A 
ATOM     27  C   UNL d   1      -3.198  -1.992   1.085  0.00  0.00     0.012 A 
ATOM     28  C   UNL d   1      -4.342  -2.792   1.050  0.00  0.00     0.001 A 
ATOM     29  C   UNL d   1      -4.854  -3.225  -0.173  0.00  0.00     0.000 A 
ATOM     30  C   UNL d   1      -4.222  -2.862  -1.361  0.00  0.00     0.001 A 
ATOM     31  C   UNL d   1      -3.078  -2.063  -1.328  0.00  0.00     0.012 A 
ENDBRANCH   4  26
BRANCH   5  32
ATOM     32  C   UNL d   1      -2.562   1.549  -0.113  0.00  0.00    -0.024 A 
ATOM     33  C   UNL d   1      -3.066   1.994  -1.341  0.00  0.00     0.012 A 
ATOM     34  C   UNL d   1      -4.245   2.741  -1.389  0.00  0.00     0.001 A 
ATOM     35  C   UNL d   1      -4.928   3.044  -0.212  0.00  0.00     0.000 A 
ATOM     36  C   UNL d   1      -4.432   2.604   1.015  0.00  0.00     0.001 A 
ATOM     37  C   UNL d   1      -3.252   1.859   1.065  0.00  0.00     0.012 A 
ENDBRANCH   5  32
TORSDOF 7
