REMARK  8 active torsions:
REMARK  status: ('A' for Active; 'I' for Inactive)
REMARK    1  A    between atoms: C_2  and  S_1 
REMARK    2  A    between atoms: N_6  and  S_1 
REMARK    3  A    between atoms: N_4  and  C_3 
REMARK    4  A    between atoms: C_5  and  N_6 
REMARK    5  A    between atoms: N_8  and  C_7 
REMARK    6  A    between atoms: C_10  and  C_11 
REMARK    7  A    between atoms: O_20  and  C_10 
REMARK    8  A    between atoms: C_24  and  O_20 
ROOT
ATOM      1  C   UNL d   1       0.923   0.265  -2.736  0.00  0.00     0.070 A 
ATOM      2  C   UNL d   1       2.301   0.588  -2.899  0.00  0.00     0.058 A 
ATOM      3  C   UNL d   1      -0.015   0.540  -3.744  0.00  0.00     0.050 A 
ATOM      4  C   UNL d   1       0.369   1.163  -4.932  0.00  0.00     0.041 A 
ATOM      5  C   UNL d   1       2.632   1.256  -4.101  0.00  0.00     0.033 A 
ATOM      6  C   UNL d   1       1.696   1.546  -5.097  0.00  0.00     0.020 A 
ENDROOT
BRANCH   1   7
ATOM      7  N   UNL d   1       0.389  -0.451  -1.626  0.00  0.00    -0.278 N 
ATOM      8  H   UNL d   1       0.474  -1.467  -1.613  0.00  0.00     0.179 HD
BRANCH   7   9
ATOM      9  S   UNL d   1       0.068   0.283  -0.167  0.00  0.00     0.265 S 
ATOM     10  O   UNL d   1       0.286  -0.696   0.875  0.00  0.00    -0.200 OA
ATOM     11  O   UNL d   1       0.702   1.582  -0.098  0.00  0.00    -0.200 OA
BRANCH   9  12
ATOM     12  C   UNL d   1      -1.691   0.558  -0.241  0.00  0.00     0.112 A 
ATOM     13  C   UNL d   1      -2.602  -0.444   0.096  0.00  0.00     0.126 A 
ATOM     14  C   UNL d   1      -3.978  -0.166   0.213  0.00  0.00     0.038 A 
ATOM     15  C   UNL d   1      -4.435   1.129  -0.020  0.00  0.00     0.003 A 
ATOM     16  C   UNL d   1      -3.529   2.134  -0.375  0.00  0.00     0.002 A 
ATOM     17  C   UNL d   1      -2.163   1.855  -0.477  0.00  0.00     0.028 A 
BRANCH  13  18
ATOM     18  N   UNL d   1      -2.195  -1.825   0.269  0.00  0.00    -0.114 N 
ATOM     19  O   UNL d   1      -1.607  -2.356  -0.685  0.00  0.00    -0.532 OA
ATOM     20  O   UNL d   1      -2.538  -2.393   1.315  0.00  0.00    -0.532 OA
ENDBRANCH  13  18
ENDBRANCH   9  12
ENDBRANCH   7   9
ENDBRANCH   1   7
BRANCH   2  21
ATOM     21  N   UNL d   1       3.342   0.238  -2.043  0.00  0.00    -0.379 N 
ATOM     22  C   UNL d   1       4.487   1.145  -1.831  0.00  0.00     0.123 C 
ATOM     23  C   UNL d   1       5.793   0.360  -1.970  0.00  0.00     0.020 C 
ATOM     24  C   UNL d   1       5.819  -0.811  -0.992  0.00  0.00     0.003 C 
ATOM     25  C   UNL d   1       4.591  -1.692  -1.190  0.00  0.00     0.020 C 
ATOM     26  C   UNL d   1       3.287  -0.893  -1.118  0.00  0.00     0.123 C 
ENDBRANCH   2  21
BRANCH   4  27
ATOM     27  C   UNL d   1      -0.643   1.330  -6.004  0.00  0.00     0.293 C 
ATOM     28  O   UNL d   1      -1.804   0.970  -5.895  0.00  0.00    -0.259 OA
BRANCH  27  29
ATOM     29  O   UNL d   1      -0.078   1.897  -7.098  0.00  0.00    -0.318 OA
BRANCH  29  30
ATOM     30  C   UNL d   1      -0.933   2.040  -8.239  0.00  0.00     0.174 C 
ATOM     31  C   UNL d   1      -1.801   3.276  -8.098  0.00  0.00     0.034 C 
ENDBRANCH  29  30
ENDBRANCH  27  29
ENDBRANCH   4  27
TORSDOF 8
