REMARK  4 active torsions:
REMARK  status: ('A' for Active; 'I' for Inactive)
REMARK    1  A    between atoms: C_8  and  N_1 
REMARK    2  A    between atoms: C_7  and  C_3 
REMARK    3  A    between atoms: C_12  and  N_5 
REMARK    4  A    between atoms: C_14  and  C_8 
ROOT
ATOM      1  N   UNL d   1      -0.685   1.185  -0.034  0.00  0.00    -0.261 N 
ATOM      2  C   UNL d   1      -1.368  -0.015  -0.215  0.00  0.00     0.332 C 
ATOM      3  C   UNL d   1       1.472   0.015   0.099  0.00  0.00     0.085 C 
ATOM      4  C   UNL d   1       0.687   1.287   0.122  0.00  0.00     0.266 C 
ATOM      5  N   UNL d   1      -0.612  -1.169  -0.014  0.00  0.00    -0.304 N 
ATOM      6  C   UNL d   1       0.765  -1.122   0.071  0.00  0.00     0.116 C 
ATOM      7  O   UNL d   1      -2.556  -0.061  -0.535  0.00  0.00    -0.246 OA
ATOM      8  O   UNL d   1       1.268   2.365   0.258  0.00  0.00    -0.267 OA
ENDROOT
BRANCH   1   9
ATOM      9  C   UNL d   1      -1.478   2.411  -0.031  0.00  0.00     0.175 C 
BRANCH   9  10
ATOM     10  C   UNL d   1      -2.162   2.634   1.304  0.00  0.00    -0.040 A 
ATOM     11  C   UNL d   1      -1.515   3.323   2.339  0.00  0.00     0.009 A 
ATOM     12  C   UNL d   1      -2.132   3.469   3.584  0.00  0.00     0.001 A 
ATOM     13  C   UNL d   1      -3.394   2.920   3.811  0.00  0.00     0.000 A 
ATOM     14  C   UNL d   1      -4.048   2.238   2.790  0.00  0.00     0.001 A 
ATOM     15  C   UNL d   1      -3.439   2.102   1.543  0.00  0.00     0.009 A 
ENDBRANCH   9  10
ENDBRANCH   1   9
BRANCH   5  16
ATOM     16  C   UNL d   1      -1.310  -2.475  -0.055  0.00  0.00     0.086 C 
ATOM     17  C   UNL d   1      -1.165  -3.142  -1.424  0.00  0.00     0.032 C 
ATOM     18  C   UNL d   1      -0.896  -3.423   1.077  0.00  0.00     0.032 C 
ENDBRANCH   5  16
BRANCH   3  19
ATOM     19  C   UNL d   1       2.976  -0.034   0.109  0.00  0.00     0.111 C 
ATOM     20  S   UNL d   1       3.976  -1.385   0.068  0.00  0.00    -0.060 SA
ATOM     21  N   UNL d   1       3.610   1.175   0.134  0.00  0.00    -0.389 N 
ATOM     22  H   UNL d   1       3.094   2.055   0.177  0.00  0.00     0.157 HD
ATOM     23  H   UNL d   1       4.621   1.218   0.133  0.00  0.00     0.157 HD
ENDBRANCH   3  19
TORSDOF 4
