REMARK  2 active torsions:
REMARK  status: ('A' for Active; 'I' for Inactive)
REMARK    1  A    between atoms: N_8  and  C_1 
REMARK    2  A    between atoms: C_6  and  C_3 
ROOT
ATOM      1  C   UNL d   1       1.162  -1.431  -0.041  0.00  0.00     0.025 A 
ATOM      2  C   UNL d   1      -0.058  -0.701   0.034  0.00  0.00     0.015 A 
ATOM      3  C   UNL d   1       2.327   0.691  -0.059  0.00  0.00     0.118 A 
ATOM      4  N   UNL d   1       1.160   1.387  -0.054  0.00  0.00    -0.352 N 
ATOM      5  HN  UNL d   1       1.163   2.407  -0.083  1.00  0.00     0.166 HD
ATOM      6  C   UNL d   1       2.356  -0.701  -0.061  0.00  0.00     0.059 A 
ATOM      7  C   UNL d   1       0.005   0.710  -0.010  0.00  0.00     0.044 A 
ATOM      8  C   UNL d   1      -1.328  -1.312   0.158  0.00  0.00     0.057 A 
ATOM      9  C   UNL d   1      -1.174   1.446  -0.017  0.00  0.00     0.033 A 
ATOM     10  C   UNL d   1      -2.487  -0.548   0.155  0.00  0.00     0.117 A 
ATOM     11  C   UNL d   1      -2.424   0.828   0.050  0.00  0.00     0.044 A 
ATOM     12  F   UNL d   1      -3.679  -1.152   0.247  0.00  0.00    -0.206 F 
ENDROOT
BRANCH   1  13
ATOM     13  N   UNL d   1       1.149  -2.846  -0.142  0.00  0.00    -0.279 NA
ATOM     14  C   UNL d   1       2.353  -3.575   0.329  0.00  0.00     0.126 C 
ATOM     15  C   UNL d   1       2.118  -5.102   0.272  0.00  0.00     0.286 C 
ATOM     16  N   UNL d   1       1.795  -5.547  -1.102  0.00  0.00     0.086 N 
ATOM     17  C   UNL d   1       0.588  -4.829  -1.565  0.00  0.00     0.286 C 
ATOM     18  C   UNL d   1       1.596  -6.992  -1.148  0.00  0.00     0.310 C 
ATOM     19  C   UNL d   1       0.757  -3.290  -1.511  0.00  0.00     0.126 C 
ENDBRANCH   1  13
BRANCH   3  20
ATOM     20  C   UNL d   1       3.648   1.447  -0.086  0.00  0.00     0.432 C 
ATOM     21  F   UNL d   1       3.524   2.803  -0.124  0.00  0.00    -0.165 F 
ATOM     22  F   UNL d   1       4.425   1.175   1.004  0.00  0.00    -0.165 F 
ATOM     23  F   UNL d   1       4.414   1.114  -1.167  0.00  0.00    -0.165 F 
ENDBRANCH   3  20
TORSDOF 2
