REMARK  4 active torsions:
REMARK  status: ('A' for Active; 'I' for Inactive)
REMARK    1  A    between atoms: C_5  and  C_1 
REMARK       I    between atoms: C_2  and  N_3 
REMARK    2  A    between atoms: C_6  and  C_2 
REMARK    3  A    between atoms: N_3  and  C_4 
REMARK    4  A    between atoms: O_11  and  C_5 
ROOT
ATOM      1  C   UNL d   1       2.551  -2.723  -0.301  0.00  0.00     0.256 C 
ATOM      2  N   UNL d   1       1.171  -2.604  -0.189  0.00  0.00    -0.322 N 
ATOM      3  O   UNL d   1       3.298  -1.788  -0.575  0.00  0.00    -0.267 OA
ATOM      4  H   UNL d   1       0.631  -3.429  -0.406  0.00  0.00     0.169 HD
ENDROOT
BRANCH   2   5
ATOM      5  C   UNL d   1       0.454  -1.375  -0.200  0.00  0.00     0.051 A 
ATOM      6  C   UNL d   1       0.951  -0.128   0.227  0.00  0.00     0.064 A 
ATOM      7  C   UNL d   1       0.192   1.042   0.060  0.00  0.00     0.020 A 
ATOM      8  C   UNL d   1      -1.116   0.963  -0.407  0.00  0.00     0.001 A 
ATOM      9  C   UNL d   1      -1.663  -0.281  -0.709  0.00  0.00     0.002 A 
ATOM     10  C   UNL d   1      -0.879  -1.438  -0.629  0.00  0.00     0.030 A 
BRANCH   6  11
ATOM     11  C   UNL d   1       2.106   0.025   1.139  0.00  0.00     0.178 C 
ATOM     12  O   UNL d   1       2.951   0.896   1.045  0.00  0.00    -0.646 OA
BRANCH  11  13
ATOM     13  O   UNL d   1       1.949  -0.758   2.239  0.00  0.00    -0.773 OA
ATOM     14  H   UNL d   1       1.133  -1.293   2.216  0.00  0.00     0.167 HD
ENDBRANCH  11  13
ENDBRANCH   6  11
ENDBRANCH   2   5
BRANCH   1  15
ATOM     15  C   UNL d   1       3.141  -4.096  -0.132  0.00  0.00     0.032 A 
ATOM     16  C   UNL d   1       2.384  -5.237   0.166  0.00  0.00     0.018 A 
ATOM     17  C   UNL d   1       3.014  -6.467   0.395  0.00  0.00     0.025 A 
ATOM     18  C   UNL d   1       4.403  -6.565   0.335  0.00  0.00     0.034 A 
ATOM     19  C   UNL d   1       5.170  -5.448   0.023  0.00  0.00     0.025 A 
ATOM     20 CL   UNL d   1       5.168  -8.069   0.673  0.00  0.00    -0.084 Cl
ATOM     21  C   UNL d   1       4.545  -4.221  -0.213  0.00  0.00     0.018 A 
ENDBRANCH   1  15
TORSDOF 4
