REMARK  5 active torsions:
REMARK  status: ('A' for Active; 'I' for Inactive)
REMARK    1  A    between atoms: C_8  and  C_1 
REMARK    2  A    between atoms: N_7  and  C_3 
REMARK       I    between atoms: C_6  and  N_7 
REMARK    3  A    between atoms: C_12  and  C_6 
REMARK       I    between atoms: C_11  and  N_14 
REMARK    4  A    between atoms: C_13  and  C_11 
REMARK    5  A    between atoms: N_14  and  C_15 
ROOT
ATOM      1  C   UNL d   1       2.826  -1.970  -0.424  0.00  0.00     0.059 A 
ATOM      2  C   UNL d   1       2.619  -1.225   0.747  0.00  0.00     0.050 A 
ATOM      3  C   UNL d   1       4.098  -1.952  -1.043  0.00  0.00     0.019 A 
ATOM      4  C   UNL d   1       3.679  -0.408   1.201  0.00  0.00     0.030 A 
ATOM      5  C   UNL d   1       5.141  -1.173  -0.548  0.00  0.00     0.001 A 
ATOM      6  C   UNL d   1       4.923  -0.383   0.567  0.00  0.00     0.002 A 
ENDROOT
BRANCH   1   7
ATOM      7  C   UNL d   1       1.810  -2.727  -1.204  0.00  0.00     0.259 C 
ATOM      8  N   UNL d   1       0.621  -2.070  -1.431  0.00  0.00    -0.302 N 
ATOM      9  H   UNL d   1       0.464  -1.159  -1.025  0.00  0.00     0.171 HD
ATOM     10  O   UNL d   1       2.169  -3.793  -1.698  0.00  0.00    -0.267 OA
BRANCH   8  11
ATOM     11  C   UNL d   1      -0.418  -2.544  -2.196  0.00  0.00     0.168 A 
ATOM     12  S   UNL d   1      -0.410  -4.098  -2.899  0.00  0.00    -0.029 SA
ATOM     13  C   UNL d   1      -1.895  -3.704  -3.659  0.00  0.00     0.177 A 
ATOM     14  N   UNL d   1      -2.357  -2.512  -3.323  0.00  0.00    -0.288 N 
ATOM     15  N   UNL d   1      -1.499  -1.846  -2.461  0.00  0.00    -0.279 N 
ATOM     16  HN  UNL d   1      -3.240  -2.127  -3.658  1.00  0.00     0.187 HD
ATOM     17  HN  UNL d   1      -1.685  -0.920  -2.077  1.00  0.00     0.189 HD
BRANCH  13  18
ATOM     18  C   UNL d   1      -2.525  -4.657  -4.619  0.00  0.00     0.440 C 
ATOM     19  F   UNL d   1      -1.860  -5.841  -4.726  0.00  0.00    -0.164 F 
ATOM     20  F   UNL d   1      -3.802  -4.973  -4.274  0.00  0.00    -0.164 F 
ATOM     21  F   UNL d   1      -2.579  -4.144  -5.879  0.00  0.00    -0.164 F 
ENDBRANCH  13  18
ENDBRANCH   8  11
ENDBRANCH   1   7
BRANCH   2  22
ATOM     22  N   UNL d   1       1.479  -1.183   1.585  0.00  0.00    -0.322 N 
ATOM     23  C   UNL d   1       0.455  -2.093   1.740  0.00  0.00     0.257 C 
ATOM     24  O   UNL d   1       0.341  -3.152   1.143  0.00  0.00    -0.267 OA
ATOM     25  H   UNL d   1       1.518  -0.469   2.305  0.00  0.00     0.169 HD
BRANCH  23  26
ATOM     26  C   UNL d   1      -0.511  -1.777   2.851  0.00  0.00     0.054 A 
ATOM     27  C   UNL d   1      -0.854  -0.479   3.268  0.00  0.00     0.049 A 
ATOM     28 CL   UNL d   1      -0.363   0.955   2.433  0.00  0.00    -0.083 Cl
ATOM     29  C   UNL d   1      -1.654  -0.290   4.402  0.00  0.00     0.025 A 
ATOM     30  C   UNL d   1      -2.147  -1.384   5.112  0.00  0.00     0.002 A 
ATOM     31  C   UNL d   1      -1.866  -2.674   4.670  0.00  0.00     0.001 A 
ATOM     32  C   UNL d   1      -1.057  -2.870   3.547  0.00  0.00     0.019 A 
ENDBRANCH  23  26
ENDBRANCH   2  22
TORSDOF 5
