REMARK  8 active torsions:
REMARK  status: ('A' for Active; 'I' for Inactive)
REMARK    1  A    between atoms: C_2  and  C_1 
REMARK    2  A    between atoms: O_15  and  C_2 
REMARK    3  A    between atoms: C_3  and  O_14 
REMARK       I    between atoms: N_6  and  C_3 
REMARK    4  A    between atoms: C_4  and  C_12 
REMARK    5  A    between atoms: C_17  and  C_5 
REMARK    6  A    between atoms: C_16  and  N_6 
REMARK    7  A    between atoms: O_14  and  C_17 
REMARK    8  A    between atoms: C_19  and  O_15 
ROOT
ATOM      1  C   UNL d   1      -1.409   0.378   0.054  0.00  0.00    -0.063 C 
ATOM      2  C   UNL d   1      -2.612   0.373   0.096  0.00  0.00    -0.074 C 
ENDROOT
BRANCH   1   3
ATOM      3  C   UNL d   1       0.014   0.304  -0.002  0.00  0.00     0.034 A 
ATOM      4  C   UNL d   1       0.789   1.459  -0.040  0.00  0.00     0.041 A 
ATOM      5  C   UNL d   1       2.184   1.346  -0.040  0.00  0.00     0.056 A 
ATOM      6  C   UNL d   1       2.743   0.073  -0.016  0.00  0.00     0.105 A 
ATOM      7  N   UNL d   1       2.012  -1.069  -0.003  0.00  0.00    -0.373 N 
ATOM      8  C   UNL d   1       0.665  -0.924   0.007  0.00  0.00     0.108 A 
ATOM      9  HN  UNL d   1       2.453  -1.989  -0.001  1.00  0.00     0.164 HD
BRANCH   5  10
ATOM     10  C   UNL d   1       3.086   2.511   0.043  0.00  0.00     0.294 C 
ATOM     11  O   UNL d   1       4.297   2.423   0.152  0.00  0.00    -0.259 OA
BRANCH  10  12
ATOM     12  O   UNL d   1       2.348   3.644   0.115  0.00  0.00    -0.318 OA
BRANCH  12  13
ATOM     13  C   UNL d   1       3.002   4.765   0.723  0.00  0.00     0.174 C 
ATOM     14  C   UNL d   1       2.802   4.659   2.224  0.00  0.00     0.034 C 
ENDBRANCH  12  13
ENDBRANCH  10  12
ENDBRANCH   5  10
ENDBRANCH   1   3
BRANCH   2  15
ATOM     15  C   UNL d   1      -4.074   0.241   0.077  0.00  0.00     0.274 C 
BRANCH  15  16
ATOM     16  O   UNL d   1      -4.686   1.123   1.027  0.00  0.00    -0.292 OA
BRANCH  16  17
ATOM     17  C   UNL d   1      -5.726   1.855   0.559  0.00  0.00     0.366 C 
ATOM     18  N   UNL d   1      -6.462   2.541   1.490  0.00  0.00    -0.303 N 
ATOM     19  H   UNL d   1      -7.221   3.039   1.043  0.00  0.00     0.171 HD
ATOM     20  O   UNL d   1      -6.055   1.915  -0.623  0.00  0.00    -0.238 OA
BRANCH  18  21
ATOM     21  C   UNL d   1      -6.457   2.547   2.897  0.00  0.00     0.036 A 
ATOM     22  C   UNL d   1      -5.547   1.854   3.693  0.00  0.00     0.029 A 
ATOM     23  C   UNL d   1      -5.707   1.816   5.084  0.00  0.00     0.002 A 
ATOM     24  C   UNL d   1      -6.761   2.494   5.692  0.00  0.00     0.000 A 
ATOM     25  C   UNL d   1      -7.638   3.241   4.915  0.00  0.00     0.002 A 
ATOM     26  C   UNL d   1      -7.484   3.269   3.526  0.00  0.00     0.029 A 
ENDBRANCH  18  21
ENDBRANCH  16  17
ENDBRANCH  15  16
ENDBRANCH   2  15
TORSDOF 8
