REMARK  6 active torsions:
REMARK  status: ('A' for Active; 'I' for Inactive)
REMARK    1  A    between atoms: C_8  and  C_1 
REMARK    2  A    between atoms: N_3  and  C_9 
REMARK    3  A    between atoms: O_18  and  C_8 
REMARK    4  A    between atoms: N_10  and  N_14 
REMARK    5  A    between atoms: C_12  and  C_17 
REMARK    6  A    between atoms: C_22  and  O_18 
ROOT
ATOM      1  C   UNL d   1      -0.058   1.276   0.023  0.00  0.00     0.109 A 
ATOM      2  C   UNL d   1      -0.215   2.646   0.083  0.00  0.00     0.153 A 
ATOM      3  N   UNL d   1       2.020   2.255  -0.038  0.00  0.00    -0.302 N 
ATOM      4  HN  UNL d   1       3.028   2.408  -0.065  1.00  0.00     0.186 HD
ATOM      5  N   UNL d   1       1.041   3.172   0.004  0.00  0.00    -0.283 N 
ATOM      6  C   UNL d   1       1.358   1.089  -0.038  0.00  0.00     0.042 A 
ATOM      7  N   UNL d   1      -1.294   3.459   0.216  0.00  0.00    -0.284 N 
ATOM      8  C   UNL d   1       2.127  -0.183  -0.066  0.00  0.00     0.071 C 
ATOM      9  H   UNL d   1       1.273   4.160   0.007  0.00  0.00     0.188 HD
ATOM     10  H   UNL d   1      -2.220   3.015   0.192  0.00  0.00     0.188 HD
ENDROOT
BRANCH   7  11
ATOM     11  N   UNL d   1      -1.216   4.756  -0.170  0.00  0.00    -0.309 N 
ATOM     12  C   UNL d   1      -1.956   5.653   0.419  0.00  0.00     0.121 C 
ATOM     13  HN  UNL d   1      -0.580   5.030  -0.919  1.00  0.00     0.186 HD
BRANCH  12  14
ATOM     14  C   UNL d   1      -2.813   5.550   1.626  0.00  0.00     0.014 A 
ATOM     15  C   UNL d   1      -3.924   6.378   1.824  0.00  0.00     0.114 A 
ATOM     16  C   UNL d   1      -4.690   6.326   3.000  0.00  0.00     0.037 A 
ATOM     17  C   UNL d   1      -4.334   5.432   4.006  0.00  0.00     0.002 A 
ATOM     18  C   UNL d   1      -3.224   4.605   3.835  0.00  0.00     0.001 A 
ATOM     19  C   UNL d   1      -2.463   4.670   2.662  0.00  0.00     0.015 A 
BRANCH  15  20
ATOM     20  N   UNL d   1      -4.351   7.328   0.814  0.00  0.00    -0.115 N 
ATOM     21  O   UNL d   1      -3.569   8.243   0.532  0.00  0.00    -0.532 OA
ATOM     22  O   UNL d   1      -5.484   7.171   0.343  0.00  0.00    -0.532 OA
ENDBRANCH  15  20
ENDBRANCH  12  14
ENDBRANCH   7  11
BRANCH   1  23
ATOM     23  C   UNL d   1      -1.125   0.301   0.071  0.00  0.00     0.299 C 
ATOM     24  O   UNL d   1      -2.299   0.599   0.264  0.00  0.00    -0.259 OA
BRANCH  23  25
ATOM     25  O   UNL d   1      -0.664  -0.977  -0.054  0.00  0.00    -0.318 OA
BRANCH  25  26
ATOM     26  C   UNL d   1      -1.564  -2.012   0.361  0.00  0.00     0.174 C 
ATOM     27  C   UNL d   1      -1.401  -2.204   1.858  0.00  0.00     0.034 C 
ENDBRANCH  25  26
ENDBRANCH  23  25
ENDBRANCH   1  23
TORSDOF 6
