REMARK  2 active torsions:
REMARK  status: ('A' for Active; 'I' for Inactive)
REMARK    1  A    between atoms: C_8  and  N_1 
REMARK    2  A    between atoms: S_10  and  C_2 
ROOT
ATOM      1  N   UNL d   1       2.383  -0.735  -0.019  0.00  0.00    -0.258 N 
ATOM      2  C   UNL d   1       2.329   0.662   0.018  0.00  0.00     0.154 A 
ATOM      3  C   UNL d   1       1.196  -1.479  -0.058  0.00  0.00     0.266 A 
ATOM      4  N   UNL d   1       1.228   1.343   0.042  0.00  0.00    -0.335 N 
ATOM      5  HN  UNL d   1       1.251   2.362   0.076  1.00  0.00     0.168 HD
ATOM      6  C   UNL d   1      -0.065  -0.722  -0.033  0.00  0.00     0.059 A 
ATOM      7  C   UNL d   1       0.010   0.663   0.019  0.00  0.00     0.049 A 
ATOM      8  O   UNL d   1       1.120  -2.708  -0.079  0.00  0.00    -0.267 OA
ATOM      9  C   UNL d   1      -1.302  -1.379  -0.054  0.00  0.00     0.019 A 
ATOM     10  C   UNL d   1      -1.177   1.401   0.030  0.00  0.00     0.030 A 
ATOM     11  C   UNL d   1      -2.480  -0.635  -0.036  0.00  0.00     0.001 A 
ATOM     12  C   UNL d   1      -2.417   0.757   0.002  0.00  0.00     0.002 A 
ENDROOT
BRANCH   1  13
ATOM     13  C   UNL d   1       3.604  -1.487   0.006  0.00  0.00     0.045 A 
ATOM     14  C   UNL d   1       3.843  -2.465  -0.976  0.00  0.00     0.033 A 
ATOM     15  C   UNL d   1       4.994  -3.253  -0.932  0.00  0.00     0.044 A 
ATOM     16  C   UNL d   1       5.903  -3.077   0.101  0.00  0.00     0.116 A 
ATOM     17  C   UNL d   1       5.685  -2.125   1.090  0.00  0.00     0.044 A 
ATOM     18  F   UNL d   1       6.999  -3.846   0.154  0.00  0.00    -0.206 F 
ATOM     19  C   UNL d   1       4.536  -1.331   1.046  0.00  0.00     0.033 A 
ENDBRANCH   1  13
BRANCH   2  20
ATOM     20  S   UNL d   1       3.832   1.586  -0.065  0.00  0.00    -0.098 SA
ATOM     21  C   UNL d   1       3.214   3.282  -0.102  0.00  0.00     0.099 C 
ENDBRANCH   2  20
TORSDOF 2
