REMARK  6 active torsions:
REMARK  status: ('A' for Active; 'I' for Inactive)
REMARK    1  A    between atoms: N_4  and  C_9 
REMARK       I    between atoms: C_7  and  N_12 
REMARK    2  A    between atoms: C_10  and  C_7 
REMARK    3  A    between atoms: S_17  and  C_8 
REMARK    4  A    between atoms: C_11  and  C_27 
REMARK       I    between atoms: N_18  and  C_11 
REMARK    5  A    between atoms: N_12  and  N_18 
REMARK    6  A    between atoms: C_27  and  S_17 
ROOT
ATOM      1  S   UNL d   1      -2.234   2.136   1.287  0.00  0.00    -0.149 SA
ENDROOT
BRANCH   1   2
ATOM      2  C   UNL d   1      -1.992   0.861  -0.025  0.00  0.00     0.096 A 
ATOM      3  C   UNL d   1      -2.447   1.337  -1.416  0.00  0.00     0.165 A 
ATOM      4  S   UNL d   1      -3.458   0.039  -2.119  0.00  0.00     0.177 S 
ATOM      5  C   UNL d   1      -3.423  -1.003  -0.719  0.00  0.00     0.069 A 
ATOM      6  O   UNL d   1      -2.725  -0.630  -3.173  0.00  0.00    -0.223 OA
ATOM      7  O   UNL d   1      -4.815   0.515  -2.264  0.00  0.00    -0.223 OA
ATOM      8  C   UNL d   1      -2.632  -0.468   0.296  0.00  0.00    -0.022 A 
ATOM      9  C   UNL d   1      -4.097  -2.211  -0.622  0.00  0.00     0.060 A 
ATOM     10  C   UNL d   1      -2.461  -1.207   1.465  0.00  0.00     0.012 A 
ATOM     11  C   UNL d   1      -3.124  -2.434   1.606  0.00  0.00     0.037 A 
ATOM     12  C   UNL d   1      -3.944  -2.926   0.569  0.00  0.00     0.104 A 
BRANCH  12  13
ATOM     13  N   UNL d   1      -4.644  -4.206   0.745  0.00  0.00    -0.116 N 
ATOM     14  O   UNL d   1      -5.352  -4.607  -0.189  0.00  0.00    -0.532 OA
ATOM     15  O   UNL d   1      -4.487  -4.804   1.819  0.00  0.00    -0.532 OA
ENDBRANCH  12  13
ENDBRANCH   1   2
BRANCH   1  16
ATOM     16  C   UNL d   1      -4.056   2.210   1.376  0.00  0.00     0.179 C 
BRANCH  16  17
ATOM     17  C   UNL d   1      -4.614   3.103   2.477  0.00  0.00     0.245 C 
ATOM     18  N   UNL d   1      -3.737   3.685   3.362  0.00  0.00    -0.267 N 
ATOM     19  H   UNL d   1      -2.724   3.635   3.259  0.00  0.00     0.190 HD
ATOM     20  O   UNL d   1      -5.832   3.286   2.575  0.00  0.00    -0.271 OA
BRANCH  18  21
ATOM     21  N   UNL d   1      -4.263   4.585   4.301  0.00  0.00    -0.263 N 
ATOM     22  C   UNL d   1      -3.559   4.910   5.449  0.00  0.00     0.277 C 
ATOM     23  O   UNL d   1      -2.414   4.496   5.634  0.00  0.00    -0.265 OA
ATOM     24  H   UNL d   1      -5.260   4.787   4.227  0.00  0.00     0.190 HD
BRANCH  22  25
ATOM     25  C   UNL d   1      -4.260   5.775   6.396  0.00  0.00     0.074 A 
ATOM     26  S   UNL d   1      -5.816   6.423   6.062  0.00  0.00    -0.097 SA
ATOM     27  C   UNL d   1      -5.856   7.290   7.535  0.00  0.00     0.050 A 
ATOM     28  C   UNL d   1      -4.721   7.082   8.285  0.00  0.00     0.009 A 
ATOM     29  C   UNL d   1      -3.805   6.206   7.631  0.00  0.00     0.025 A 
ENDBRANCH  22  25
ENDBRANCH  18  21
ENDBRANCH  16  17
ENDBRANCH   1  16
TORSDOF 6
