REMARK  1 active torsions:
REMARK  status: ('A' for Active; 'I' for Inactive)
REMARK    1  A    between atoms: C_9  and  C_5 
ROOT
ATOM      1  N   UNL d   1       2.330   0.559  -0.093  0.00  0.00    -0.300 N 
ATOM      2  HN  UNL d   1       3.229   1.041  -0.121  1.00  0.00     0.187 HD
ATOM      3  N   UNL d   1       1.159   1.296  -0.055  0.00  0.00    -0.300 N 
ATOM      4  HN  UNL d   1       1.206   2.315  -0.049  1.00  0.00     0.187 HD
ATOM      5  C   UNL d   1       2.296  -0.790  -0.095  0.00  0.00     0.059 A 
ATOM      6  C   UNL d   1       1.073  -1.449  -0.061  0.00  0.00     0.045 A 
ATOM      7  C   UNL d   1      -0.116  -0.713  -0.025  0.00  0.00    -0.006 A 
ATOM      8  C   UNL d   1      -0.036   0.688  -0.025  0.00  0.00     0.058 A 
ATOM      9  C   UNL d   1      -1.370  -1.350  -0.000  0.00  0.00     0.014 A 
ATOM     10  C   UNL d   1      -1.220   1.420  -0.003  0.00  0.00     0.032 A 
ATOM     11  C   UNL d   1      -2.542  -0.599   0.022  0.00  0.00     0.001 A 
ATOM     12  C   UNL d   1      -2.468   0.790   0.019  0.00  0.00     0.002 A 
ENDROOT
BRANCH   5  13
ATOM     13  C   UNL d   1       3.589  -1.496  -0.180  0.00  0.00    -0.008 A 
ATOM     14  C   UNL d   1       3.779  -2.772   0.384  0.00  0.00     0.014 A 
ATOM     15  C   UNL d   1       4.987  -3.462   0.242  0.00  0.00     0.001 A 
ATOM     16  C   UNL d   1       6.040  -2.884  -0.459  0.00  0.00     0.000 A 
ATOM     17  C   UNL d   1       5.891  -1.611  -1.002  0.00  0.00     0.001 A 
ATOM     18  C   UNL d   1       4.681  -0.924  -0.859  0.00  0.00     0.014 A 
ENDBRANCH   5  13
TORSDOF 1
