REMARK  6 active torsions:
REMARK  status: ('A' for Active; 'I' for Inactive)
REMARK    1  A    between atoms: C_11  and  C_6 
REMARK    2  A    between atoms: C_12  and  C_17 
REMARK    3  A    between atoms: O_21  and  C_12 
REMARK    4  A    between atoms: O_16  and  C_18 
REMARK    5  A    between atoms: C_17  and  O_16 
REMARK    6  A    between atoms: C_24  and  O_21 
ROOT
ATOM      1  C   UNL d   1      -1.287   1.460   0.584  0.00  0.00     0.058 C 
ATOM      2  C   UNL d   1       1.272   1.619   0.607  0.00  0.00     0.058 C 
ATOM      3  N   UNL d   1      -0.096   2.728   2.196  0.00  0.00    -0.361 N 
ATOM      4  C   UNL d   1       1.159   2.387   1.715  0.00  0.00     0.023 C 
ATOM      5  C   UNL d   1      -1.287   2.225   1.698  0.00  0.00     0.023 C 
ATOM      6  C   UNL d   1       0.021   1.192  -0.166  0.00  0.00     0.110 C 
ATOM      7  C   UNL d   1       2.537   1.190   0.104  0.00  0.00     0.098 C 
ATOM      8  C   UNL d   1      -2.487   0.882   0.069  0.00  0.00     0.098 C 
ATOM      9  N   UNL d   1      -3.457   0.396  -0.335  0.00  0.00    -0.192 NA
ATOM     10  N   UNL d   1       3.562   0.820  -0.299  0.00  0.00    -0.192 NA
ATOM     11  C   UNL d   1       2.328   2.940   2.494  0.00  0.00     0.069 C 
ATOM     12  C   UNL d   1      -2.548   2.583   2.447  0.00  0.00     0.069 C 
ATOM     13  H   UNL d   1      -0.135   3.269   3.058  0.00  0.00     0.165 HD
ENDROOT
BRANCH   6  14
ATOM     14  C   UNL d   1      -0.010   1.868  -1.540  0.00  0.00    -0.044 A 
ATOM     15  C   UNL d   1       0.007   1.101  -2.713  0.00  0.00     0.011 A 
ATOM     16  C   UNL d   1      -0.047   1.718  -3.968  0.00  0.00     0.037 A 
ATOM     17  C   UNL d   1      -0.112   3.108  -4.063  0.00  0.00     0.069 A 
ATOM     18  C   UNL d   1      -0.141   3.877  -2.901  0.00  0.00     0.037 A 
ATOM     19  C   UNL d   1      -0.077   3.267  -1.650  0.00  0.00     0.011 A 
BRANCH  17  20
ATOM     20  O   UNL d   1      -0.210   3.823  -5.221  0.00  0.00    -0.342 OA
BRANCH  20  21
ATOM     21  C   UNL d   1       0.413   3.257  -6.367  0.00  0.00     0.286 C 
BRANCH  21  22
ATOM     22  C   UNL d   1       0.194   4.173  -7.559  0.00  0.00     0.283 C 
ATOM     23  O   UNL d   1      -0.438   5.220  -7.558  0.00  0.00    -0.263 OA
BRANCH  22  24
ATOM     24  O   UNL d   1       0.719   3.580  -8.676  0.00  0.00    -0.320 OA
BRANCH  24  25
ATOM     25  C   UNL d   1       0.130   4.013  -9.910  0.00  0.00     0.174 C 
ATOM     26  C   UNL d   1      -1.095   3.149 -10.157  0.00  0.00     0.034 C 
ENDBRANCH  24  25
ENDBRANCH  22  24
ENDBRANCH  21  22
ENDBRANCH  20  21
ENDBRANCH  17  20
ENDBRANCH   6  14
TORSDOF 6
