REMARK  2 active torsions:
REMARK  status: ('A' for Active; 'I' for Inactive)
REMARK    1  A    between atoms: C_13  and  C_5 
REMARK    2  A    between atoms: C_14  and  C_6 
ROOT
ATOM      1  N   UNL d   1       1.235   1.411  -0.022  0.00  0.00    -0.352 N 
ATOM      2  HN  UNL d   1       1.218   2.429  -0.082  1.00  0.00     0.166 HD
ATOM      3  N   UNL d   1       1.268  -1.388   0.136  0.00  0.00    -0.352 N 
ATOM      4  HN  UNL d   1       1.276  -2.407   0.173  1.00  0.00     0.166 HD
ATOM      5  C   UNL d   1       2.412   0.733  -0.017  0.00  0.00     0.071 A 
ATOM      6  C   UNL d   1       2.432  -0.672   0.112  0.00  0.00     0.071 A 
ATOM      7  C   UNL d   1       0.092   0.704   0.054  0.00  0.00     0.060 A 
ATOM      8  C   UNL d   1       0.106  -0.699   0.110  0.00  0.00     0.060 A 
ATOM      9  C   UNL d   1      -1.120   1.381   0.089  0.00  0.00     0.039 A 
ATOM     10  C   UNL d   1      -1.113  -1.370   0.158  0.00  0.00     0.039 A 
ATOM     11  C   UNL d   1      -2.350   0.710   0.181  0.00  0.00    -0.054 A 
ATOM     12  C   UNL d   1      -2.347  -0.691   0.210  0.00  0.00    -0.054 A 
ATOM     13  C   UNL d   1      -3.614   1.520   0.282  0.00  0.00     0.049 C 
ATOM     14  C   UNL d   1      -3.604  -1.515   0.301  0.00  0.00     0.049 C 
ENDROOT
BRANCH   5  15
ATOM     15  C   UNL d   1       3.592   1.619  -0.167  0.00  0.00    -0.007 A 
ATOM     16  C   UNL d   1       3.636   2.861   0.499  0.00  0.00     0.015 A 
ATOM     17  C   UNL d   1       4.748   3.706   0.403  0.00  0.00     0.024 A 
ATOM     18  C   UNL d   1       5.847   3.316  -0.353  0.00  0.00     0.034 A 
ATOM     19  C   UNL d   1       5.832   2.104  -1.034  0.00  0.00     0.024 A 
ATOM     20 CL   UNL d   1       7.226   4.338  -0.458  0.00  0.00    -0.084 Cl
ATOM     21  C   UNL d   1       4.701   1.283  -0.967  0.00  0.00     0.015 A 
ENDBRANCH   5  15
BRANCH   6  22
ATOM     22  C   UNL d   1       3.660  -1.495   0.218  0.00  0.00    -0.007 A 
ATOM     23  C   UNL d   1       4.764  -1.092   0.995  0.00  0.00     0.014 A 
ATOM     24  C   UNL d   1       5.994  -1.752   0.911  0.00  0.00     0.001 A 
ATOM     25  C   UNL d   1       6.121  -2.882   0.113  0.00  0.00     0.000 A 
ATOM     26  C   UNL d   1       5.012  -3.372  -0.572  0.00  0.00     0.001 A 
ATOM     27  C   UNL d   1       3.794  -2.685  -0.519  0.00  0.00     0.014 A 
ENDBRANCH   6  22
TORSDOF 2
