REMARK  4 active torsions:
REMARK  status: ('A' for Active; 'I' for Inactive)
REMARK    1  A    between atoms: C_8  and  C_1 
REMARK    2  A    between atoms: C_7  and  C_2 
REMARK       I    between atoms: N_12  and  C_8 
REMARK    3  A    between atoms: C_9  and  C_10 
REMARK    4  A    between atoms: N_19  and  N_12 
ROOT
ATOM      1  C   UNL d   1      -0.174  -1.127   0.112  0.00  0.00     0.098 A 
ATOM      2  C   UNL d   1       0.627   1.181   0.114  0.00  0.00     0.087 A 
ATOM      3  S   UNL d   1       1.367  -0.372   0.062  0.00  0.00    -0.064 SA
ATOM      4  N   UNL d   1      -0.685   1.156   0.172  0.00  0.00    -0.352 N 
ATOM      5  HN  UNL d   1      -1.277   1.983   0.251  1.00  0.00     0.166 HD
ATOM      6  C   UNL d   1      -1.159  -0.150   0.109  0.00  0.00     0.029 A 
ATOM      7  C   UNL d   1      -2.631  -0.352   0.047  0.00  0.00     0.070 C 
ENDROOT
BRANCH   2   8
ATOM      8  C   UNL d   1       1.439   2.400   0.085  0.00  0.00     0.028 A 
ATOM      9  C   UNL d   1       1.113   3.538  -0.672  0.00  0.00     0.063 A 
ATOM     10  C   UNL d   1       1.958   4.666  -0.592  0.00  0.00     0.034 A 
ATOM     11  C   UNL d   1       3.086   4.622   0.205  0.00  0.00     0.088 A 
ATOM     12  N   UNL d   1       3.427   3.548   0.935  0.00  0.00    -0.374 N 
ATOM     13  C   UNL d   1       2.599   2.478   0.866  0.00  0.00     0.102 A 
ATOM     14  HN  UNL d   1       4.268   3.537   1.512  1.00  0.00     0.164 HD
BRANCH   9  15
ATOM     15  C   UNL d   1      -0.086   3.667  -1.583  0.00  0.00     0.418 C 
ATOM     16  F   UNL d   1      -0.733   2.523  -1.924  0.00  0.00    -0.166 F 
ATOM     17  F   UNL d   1      -1.026   4.511  -1.074  0.00  0.00    -0.166 F 
ATOM     18  F   UNL d   1       0.273   4.220  -2.782  0.00  0.00    -0.166 F 
ENDBRANCH   9  15
ENDBRANCH   2   8
BRANCH   1  19
ATOM     19  C   UNL d   1      -0.324  -2.574   0.138  0.00  0.00     0.274 C 
ATOM     20  O   UNL d   1      -1.419  -3.144   0.158  0.00  0.00    -0.266 OA
ATOM     21  N   UNL d   1       0.862  -3.306   0.166  0.00  0.00    -0.289 N 
ATOM     22  H   UNL d   1       1.752  -2.822   0.069  0.00  0.00     0.183 HD
BRANCH  21  23
ATOM     23  N   UNL d   1       0.845  -4.720   0.161  0.00  0.00    -0.247 NA
ATOM     24  H   UNL d   1      -0.130  -5.008  -0.008  0.00  0.00     0.143 HD
ATOM     25  H   UNL d   1       1.039  -5.044   1.112  0.00  0.00     0.143 HD
ENDBRANCH  21  23
ENDBRANCH   1  19
TORSDOF 4
