REMARK  5 active torsions:
REMARK  status: ('A' for Active; 'I' for Inactive)
REMARK    1  A    between atoms: S_15  and  C_3 
REMARK    2  A    between atoms: C_14  and  C_19 
REMARK       I    between atoms: N_18  and  C_14 
REMARK    3  A    between atoms: C_19  and  S_15 
REMARK    4  A    between atoms: C_24  and  N_18 
REMARK    5  A    between atoms: C_25  and  N_18 
ROOT
ATOM      1  N   UNL d   1       0.997   0.544  -0.001  0.00  0.00    -0.120 N 
ATOM      2  C   UNL d   1       1.752  -0.616   0.010  0.00  0.00     0.720 A 
ATOM      3  C   UNL d   1       1.922   1.568  -0.013  0.00  0.00     0.183 A 
ATOM      4  N   UNL d   1       3.033  -0.293   0.022  0.00  0.00    -0.128 N 
ATOM      5  HN  UNL d   1       3.813  -0.950   0.038  1.00  0.00     0.205 HD
ATOM      6  N   UNL d   1       1.164  -1.841   0.009  0.00  0.00    -0.130 N 
ATOM      7  HN  UNL d   1       1.758  -2.671   0.015  1.00  0.00     0.205 HD
ATOM      8  N   UNL d   1       3.138   1.078   0.008  0.00  0.00    -0.265 N 
ATOM      9  HN  UNL d   1       4.004   1.616   0.014  1.00  0.00     0.189 HD
ATOM     10  N   UNL d   1      -0.083  -1.990  -0.000  0.00  0.00    -0.284 N 
ATOM     11  HN  UNL d   1      -0.492  -2.925  -0.008  1.00  0.00     0.187 HD
ATOM     12  C   UNL d   1      -0.410   0.465   0.001  0.00  0.00     0.087 A 
ATOM     13  C   UNL d   1      -0.913  -0.847   0.001  0.00  0.00     0.078 A 
ATOM     14  C   UNL d   1      -2.300  -1.043   0.003  0.00  0.00     0.057 A 
ATOM     15  C   UNL d   1      -1.280   1.558   0.008  0.00  0.00     0.035 A 
ATOM     16  C   UNL d   1      -3.165   0.049   0.007  0.00  0.00     0.036 A 
ATOM     17  C   UNL d   1      -2.661   1.345   0.010  0.00  0.00     0.026 A 
ATOM     18 CL   UNL d   1      -4.866  -0.202   0.010  0.00  0.00    -0.084 Cl
ENDROOT
BRANCH   3  19
ATOM     19  S   UNL d   1       1.540   3.246  -0.080  0.00  0.00    -0.082 SA
BRANCH  19  20
ATOM     20  C   UNL d   1       3.146   4.092   0.035  0.00  0.00     0.185 C 
BRANCH  20  21
ATOM     21  C   UNL d   1       2.919   5.613   0.025  0.00  0.00     0.229 C 
ATOM     22  N   UNL d   1       4.037   6.445  -0.015  0.00  0.00    -0.352 N 
ATOM     23  O   UNL d   1       1.786   6.104   0.045  0.00  0.00    -0.273 OA
BRANCH  22  24
ATOM     24  C   UNL d   1       3.806   7.889  -0.122  0.00  0.00     0.121 C 
ATOM     25  C   UNL d   1       3.661   8.552   1.239  0.00  0.00     0.026 C 
ENDBRANCH  22  24
BRANCH  22  26
ATOM     26  C   UNL d   1       5.425   5.997   0.099  0.00  0.00     0.121 C 
ATOM     27  C   UNL d   1       6.096   5.875  -1.259  0.00  0.00     0.026 C 
ENDBRANCH  22  26
ENDBRANCH  20  21
ENDBRANCH  19  20
ENDBRANCH   3  19
TORSDOF 5
