REMARK  5 active torsions:
REMARK  status: ('A' for Active; 'I' for Inactive)
REMARK    1  A    between atoms: C_10  and  C_6 
REMARK    2  A    between atoms: N_7  and  C_9 
REMARK    3  A    between atoms: O_22  and  C_10 
REMARK    4  A    between atoms: N_12  and  C_16 
REMARK    5  A    between atoms: C_23  and  O_22 
ROOT
ATOM      1  C   UNL d   1      -0.656   0.811   0.011  0.00  0.00     0.006 A 
ATOM      2  C   UNL d   1       1.237  -0.565  -0.017  0.00  0.00     0.028 A 
ATOM      3  C   UNL d   1       0.806   0.777   0.014  0.00  0.00    -0.010 A 
ATOM      4  C   UNL d   1      -1.122  -0.518  -0.067  0.00  0.00     0.030 A 
ATOM      5  C   UNL d   1       0.042  -1.420  -0.049  0.00  0.00     0.194 A 
ATOM      6  C   UNL d   1      -1.612   1.820   0.054  0.00  0.00     0.054 A 
ATOM      7  C   UNL d   1       2.562  -0.967  -0.058  0.00  0.00     0.052 A 
ATOM      8  C   UNL d   1       3.518   0.051  -0.078  0.00  0.00     0.103 A 
ATOM      9  C   UNL d   1       1.772   1.772  -0.020  0.00  0.00     0.016 A 
ATOM     10  C   UNL d   1      -2.453  -0.895  -0.148  0.00  0.00     0.062 A 
ATOM     11  C   UNL d   1      -2.978   1.463  -0.052  0.00  0.00     0.065 A 
ATOM     12  C   UNL d   1      -3.402   0.122  -0.171  0.00  0.00     0.195 A 
ATOM     13  O   UNL d   1       0.009  -2.633  -0.061  0.00  0.00    -0.287 OA
ATOM     14  C   UNL d   1       3.131   1.409  -0.059  0.00  0.00     0.037 A 
ENDROOT
BRANCH   6  15
ATOM     15  C   UNL d   1      -1.280   3.228   0.366  0.00  0.00     0.294 C 
ATOM     16  O   UNL d   1      -0.396   3.557   1.139  0.00  0.00    -0.259 OA
BRANCH  15  17
ATOM     17  O   UNL d   1      -2.174   4.055  -0.229  0.00  0.00    -0.318 OA
BRANCH  17  18
ATOM     18  C   UNL d   1      -2.219   5.392   0.291  0.00  0.00     0.174 C 
ATOM     19  C   UNL d   1      -3.096   5.412   1.532  0.00  0.00     0.034 C 
ENDBRANCH  17  18
ENDBRANCH  15  17
ENDBRANCH   6  15
BRANCH  12  20
ATOM     20  N   UNL d   1      -4.801  -0.212  -0.272  0.00  0.00     0.039 N 
ATOM     21  O   UNL d   1      -5.489   0.752  -0.929  0.00  0.00    -0.062 OA
ATOM     22  H   UNL d   1      -4.928  -1.170  -0.657  0.00  0.00     0.366 HD
ATOM     23  H   UNL d   1      -5.159  -0.309   0.699  0.00  0.00     0.366 HD
ENDBRANCH  12  20
BRANCH   8  24
ATOM     24  N   UNL d   1       4.942  -0.299  -0.149  0.00  0.00    -0.116 N 
ATOM     25  O   UNL d   1       5.237  -1.500  -0.209  0.00  0.00    -0.532 OA
ATOM     26  O   UNL d   1       5.763   0.629  -0.150  0.00  0.00    -0.532 OA
ENDBRANCH   8  24
TORSDOF 5
