REMARK  5 active torsions:
REMARK  status: ('A' for Active; 'I' for Inactive)
REMARK    1  A    between atoms: N_13  and  C_3 
REMARK    2  A    between atoms: C_12  and  C_10 
REMARK    3  A    between atoms: C_15  and  C_11 
REMARK    4  A    between atoms: N_16  and  N_13 
REMARK       I    between atoms: C_14  and  N_16 
REMARK       I    between atoms: N_17  and  C_14 
REMARK    5  A    between atoms: C_22  and  N_17 
ROOT
ATOM      1  N   UNL d   1       0.141   0.532   0.131  0.00  0.00    -0.222 N 
ATOM      2  C   UNL d   1       0.015  -0.852  -0.012  0.00  0.00     0.131 A 
ATOM      3  C   UNL d   1      -1.013   1.353   0.231  0.00  0.00     0.141 A 
ATOM      4  N   UNL d   1       1.453   0.910   0.152  0.00  0.00    -0.294 N 
ATOM      5  HN  UNL d   1       1.824   1.856   0.242  1.00  0.00     0.187 HD
ATOM      6  N   UNL d   1      -1.192  -1.488  -0.050  0.00  0.00    -0.337 N 
ATOM      7  HN  UNL d   1      -1.258  -2.501  -0.151  1.00  0.00     0.167 HD
ATOM      8  C   UNL d   1       1.292  -1.347  -0.085  0.00  0.00     0.077 A 
ATOM      9  C   UNL d   1      -2.218   0.756   0.187  0.00  0.00     0.085 A 
ATOM     10  C   UNL d   1      -2.259  -0.739   0.049  0.00  0.00     0.121 A 
ATOM     11  C   UNL d   1       2.151  -0.229   0.029  0.00  0.00     0.037 A 
ENDROOT
BRANCH   3  12
ATOM     12  N   UNL d   1      -0.827   2.726   0.386  0.00  0.00    -0.297 N 
ATOM     13  H   UNL d   1       0.138   3.019   0.143  0.00  0.00     0.183 HD
BRANCH  12  14
ATOM     14  N   UNL d   1      -1.805   3.665  -0.034  0.00  0.00    -0.153 NA
ATOM     15  C   UNL d   1      -1.296   4.858  -0.555  0.00  0.00     0.317 C 
ATOM     16  N   UNL d   1      -2.312   5.749  -0.851  0.00  0.00    -0.312 N 
ATOM     17  O   UNL d   1      -0.094   5.021  -0.729  0.00  0.00    -0.252 OA
ATOM     18  H   UNL d   1      -3.251   5.413  -0.705  0.00  0.00     0.170 HD
ATOM     19  H   UNL d   1      -2.562   3.771   0.632  0.00  0.00     0.157 HD
BRANCH  16  20
ATOM     20  C   UNL d   1      -2.181   7.035  -1.418  0.00  0.00     0.036 A 
ATOM     21  C   UNL d   1      -0.957   7.610  -1.770  0.00  0.00     0.031 A 
ATOM     22  C   UNL d   1      -0.903   8.888  -2.338  0.00  0.00     0.026 A 
ATOM     23  C   UNL d   1      -2.077   9.604  -2.552  0.00  0.00     0.034 A 
ATOM     24  C   UNL d   1      -3.305   9.049  -2.205  0.00  0.00     0.026 A 
ATOM     25 CL   UNL d   1      -2.007  11.175  -3.247  0.00  0.00    -0.084 Cl
ATOM     26  C   UNL d   1      -3.357   7.768  -1.642  0.00  0.00     0.031 A 
ENDBRANCH  16  20
ENDBRANCH  12  14
ENDBRANCH   3  12
BRANCH  10  27
ATOM     27  C   UNL d   1      -3.644  -1.389   0.044  0.00  0.00     0.432 C 
ATOM     28  F   UNL d   1      -4.653  -0.473   0.104  0.00  0.00    -0.165 F 
ATOM     29  F   UNL d   1      -3.870  -2.127  -1.076  0.00  0.00    -0.165 F 
ATOM     30  F   UNL d   1      -3.826  -2.219   1.106  0.00  0.00    -0.165 F 
ENDBRANCH  10  27
BRANCH  11  31
ATOM     31  C   UNL d   1       3.675  -0.259   0.018  0.00  0.00    -0.007 C 
ATOM     32  C   UNL d   1       4.295   1.132   0.261  0.00  0.00     0.021 C 
ATOM     33  C   UNL d   1       4.190  -1.206   1.125  0.00  0.00     0.021 C 
ATOM     34  C   UNL d   1       4.180  -0.777  -1.345  0.00  0.00     0.021 C 
ENDBRANCH  11  31
TORSDOF 5
