REMARK  3 active torsions:
REMARK  status: ('A' for Active; 'I' for Inactive)
REMARK    1  A    between atoms: C_2  and  C_1 
REMARK       I    between atoms: N_3  and  C_1 
REMARK    2  A    between atoms: C_12  and  N_3 
REMARK    3  A    between atoms: C_13  and  C_12 
ROOT
ATOM      1  C   UNL d   1       0.194   0.894   0.991  0.00  0.00     0.033 A 
ATOM      2  C   UNL d   1       0.843   1.237   2.180  0.00  0.00     0.030 A 
ATOM      3  C   UNL d   1       0.202   2.058   3.128  0.00  0.00    -0.009 A 
ATOM      4  N   UNL d   1      -1.749   3.344   3.748  0.00  0.00    -0.365 N 
ATOM      5  HN  UNL d   1      -2.686   3.692   3.542  1.00  0.00     0.165 HD
ATOM      6  C   UNL d   1      -1.096   2.556   2.877  0.00  0.00     0.042 A 
ATOM      7  C   UNL d   1      -1.084   1.399   0.736  0.00  0.00     0.019 A 
ATOM      8  C   UNL d   1      -1.710   2.219   1.681  0.00  0.00     0.031 A 
ATOM      9  C   UNL d   1      -1.128   3.661   4.905  0.00  0.00     0.088 A 
ATOM     10  C   UNL d   1       0.812   2.408   4.340  0.00  0.00     0.015 A 
ATOM     11  C   UNL d   1       0.138   3.222   5.244  0.00  0.00     0.018 A 
ENDROOT
BRANCH   1  12
ATOM     12  C   UNL d   1       0.899   0.037  -0.002  0.00  0.00     0.251 C 
ATOM     13  N   UNL d   1       0.090  -0.746  -0.794  0.00  0.00    -0.353 N 
ATOM     14  H   UNL d   1      -0.873  -0.900  -0.527  0.00  0.00     0.163 HD
ATOM     15  O   UNL d   1       2.120   0.050  -0.072  0.00  0.00    -0.268 OA
BRANCH  13  16
ATOM     16  C   UNL d   1       0.627  -1.591  -1.836  0.00  0.00     0.161 C 
BRANCH  16  17
ATOM     17  C   UNL d   1      -0.391  -1.792  -2.930  0.00  0.00    -0.041 A 
ATOM     18  C   UNL d   1      -0.890  -0.688  -3.641  0.00  0.00     0.009 A 
ATOM     19  C   UNL d   1      -1.825  -0.861  -4.662  0.00  0.00     0.001 A 
ATOM     20  C   UNL d   1      -2.267  -2.141  -4.990  0.00  0.00     0.000 A 
ATOM     21  C   UNL d   1      -1.777  -3.246  -4.296  0.00  0.00     0.001 A 
ATOM     22  C   UNL d   1      -0.844  -3.074  -3.271  0.00  0.00     0.009 A 
ENDBRANCH  16  17
ENDBRANCH  13  16
ENDBRANCH   1  12
TORSDOF 3
