REMARK  1 active torsions:
REMARK  status: ('A' for Active; 'I' for Inactive)
REMARK    1  A    between atoms: C_7  and  N_1 
ROOT
ATOM      1  N   UNL d   1       0.968  -0.712  -0.077  0.00  0.00    -0.268 N 
ATOM      2  C   UNL d   1       0.935   0.662  -0.056  0.00  0.00     0.164 A 
ATOM      3  N   UNL d   1      -0.251   1.167   0.158  0.00  0.00    -0.281 N 
ATOM      4  HN  UNL d   1      -0.507   2.152   0.219  1.00  0.00     0.188 HD
ATOM      5  C   UNL d   1      -0.329  -1.092   0.231  0.00  0.00     0.199 A 
ATOM      6  N   UNL d   1      -1.069   0.085   0.283  0.00  0.00    -0.274 N 
ATOM      7  C   UNL d   1       2.078   1.515  -0.242  0.00  0.00     0.120 A 
ATOM      8  S   UNL d   1      -0.994  -2.559   0.640  0.00  0.00    -0.039 SA
ATOM      9  O   UNL d   1       3.155   1.081  -0.968  0.00  0.00    -0.319 OA
ATOM     10  C   UNL d   1       2.317   2.807   0.194  0.00  0.00     0.043 A 
ATOM     11  C   UNL d   1       4.077   2.078  -0.963  0.00  0.00     0.142 A 
ATOM     12  C   UNL d   1       3.615   3.157  -0.249  0.00  0.00     0.027 A 
ATOM     13  H   UNL d   1      -2.041   0.171   0.555  0.00  0.00     0.189 HD
ENDROOT
BRANCH   1  14
ATOM     14  C   UNL d   1       2.103  -1.558  -0.080  0.00  0.00     0.065 A 
ATOM     15  C   UNL d   1       2.225  -2.652  -0.955  0.00  0.00     0.061 A 
ATOM     16 CL   UNL d   1       1.101  -2.951  -2.238  0.00  0.00    -0.082 Cl
ATOM     17  C   UNL d   1       3.350  -3.484  -0.899  0.00  0.00     0.026 A 
ATOM     18  C   UNL d   1       4.379  -3.218   0.004  0.00  0.00     0.002 A 
ATOM     19  C   UNL d   1       4.286  -2.120   0.854  0.00  0.00     0.002 A 
ATOM     20  C   UNL d   1       3.154  -1.303   0.819  0.00  0.00     0.032 A 
ENDBRANCH   1  14
TORSDOF 1
