REMARK  3 active torsions:
REMARK  status: ('A' for Active; 'I' for Inactive)
REMARK    1  A    between atoms: C_7  and  C_1 
REMARK    2  A    between atoms: O_10  and  C_4 
REMARK    3  A    between atoms: C_13  and  C_7 
ROOT
ATOM      1  C   UNL d   1      -1.456   2.412   0.032  0.00  0.00     0.048 A 
ATOM      2  C   UNL d   1       0.039   2.388   0.108  0.00  0.00     0.257 A 
ATOM      3  N   UNL d   1       0.685   1.160   0.030  0.00  0.00    -0.312 N 
ATOM      4  C   UNL d   1      -2.133   1.259  -0.048  0.00  0.00     0.090 A 
ATOM      5  C   UNL d   1      -1.432  -0.037  -0.049  0.00  0.00     0.025 A 
ATOM      6  C   UNL d   1      -0.028  -0.064  -0.012  0.00  0.00     0.056 A 
ATOM      7  O   UNL d   1       0.660   3.449   0.224  0.00  0.00    -0.267 OA
ATOM      8  C   UNL d   1       0.648  -1.294  -0.011  0.00  0.00    -0.030 A 
ATOM      9  C   UNL d   1       2.132   1.181   0.122  0.00  0.00     0.133 C 
ATOM     10  C   UNL d   1      -2.146  -1.242  -0.074  0.00  0.00     0.016 A 
ATOM     11  C   UNL d   1       2.892  -0.106  -0.143  0.00  0.00     0.025 C 
ATOM     12  C   UNL d   1      -1.480  -2.465  -0.074  0.00  0.00     0.002 A 
ATOM     13  C   UNL d   1       2.137  -1.395   0.110  0.00  0.00     0.042 C 
ATOM     14  C   UNL d   1      -0.092  -2.489  -0.038  0.00  0.00     0.009 A 
ENDROOT
BRANCH   1  15
ATOM     15  C   UNL d   1      -2.082   3.792  -0.014  0.00  0.00     0.085 C 
BRANCH  15  16
ATOM     16  C   UNL d   1      -2.616   4.264   1.321  0.00  0.00    -0.054 A 
ATOM     17  C   UNL d   1      -1.734   4.583   2.366  0.00  0.00     0.007 A 
ATOM     18  C   UNL d   1      -2.222   4.984   3.610  0.00  0.00     0.001 A 
ATOM     19  C   UNL d   1      -3.595   5.080   3.823  0.00  0.00     0.000 A 
ATOM     20  C   UNL d   1      -4.481   4.792   2.788  0.00  0.00     0.001 A 
ATOM     21  C   UNL d   1      -3.995   4.392   1.541  0.00  0.00     0.007 A 
ENDBRANCH  15  16
ENDBRANCH   1  15
BRANCH   4  22
ATOM     22  O   UNL d   1      -3.507   1.175  -0.120  0.00  0.00    -0.359 OA
ATOM     23  H   UNL d   1      -3.892   2.033   0.122  0.00  0.00     0.217 HD
ENDBRANCH   4  22
TORSDOF 3
