REMARK  5 active torsions:
REMARK  status: ('A' for Active; 'I' for Inactive)
REMARK    1  A    between atoms: C_7  and  N_1 
REMARK    2  A    between atoms: S_2  and  C_9 
REMARK    3  A    between atoms: N_5  and  S_2 
REMARK       I    between atoms: C_6  and  N_10 
REMARK    4  A    between atoms: O_14  and  C_6 
REMARK    5  A    between atoms: C_26  and  O_14 
ROOT
ATOM      1  C   UNL d   1       2.862  -1.536   0.079  0.00  0.00     0.067 A 
ATOM      2  C   UNL d   1       5.033  -3.298   0.215  0.00  0.00     0.081 A 
ATOM      3  C   UNL d   1       3.381  -2.122  -1.092  0.00  0.00     0.062 A 
ATOM      4  C   UNL d   1       4.473  -2.987  -1.026  0.00  0.00     0.051 A 
ATOM      5  C   UNL d   1       3.481  -1.809   1.310  0.00  0.00     0.033 A 
ATOM      6  C   UNL d   1       4.558  -2.697   1.383  0.00  0.00     0.027 A 
ATOM      7 CL   UNL d   1       2.814  -1.697  -2.672  0.00  0.00    -0.082 Cl
ENDROOT
BRANCH   2   8
ATOM      8  S   UNL d   1       6.436  -4.390   0.273  0.00  0.00     0.261 S 
ATOM      9  O   UNL d   1       7.120  -4.278  -0.997  0.00  0.00    -0.200 OA
ATOM     10  O   UNL d   1       7.126  -4.141   1.521  0.00  0.00    -0.200 OA
BRANCH   8  11
ATOM     11  N   UNL d   1       5.733  -5.923   0.359  0.00  0.00    -0.304 N 
ATOM     12  C   UNL d   1       5.065  -6.303   1.633  0.00  0.00     0.155 C 
ATOM     13  C   UNL d   1       5.013  -7.832   1.720  0.00  0.00     0.148 C 
ATOM     14  N   UNL d   1       4.346  -8.410   0.553  0.00  0.00    -0.325 N 
ATOM     15  C   UNL d   1       3.325  -9.321   0.751  0.00  0.00     0.363 C 
ATOM     16  C   UNL d   1       4.881  -7.982  -0.747  0.00  0.00     0.148 C 
ATOM     17  O   UNL d   1       2.878  -9.568   1.859  0.00  0.00    -0.238 OA
ATOM     18  C   UNL d   1       4.990  -6.442  -0.830  0.00  0.00     0.155 C 
BRANCH  15  19
ATOM     19  O   UNL d   1       2.867  -9.891  -0.398  0.00  0.00    -0.294 OA
BRANCH  19  20
ATOM     20  C   UNL d   1       1.726 -10.801  -0.328  0.00  0.00     0.061 C 
ATOM     21  C   UNL d   1       0.482 -10.070   0.199  0.00  0.00     0.046 C 
ATOM     22  C   UNL d   1       1.462 -11.248  -1.775  0.00  0.00     0.046 C 
ATOM     23  C   UNL d   1       2.033 -12.056   0.504  0.00  0.00     0.046 C 
ENDBRANCH  19  20
ENDBRANCH  15  19
ENDBRANCH   8  11
ENDBRANCH   2   8
BRANCH   1  24
ATOM     24  N   UNL d   1       1.744  -0.674   0.038  0.00  0.00    -0.250 N 
ATOM     25  C   UNL d   1       1.720   0.574   0.601  0.00  0.00     0.232 C 
ATOM     26  C   UNL d   1       0.413   1.232   0.257  0.00  0.00     0.123 C 
ATOM     27  O   UNL d   1       2.606   1.130   1.234  0.00  0.00    -0.273 OA
ATOM     28  C   UNL d   1      -0.434   0.103  -0.331  0.00  0.00     0.050 C 
ATOM     29  C   UNL d   1       0.529  -1.054  -0.477  0.00  0.00     0.240 C 
ATOM     30  C   UNL d   1      -1.100   0.452  -1.660  0.00  0.00     0.020 C 
ATOM     31  C   UNL d   1      -1.626  -0.262   0.558  0.00  0.00     0.020 C 
ATOM     32  O   UNL d   1       0.213  -2.162  -0.890  0.00  0.00    -0.272 OA
ATOM     33  C   UNL d   1      -2.394   1.159  -1.278  0.00  0.00     0.001 C 
ATOM     34  C   UNL d   1      -2.737   0.694   0.136  0.00  0.00     0.001 C 
ENDBRANCH   1  24
TORSDOF 5
