REMARK  4 active torsions:
REMARK  status: ('A' for Active; 'I' for Inactive)
REMARK    1  A    between atoms: C_2  and  C_1 
REMARK    2  A    between atoms: C_13  and  N_5 
REMARK    3  A    between atoms: S_15  and  C_6 
REMARK    4  A    between atoms: C_14  and  C_10 
ROOT
ATOM      1  C   UNL d   1      -0.378   1.130   0.009  0.00  0.00     0.050 A 
ATOM      2  N   UNL d   1       1.011  -0.678   0.072  0.00  0.00    -0.287 N 
ATOM      3  HN  UNL d   1       1.846  -1.262   0.126  1.00  0.00     0.188 HD
ATOM      4  N   UNL d   1      -0.281  -1.086  -0.005  0.00  0.00    -0.266 N 
ATOM      5  C   UNL d   1       0.950   0.659   0.063  0.00  0.00     0.099 A 
ATOM      6  C   UNL d   1      -1.142  -0.015  -0.046  0.00  0.00     0.134 A 
ENDROOT
BRANCH   1   7
ATOM      7  C   UNL d   1      -0.931   2.521   0.014  0.00  0.00     0.089 A 
ATOM      8  N   UNL d   1      -0.173   3.594   0.074  0.00  0.00    -0.349 N 
ATOM      9  C   UNL d   1      -0.948   4.744   0.067  0.00  0.00     0.050 A 
ATOM     10  HN  UNL d   1       0.846   3.581   0.120  1.00  0.00     0.166 HD
ATOM     11  C   UNL d   1      -2.310   4.520   0.034  0.00  0.00     0.082 A 
ATOM     12  S   UNL d   1      -2.626   2.842  -0.038  0.00  0.00    -0.081 SA
BRANCH   9  13
ATOM     13  C   UNL d   1      -0.341   6.069   0.126  0.00  0.00    -0.009 A 
ATOM     14  C   UNL d   1      -0.991   7.202  -0.389  0.00  0.00     0.014 A 
ATOM     15  C   UNL d   1      -0.393   8.462  -0.313  0.00  0.00     0.001 A 
ATOM     16  C   UNL d   1       0.862   8.604   0.275  0.00  0.00     0.000 A 
ATOM     17  C   UNL d   1       1.523   7.487   0.781  0.00  0.00     0.001 A 
ATOM     18  C   UNL d   1       0.927   6.225   0.702  0.00  0.00     0.014 A 
ENDBRANCH   9  13
ENDBRANCH   1   7
BRANCH   5  19
ATOM     19  S   UNL d   1       2.401   1.639   0.104  0.00  0.00    -0.115 SA
ATOM     20  C   UNL d   1       3.688   0.420   0.428  0.00  0.00     0.097 C 
ENDBRANCH   5  19
BRANCH   4  21
ATOM     21  C   UNL d   1      -0.630  -2.467  -0.028  0.00  0.00     0.056 A 
ATOM     22  C   UNL d   1      -1.964  -2.873  -0.189  0.00  0.00     0.031 A 
ATOM     23  C   UNL d   1      -2.291  -4.231  -0.201  0.00  0.00     0.002 A 
ATOM     24  C   UNL d   1      -1.295  -5.191  -0.048  0.00  0.00     0.000 A 
ATOM     25  C   UNL d   1       0.033  -4.796   0.112  0.00  0.00     0.002 A 
ATOM     26  C   UNL d   1       0.369  -3.441   0.119  0.00  0.00     0.031 A 
ENDBRANCH   4  21
TORSDOF 4
