REMARK  8 active torsions:
REMARK  status: ('A' for Active; 'I' for Inactive)
REMARK    1  A    between atoms: C_3  and  N_1 
REMARK    2  A    between atoms: C_7  and  C_2 
REMARK    3  A    between atoms: N_4  and  C_7 
REMARK    4  A    between atoms: C_5  and  C_8 
REMARK    5  A    between atoms: O_19  and  C_5 
REMARK    6  A    between atoms: C_14  and  N_6 
REMARK    7  A    between atoms: C_20  and  C_14 
REMARK    8  A    between atoms: C_23  and  O_19 
ROOT
ATOM      1  C   UNL d   1       3.965  -0.925   0.463  0.00  0.00    -0.004 A 
ATOM      2  C   UNL d   1       2.586  -0.706   0.780  0.00  0.00     0.038 A 
ATOM      3  C   UNL d   1       4.989  -0.353   1.289  0.00  0.00     0.011 A 
ATOM      4  C   UNL d   1       2.383   0.085   1.952  0.00  0.00     0.030 A 
ATOM      5  C   UNL d   1       4.717   0.384   2.430  0.00  0.00     0.001 A 
ATOM      6  C   UNL d   1       3.403   0.604   2.763  0.00  0.00     0.002 A 
ENDROOT
BRANCH   1   7
ATOM      7  C   UNL d   1       4.561  -1.778  -0.660  0.00  0.00     0.313 C 
BRANCH   7   8
ATOM      8  N   UNL d   1       4.405  -3.228  -0.450  0.00  0.00     0.096 N 
ATOM      9  C   UNL d   1       5.195  -3.722   0.698  0.00  0.00     0.303 C 
ATOM     10  C   UNL d   1       6.710  -3.854   0.419  0.00  0.00     0.303 C 
ATOM     11  N   UNL d   1       7.050  -4.694  -0.748  0.00  0.00     0.096 N 
ATOM     12  C   UNL d   1       6.257  -4.239  -1.911  0.00  0.00     0.303 C 
ATOM     13  C   UNL d   1       4.745  -4.012  -1.651  0.00  0.00     0.303 C 
BRANCH  11  14
ATOM     14  C   UNL d   1       6.840  -6.132  -0.484  0.00  0.00     0.311 C 
BRANCH  14  15
ATOM     15  C   UNL d   1       7.795  -6.744   0.530  0.00  0.00    -0.030 A 
ATOM     16  C   UNL d   1       9.101  -6.261   0.714  0.00  0.00     0.009 A 
ATOM     17  C   UNL d   1       9.963  -6.859   1.636  0.00  0.00     0.001 A 
ATOM     18  C   UNL d   1       9.545  -7.967   2.366  0.00  0.00     0.000 A 
ATOM     19  C   UNL d   1       8.263  -8.481   2.175  0.00  0.00     0.001 A 
ATOM     20  C   UNL d   1       7.395  -7.873   1.262  0.00  0.00     0.009 A 
ENDBRANCH  14  15
ENDBRANCH  11  14
ENDBRANCH   7   8
ENDBRANCH   1   7
BRANCH   2  21
ATOM     21  N   UNL d   1       1.448  -1.250   0.122  0.00  0.00    -0.380 N 
ATOM     22  C   UNL d   1       1.506  -1.644  -1.293  0.00  0.00     0.124 C 
ATOM     23  C   UNL d   1       0.441  -2.691  -1.619  0.00  0.00     0.034 C 
ATOM     24  C   UNL d   1      -0.964  -2.184  -1.324  0.00  0.00     0.088 C 
ATOM     25  C   UNL d   1      -1.018  -1.734   0.128  0.00  0.00     0.034 C 
ATOM     26  C   UNL d   1       0.100  -0.765   0.517  0.00  0.00     0.124 C 
BRANCH  24  27
ATOM     27  C   UNL d   1      -1.370  -1.150  -2.367  0.00  0.00     0.263 C 
ATOM     28  O   UNL d   1      -1.158  -1.290  -3.561  0.00  0.00    -0.265 OA
BRANCH  27  29
ATOM     29  O   UNL d   1      -2.027  -0.089  -1.818  0.00  0.00    -0.322 OA
BRANCH  29  30
ATOM     30  C   UNL d   1      -2.477   0.902  -2.756  0.00  0.00     0.174 C 
ATOM     31  C   UNL d   1      -1.342   1.839  -3.129  0.00  0.00     0.034 C 
ENDBRANCH  29  30
ENDBRANCH  27  29
ENDBRANCH  24  27
ENDBRANCH   2  21
TORSDOF 8
