REMARK  1 active torsions:
REMARK  status: ('A' for Active; 'I' for Inactive)
REMARK    1  A    between atoms: N_8  and  C_2 
ROOT
ATOM      1  C   UNL d   1      -1.959  -1.092   0.177  0.00  0.00     0.085 A 
ATOM      2  C   UNL d   1      -2.854  -0.060  -0.029  0.00  0.00     0.089 A 
ATOM      3  C   UNL d   1      -0.581  -0.659   0.150  0.00  0.00    -0.021 A 
ATOM      4  S   UNL d   1      -2.042   1.426  -0.240  0.00  0.00    -0.075 SA
ATOM      5  C   UNL d   1      -0.498   0.714  -0.044  0.00  0.00    -0.007 A 
ATOM      6  C   UNL d   1      -2.387  -2.444   0.389  0.00  0.00     0.103 C 
ATOM      7  N   UNL d   1      -2.726  -3.541   0.555  0.00  0.00    -0.191 NA
ATOM      8  C   UNL d   1       0.605  -1.580   0.316  0.00  0.00     0.041 C 
ATOM      9  C   UNL d   1       0.715   1.600  -0.133  0.00  0.00     0.047 C 
ATOM     10  C   UNL d   1       1.765  -1.229  -0.616  0.00  0.00     0.005 C 
ATOM     11  C   UNL d   1       1.924   1.050   0.620  0.00  0.00     0.005 C 
ATOM     12  C   UNL d   1       2.646  -0.079  -0.119  0.00  0.00     0.001 C 
ENDROOT
BRANCH   2  13
ATOM     13  N   UNL d   1      -4.202  -0.101  -0.079  0.00  0.00    -0.392 N 
ATOM     14  H   UNL d   1      -4.739  -0.962  -0.032  0.00  0.00     0.156 HD
ATOM     15  H   UNL d   1      -4.737   0.731  -0.309  0.00  0.00     0.156 HD
ENDBRANCH   2  13
TORSDOF 1
