REMARK  1 active torsions:
REMARK  status: ('A' for Active; 'I' for Inactive)
REMARK    1  A    between atoms: C_8  and  C_4 
ROOT
ATOM      1  N   UNL d   1       1.132  -0.515   1.017  0.00  0.00    -0.301 N 
ATOM      2  HN  UNL d   1       1.626  -0.963   1.789  1.00  0.00     0.186 HD
ATOM      3  N   UNL d   1      -0.231  -0.506   0.961  0.00  0.00    -0.266 N 
ATOM      4  C   UNL d   1       1.780   0.067   0.051  0.00  0.00     0.033 A 
ATOM      5  C   UNL d   1      -0.991   0.058  -0.028  0.00  0.00     0.259 A 
ATOM      6  C   UNL d   1       1.093   0.732  -1.091  0.00  0.00     0.033 A 
ATOM      7  C   UNL d   1      -0.241   0.715  -1.113  0.00  0.00     0.078 A 
ATOM      8  O   UNL d   1      -2.217   0.034  -0.038  0.00  0.00    -0.267 OA
ATOM      9  H   UNL d   1      -0.719  -0.967   1.721  0.00  0.00     0.190 HD
ENDROOT
BRANCH   4  10
ATOM     10  C   UNL d   1       3.331   0.064   0.078  0.00  0.00    -0.007 C 
ATOM     11  C   UNL d   1       3.852  -0.651   1.341  0.00  0.00     0.021 C 
ATOM     12  C   UNL d   1       3.868  -0.684  -1.153  0.00  0.00     0.021 C 
ATOM     13  C   UNL d   1       3.865   1.504   0.090  0.00  0.00     0.021 C 
ENDBRANCH   4  10
TORSDOF 1
