REMARK  5 active torsions:
REMARK  status: ('A' for Active; 'I' for Inactive)
REMARK    1  A    between atoms: N_4  and  C_1 
REMARK    2  A    between atoms: N_6  and  C_1 
REMARK    3  A    between atoms: N_2  and  N_6 
REMARK    4  A    between atoms: C_12  and  N_4 
REMARK    5  A    between atoms: C_10  and  C_9 
ROOT
ATOM      1  N   UNL d   1       3.232  -1.240  -0.336  0.00  0.00    -0.309 N 
ATOM      2  HN  UNL d   1       2.768  -2.127  -0.143  1.00  0.00     0.186 HD
ATOM      3  C   UNL d   1       4.519  -1.133  -0.476  0.00  0.00     0.120 C 
ENDROOT
BRANCH   1   4
ATOM      4  N   UNL d   1       2.553  -0.058  -0.470  0.00  0.00    -0.277 N 
ATOM      5  H   UNL d   1       3.062   0.815  -0.580  0.00  0.00     0.189 HD
BRANCH   4   6
ATOM      6  C   UNL d   1       1.227   0.049  -0.107  0.00  0.00     0.186 C 
ATOM      7  S   UNL d   1       0.560   1.565   0.078  0.00  0.00    -0.040 SA
BRANCH   6   8
ATOM      8  N   UNL d   1       0.616  -1.159   0.095  0.00  0.00    -0.362 N 
ATOM      9  H   UNL d   1       1.249  -1.932  -0.093  0.00  0.00     0.162 HD
BRANCH   8  10
ATOM     10  C   UNL d   1      -0.657  -1.425   0.760  0.00  0.00     0.076 C 
ATOM     11  C   UNL d   1      -1.855  -1.214  -0.164  0.00  0.00     0.032 C 
ATOM     12  C   UNL d   1      -0.664  -2.853   1.304  0.00  0.00     0.032 C 
ENDBRANCH   8  10
ENDBRANCH   6   8
ENDBRANCH   4   6
ENDBRANCH   1   4
BRANCH   3  13
ATOM     13  C   UNL d   1       5.421  -2.279  -0.284  0.00  0.00    -0.004 A 
ATOM     14  C   UNL d   1       6.786  -2.107  -0.462  0.00  0.00     0.100 A 
ATOM     15  N   UNL d   1       7.697  -3.093  -0.273  0.00  0.00    -0.374 N 
ATOM     16  C   UNL d   1       7.218  -4.297   0.114  0.00  0.00     0.087 A 
ATOM     17  HN  UNL d   1       8.695  -2.934  -0.414  1.00  0.00     0.164 HD
ATOM     18  C   UNL d   1       5.872  -4.561   0.314  0.00  0.00     0.018 A 
ATOM     19  C   UNL d   1       4.956  -3.531   0.113  0.00  0.00     0.015 A 
ENDBRANCH   3  13
TORSDOF 5
