REMARK  4 active torsions:
REMARK  status: ('A' for Active; 'I' for Inactive)
REMARK       I    between atoms: C_3  and  N_1 
REMARK    1  A    between atoms: N_2  and  C_4 
REMARK    2  A    between atoms: C_11  and  C_3 
REMARK    3  A    between atoms: S_13  and  C_11 
REMARK    4  A    between atoms: C_16  and  S_13 
ROOT
ATOM      1  N   UNL d   1       1.327   0.065   0.505  0.00  0.00    -0.351 N 
ATOM      2  C   UNL d   1       2.613   0.060   1.074  0.00  0.00     0.229 C 
ATOM      3  C   UNL d   1      -1.473  -0.121  -0.338  0.00  0.00     0.091 C 
ATOM      4  C   UNL d   1      -0.854   1.190   0.153  0.00  0.00     0.045 C 
ATOM      5  C   UNL d   1      -0.704  -1.339   0.179  0.00  0.00     0.045 C 
ATOM      6  C   UNL d   1       0.658   1.253  -0.026  0.00  0.00     0.128 C 
ATOM      7  C   UNL d   1       0.809  -1.223   0.039  0.00  0.00     0.128 C 
ATOM      8  O   UNL d   1       3.163  -1.001   1.372  0.00  0.00    -0.273 OA
ENDROOT
BRANCH   2   9
ATOM      9  C   UNL d   1       3.264   1.408   1.392  0.00  0.00     0.182 C 
BRANCH   9  10
ATOM     10  S   UNL d   1       5.088   1.316   1.289  0.00  0.00    -0.121 SA
BRANCH  10  11
ATOM     11  C   UNL d   1       5.493   2.933   1.923  0.00  0.00     0.001 A 
ATOM     12  C   UNL d   1       6.280   3.040   3.074  0.00  0.00     0.018 A 
ATOM     13  C   UNL d   1       6.564   4.294   3.619  0.00  0.00     0.001 A 
ATOM     14  C   UNL d   1       6.073   5.448   3.010  0.00  0.00     0.000 A 
ATOM     15  C   UNL d   1       5.320   5.351   1.841  0.00  0.00     0.001 A 
ATOM     16  C   UNL d   1       5.038   4.097   1.295  0.00  0.00     0.018 A 
ENDBRANCH  10  11
ENDBRANCH   9  10
ENDBRANCH   2   9
BRANCH   3  17
ATOM     17  N   UNL d   1      -1.738  -0.126  -1.776  0.00  0.00    -0.362 N 
ATOM     18  C   UNL d   1      -0.826  -0.153  -2.797  0.00  0.00     0.091 A 
ATOM     19  C   UNL d   1      -1.508  -0.090  -3.993  0.00  0.00     0.019 A 
ATOM     20  C   UNL d   1      -2.885  -0.025  -3.690  0.00  0.00     0.019 A 
ATOM     21  C   UNL d   1      -3.001  -0.052  -2.318  0.00  0.00     0.091 A 
ENDBRANCH   3  17
TORSDOF 4
