REMARK  3 active torsions:
REMARK  status: ('A' for Active; 'I' for Inactive)
REMARK    1  A    between atoms: C_2  and  C_1 
REMARK       I    between atoms: N_3  and  C_2 
REMARK    2  A    between atoms: O_19  and  C_13 
REMARK    3  A    between atoms: O_20  and  C_15 
ROOT
ATOM      1  C   UNL d   1       4.414  -0.910  -1.246  0.00  0.00     0.263 C 
ATOM      2  N   UNL d   1       4.543  -1.538   0.014  0.00  0.00    -0.339 N 
ATOM      3  C   UNL d   1       4.549  -3.996  -0.147  0.00  0.00    -0.026 C 
ATOM      4  C   UNL d   1       5.396  -2.753   0.123  0.00  0.00     0.117 C 
ATOM      5  C   UNL d   1       3.323  -4.055   0.555  0.00  0.00    -0.045 C 
ATOM      6  C   UNL d   1       4.867  -5.034  -1.034  0.00  0.00     0.049 C 
ATOM      7  C   UNL d   1       3.290  -1.595   0.794  0.00  0.00     0.131 C 
ATOM      8  C   UNL d   1       3.958  -6.076  -1.258  0.00  0.00     0.102 C 
ATOM      9  C   UNL d   1       2.412  -5.082   0.319  0.00  0.00     0.047 C 
ATOM     10  C   UNL d   1       2.699  -6.047  -0.645  0.00  0.00     0.102 C 
ATOM     11  O   UNL d   1       3.429  -1.075  -1.963  0.00  0.00    -0.267 OA
ATOM     12  C   UNL d   1       3.023  -2.928   1.506  0.00  0.00     0.059 C 
ATOM     13  C   UNL d   1       6.737  -2.704  -0.606  0.00  0.00     0.037 C 
ENDROOT
BRANCH   1  14
ATOM     14  C   UNL d   1       5.436   0.076  -1.551  0.00  0.00     0.096 C 
ATOM     15  S   UNL d   1       5.465   1.527  -0.643  0.00  0.00    -0.082 SA
ATOM     16  C   UNL d   1       6.771   2.171  -1.563  0.00  0.00     0.017 A 
ATOM     17  C   UNL d   1       7.369   3.440  -1.421  0.00  0.00     0.020 A 
ATOM     18  C   UNL d   1       7.218   1.254  -2.519  0.00  0.00     0.004 A 
ATOM     19  C   UNL d   1       8.484   3.756  -2.200  0.00  0.00     0.001 A 
ATOM     20  C   UNL d   1       9.000   2.833  -3.097  0.00  0.00     0.001 A 
ATOM     21  C   UNL d   1       8.371   1.598  -3.273  0.00  0.00     0.014 A 
ATOM     22  C   UNL d   1       6.350   0.105  -2.574  0.00  0.00     0.068 C 
ATOM     23 CL   UNL d   1       6.512  -1.090  -3.800  0.00  0.00    -0.082 Cl
ENDBRANCH   1  14
BRANCH   8  24
ATOM     24  O   UNL d   1       4.319  -7.023  -2.186  0.00  0.00    -0.353 OA
ATOM     25  C   UNL d   1       4.330  -8.342  -1.635  0.00  0.00     0.210 C 
ENDBRANCH   8  24
BRANCH  10  26
ATOM     26  O   UNL d   1       1.728  -6.941  -1.016  0.00  0.00    -0.353 OA
ATOM     27  C   UNL d   1       0.633  -6.250  -1.627  0.00  0.00     0.210 C 
ENDBRANCH  10  26
TORSDOF 3
