REMARK  9 active torsions:
REMARK  status: ('A' for Active; 'I' for Inactive)
REMARK    1  A    between atoms: C_4  and  S_1 
REMARK    2  A    between atoms: N_12  and  S_1 
REMARK    3  A    between atoms: C_2  and  C_5 
REMARK    4  A    between atoms: C_3  and  C_6 
REMARK    5  A    between atoms: C_24  and  N_12 
REMARK    6  A    between atoms: C_13  and  C_26 
REMARK    7  A    between atoms: C_27  and  C_24 
REMARK    8  A    between atoms: S_25  and  C_27 
REMARK    9  A    between atoms: C_26  and  S_25 
ROOT
ATOM      1  C   UNL d   1       0.425  -0.778   1.456  0.00  0.00     0.081 A 
ATOM      2  C   UNL d   1      -0.431  -2.839   2.412  0.00  0.00     0.050 A 
ATOM      3  C   UNL d   1      -0.272  -0.809   3.783  0.00  0.00     0.050 A 
ATOM      4  C   UNL d   1       0.244  -0.116   2.677  0.00  0.00     0.041 A 
ATOM      5  C   UNL d   1       0.085  -2.127   1.319  0.00  0.00     0.041 A 
ATOM      6  C   UNL d   1      -0.595  -2.172   3.641  0.00  0.00     0.032 A 
ENDROOT
BRANCH   1   7
ATOM      7  S   UNL d   1       0.955   0.148   0.026  0.00  0.00     0.258 S 
ATOM      8  O   UNL d   1       0.613   1.529   0.261  0.00  0.00    -0.201 OA
ATOM      9  O   UNL d   1       0.507  -0.565  -1.151  0.00  0.00    -0.201 OA
BRANCH   7  10
ATOM     10  N   UNL d   1       2.627   0.036   0.102  0.00  0.00    -0.315 N 
ATOM     11  H   UNL d   1       3.015   0.537   0.908  0.00  0.00     0.172 HD
BRANCH  10  12
ATOM     12  C   UNL d   1       3.262  -1.270  -0.163  0.00  0.00     0.142 C 
BRANCH  12  13
ATOM     13  C   UNL d   1       4.779  -1.163   0.034  0.00  0.00     0.094 C 
BRANCH  13  14
ATOM     14  S   UNL d   1       5.107  -0.636   1.748  0.00  0.00    -0.161 SA
BRANCH  14  15
ATOM     15  C   UNL d   1       6.931  -0.656   1.732  0.00  0.00     0.139 C 
BRANCH  15  16
ATOM     16  C   UNL d   1       7.400  -0.225   3.071  0.00  0.00     0.061 A 
ATOM     17  O   UNL d   1       7.601  -1.209   3.995  0.00  0.00    -0.326 OA
ATOM     18  C   UNL d   1       7.902  -0.594   5.167  0.00  0.00     0.142 A 
ATOM     19  C   UNL d   1       7.922   0.770   5.005  0.00  0.00     0.027 A 
ATOM     20  C   UNL d   1       7.617   1.011   3.645  0.00  0.00     0.035 A 
ENDBRANCH  15  16
ENDBRANCH  14  15
ENDBRANCH  13  14
ENDBRANCH  12  13
ENDBRANCH  10  12
ENDBRANCH   7  10
ENDBRANCH   1   7
BRANCH   3  21
ATOM     21  C   UNL d   1      -0.522  -0.108   5.100  0.00  0.00     0.417 C 
ATOM     22  F   UNL d   1      -0.205   1.215   5.082  0.00  0.00    -0.166 F 
ATOM     23  F   UNL d   1      -1.828  -0.177   5.479  0.00  0.00    -0.166 F 
ATOM     24  F   UNL d   1       0.194  -0.653   6.121  0.00  0.00    -0.166 F 
ENDBRANCH   3  21
BRANCH   2  25
ATOM     25  C   UNL d   1      -0.848  -4.285   2.273  0.00  0.00     0.417 C 
ATOM     26  F   UNL d   1      -0.647  -4.789   1.024  0.00  0.00    -0.166 F 
ATOM     27  F   UNL d   1      -0.171  -5.106   3.121  0.00  0.00    -0.166 F 
ATOM     28  F   UNL d   1      -2.169  -4.469   2.545  0.00  0.00    -0.166 F 
ENDBRANCH   2  25
TORSDOF 9
