REMARK  4 active torsions:
REMARK  status: ('A' for Active; 'I' for Inactive)
REMARK    1  A    between atoms: C_3  and  S_1 
REMARK    2  A    between atoms: N_9  and  S_1 
REMARK       I    between atoms: C_2  and  N_8 
REMARK       I    between atoms: N_4  and  C_2 
REMARK    3  A    between atoms: C_5  and  N_4 
REMARK    4  A    between atoms: N_8  and  C_6 
ROOT
ATOM      1  C   UNL d   1       0.784  -1.412  -1.157  0.00  0.00     0.081 A 
ATOM      2  C   UNL d   1      -0.392  -2.595  -2.934  0.00  0.00     0.043 A 
ATOM      3  C   UNL d   1      -0.263  -1.488  -2.083  0.00  0.00     0.055 A 
ATOM      4  C   UNL d   1       0.612  -3.588  -2.912  0.00  0.00    -0.035 A 
ATOM      5  C   UNL d   1       1.718  -2.441  -1.065  0.00  0.00     0.026 A 
ATOM      6  C   UNL d   1       1.637  -3.516  -1.948  0.00  0.00     0.010 A 
ATOM      7  C   UNL d   1       0.671  -4.705  -3.921  0.00  0.00     0.050 C 
ENDROOT
BRANCH   2   8
ATOM      8  N   UNL d   1      -1.489  -2.734  -3.820  0.00  0.00    -0.308 N 
ATOM      9  C   UNL d   1      -2.665  -2.039  -3.799  0.00  0.00     0.325 C 
ATOM     10  N   UNL d   1      -3.601  -2.316  -4.754  0.00  0.00    -0.303 N 
ATOM     11  O   UNL d   1      -2.952  -1.150  -2.997  0.00  0.00    -0.247 OA
ATOM     12  H   UNL d   1      -4.357  -1.642  -4.715  0.00  0.00     0.171 HD
ATOM     13  H   UNL d   1      -1.472  -3.512  -4.461  0.00  0.00     0.170 HD
BRANCH  10  14
ATOM     14  C   UNL d   1      -3.750  -3.329  -5.676  0.00  0.00     0.077 A 
ATOM     15  S   UNL d   1      -2.766  -4.709  -5.706  0.00  0.00    -0.084 SA
ATOM     16  C   UNL d   1      -3.648  -5.403  -6.996  0.00  0.00     0.052 A 
ATOM     17  C   UNL d   1      -4.675  -4.585  -7.408  0.00  0.00     0.010 A 
ATOM     18  C   UNL d   1      -4.739  -3.389  -6.636  0.00  0.00     0.038 A 
ENDBRANCH  10  14
ENDBRANCH   2   8
BRANCH   1  19
ATOM     19  S   UNL d   1       1.034   0.095  -0.240  0.00  0.00     0.260 S 
ATOM     20  O   UNL d   1       0.666   1.194  -1.114  0.00  0.00    -0.200 OA
ATOM     21  O   UNL d   1       2.362   0.031   0.335  0.00  0.00    -0.200 OA
BRANCH  19  22
ATOM     22  N   UNL d   1      -0.087   0.020   1.031  0.00  0.00    -0.315 N 
ATOM     23  C   UNL d   1      -1.511   0.166   0.690  0.00  0.00     0.162 C 
ATOM     24  C   UNL d   1       0.170  -0.948   2.104  0.00  0.00     0.162 C 
ENDBRANCH  19  22
ENDBRANCH   1  19
TORSDOF 4
