REMARK  6 active torsions:
REMARK  status: ('A' for Active; 'I' for Inactive)
REMARK    1  A    between atoms: C_10  and  C_2 
REMARK    2  A    between atoms: N_3  and  C_8 
REMARK    3  A    between atoms: C_15  and  C_14 
REMARK    4  A    between atoms: C_16  and  C_15 
REMARK    5  A    between atoms: C_17  and  C_16 
REMARK    6  A    between atoms: N_18  and  C_17 
ROOT
ATOM      1  C   UNL d   1      -1.114   0.655  -0.047  0.00  0.00    -0.012 A 
ATOM      2  C   UNL d   1       0.077   1.557  -0.046  0.00  0.00    -0.014 A 
ATOM      3  C   UNL d   1      -0.608  -0.668  -0.052  0.00  0.00    -0.014 A 
ATOM      4  C   UNL d   1       1.305   0.697  -0.061  0.00  0.00    -0.014 A 
ATOM      5  C   UNL d   1       0.846  -0.641  -0.067  0.00  0.00    -0.014 A 
ATOM      6  C   UNL d   1      -2.481   0.892  -0.088  0.00  0.00     0.049 A 
ATOM      7  C   UNL d   1      -3.338  -0.223  -0.109  0.00  0.00     0.103 A 
ATOM      8  C   UNL d   1      -1.459  -1.765  -0.055  0.00  0.00     0.015 A 
ATOM      9  C   UNL d   1      -2.836  -1.541  -0.082  0.00  0.00     0.037 A 
ATOM     10  C   UNL d   1       2.668   0.957  -0.027  0.00  0.00     0.013 A 
ATOM     11  C   UNL d   1       1.738  -1.707  -0.081  0.00  0.00     0.013 A 
ATOM     12  C   UNL d   1       3.107  -1.437  -0.086  0.00  0.00     0.001 A 
ATOM     13  C   UNL d   1       3.567  -0.116  -0.055  0.00  0.00     0.001 A 
ENDROOT
BRANCH   2  14
ATOM     14  C   UNL d   1      -0.016   2.902  -0.012  0.00  0.00     0.013 C 
ATOM     15  C   UNL d   1       1.091   3.825  -0.142  0.00  0.00     0.001 C 
BRANCH  15  16
ATOM     16  C   UNL d   1       1.168   5.066   0.362  0.00  0.00     0.001 C 
BRANCH  16  17
ATOM     17  C   UNL d   1       2.388   5.838   0.194  0.00  0.00     0.017 C 
BRANCH  17  18
ATOM     18  C   UNL d   1       2.615   7.068   0.675  0.00  0.00     0.084 C 
BRANCH  18  19
ATOM     19  N   UNL d   1       3.768   7.840   0.580  0.00  0.00    -0.398 N 
ATOM     20  C   UNL d   1       5.004   7.413  -0.077  0.00  0.00     0.148 C 
ATOM     21  C   UNL d   1       3.846   9.186   1.149  0.00  0.00     0.148 C 
ENDBRANCH  18  19
ENDBRANCH  17  18
ENDBRANCH  16  17
ENDBRANCH  15  16
ENDBRANCH   2  14
BRANCH   7  22
ATOM     22  N   UNL d   1      -4.792  -0.021  -0.173  0.00  0.00    -0.116 N 
ATOM     23  O   UNL d   1      -5.209   1.145  -0.220  0.00  0.00    -0.532 OA
ATOM     24  O   UNL d   1      -5.515  -1.028  -0.186  0.00  0.00    -0.532 OA
ENDBRANCH   7  22
TORSDOF 6
