REMARK  3 active torsions:
REMARK  status: ('A' for Active; 'I' for Inactive)
REMARK       I    between atoms: N_3  and  C_1 
REMARK    1  A    between atoms: C_6  and  C_1 
REMARK    2  A    between atoms: C_2  and  C_7 
REMARK    3  A    between atoms: C_4  and  N_5 
ROOT
ATOM      1  C   UNL d   1       0.881   0.105   0.031  0.00  0.00     0.253 C 
ATOM      2  N   UNL d   1       0.337   0.205   1.312  0.00  0.00    -0.345 N 
ATOM      3  N   UNL d   1      -0.415   0.311   4.074  0.00  0.00    -0.375 N 
ATOM      4  C   UNL d   1       0.786   1.315   2.173  0.00  0.00     0.146 C 
ATOM      5  C   UNL d   1      -0.844  -0.524   1.798  0.00  0.00     0.146 C 
ATOM      6  C   UNL d   1       0.872   0.906   3.659  0.00  0.00     0.143 C 
ATOM      7  C   UNL d   1      -0.776  -0.877   3.292  0.00  0.00     0.143 C 
ATOM      8  O   UNL d   1       1.856   0.757  -0.335  0.00  0.00    -0.267 OA
ENDROOT
BRANCH   1   9
ATOM      9  C   UNL d   1       0.312  -0.863  -0.943  0.00  0.00     0.033 A 
ATOM     10  C   UNL d   1       1.189  -1.735  -1.602  0.00  0.00     0.033 A 
ATOM     11  C   UNL d   1       0.701  -2.676  -2.523  0.00  0.00     0.048 A 
ATOM     12  C   UNL d   1      -0.685  -2.733  -2.763  0.00  0.00     0.016 A 
ATOM     13  C   UNL d   1      -1.553  -1.840  -2.136  0.00  0.00     0.002 A 
ATOM     14  C   UNL d   1      -1.052  -0.886  -1.250  0.00  0.00     0.017 A 
BRANCH  11  15
ATOM     15  C   UNL d   1       1.628  -3.607  -3.263  0.00  0.00     0.417 C 
ATOM     16  F   UNL d   1       2.943  -3.414  -2.975  0.00  0.00    -0.166 F 
ATOM     17  F   UNL d   1       1.372  -4.916  -2.989  0.00  0.00    -0.166 F 
ATOM     18  F   UNL d   1       1.518  -3.483  -4.616  0.00  0.00    -0.166 F 
ENDBRANCH  11  15
ENDBRANCH   1   9
BRANCH   3  19
ATOM     19  C   UNL d   1      -0.966   0.576   5.327  0.00  0.00     0.077 A 
ATOM     20  C   UNL d   1      -1.314  -0.425   6.269  0.00  0.00     0.077 A 
ATOM     21 CL   UNL d   1      -0.920  -2.105   6.103  0.00  0.00    -0.080 Cl
ATOM     22  C   UNL d   1      -1.967  -0.075   7.454  0.00  0.00     0.113 A 
ATOM     23  N   UNL d   1      -2.277   1.186   7.815  0.00  0.00    -0.372 N 
ATOM     24  C   UNL d   1      -1.917   2.145   6.938  0.00  0.00     0.113 A 
ATOM     25  HN  UNL d   1      -2.752   1.401   8.692  1.00  0.00     0.164 HD
ATOM     26  C   UNL d   1      -1.289   1.901   5.716  0.00  0.00     0.077 A 
ATOM     27 CL   UNL d   1      -1.051   3.281   4.693  0.00  0.00    -0.080 Cl
ENDBRANCH   3  19
TORSDOF 3
