REMARK  3 active torsions:
REMARK  status: ('A' for Active; 'I' for Inactive)
REMARK    1  A    between atoms: C_14  and  C_4 
REMARK    2  A    between atoms: C_13  and  C_10 
REMARK    3  A    between atoms: C_22  and  C_15 
ROOT
ATOM      1  N   UNL d   1      -0.002  -0.699  -1.365  0.00  0.00    -0.214 N 
ATOM      2  N   UNL d   1       1.039  -1.542  -1.067  0.00  0.00    -0.293 N 
ATOM      3  HN  UNL d   1       1.365  -2.241  -1.736  1.00  0.00     0.187 HD
ATOM      4  C   UNL d   1      -0.543  -0.453  -2.620  0.00  0.00     0.154 A 
ATOM      5  C   UNL d   1      -0.772   0.049  -0.508  0.00  0.00     0.182 A 
ATOM      6  N   UNL d   1      -1.543   0.409  -2.489  0.00  0.00    -0.281 N 
ATOM      7  HN  UNL d   1      -2.105   0.788  -3.252  1.00  0.00     0.188 HD
ATOM      8  N   UNL d   1      -1.698   0.708  -1.154  0.00  0.00    -0.277 N 
ATOM      9  HN  UNL d   1      -2.401   1.325  -0.747  1.00  0.00     0.189 HD
ATOM     10  C   UNL d   1       1.593  -1.414   0.104  0.00  0.00     0.046 C 
ATOM     11  S   UNL d   1      -0.479   0.037   1.187  0.00  0.00    -0.085 SA
ATOM     12  C   UNL d   1       1.292  -0.306   1.106  0.00  0.00     0.142 C 
ENDROOT
BRANCH  10  13
ATOM     13  C   UNL d   1       2.661  -2.393   0.470  0.00  0.00    -0.011 A 
ATOM     14  C   UNL d   1       3.732  -2.040   1.292  0.00  0.00     0.014 A 
ATOM     15  C   UNL d   1       4.696  -2.996   1.635  0.00  0.00     0.013 A 
ATOM     16  C   UNL d   1       4.620  -4.326   1.178  0.00  0.00    -0.026 A 
ATOM     17  C   UNL d   1       3.543  -4.650   0.335  0.00  0.00     0.013 A 
ATOM     18  C   UNL d   1       2.582  -3.698  -0.025  0.00  0.00     0.014 A 
BRANCH  16  19
ATOM     19  C   UNL d   1       5.637  -5.332   1.569  0.00  0.00    -0.026 A 
ATOM     20  C   UNL d   1       6.022  -6.369   0.698  0.00  0.00     0.012 A 
ATOM     21  C   UNL d   1       6.992  -7.309   1.063  0.00  0.00     0.001 A 
ATOM     22  C   UNL d   1       7.609  -7.228   2.307  0.00  0.00     0.000 A 
ATOM     23  C   UNL d   1       7.247  -6.217   3.190  0.00  0.00     0.001 A 
ATOM     24  C   UNL d   1       6.267  -5.288   2.827  0.00  0.00     0.012 A 
ENDBRANCH  16  19
ENDBRANCH  10  13
BRANCH   4  25
ATOM     25  C   UNL d   1      -0.048  -0.982  -3.897  0.00  0.00     0.014 A 
ATOM     26  C   UNL d   1       0.611  -2.207  -4.006  0.00  0.00     0.032 A 
ATOM     27  C   UNL d   1       1.068  -2.612  -5.250  0.00  0.00     0.088 A 
ATOM     28  N   UNL d   1       0.906  -1.893  -6.379  0.00  0.00    -0.375 N 
ATOM     29  C   UNL d   1       0.249  -0.722  -6.261  0.00  0.00     0.088 A 
ATOM     30  HN  UNL d   1       1.264  -2.219  -7.277  1.00  0.00     0.164 HD
ATOM     31  C   UNL d   1      -0.242  -0.233  -5.062  0.00  0.00     0.032 A 
ENDBRANCH   4  25
TORSDOF 3
