REMARK  5 active torsions:
REMARK  status: ('A' for Active; 'I' for Inactive)
REMARK    1  A    between atoms: C_2  and  C_1 
REMARK    2  A    between atoms: O_3  and  C_1 
REMARK    3  A    between atoms: O_10  and  C_2 
REMARK    4  A    between atoms: C_9  and  O_3 
REMARK    5  A    between atoms: C_4  and  C_5 
ROOT
ATOM      1  C   UNL d   1       1.547   1.046   5.002  0.00  0.00    -0.050 A 
ATOM      2  C   UNL d   1       2.488   0.857   3.980  0.00  0.00     0.011 A 
ATOM      3  C   UNL d   1       0.207   1.218   4.612  0.00  0.00     0.011 A 
ATOM      4  C   UNL d   1       0.779   1.093   2.267  0.00  0.00     0.070 A 
ATOM      5  C   UNL d   1      -0.175   1.238   3.265  0.00  0.00     0.037 A 
ATOM      6  C   UNL d   1       2.105   0.871   2.632  0.00  0.00     0.037 A 
ENDROOT
BRANCH   4   7
ATOM      7  O   UNL d   1       0.561   1.163   0.921  0.00  0.00    -0.330 OA
BRANCH   7   8
ATOM      8  C   UNL d   1      -0.539   1.914   0.393  0.00  0.00     0.145 C 
ATOM      9  C   UNL d   1      -0.129   2.241  -1.056  0.00  0.00     0.058 C 
ATOM     10  C   UNL d   1      -1.804   1.046   0.317  0.00  0.00     0.058 C 
BRANCH   8  11
ATOM     11  C   UNL d   1      -0.811   3.281   1.064  0.00  0.00     0.175 C 
ATOM     12  O   UNL d   1      -1.923   3.716   1.337  0.00  0.00    -0.648 OA
BRANCH  11  13
ATOM     13  O   UNL d   1       0.318   3.991   1.320  0.00  0.00    -0.774 OA
ATOM     14  H   UNL d   1       1.125   3.469   1.132  0.00  0.00     0.167 HD
ENDBRANCH  11  13
ENDBRANCH   8  11
ENDBRANCH   7   8
ENDBRANCH   4   7
BRANCH   1  15
ATOM     15  C   UNL d   1       1.923   1.077   6.494  0.00  0.00    -0.024 C 
ATOM     16  C   UNL d   1       3.428   0.858   6.761  0.00  0.00     0.019 C 
ATOM     17  C   UNL d   1       1.548   2.452   7.091  0.00  0.00     0.019 C 
ATOM     18  C   UNL d   1       1.156  -0.028   7.252  0.00  0.00     0.019 C 
ENDBRANCH   1  15
TORSDOF 5
