REMARK  0 active torsions:
REMARK  status: ('A' for Active; 'I' for Inactive)
ROOT
ATOM      1  C   UNL d   1      -1.593  -1.249  -0.044  0.00  0.00     0.042 A 
ATOM      2  C   UNL d   1      -2.388  -0.115  -0.073  0.00  0.00     0.105 A 
ATOM      3  C   UNL d   1      -2.084  -2.608  -0.056  0.00  0.00     0.150 A 
ATOM      4  C   UNL d   1      -0.233  -0.789  -0.009  0.00  0.00     0.006 A 
ATOM      5  N   UNL d   1      -1.579   0.988  -0.052  0.00  0.00    -0.364 N 
ATOM      6  N   UNL d   1      -1.313  -3.645   0.016  0.00  0.00    -0.368 N 
ATOM      7  HN  UNL d   1      -0.297  -3.667   0.101  1.00  0.00     0.161 HD
ATOM      8  C   UNL d   1      -0.259   0.608  -0.021  0.00  0.00     0.043 A 
ATOM      9  O   UNL d   1      -3.429  -2.777  -0.151  0.00  0.00    -0.334 OA
ATOM     10  C   UNL d   1      -2.237  -4.778  -0.053  0.00  0.00     0.148 A 
ATOM     11  C   UNL d   1       1.024  -1.429   0.025  0.00  0.00     0.015 A 
ATOM     12  C   UNL d   1      -3.625  -4.180  -0.103  0.00  0.00     0.197 A 
ATOM     13  C   UNL d   1       0.903   1.390  -0.004  0.00  0.00     0.030 A 
ATOM     14  C   UNL d   1       2.196  -0.664   0.039  0.00  0.00     0.001 A 
ATOM     15  C   UNL d   1       2.133   0.726   0.024  0.00  0.00     0.002 A 
ATOM     16  H   UNL d   1      -1.898   1.947  -0.064  0.00  0.00     0.165 HD
ENDROOT
TORSDOF 0
