REMARK  4 active torsions:
REMARK  status: ('A' for Active; 'I' for Inactive)
REMARK    1  A    between atoms: C_8  and  N_1 
REMARK    2  A    between atoms: C_6  and  C_9 
REMARK    3  A    between atoms: O_14  and  C_6 
REMARK    4  A    between atoms: C_13  and  C_8 
ROOT
ATOM      1  C   UNL d   1       2.130  -2.409   0.007  0.00  0.00     0.168 C 
ENDROOT
BRANCH   1   2
ATOM      2  N   UNL d   1       1.607  -1.053  -0.013  0.00  0.00    -0.337 N 
ATOM      3  C   UNL d   1       1.324  -0.338  -1.145  0.00  0.00     0.184 A 
ATOM      4  N   UNL d   1       0.899   0.872  -0.864  0.00  0.00    -0.350 N 
ATOM      5  C   UNL d   1       0.890   0.940   0.507  0.00  0.00     0.060 A 
ATOM      6  HN  UNL d   1       0.632   1.603  -1.523  1.00  0.00     0.166 HD
ATOM      7  C   UNL d   1       1.311  -0.263   1.073  0.00  0.00     0.062 A 
ATOM      8  C   UNL d   1       0.528   2.007   1.343  0.00  0.00     0.032 A 
ATOM      9  C   UNL d   1       1.374  -0.461   2.458  0.00  0.00     0.032 A 
ATOM     10  C   UNL d   1       1.007   0.615   3.275  0.00  0.00     0.002 A 
ATOM     11  C   UNL d   1       0.594   1.831   2.730  0.00  0.00     0.002 A 
ENDBRANCH   1   2
BRANCH   1  12
ATOM     12  C   UNL d   1       3.640  -2.400  -0.002  0.00  0.00    -0.040 A 
ATOM     13  C   UNL d   1       4.362  -2.361   1.202  0.00  0.00     0.010 A 
ATOM     14  C   UNL d   1       5.756  -2.259   1.195  0.00  0.00     0.019 A 
ATOM     15  C   UNL d   1       6.443  -2.179  -0.021  0.00  0.00     0.037 A 
ATOM     16  C   UNL d   1       5.737  -2.269  -1.225  0.00  0.00     0.019 A 
ATOM     17  C   UNL d   1       4.344  -2.375  -1.215  0.00  0.00     0.010 A 
BRANCH  15  18
ATOM     18  C   UNL d   1       7.918  -2.024  -0.082  0.00  0.00     0.176 C 
ATOM     19  O   UNL d   1       8.597  -2.499  -0.972  0.00  0.00    -0.646 OA
BRANCH  18  20
ATOM     20  O   UNL d   1       8.423  -1.264   0.914  0.00  0.00    -0.773 OA
ATOM     21  H   UNL d   1       7.760  -0.776   1.435  0.00  0.00     0.167 HD
ENDBRANCH  18  20
ENDBRANCH  15  18
ENDBRANCH   1  12
TORSDOF 4
