REMARK  8 active torsions:
REMARK  status: ('A' for Active; 'I' for Inactive)
REMARK    1  A    between atoms: C_6  and  N_1 
REMARK    2  A    between atoms: N_3  and  C_5 
REMARK    3  A    between atoms: C_9  and  C_4 
REMARK    4  A    between atoms: C_5  and  C_8 
REMARK    5  A    between atoms: O_7  and  C_10 
REMARK    6  A    between atoms: C_12  and  O_7 
REMARK    7  A    between atoms: C_8  and  C_12 
REMARK    8  A    between atoms: O_22  and  C_8 
ROOT
ATOM      1  C   UNL d   1       2.390   0.802   0.665  0.00  0.00     0.032 A 
ATOM      2  C   UNL d   1       5.191   0.527   0.603  0.00  0.00     0.069 A 
ATOM      3  C   UNL d   1       2.988  -0.448   0.858  0.00  0.00     0.032 A 
ATOM      4  C   UNL d   1       3.215   1.908   0.457  0.00  0.00     0.032 A 
ATOM      5  C   UNL d   1       4.602   1.777   0.423  0.00  0.00     0.039 A 
ATOM      6  C   UNL d   1       4.380  -0.582   0.835  0.00  0.00     0.039 A 
ENDROOT
BRANCH   2   7
ATOM      7  O   UNL d   1       6.545   0.269   0.543  0.00  0.00    -0.349 OA
BRANCH   7   8
ATOM      8  C   UNL d   1       7.350   1.394   0.187  0.00  0.00     0.209 C 
BRANCH   8   9
ATOM      9  C   UNL d   1       8.840   1.054   0.187  0.00  0.00     0.170 C 
BRANCH   9  10
ATOM     10  C   UNL d   1       9.218  -0.033  -0.853  0.00  0.00     0.306 C 
BRANCH  10  11
ATOM     11  N   UNL d   1      10.687  -0.209  -0.974  0.00  0.00     0.091 N 
ATOM     12  C   UNL d   1      11.265  -0.786   0.255  0.00  0.00     0.272 C 
ATOM     13  C   UNL d   1      12.788  -0.881   0.161  0.00  0.00     0.030 C 
ATOM     14  C   UNL d   1      13.222  -1.687  -1.055  0.00  0.00     0.003 C 
ATOM     15  C   UNL d   1      12.541  -1.161  -2.313  0.00  0.00     0.030 C 
ATOM     16  C   UNL d   1      11.023  -1.054  -2.133  0.00  0.00     0.272 C 
ENDBRANCH  10  11
ENDBRANCH   9  10
BRANCH   9  17
ATOM     17  O   UNL d   1       9.544   2.279  -0.079  0.00  0.00    -0.392 OA
ATOM     18  H   UNL d   1       9.999   2.160  -0.933  0.00  0.00     0.210 HD
ENDBRANCH   9  17
ENDBRANCH   8   9
ENDBRANCH   7   8
ENDBRANCH   2   7
BRANCH   1  19
ATOM     19  N   UNL d   1       1.013   1.010   0.545  0.00  0.00    -0.365 N 
ATOM     20  C   UNL d   1       0.185   0.401   1.335  0.00  0.00     0.099 C 
ATOM     21  HN  UNL d   1       0.657   1.645  -0.169  1.00  0.00     0.165 HD
BRANCH  20  22
ATOM     22  C   UNL d   1      -1.269   0.606   1.183  0.00  0.00    -0.021 A 
ATOM     23  C   UNL d   1      -1.760   1.596   0.321  0.00  0.00     0.014 A 
ATOM     24  C   UNL d   1      -3.136   1.763   0.163  0.00  0.00     0.024 A 
ATOM     25  C   UNL d   1      -4.016   0.936   0.860  0.00  0.00     0.034 A 
ATOM     26  C   UNL d   1      -3.530  -0.048   1.724  0.00  0.00     0.024 A 
ATOM     27 CL   UNL d   1      -5.712   1.125   0.650  0.00  0.00    -0.084 Cl
ATOM     28  C   UNL d   1      -2.151  -0.213   1.891  0.00  0.00     0.014 A 
ENDBRANCH  20  22
ENDBRANCH   1  19
TORSDOF 8
