REMARK  3 active torsions:
REMARK  status: ('A' for Active; 'I' for Inactive)
REMARK    1  A    between atoms: N_2  and  S_1 
REMARK    2  A    between atoms: C_6  and  S_1 
REMARK    3  A    between atoms: C_5  and  N_2 
ROOT
ATOM      1  N   UNL d   1       0.512  -0.240   1.611  0.00  0.00    -0.166 NA
ATOM      2  H   UNL d   1      -0.438   0.121   1.656  0.00  0.00     0.147 HD
ENDROOT
BRANCH   1   3
ATOM      3  S   UNL d   1       1.024  -0.131   0.010  0.00  0.00     0.247 S 
ATOM      4  O   UNL d   1      -0.112   0.434  -0.691  0.00  0.00    -0.205 OA
ATOM      5  O   UNL d   1       1.646  -1.355  -0.442  0.00  0.00    -0.205 OA
BRANCH   3   6
ATOM      6  C   UNL d   1       2.279   1.125   0.092  0.00  0.00     0.074 A 
ATOM      7  C   UNL d   1       3.392   0.932   0.912  0.00  0.00     0.025 A 
ATOM      8  C   UNL d   1       4.389   1.909   0.960  0.00  0.00     0.008 A 
ATOM      9  C   UNL d   1       4.284   3.075   0.188  0.00  0.00    -0.062 A 
ATOM     10  C   UNL d   1       3.157   3.260  -0.625  0.00  0.00     0.008 A 
ATOM     11  C   UNL d   1       5.383   4.098   0.226  0.00  0.00     0.048 C 
ATOM     12  C   UNL d   1       2.154   2.289  -0.673  0.00  0.00     0.025 A 
ENDBRANCH   3   6
ENDBRANCH   1   3
BRANCH   1  13
ATOM     13  C   UNL d   1       0.661  -1.510   2.209  0.00  0.00     0.094 A 
ATOM     14  N   UNL d   1       1.839  -1.708   2.825  0.00  0.00    -0.346 N 
ATOM     15  C   UNL d   1       2.012  -2.876   3.472  0.00  0.00     0.043 A 
ATOM     16  HN  UNL d   1       2.573  -1.001   2.803  1.00  0.00     0.167 HD
ATOM     17  C   UNL d   1       3.205  -3.117   4.143  0.00  0.00     0.030 A 
ATOM     18  C   UNL d   1       1.015  -3.876   3.516  0.00  0.00    -0.009 A 
ATOM     19  C   UNL d   1       3.419  -4.294   4.867  0.00  0.00     0.002 A 
ATOM     20  C   UNL d   1       2.425  -5.265   4.923  0.00  0.00     0.001 A 
ATOM     21  C   UNL d   1       1.227  -5.061   4.243  0.00  0.00     0.013 A 
ATOM     22  C   UNL d   1      -0.179  -3.644   2.824  0.00  0.00     0.017 A 
ATOM     23  C   UNL d   1      -0.361  -2.442   2.151  0.00  0.00     0.044 A 
ENDBRANCH   1  13
TORSDOF 3
