REMARK  3 active torsions:
REMARK  status: ('A' for Active; 'I' for Inactive)
REMARK    1  A    between atoms: N_11  and  C_7 
REMARK    2  A    between atoms: C_14  and  N_11 
REMARK    3  A    between atoms: O_20  and  C_15 
ROOT
ATOM      1  N   UNL d   1       1.050   0.974  -0.027  0.00  0.00    -0.270 N 
ATOM      2  N   UNL d   1      -1.250   0.431   0.042  0.00  0.00    -0.270 N 
ATOM      3  C   UNL d   1      -0.266   1.410   0.013  0.00  0.00     0.333 A 
ATOM      4  C   UNL d   1       0.383  -1.346   0.106  0.00  0.00     0.116 A 
ATOM      5  C   UNL d   1      -1.031  -0.936   0.031  0.00  0.00     0.268 A 
ATOM      6  C   UNL d   1       1.462  -0.345   0.022  0.00  0.00     0.268 A 
ATOM      7  C   UNL d   1       0.674  -2.648   0.294  0.00  0.00     0.111 C 
ATOM      8  O   UNL d   1      -0.547   2.611   0.022  0.00  0.00    -0.246 OA
ATOM      9  O   UNL d   1       2.649  -0.676   0.010  0.00  0.00    -0.267 OA
ATOM     10  O   UNL d   1      -1.939  -1.764  -0.024  0.00  0.00    -0.267 OA
ATOM     11  C   UNL d   1      -2.642   0.854   0.060  0.00  0.00     0.164 C 
ATOM     12  C   UNL d   1       2.112   1.966  -0.076  0.00  0.00     0.164 C 
ENDROOT
BRANCH   7  13
ATOM     13  N   UNL d   1       1.921  -3.211   0.436  0.00  0.00    -0.365 N 
ATOM     14  H   UNL d   1       2.697  -2.547   0.360  0.00  0.00     0.165 HD
BRANCH  13  15
ATOM     15  C   UNL d   1       2.296  -4.538   0.688  0.00  0.00     0.032 A 
ATOM     16  C   UNL d   1       1.403  -5.613   0.695  0.00  0.00     0.032 A 
ATOM     17  C   UNL d   1       1.838  -6.916   0.980  0.00  0.00     0.039 A 
ATOM     18  C   UNL d   1       3.177  -7.163   1.278  0.00  0.00     0.068 A 
ATOM     19  C   UNL d   1       4.074  -6.098   1.282  0.00  0.00     0.039 A 
ATOM     20  C   UNL d   1       3.639  -4.803   0.991  0.00  0.00     0.032 A 
BRANCH  18  21
ATOM     21  O   UNL d   1       3.726  -8.378   1.581  0.00  0.00    -0.356 OA
ATOM     22  C   UNL d   1       2.849  -9.497   1.567  0.00  0.00     0.210 C 
ENDBRANCH  18  21
ENDBRANCH  13  15
ENDBRANCH   7  13
TORSDOF 3
