REMARK  6 active torsions:
REMARK  status: ('A' for Active; 'I' for Inactive)
REMARK    1  A    between atoms: N_3  and  S_1 
REMARK    2  A    between atoms: C_8  and  S_1 
REMARK    3  A    between atoms: C_2  and  C_5 
REMARK    4  A    between atoms: C_5  and  N_3 
REMARK    5  A    between atoms: O_9  and  C_4 
REMARK    6  A    between atoms: C_11  and  O_9 
ROOT
ATOM      1  C   UNL d   1       0.624  -0.609  -3.969  0.00  0.00     0.016 A 
ATOM      2  C   UNL d   1       0.765  -2.009  -4.085  0.00  0.00     0.085 A 
ATOM      3  C   UNL d   1      -0.033   0.070  -5.013  0.00  0.00     0.044 A 
ATOM      4 CL   UNL d   1      -0.391   1.761  -4.938  0.00  0.00    -0.084 Cl
ATOM      5  C   UNL d   1       0.420  -2.658  -5.282  0.00  0.00     0.038 A 
ATOM      6  C   UNL d   1      -0.193  -1.960  -6.317  0.00  0.00     0.004 A 
ATOM      7  C   UNL d   1      -0.450  -0.604  -6.167  0.00  0.00     0.024 A 
ENDROOT
BRANCH   1   8
ATOM      8  C   UNL d   1       1.229   0.136  -2.806  0.00  0.00     0.175 C 
BRANCH   8   9
ATOM      9  N   UNL d   1       2.687   0.178  -2.767  0.00  0.00    -0.311 N 
ATOM     10  H   UNL d   1       3.154   0.106  -1.868  0.00  0.00     0.172 HD
BRANCH   9  11
ATOM     11  S   UNL d   1       3.672   0.633  -4.032  0.00  0.00     0.259 S 
ATOM     12  O   UNL d   1       3.231   0.001  -5.253  0.00  0.00    -0.201 OA
ATOM     13  O   UNL d   1       5.025   0.446  -3.547  0.00  0.00    -0.201 OA
BRANCH  11  14
ATOM     14  C   UNL d   1       3.438   2.387  -4.190  0.00  0.00     0.079 A 
ATOM     15  C   UNL d   1       3.891   3.225  -3.164  0.00  0.00     0.025 A 
ATOM     16  C   UNL d   1       3.853   4.609  -3.335  0.00  0.00     0.002 A 
ATOM     17  C   UNL d   1       3.376   5.154  -4.528  0.00  0.00     0.000 A 
ATOM     18  C   UNL d   1       2.924   4.316  -5.550  0.00  0.00     0.002 A 
ATOM     19  C   UNL d   1       2.958   2.929  -5.386  0.00  0.00     0.025 A 
ENDBRANCH  11  14
ENDBRANCH   9  11
ENDBRANCH   8   9
ENDBRANCH   1   8
BRANCH   2  20
ATOM     20  O   UNL d   1       1.264  -2.719  -2.999  0.00  0.00    -0.310 OA
BRANCH  20  21
ATOM     21  C   UNL d   1       0.861  -4.036  -2.871  0.00  0.00     0.076 A 
ATOM     22  C   UNL d   1       1.852  -5.005  -2.724  0.00  0.00     0.037 A 
ATOM     23  C   UNL d   1       1.502  -6.358  -2.727  0.00  0.00     0.003 A 
ATOM     24  C   UNL d   1       0.166  -6.739  -2.867  0.00  0.00     0.000 A 
ATOM     25  C   UNL d   1      -0.830  -5.767  -2.951  0.00  0.00     0.003 A 
ATOM     26  C   UNL d   1      -0.487  -4.414  -2.925  0.00  0.00     0.037 A 
ENDBRANCH  20  21
ENDBRANCH   2  20
TORSDOF 6
