REMARK  5 active torsions:
REMARK  status: ('A' for Active; 'I' for Inactive)
REMARK       I    between atoms: C_4  and  N_1 
REMARK    1  A    between atoms: C_6  and  C_2 
REMARK    2  A    between atoms: O_8  and  C_4 
REMARK    3  A    between atoms: O_12  and  C_6 
REMARK    4  A    between atoms: C_13  and  O_8 
REMARK    5  A    between atoms: C_14  and  C_13 
ROOT
ATOM      1  N   UNL d   1       0.328  -1.165  -0.203  0.00  0.00    -0.229 N 
ATOM      2  C   UNL d   1      -0.247   0.178  -0.238  0.00  0.00     0.215 C 
ATOM      3  C   UNL d   1       1.697  -1.087  -0.517  0.00  0.00     0.327 C 
ATOM      4  C   UNL d   1      -0.429  -2.308  -0.331  0.00  0.00     0.372 C 
ATOM      5  N   UNL d   1       2.051   0.255  -0.568  0.00  0.00    -0.340 N 
ATOM      6  C   UNL d   1       0.989   1.061  -0.050  0.00  0.00     0.161 C 
ATOM      7  O   UNL d   1       2.506  -1.983  -0.690  0.00  0.00    -0.247 OA
ATOM      8  O   UNL d   1      -1.657  -2.262  -0.379  0.00  0.00    -0.238 OA
ATOM      9  H   UNL d   1       3.035   0.501  -0.579  0.00  0.00     0.164 HD
ENDROOT
BRANCH   2  10
ATOM     10  C   UNL d   1      -1.293   0.612   0.785  0.00  0.00     0.166 C 
ATOM     11  O   UNL d   1      -1.406   1.778   1.150  0.00  0.00    -0.648 OA
BRANCH  10  12
ATOM     12  O   UNL d   1      -2.195  -0.312   1.167  0.00  0.00    -0.775 OA
ATOM     13  H   UNL d   1      -2.182  -1.161   0.664  0.00  0.00     0.167 HD
ENDBRANCH  10  12
ENDBRANCH   2  10
BRANCH   4  14
ATOM     14  O   UNL d   1       0.305  -3.442  -0.335  0.00  0.00    -0.299 OA
BRANCH  14  15
ATOM     15  C   UNL d   1      -0.400  -4.690  -0.304  0.00  0.00     0.219 C 
BRANCH  15  16
ATOM     16  C   UNL d   1      -0.564  -5.191   1.112  0.00  0.00    -0.034 A 
ATOM     17  C   UNL d   1      -1.670  -5.986   1.448  0.00  0.00     0.009 A 
ATOM     18  C   UNL d   1      -1.811  -6.500   2.738  0.00  0.00     0.001 A 
ATOM     19  C   UNL d   1      -0.848  -6.229   3.708  0.00  0.00     0.000 A 
ATOM     20  C   UNL d   1       0.261  -5.451   3.386  0.00  0.00     0.001 A 
ATOM     21  C   UNL d   1       0.408  -4.941   2.094  0.00  0.00     0.009 A 
ENDBRANCH  15  16
ENDBRANCH  14  15
ENDBRANCH   4  14
TORSDOF 5
