REMARK  5 active torsions:
REMARK  status: ('A' for Active; 'I' for Inactive)
REMARK    1  A    between atoms: C_2  and  C_1 
REMARK       I    between atoms: N_6  and  C_1 
REMARK       I    between atoms: N_3  and  C_2 
REMARK    2  A    between atoms: C_8  and  N_3 
REMARK    3  A    between atoms: N_4  and  N_6 
REMARK    4  A    between atoms: C_13  and  C_11 
REMARK    5  A    between atoms: S_15  and  C_12 
ROOT
ATOM      1  C   UNL d   1       0.857  -0.222  -0.712  0.00  0.00     0.328 C 
ATOM      2  N   UNL d   1       2.078  -0.140  -1.358  0.00  0.00    -0.262 N 
ATOM      3  O   UNL d   1       0.005  -1.100  -0.765  0.00  0.00    -0.261 OA
ATOM      4  H   UNL d   1       2.668   0.657  -1.117  0.00  0.00     0.190 HD
ENDROOT
BRANCH   1   5
ATOM      5  C   UNL d   1       0.646   0.988   0.215  0.00  0.00     0.315 C 
ATOM      6  N   UNL d   1      -0.471   0.888   1.025  0.00  0.00    -0.319 N 
ATOM      7  H   UNL d   1      -0.977   0.010   0.949  0.00  0.00     0.169 HD
ATOM      8  O   UNL d   1       1.505   1.865   0.199  0.00  0.00    -0.262 OA
BRANCH   6   9
ATOM      9  C   UNL d   1      -0.822   1.781   2.062  0.00  0.00     0.036 A 
ATOM     10  C   UNL d   1      -0.256   3.054   2.175  0.00  0.00     0.048 A 
ATOM     11  C   UNL d   1      -0.504   3.869   3.284  0.00  0.00     0.002 A 
ATOM     12  C   UNL d   1      -1.391   3.412   4.263  0.00  0.00     0.018 A 
ATOM     13  C   UNL d   1      -2.021   2.172   4.128  0.00  0.00     0.004 A 
ATOM     14  C   UNL d   1      -1.739   1.359   3.026  0.00  0.00     0.029 A 
BRANCH  11  15
ATOM     15  S   UNL d   1       0.270   5.465   3.539  0.00  0.00    -0.134 SA
ATOM     16  C   UNL d   1       1.535   5.517   2.234  0.00  0.00     0.095 C 
ENDBRANCH  11  15
ENDBRANCH   6   9
ENDBRANCH   1   5
BRANCH   2  17
ATOM     17  N   UNL d   1       2.575  -1.163  -2.111  0.00  0.00    -0.308 N 
ATOM     18  C   UNL d   1       3.755  -0.935  -2.599  0.00  0.00     0.118 C 
ATOM     19  HN  UNL d   1       2.065  -2.031  -2.275  1.00  0.00     0.186 HD
BRANCH  18  20
ATOM     20  C   UNL d   1       4.529  -1.958  -3.331  0.00  0.00    -0.019 A 
ATOM     21  C   UNL d   1       3.975  -3.202  -3.645  0.00  0.00     0.014 A 
ATOM     22  C   UNL d   1       4.785  -4.201  -4.192  0.00  0.00     0.024 A 
ATOM     23  C   UNL d   1       6.138  -3.950  -4.424  0.00  0.00     0.034 A 
ATOM     24  C   UNL d   1       6.680  -2.693  -4.158  0.00  0.00     0.024 A 
ATOM     25 CL   UNL d   1       7.156  -5.209  -5.008  0.00  0.00    -0.084 Cl
ATOM     26  C   UNL d   1       5.872  -1.690  -3.618  0.00  0.00     0.014 A 
ENDBRANCH  18  20
ENDBRANCH   2  17
TORSDOF 5
