REMARK  3 active torsions:
REMARK  status: ('A' for Active; 'I' for Inactive)
REMARK    1  A    between atoms: N_10  and  C_3 
REMARK    2  A    between atoms: C_14  and  C_5 
REMARK    3  A    between atoms: C_8  and  C_11 
ROOT
ATOM      1  N   UNL d   1      -1.786   1.308   0.089  0.00  0.00    -0.330 N 
ATOM      2  HN  UNL d   1      -2.395   2.126   0.112  1.00  0.00     0.168 HD
ATOM      3  C   UNL d   1      -0.446   1.453   0.043  0.00  0.00     0.108 A 
ATOM      4  C   UNL d   1       0.395   0.334   0.022  0.00  0.00     0.094 A 
ATOM      5  C   UNL d   1      -2.308   0.068   0.103  0.00  0.00     0.134 A 
ATOM      6  N   UNL d   1      -1.567  -1.060   0.096  0.00  0.00    -0.343 N 
ATOM      7  HN  UNL d   1      -2.001  -1.982   0.124  1.00  0.00     0.167 HD
ATOM      8  C   UNL d   1      -0.222  -0.912   0.050  0.00  0.00     0.032 A 
ATOM      9 CL   UNL d   1       2.115   0.460  -0.144  0.00  0.00    -0.079 Cl
ATOM     10  C   UNL d   1       0.567  -2.190  -0.002  0.00  0.00     0.070 C 
ENDROOT
BRANCH   5  11
ATOM     11  C   UNL d   1      -3.788  -0.070   0.095  0.00  0.00     0.076 A 
ATOM     12  N   UNL d   1      -4.526   1.077   0.051  0.00  0.00    -0.362 N 
ATOM     13  C   UNL d   1      -5.874   0.980   0.039  0.00  0.00     0.104 A 
ATOM     14  HN  UNL d   1      -4.070   1.989   0.028  1.00  0.00     0.165 HD
ATOM     15  C   UNL d   1      -6.565  -0.219   0.073  0.00  0.00     0.063 A 
ATOM     16  C   UNL d   1      -5.809  -1.392   0.113  0.00  0.00     0.020 A 
ATOM     17  C   UNL d   1      -4.414  -1.318   0.123  0.00  0.00     0.034 A 
BRANCH  15  18
ATOM     18  C   UNL d   1      -8.061  -0.244   0.069  0.00  0.00     0.418 C 
ATOM     19  F   UNL d   1      -8.630   0.993   0.018  0.00  0.00    -0.166 F 
ATOM     20  F   UNL d   1      -8.569  -0.930  -0.992  0.00  0.00    -0.166 F 
ATOM     21  F   UNL d   1      -8.573  -0.843   1.179  0.00  0.00    -0.166 F 
ENDBRANCH  15  18
ENDBRANCH   5  11
BRANCH   3  22
ATOM     22  N   UNL d   1       0.062   2.757  -0.090  0.00  0.00    -0.268 NA
ATOM     23  C   UNL d   1      -0.907   3.732  -0.614  0.00  0.00     0.097 C 
ATOM     24  C   UNL d   1      -0.118   4.924  -1.157  0.00  0.00     0.015 C 
ATOM     25  C   UNL d   1       0.798   5.522  -0.089  0.00  0.00     0.002 C 
ATOM     26  C   UNL d   1       1.645   4.452   0.605  0.00  0.00     0.015 C 
ATOM     27  C   UNL d   1       0.787   3.273   1.078  0.00  0.00     0.097 C 
ENDBRANCH   3  22
TORSDOF 3
