REMARK  5 active torsions:
REMARK  status: ('A' for Active; 'I' for Inactive)
REMARK    1  A    between atoms: N_2  and  C_1 
REMARK    2  A    between atoms: N_3  and  C_9 
REMARK    3  A    between atoms: C_5  and  S_10 
REMARK    4  A    between atoms: S_10  and  C_8 
REMARK    5  A    between atoms: C_18  and  C_11 
ROOT
ATOM      1  C   UNL d   1       3.599   2.058  -0.514  0.00  0.00     0.149 A 
ATOM      2  N   UNL d   1       4.537   2.488   0.350  0.00  0.00    -0.336 N 
ATOM      3  HN  UNL d   1       4.309   3.137   1.103  1.00  0.00     0.168 HD
ATOM      4  C   UNL d   1       5.799   2.022   0.179  0.00  0.00     0.047 A 
ATOM      5  N   UNL d   1       3.823   1.229  -1.542  0.00  0.00    -0.346 N 
ATOM      6  HN  UNL d   1       3.081   0.957  -2.187  1.00  0.00     0.167 HD
ATOM      7  C   UNL d   1       6.108   1.135  -0.836  0.00  0.00     0.047 A 
ATOM      8  C   UNL d   1       5.080   0.776  -1.676  0.00  0.00     0.092 A 
ENDROOT
BRANCH   1   9
ATOM      9  S   UNL d   1       1.906   2.488  -0.187  0.00  0.00    -0.052 SA
BRANCH   9  10
ATOM     10  C   UNL d   1       1.777   4.099  -0.940  0.00  0.00     0.041 A 
ATOM     11  C   UNL d   1       1.264   4.354  -2.224  0.00  0.00     0.122 A 
ATOM     12  C   UNL d   1       1.166   5.655  -2.748  0.00  0.00     0.073 A 
ATOM     13  C   UNL d   1       1.563   6.734  -1.951  0.00  0.00     0.105 A 
ATOM     14  C   UNL d   1       2.049   6.514  -0.656  0.00  0.00     0.037 A 
ATOM     15  C   UNL d   1       2.156   5.207  -0.163  0.00  0.00     0.024 A 
BRANCH  11  16
ATOM     16  N   UNL d   1       0.753   3.281  -3.058  0.00  0.00    -0.114 N 
ATOM     17  O   UNL d   1       1.266   3.156  -4.178  0.00  0.00    -0.532 OA
ATOM     18  O   UNL d   1      -0.210   2.635  -2.627  0.00  0.00    -0.532 OA
ENDBRANCH  11  16
BRANCH  13  19
ATOM     19  N   UNL d   1       1.453   8.106  -2.466  0.00  0.00    -0.116 N 
ATOM     20  O   UNL d   1       1.035   8.248  -3.624  0.00  0.00    -0.532 OA
ATOM     21  O   UNL d   1       1.785   9.031  -1.715  0.00  0.00    -0.532 OA
ENDBRANCH  13  19
ENDBRANCH   9  10
ENDBRANCH   1   9
BRANCH   4  22
ATOM     22  C   UNL d   1       6.802   2.493   1.154  0.00  0.00     0.006 A 
ATOM     23  C   UNL d   1       6.441   2.855   2.454  0.00  0.00     0.101 A 
ATOM     24  N   UNL d   1       7.300   3.281   3.417  0.00  0.00    -0.374 N 
ATOM     25  C   UNL d   1       8.600   3.363   3.077  0.00  0.00     0.087 A 
ATOM     26  HN  UNL d   1       6.975   3.527   4.352  1.00  0.00     0.164 HD
ATOM     27  C   UNL d   1       9.079   3.041   1.821  0.00  0.00     0.018 A 
ATOM     28  C   UNL d   1       8.170   2.605   0.856  0.00  0.00     0.016 A 
ENDBRANCH   4  22
TORSDOF 5
