REMARK  5 active torsions:
REMARK  status: ('A' for Active; 'I' for Inactive)
REMARK    1  A    between atoms: C_2  and  S_1 
REMARK    2  A    between atoms: N_4  and  S_1 
REMARK    3  A    between atoms: S_6  and  N_4 
REMARK    4  A    between atoms: C_15  and  S_6 
REMARK    5  A    between atoms: C_11  and  C_14 
ROOT
ATOM      1  N   UNL d   1       0.820  -1.332   1.881  0.00  0.00    -0.258 N 
ATOM      2  HN  UNL d   1       1.746  -0.945   2.062  1.00  0.00     0.186 HD
ENDROOT
BRANCH   1   3
ATOM      3  S   UNL d   1      -0.545  -0.654   2.645  0.00  0.00     0.270 S 
ATOM      4  O   UNL d   1      -1.749  -0.978   1.901  0.00  0.00    -0.200 OA
ATOM      5  O   UNL d   1      -0.476  -0.925   4.068  0.00  0.00    -0.200 OA
BRANCH   3   6
ATOM      6  C   UNL d   1      -0.252   1.061   2.417  0.00  0.00     0.109 A 
ATOM      7  C   UNL d   1       0.981   1.668   2.742  0.00  0.00     0.090 A 
ATOM      8  N   UNL d   1       2.061   1.098   3.304  0.00  0.00    -0.309 N 
ATOM      9  C   UNL d   1       1.196   3.134   2.442  0.00  0.00     0.068 A 
ATOM     10  S   UNL d   1       3.217   2.280   3.444  0.00  0.00     0.068 SA
ATOM     11  HN  UNL d   1       2.152   0.123   3.590  1.00  0.00     0.176 HD
ATOM     12  N   UNL d   1       2.413   3.576   2.793  0.00  0.00    -0.310 N 
ATOM     13  HN  UNL d   1       2.773   4.524   2.681  1.00  0.00     0.176 HD
ATOM     14  C   UNL d   1       0.178   3.914   1.841  0.00  0.00     0.032 A 
ATOM     15  C   UNL d   1      -1.027   3.253   1.552  0.00  0.00     0.004 A 
ATOM     16  C   UNL d   1      -1.237   1.883   1.827  0.00  0.00     0.028 A 
ENDBRANCH   3   6
ENDBRANCH   1   3
BRANCH   1  17
ATOM     17  S   UNL d   1       0.654  -2.572   0.881  0.00  0.00    -0.070 SA
ATOM     18  C   UNL d   1      -0.176  -3.753   1.973  0.00  0.00     0.109 C 
BRANCH  17  19
ATOM     19  C   UNL d   1       2.342  -3.099   1.140  0.00  0.00     0.078 A 
ATOM     20  N   UNL d   1       2.995  -3.210  -0.034  0.00  0.00    -0.359 N 
ATOM     21  C   UNL d   1       4.301  -3.559   0.025  0.00  0.00     0.105 A 
ATOM     22  HN  UNL d   1       2.527  -3.038  -0.924  1.00  0.00     0.166 HD
ATOM     23  C   UNL d   1       4.984  -3.813   1.208  0.00  0.00     0.063 A 
ATOM     24  C   UNL d   1       4.272  -3.694   2.405  0.00  0.00     0.020 A 
ATOM     25  C   UNL d   1       2.932  -3.328   2.377  0.00  0.00     0.038 A 
BRANCH  23  26
ATOM     26  C   UNL d   1       6.432  -4.192   1.197  0.00  0.00     0.418 C 
ATOM     27  F   UNL d   1       6.971  -4.263  -0.051  0.00  0.00    -0.166 F 
ATOM     28  F   UNL d   1       7.205  -3.310   1.889  0.00  0.00    -0.166 F 
ATOM     29  F   UNL d   1       6.652  -5.408   1.768  0.00  0.00    -0.166 F 
ENDBRANCH  23  26
ENDBRANCH  17  19
ENDBRANCH   1  17
TORSDOF 5
