REMARK  7 active torsions:
REMARK  status: ('A' for Active; 'I' for Inactive)
REMARK    1  A    between atoms: S_3  and  C_12 
REMARK    2  A    between atoms: N_31  and  S_3 
REMARK    3  A    between atoms: S_4  and  C_13 
REMARK    4  A    between atoms: N_32  and  S_4 
REMARK    5  A    between atoms: C_16  and  C_5 
REMARK    6  A    between atoms: N_11  and  C_6 
REMARK    7  A    between atoms: N_10  and  C_7 
ROOT
ATOM      1  C   UNL d   1       1.895   0.185  -0.022  0.00  0.00     0.136 C 
ATOM      2  C   UNL d   1       2.556   1.450  -0.072  0.00  0.00     0.111 C 
ATOM      3  C   UNL d   1       2.791  -0.924  -0.095  0.00  0.00     0.111 C 
ATOM      4  N   UNL d   1       3.093   2.475  -0.125  0.00  0.00    -0.191 NA
ATOM      5  N   UNL d   1       3.526  -1.821  -0.154  0.00  0.00    -0.191 NA
ENDROOT
BRANCH   1   6
ATOM      6  C   UNL d   1       0.545   0.052   0.038  0.00  0.00     0.018 C 
ATOM      7  C   UNL d   1      -0.462   1.167   0.076  0.00  0.00    -0.008 C 
ATOM      8  C   UNL d   1      -1.748   0.594  -0.138  0.00  0.00     0.022 C 
ATOM      9  C   UNL d   1      -0.307   2.535   0.279  0.00  0.00     0.038 C 
ATOM     10  C   UNL d   1      -1.622  -0.880  -0.105  0.00  0.00     0.022 A 
ATOM     11  C   UNL d   1      -2.821   1.476  -0.329  0.00  0.00     0.116 C 
ATOM     12  C   UNL d   1      -2.552  -1.926  -0.015  0.00  0.00     0.116 A 
ATOM     13  C   UNL d   1      -0.241  -1.226  -0.019  0.00  0.00    -0.008 A 
ATOM     14  C   UNL d   1      -2.153  -3.270   0.046  0.00  0.00     0.061 A 
ATOM     15  C   UNL d   1      -0.793  -3.566   0.088  0.00  0.00     0.077 A 
ATOM     16  C   UNL d   1       0.169  -2.553   0.083  0.00  0.00     0.038 A 
ATOM     17  C   UNL d   1      -2.681   2.858  -0.135  0.00  0.00     0.061 C 
ATOM     18  C   UNL d   1      -1.428   3.366   0.193  0.00  0.00     0.077 C 
BRANCH  12  19
ATOM     19  N   UNL d   1      -3.950  -1.694   0.263  0.00  0.00    -0.115 N 
ATOM     20  O   UNL d   1      -4.206  -1.130   1.333  0.00  0.00    -0.532 OA
ATOM     21  O   UNL d   1      -4.766  -2.108  -0.566  0.00  0.00    -0.532 OA
ENDBRANCH  12  19
BRANCH  15  22
ATOM     22  S   UNL d   1      -0.254  -5.244   0.253  0.00  0.00     0.239 S 
ATOM     23  O   UNL d   1       0.681  -5.304   1.349  0.00  0.00    -0.206 OA
ATOM     24  O   UNL d   1      -1.399  -6.113   0.142  0.00  0.00    -0.206 OA
BRANCH  22  25
ATOM     25  N   UNL d   1       0.625  -5.442  -1.159  0.00  0.00    -0.225 NA
ATOM     26  H   UNL d   1       1.605  -5.636  -0.945  0.00  0.00     0.136 HD
ATOM     27  H   UNL d   1       0.188  -6.149  -1.752  0.00  0.00     0.136 HD
ENDBRANCH  22  25
ENDBRANCH  15  22
BRANCH  11  28
ATOM     28  N   UNL d   1      -4.057   1.065  -0.959  0.00  0.00    -0.115 N 
ATOM     29  O   UNL d   1      -3.953   0.549  -2.079  0.00  0.00    -0.532 OA
ATOM     30  O   UNL d   1      -5.109   1.308  -0.358  0.00  0.00    -0.532 OA
ENDBRANCH  11  28
BRANCH  18  31
ATOM     31  S   UNL d   1      -1.209   5.106   0.424  0.00  0.00     0.239 S 
ATOM     32  O   UNL d   1      -2.425   5.782   0.045  0.00  0.00    -0.206 OA
ATOM     33  O   UNL d   1      -0.549   5.306   1.690  0.00  0.00    -0.206 OA
BRANCH  31  34
ATOM     34  N   UNL d   1      -0.094   5.451  -0.779  0.00  0.00    -0.225 NA
ATOM     35  H   UNL d   1      -0.500   6.080  -1.473  0.00  0.00     0.136 HD
ATOM     36  H   UNL d   1       0.780   5.791  -0.374  0.00  0.00     0.136 HD
ENDBRANCH  31  34
ENDBRANCH  18  31
ENDBRANCH   1   6
TORSDOF 7
