REMARK  4 active torsions:
REMARK  status: ('A' for Active; 'I' for Inactive)
REMARK    1  A    between atoms: C_13  and  N_1 
REMARK    2  A    between atoms: C_10  and  N_3 
REMARK    3  A    between atoms: C_20  and  C_13 
REMARK    4  A    between atoms: O_19  and  C_16 
ROOT
ATOM      1  N   UNL d   1      -0.690   1.202   0.065  0.00  0.00    -0.262 N 
ATOM      2  C   UNL d   1      -1.442   0.028   0.144  0.00  0.00     0.351 A 
ATOM      3  N   UNL d   1      -0.724  -1.171  -0.049  0.00  0.00    -0.204 N 
ATOM      4  N   UNL d   1       0.638  -1.236  -0.269  0.00  0.00    -0.275 N 
ATOM      5  HN  UNL d   1       1.103  -2.130  -0.431  1.00  0.00     0.188 HD
ATOM      6  C   UNL d   1       1.306  -0.128  -0.264  0.00  0.00     0.198 A 
ATOM      7  C   UNL d   1       0.678   1.211  -0.116  0.00  0.00     0.290 A 
ATOM      8  C   UNL d   1       2.725  -0.325  -0.413  0.00  0.00     0.125 C 
ATOM      9  N   UNL d   1       3.871  -0.492  -0.521  0.00  0.00    -0.190 NA
ATOM     10  O   UNL d   1      -2.660   0.082   0.318  0.00  0.00    -0.244 OA
ATOM     11  O   UNL d   1       1.386   2.205  -0.186  0.00  0.00    -0.265 OA
ENDROOT
BRANCH   3  12
ATOM     12  C   UNL d   1      -1.360  -2.453  -0.045  0.00  0.00     0.061 A 
ATOM     13  C   UNL d   1      -0.871  -3.487  -0.859  0.00  0.00     0.034 A 
ATOM     14  C   UNL d   1      -1.513  -4.732  -0.916  0.00  0.00     0.039 A 
ATOM     15  C   UNL d   1      -2.632  -4.979  -0.124  0.00  0.00     0.068 A 
ATOM     16  C   UNL d   1      -3.093  -3.976   0.728  0.00  0.00     0.039 A 
ATOM     17  C   UNL d   1      -2.476  -2.721   0.757  0.00  0.00     0.034 A 
BRANCH  15  18
ATOM     18  O   UNL d   1      -3.345  -6.143  -0.077  0.00  0.00    -0.356 OA
ATOM     19  C   UNL d   1      -3.098  -7.085  -1.114  0.00  0.00     0.210 C 
ENDBRANCH  15  18
ENDBRANCH   3  12
BRANCH   1  20
ATOM     20  C   UNL d   1      -1.387   2.484   0.093  0.00  0.00     0.137 C 
BRANCH  20  21
ATOM     21  C   UNL d   1      -1.616   3.062  -1.311  0.00  0.00     0.016 C 
ATOM     22  C   UNL d   1      -2.524   2.207  -2.185  0.00  0.00     0.006 C 
ENDBRANCH  20  21
ENDBRANCH   1  20
TORSDOF 4
