REMARK  4 active torsions:
REMARK  status: ('A' for Active; 'I' for Inactive)
REMARK    1  A    between atoms: C_6  and  N_1 
REMARK    2  A    between atoms: S_10  and  C_2 
REMARK    3  A    between atoms: C_8  and  C_12 
REMARK    4  A    between atoms: C_12  and  S_10 
ROOT
ATOM      1  N   UNL d   1       0.990  -0.684  -0.072  0.00  0.00    -0.241 N 
ATOM      2  C   UNL d   1       0.915   0.655   0.194  0.00  0.00     0.170 A 
ATOM      3  C   UNL d   1      -0.324  -1.082  -0.268  0.00  0.00     0.347 A 
ATOM      4  N   UNL d   1      -0.294   1.148   0.171  0.00  0.00    -0.275 N 
ATOM      5  HN  UNL d   1      -0.583   2.111   0.340  1.00  0.00     0.189 HD
ATOM      6  N   UNL d   1      -1.083   0.074  -0.130  0.00  0.00    -0.249 N 
ATOM      7  O   UNL d   1      -0.780  -2.194  -0.475  0.00  0.00    -0.245 OA
ATOM      8  H   UNL d   1      -2.095   0.111  -0.124  0.00  0.00     0.192 HD
ENDROOT
BRANCH   1   9
ATOM      9  C   UNL d   1       2.050  -1.603   0.029  0.00  0.00     0.049 A 
ATOM     10  C   UNL d   1       2.909  -1.605   1.133  0.00  0.00     0.069 A 
ATOM     11  C   UNL d   1       3.873  -2.608   1.269  0.00  0.00     0.104 A 
ATOM     12  O   UNL d   1       4.641  -2.571   2.406  0.00  0.00    -0.346 OA
ATOM     13  C   UNL d   1       3.997  -3.607   0.299  0.00  0.00     0.102 A 
ATOM     14  C   UNL d   1       5.784  -3.426   2.293  0.00  0.00     0.202 C 
ATOM     15  C   UNL d   1       5.396  -4.780   1.723  0.00  0.00     0.202 C 
ATOM     16  O   UNL d   1       4.896  -4.639   0.389  0.00  0.00    -0.346 OA
ATOM     17  C   UNL d   1       3.175  -3.590  -0.822  0.00  0.00     0.042 A 
ATOM     18  C   UNL d   1       2.190  -2.607  -0.943  0.00  0.00     0.033 A 
ENDBRANCH   1   9
BRANCH   2  19
ATOM     19  S   UNL d   1       2.329   1.636   0.435  0.00  0.00    -0.087 SA
BRANCH  19  20
ATOM     20  C   UNL d   1       1.632   3.310   0.218  0.00  0.00     0.124 C 
BRANCH  20  21
ATOM     21  C   UNL d   1       2.695   4.398   0.186  0.00  0.00    -0.005 A 
ATOM     22  C   UNL d   1       3.520   4.578  -0.946  0.00  0.00     0.042 A 
ATOM     23 CL   UNL d   1       3.346   3.615  -2.375  0.00  0.00    -0.084 Cl
ATOM     24  C   UNL d   1       4.505   5.574  -0.984  0.00  0.00     0.024 A 
ATOM     25  C   UNL d   1       4.683   6.430   0.100  0.00  0.00     0.003 A 
ATOM     26  C   UNL d   1       3.865   6.291   1.215  0.00  0.00     0.024 A 
ATOM     27  C   UNL d   1       2.885   5.289   1.261  0.00  0.00     0.042 A 
ATOM     28 CL   UNL d   1       1.915   5.236   2.694  0.00  0.00    -0.084 Cl
ENDBRANCH  20  21
ENDBRANCH  19  20
ENDBRANCH   2  19
TORSDOF 4
