REMARK  3 active torsions:
REMARK  status: ('A' for Active; 'I' for Inactive)
REMARK    1  A    between atoms: C_2  and  C_1 
REMARK       I    between atoms: N_7  and  C_2 
REMARK    2  A    between atoms: C_3  and  N_4 
REMARK    3  A    between atoms: N_4  and  N_7 
ROOT
ATOM      1  N   UNL d   1       2.358   3.186   0.279  0.00  0.00    -0.200 NA
ATOM      2  H   UNL d   1       2.674   2.319  -0.182  0.00  0.00     0.153 HD
ENDROOT
BRANCH   1   3
ATOM      3  C   UNL d   1       3.281   4.239  -0.002  0.00  0.00     0.071 A 
ATOM      4  C   UNL d   1       4.463   4.290   0.780  0.00  0.00     0.058 A 
ATOM      5 CL   UNL d   1       4.735   3.162   2.071  0.00  0.00    -0.082 Cl
ATOM      6  C   UNL d   1       5.458   5.251   0.562  0.00  0.00     0.026 A 
ATOM      7  C   UNL d   1       5.316   6.175  -0.465  0.00  0.00     0.003 A 
ATOM      8  C   UNL d   1       4.192   6.122  -1.283  0.00  0.00     0.026 A 
ATOM      9  C   UNL d   1       3.191   5.157  -1.071  0.00  0.00     0.058 A 
ATOM     10 CL   UNL d   1       1.903   5.170  -2.232  0.00  0.00    -0.082 Cl
ENDBRANCH   1   3
BRANCH   1  11
ATOM     11  N   UNL d   1       1.017   3.432  -0.037  0.00  0.00    -0.282 N 
ATOM     12  C   UNL d   1       0.291   2.433  -0.676  0.00  0.00     0.274 C 
ATOM     13  O   UNL d   1       0.849   1.380  -0.995  0.00  0.00    -0.266 OA
ATOM     14  H   UNL d   1       0.588   4.280   0.318  0.00  0.00     0.184 HD
BRANCH  12  15
ATOM     15  C   UNL d   1      -1.113   2.727  -0.933  0.00  0.00     0.095 A 
ATOM     16  C   UNL d   1      -2.086   1.889  -1.450  0.00  0.00     0.057 A 
ATOM     17  C   UNL d   1      -3.346   2.539  -1.606  0.00  0.00     0.032 A 
ATOM     18 CL   UNL d   1      -1.899   0.243  -1.891  0.00  0.00    -0.083 Cl
ATOM     19  C   UNL d   1      -3.309   3.852  -1.198  0.00  0.00     0.052 A 
ATOM     20  S   UNL d   1      -1.766   4.290  -0.616  0.00  0.00    -0.095 SA
ENDBRANCH  12  15
ENDBRANCH   1  11
TORSDOF 3
