REMARK  3 active torsions:
REMARK  status: ('A' for Active; 'I' for Inactive)
REMARK    1  A    between atoms: C_15  and  N_3 
REMARK    2  A    between atoms: C_18  and  C_10 
REMARK    3  A    between atoms: C_19  and  C_13 
ROOT
ATOM      1  C   UNL d   1       1.067   0.819  -0.093  0.00  0.00     0.174 A 
ATOM      2  C   UNL d   1       0.732  -0.501  -0.154  0.00  0.00     0.091 A 
ATOM      3  N   UNL d   1       3.381   0.257  -0.055  0.00  0.00    -0.228 N 
ATOM      4  C   UNL d   1       2.422   1.309  -0.071  0.00  0.00     0.292 A 
ATOM      5  C   UNL d   1       3.055  -1.110  -0.182  0.00  0.00     0.334 A 
ATOM      6  C   UNL d   1      -0.675  -0.599  -0.051  0.00  0.00     0.056 A 
ATOM      7  N   UNL d   1       1.723  -1.434  -0.265  0.00  0.00    -0.304 N 
ATOM      8  C   UNL d   1      -1.123   0.726  -0.020  0.00  0.00     0.162 A 
ATOM      9  O   UNL d   1      -0.049   1.590  -0.031  0.00  0.00    -0.285 OA
ATOM     10  C   UNL d   1      -1.640  -1.624   0.042  0.00  0.00    -0.007 A 
ATOM     11  N   UNL d   1      -2.401   1.153   0.029  0.00  0.00    -0.335 N 
ATOM     12  HN  UNL d   1      -2.655   2.141   0.044  1.00  0.00     0.168 HD
ATOM     13  C   UNL d   1      -3.318   0.156   0.057  0.00  0.00     0.045 A 
ATOM     14  C   UNL d   1      -2.975  -1.200   0.093  0.00  0.00     0.043 A 
ATOM     15  O   UNL d   1       2.693   2.508  -0.016  0.00  0.00    -0.264 OA
ATOM     16  O   UNL d   1       3.862  -2.039  -0.253  0.00  0.00    -0.246 OA
ATOM     17  H   UNL d   1       1.508  -2.416  -0.400  0.00  0.00     0.171 HD
ENDROOT
BRANCH   3  18
ATOM     18  C   UNL d   1       4.773   0.584   0.050  0.00  0.00     0.047 A 
ATOM     19  C   UNL d   1       5.594  -0.094   0.964  0.00  0.00     0.031 A 
ATOM     20  C   UNL d   1       6.959   0.193   1.052  0.00  0.00     0.009 A 
ATOM     21  C   UNL d   1       7.533   1.148   0.208  0.00  0.00    -0.062 A 
ATOM     22  C   UNL d   1       6.723   1.812  -0.718  0.00  0.00     0.009 A 
ATOM     23  C   UNL d   1       9.004   1.429   0.291  0.00  0.00     0.048 C 
ATOM     24  C   UNL d   1       5.349   1.548  -0.783  0.00  0.00     0.031 A 
ENDBRANCH   3  18
BRANCH  10  25
ATOM     25  C   UNL d   1      -1.278  -3.049   0.095  0.00  0.00    -0.025 A 
ATOM     26  C   UNL d   1      -0.231  -3.517   0.907  0.00  0.00     0.012 A 
ATOM     27  C   UNL d   1       0.178  -4.852   0.873  0.00  0.00     0.001 A 
ATOM     28  C   UNL d   1      -0.517  -5.770   0.093  0.00  0.00     0.000 A 
ATOM     29  C   UNL d   1      -1.617  -5.352  -0.649  0.00  0.00     0.001 A 
ATOM     30  C   UNL d   1      -1.984  -4.003  -0.658  0.00  0.00     0.012 A 
ENDBRANCH  10  25
BRANCH  13  31
ATOM     31  C   UNL d   1      -4.747   0.554   0.092  0.00  0.00    -0.009 A 
ATOM     32  C   UNL d   1      -5.739  -0.221  -0.544  0.00  0.00     0.013 A 
ATOM     33  C   UNL d   1      -7.097   0.082  -0.425  0.00  0.00     0.001 A 
ATOM     34  C   UNL d   1      -7.498   1.187   0.320  0.00  0.00     0.000 A 
ATOM     35  C   UNL d   1      -6.537   1.994   0.923  0.00  0.00     0.001 A 
ATOM     36  C   UNL d   1      -5.178   1.685   0.805  0.00  0.00     0.013 A 
ENDBRANCH  13  31
TORSDOF 3
