REMARK  3 active torsions:
REMARK  status: ('A' for Active; 'I' for Inactive)
REMARK    1  A    between atoms: N_2  and  S_1 
REMARK    2  A    between atoms: C_3  and  S_1 
REMARK    3  A    between atoms: C_4  and  N_5 
ROOT
ATOM      1  N   UNL d   1       0.357  -1.141  -0.058  0.00  0.00    -0.204 NA
ATOM      2  N   UNL d   1      -1.144  -2.248   2.151  0.00  0.00    -0.252 NA
ATOM      3  C   UNL d   1      -1.088  -0.814   0.126  0.00  0.00     0.122 C 
ATOM      4  C   UNL d   1       0.666  -2.498   0.478  0.00  0.00     0.122 C 
ATOM      5  C   UNL d   1      -1.514  -0.932   1.604  0.00  0.00     0.114 C 
ATOM      6  C   UNL d   1       0.263  -2.644   1.957  0.00  0.00     0.114 C 
ENDROOT
BRANCH   1   7
ATOM      7  S   UNL d   1       1.459   0.101   0.295  0.00  0.00     0.250 S 
ATOM      8  O   UNL d   1       2.770  -0.471   0.518  0.00  0.00    -0.205 OA
ATOM      9  O   UNL d   1       0.862   1.013   1.245  0.00  0.00    -0.205 OA
BRANCH   7  10
ATOM     10  C   UNL d   1       1.614   1.058  -1.203  0.00  0.00     0.115 A 
ATOM     11  S   UNL d   1       2.223   0.223  -2.567  0.00  0.00    -0.089 SA
ATOM     12  C   UNL d   1       2.048   1.599  -3.568  0.00  0.00     0.051 A 
ATOM     13  C   UNL d   1       1.543   2.679  -2.879  0.00  0.00     0.009 A 
ATOM     14  C   UNL d   1       1.308   2.372  -1.507  0.00  0.00     0.033 A 
ENDBRANCH   7  10
ENDBRANCH   1   7
BRANCH   2  15
ATOM     15  C   UNL d   1      -1.626  -2.476   3.442  0.00  0.00     0.159 A 
ATOM     16  N   UNL d   1      -2.585  -1.666   3.929  0.00  0.00    -0.343 N 
ATOM     17  C   UNL d   1      -3.079  -1.932   5.152  0.00  0.00     0.092 A 
ATOM     18  HN  UNL d   1      -2.928  -0.874   3.386  1.00  0.00     0.167 HD
ATOM     19  C   UNL d   1      -2.672  -2.992   5.916  0.00  0.00     0.034 A 
ATOM     20  C   UNL d   1      -1.696  -3.769   5.349  0.00  0.00     0.092 A 
ATOM     21  N   UNL d   1      -1.160  -3.529   4.135  0.00  0.00    -0.343 N 
ATOM     22  HN  UNL d   1      -0.426  -4.127   3.755  1.00  0.00     0.167 HD
ENDBRANCH   2  15
TORSDOF 3
