REMARK  4 active torsions:
REMARK  status: ('A' for Active; 'I' for Inactive)
REMARK    1  A    between atoms: S_7  and  C_3 
REMARK    2  A    between atoms: O_13  and  C_4 
REMARK    3  A    between atoms: C_10  and  S_7 
REMARK    4  A    between atoms: C_12  and  C_10 
ROOT
ATOM      1  N   UNL d   1      -0.302  -1.123   0.172  0.00  0.00    -0.318 N 
ATOM      2  HN  UNL d   1      -0.890  -1.955   0.221  1.00  0.00     0.170 HD
ATOM      3  C   UNL d   1       1.039  -1.195   0.115  0.00  0.00     0.146 A 
ATOM      4  C   UNL d   1      -0.811   0.110   0.161  0.00  0.00     0.142 A 
ATOM      5  N   UNL d   1       1.860  -0.131   0.049  0.00  0.00    -0.347 N 
ATOM      6  HN  UNL d   1       2.874  -0.236   0.006  1.00  0.00     0.167 HD
ATOM      7  C   UNL d   1      -0.089   1.268   0.098  0.00  0.00     0.073 A 
ATOM      8  C   UNL d   1       1.269   1.083   0.042  0.00  0.00     0.094 A 
ENDROOT
BRANCH   3   9
ATOM      9  S   UNL d   1       1.712  -2.838   0.130  0.00  0.00    -0.089 SA
BRANCH   9  10
ATOM     10  C   UNL d   1       3.494  -2.490   0.044  0.00  0.00     0.121 C 
BRANCH  10  11
ATOM     11  C   UNL d   1       4.291  -3.778   0.038  0.00  0.00    -0.048 A 
ATOM     12  C   UNL d   1       4.583  -4.432  -1.170  0.00  0.00     0.009 A 
ATOM     13  C   UNL d   1       5.299  -5.632  -1.175  0.00  0.00     0.024 A 
ATOM     14  C   UNL d   1       5.725  -6.190   0.028  0.00  0.00     0.034 A 
ATOM     15  C   UNL d   1       5.435  -5.562   1.237  0.00  0.00     0.024 A 
ATOM     16 CL   UNL d   1       6.610  -7.666   0.021  0.00  0.00    -0.084 Cl
ATOM     17  C   UNL d   1       4.718  -4.361   1.243  0.00  0.00     0.009 A 
ENDBRANCH  10  11
ENDBRANCH   9  10
ENDBRANCH   3   9
BRANCH   4  18
ATOM     18  O   UNL d   1      -2.167   0.151   0.220  0.00  0.00    -0.346 OA
ATOM     19  H   UNL d   1      -2.373  -0.801   0.255  0.00  0.00     0.219 HD
ENDBRANCH   4  18
TORSDOF 4
