REMARK  6 active torsions:
REMARK  status: ('A' for Active; 'I' for Inactive)
REMARK    1  A    between atoms: C_2  and  C_1 
REMARK       I    between atoms: N_5  and  C_1 
REMARK    2  A    between atoms: N_3  and  C_9 
REMARK    3  A    between atoms: C_12  and  N_5 
REMARK    4  A    between atoms: C_8  and  C_6 
REMARK    5  A    between atoms: O_14  and  C_7 
REMARK    6  A    between atoms: O_21  and  C_11 
ROOT
ATOM      1  C   UNL d   1       0.150   0.945   0.826  0.00  0.00     0.059 A 
ATOM      2  C   UNL d   1       0.655   2.226   0.497  0.00  0.00     0.047 A 
ATOM      3  C   UNL d   1      -1.082   0.838   1.508  0.00  0.00     0.019 A 
ATOM      4  C   UNL d   1      -0.148   3.345   0.777  0.00  0.00     0.030 A 
ATOM      5  C   UNL d   1      -1.829   1.974   1.822  0.00  0.00     0.001 A 
ATOM      6  C   UNL d   1      -1.376   3.226   1.429  0.00  0.00     0.002 A 
ENDROOT
BRANCH   2   7
ATOM      7  N   UNL d   1       1.899   2.540  -0.101  0.00  0.00    -0.364 N 
ATOM      8  C   UNL d   1       2.967   1.914   0.286  0.00  0.00     0.102 C 
ATOM      9  HN  UNL d   1       1.954   3.252  -0.829  1.00  0.00     0.165 HD
BRANCH   8  10
ATOM     10  C   UNL d   1       4.305   2.260  -0.242  0.00  0.00     0.015 A 
ATOM     11  C   UNL d   1       4.528   3.396  -1.041  0.00  0.00     0.110 A 
ATOM     12  C   UNL d   1       5.831   3.705  -1.452  0.00  0.00     0.102 A 
ATOM     13  C   UNL d   1       6.884   2.854  -1.087  0.00  0.00     0.040 A 
ATOM     14  C   UNL d   1       6.659   1.727  -0.297  0.00  0.00     0.004 A 
ATOM     15  C   UNL d   1       5.369   1.429   0.130  0.00  0.00     0.016 A 
BRANCH  11  16
ATOM     16  O   UNL d   1       3.479   4.192  -1.424  0.00  0.00    -0.357 OA
ATOM     17  H   UNL d   1       2.652   3.752  -1.123  0.00  0.00     0.217 HD
ENDBRANCH  11  16
BRANCH  12  18
ATOM     18  O   UNL d   1       6.230   4.760  -2.231  0.00  0.00    -0.353 OA
ATOM     19  C   UNL d   1       5.466   5.954  -2.118  0.00  0.00     0.210 C 
ENDBRANCH  12  18
ENDBRANCH   8  10
ENDBRANCH   2   7
BRANCH   1  20
ATOM     20  C   UNL d   1       0.847  -0.299   0.376  0.00  0.00     0.258 C 
ATOM     21  N   UNL d   1       0.737  -1.410   1.211  0.00  0.00    -0.323 N 
ATOM     22  H   UNL d   1       0.113  -1.355   2.001  0.00  0.00     0.169 HD
ATOM     23  O   UNL d   1       1.442  -0.296  -0.694  0.00  0.00    -0.267 OA
BRANCH  21  24
ATOM     24  C   UNL d   1       1.287  -2.685   0.950  0.00  0.00     0.035 A 
ATOM     25  C   UNL d   1       2.342  -2.903   0.057  0.00  0.00     0.032 A 
ATOM     26  C   UNL d   1       2.792  -4.198  -0.209  0.00  0.00     0.044 A 
ATOM     27  C   UNL d   1       2.183  -5.276   0.417  0.00  0.00     0.116 A 
ATOM     28  C   UNL d   1       1.162  -5.078   1.338  0.00  0.00     0.044 A 
ATOM     29  F   UNL d   1       2.579  -6.522   0.128  0.00  0.00    -0.206 F 
ATOM     30  C   UNL d   1       0.725  -3.781   1.619  0.00  0.00     0.032 A 
ENDBRANCH  21  24
ENDBRANCH   1  20
TORSDOF 6
