REMARK  2 active torsions:
REMARK  status: ('A' for Active; 'I' for Inactive)
REMARK    1  A    between atoms: C_11  and  N_5 
REMARK    2  A    between atoms: C_12  and  N_7 
ROOT
ATOM      1  C   UNL d   1      -1.197   0.420   0.684  0.00  0.00     0.130 C 
ATOM      2  C   UNL d   1      -3.659  -1.400   0.147  0.00  0.00     0.130 C 
ATOM      3  S   UNL d   1      -2.435  -1.556  -1.115  0.00  0.00    -0.020 SA
ATOM      4  S   UNL d   1      -0.727  -1.104  -0.081  0.00  0.00    -0.020 SA
ATOM      5  N   UNL d   1      -1.067   0.410   1.964  0.00  0.00    -0.341 N 
ATOM      6  HN  UNL d   1      -0.840  -0.478   2.411  1.00  0.00     0.167 HD
ATOM      7  N   UNL d   1      -3.897  -2.193   1.154  0.00  0.00    -0.341 N 
ATOM      8  HN  UNL d   1      -4.731  -2.013   1.712  1.00  0.00     0.167 HD
ATOM      9  N   UNL d   1      -1.573   1.428  -0.172  0.00  0.00    -0.271 NA
ATOM     10  N   UNL d   1      -4.505  -0.328  -0.019  0.00  0.00    -0.271 NA
ATOM     11  C   UNL d   1      -2.971   1.610  -0.607  0.00  0.00     0.109 C 
ATOM     12  C   UNL d   1      -4.068   1.042   0.310  0.00  0.00     0.109 C 
ATOM     13  H   UNL d   1      -1.014   1.348  -1.017  0.00  0.00     0.129 HD
ATOM     14  H   UNL d   1      -5.313  -0.528   0.573  0.00  0.00     0.129 HD
ENDROOT
BRANCH   5  15
ATOM     15  C   UNL d   1      -1.216   1.530   2.783  0.00  0.00     0.035 A 
ATOM     16  C   UNL d   1      -0.732   2.797   2.457  0.00  0.00     0.053 A 
ATOM     17  C   UNL d   1      -0.799   3.838   3.382  0.00  0.00     0.036 A 
ATOM     18 CL   UNL d   1      -0.203   5.396   2.960  0.00  0.00    -0.084 Cl
ATOM     19  C   UNL d   1      -1.326   3.622   4.655  0.00  0.00     0.024 A 
ATOM     20  C   UNL d   1      -1.793   2.357   5.000  0.00  0.00     0.004 A 
ATOM     21  C   UNL d   1      -1.737   1.321   4.066  0.00  0.00     0.029 A 
ENDBRANCH   5  15
BRANCH   7  22
ATOM     22  C   UNL d   1      -3.085  -3.279   1.527  0.00  0.00     0.035 A 
ATOM     23  C   UNL d   1      -2.775  -3.410   2.886  0.00  0.00     0.053 A 
ATOM     24  C   UNL d   1      -1.920  -4.424   3.324  0.00  0.00     0.036 A 
ATOM     25 CL   UNL d   1      -1.561  -4.581   4.999  0.00  0.00    -0.084 Cl
ATOM     26  C   UNL d   1      -1.353  -5.307   2.411  0.00  0.00     0.024 A 
ATOM     27  C   UNL d   1      -1.704  -5.228   1.067  0.00  0.00     0.004 A 
ATOM     28  C   UNL d   1      -2.604  -4.241   0.641  0.00  0.00     0.029 A 
ENDBRANCH   7  22
TORSDOF 2
