REMARK  6 active torsions:
REMARK  status: ('A' for Active; 'I' for Inactive)
REMARK    1  A    between atoms: C_6  and  C_1 
REMARK    2  A    between atoms: S_11  and  C_5 
REMARK    3  A    between atoms: C_9  and  C_10 
REMARK    4  A    between atoms: C_14  and  S_11 
REMARK    5  A    between atoms: C_12  and  C_14 
REMARK    6  A    between atoms: C_13  and  C_12 
ROOT
ATOM      1  C   UNL d   1      -0.003   1.052  -0.097  0.00  0.00     0.136 A 
ATOM      2  N   UNL d   1       0.853   0.000   0.194  0.00  0.00    -0.315 N 
ATOM      3  N   UNL d   1      -1.207   0.546  -0.297  0.00  0.00    -0.283 N 
ATOM      4  HN  UNL d   1      -2.036   1.079  -0.561  1.00  0.00     0.188 HD
ATOM      5  C   UNL d   1       0.071  -1.127   0.199  0.00  0.00     0.163 A 
ATOM      6  N   UNL d   1      -1.165  -0.811  -0.095  0.00  0.00    -0.278 N 
ATOM      7  HN  UNL d   1      -1.952  -1.456  -0.161  1.00  0.00     0.189 HD
ATOM      8  C   UNL d   1       2.277   0.036   0.425  0.00  0.00     0.160 C 
ENDROOT
BRANCH   1   9
ATOM      9  C   UNL d   1       0.331   2.478  -0.206  0.00  0.00     0.040 A 
ATOM     10  C   UNL d   1      -0.465   3.517   0.313  0.00  0.00     0.064 A 
ATOM     11  C   UNL d   1      -0.047   4.854   0.117  0.00  0.00     0.034 A 
ATOM     12  C   UNL d   1       1.129   5.114  -0.560  0.00  0.00     0.088 A 
ATOM     13  N   UNL d   1       1.901   4.146  -1.077  0.00  0.00    -0.374 N 
ATOM     14  C   UNL d   1       1.473   2.871  -0.910  0.00  0.00     0.103 A 
ATOM     15  HN  UNL d   1       2.767   4.359  -1.571  1.00  0.00     0.164 HD
BRANCH  10  16
ATOM     16  C   UNL d   1      -1.766   3.349   1.065  0.00  0.00     0.418 C 
ATOM     17  F   UNL d   1      -2.083   2.101   1.484  0.00  0.00    -0.166 F 
ATOM     18  F   UNL d   1      -1.763   4.102   2.209  0.00  0.00    -0.166 F 
ATOM     19  F   UNL d   1      -2.831   3.804   0.347  0.00  0.00    -0.166 F 
ENDBRANCH  10  16
ENDBRANCH   1   9
BRANCH   5  20
ATOM     20  S   UNL d   1       0.675  -2.714   0.532  0.00  0.00    -0.085 SA
BRANCH  20  21
ATOM     21  C   UNL d   1      -0.854  -3.691   0.460  0.00  0.00     0.166 C 
BRANCH  21  22
ATOM     22  C   UNL d   1      -0.613  -5.157   0.785  0.00  0.00     0.169 C 
ATOM     23  O   UNL d   1       0.476  -5.616   1.134  0.00  0.00    -0.291 OA
BRANCH  22  24
ATOM     24  C   UNL d   1      -1.772  -6.105   0.673  0.00  0.00     0.011 A 
ATOM     25  C   UNL d   1      -3.071  -5.675   0.375  0.00  0.00     0.017 A 
ATOM     26  C   UNL d   1      -4.115  -6.604   0.263  0.00  0.00     0.025 A 
ATOM     27  C   UNL d   1      -3.865  -7.962   0.449  0.00  0.00     0.034 A 
ATOM     28  C   UNL d   1      -2.580  -8.402   0.756  0.00  0.00     0.025 A 
ATOM     29 CL   UNL d   1      -5.147  -9.098   0.296  0.00  0.00    -0.084 Cl
ATOM     30  C   UNL d   1      -1.537  -7.476   0.868  0.00  0.00     0.017 A 
ENDBRANCH  22  24
ENDBRANCH  21  22
ENDBRANCH  20  21
ENDBRANCH   5  20
TORSDOF 6
