REMARK  4 active torsions:
REMARK  status: ('A' for Active; 'I' for Inactive)
REMARK    1  A    between atoms: C_5  and  C_1 
REMARK    2  A    between atoms: C_9  and  N_4 
REMARK       I    between atoms: C_7  and  N_10 
REMARK       I    between atoms: N_11  and  C_7 
REMARK    3  A    between atoms: N_10  and  C_18 
REMARK    4  A    between atoms: C_19  and  N_11 
ROOT
ATOM      1  C   UNL d   1       2.098   1.428   0.456  0.00  0.00     0.056 A 
ATOM      2  C   UNL d   1       3.314   0.974  -0.073  0.00  0.00     0.034 A 
ATOM      3  C   UNL d   1       2.022   2.729   0.959  0.00  0.00     0.034 A 
ATOM      4  C   UNL d   1       4.306   3.175   0.249  0.00  0.00     0.036 A 
ATOM      5  C   UNL d   1       3.119   3.590   0.855  0.00  0.00     0.032 A 
ATOM      6  C   UNL d   1       4.409   1.845  -0.175  0.00  0.00     0.032 A 
ENDROOT
BRANCH   4   7
ATOM      7  N   UNL d   1       5.384   4.045  -0.036  0.00  0.00    -0.309 N 
ATOM      8  C   UNL d   1       5.414   5.419   0.171  0.00  0.00     0.325 C 
ATOM      9  N   UNL d   1       6.454   6.007  -0.534  0.00  0.00    -0.309 N 
ATOM     10  O   UNL d   1       4.599   6.035   0.847  0.00  0.00    -0.247 OA
ATOM     11  H   UNL d   1       7.109   5.390  -0.983  0.00  0.00     0.170 HD
ATOM     12  H   UNL d   1       6.164   3.637  -0.525  0.00  0.00     0.170 HD
BRANCH   9  13
ATOM     13  C   UNL d   1       6.665   7.391  -0.740  0.00  0.00     0.036 A 
ATOM     14  C   UNL d   1       5.830   8.394  -0.240  0.00  0.00     0.029 A 
ATOM     15  C   UNL d   1       6.080   9.741  -0.524  0.00  0.00     0.002 A 
ATOM     16  C   UNL d   1       7.169  10.099  -1.313  0.00  0.00     0.000 A 
ATOM     17  C   UNL d   1       8.011   9.111  -1.813  0.00  0.00     0.002 A 
ATOM     18  C   UNL d   1       7.762   7.765  -1.527  0.00  0.00     0.029 A 
ENDBRANCH   9  13
ENDBRANCH   4   7
BRANCH   1  19
ATOM     19  N   UNL d   1       0.947   0.593   0.421  0.00  0.00    -0.267 N 
ATOM     20  N   UNL d   1       1.009  -0.671  -0.075  0.00  0.00    -0.290 N 
ATOM     21  C   UNL d   1      -0.260  -1.126  -0.057  0.00  0.00     0.134 A 
ATOM     22  HN  UNL d   1       1.840  -1.170  -0.393  1.00  0.00     0.187 HD
ATOM     23  C   UNL d   1      -1.138  -0.153   0.473  0.00  0.00     0.055 A 
ATOM     24  C   UNL d   1      -0.342   0.921   0.783  0.00  0.00     0.119 A 
BRANCH  21  25
ATOM     25  C   UNL d   1      -0.661  -2.489  -0.555  0.00  0.00     0.434 C 
ATOM     26  F   UNL d   1       0.383  -3.255  -0.965  0.00  0.00    -0.165 F 
ATOM     27  F   UNL d   1      -1.313  -3.198   0.406  0.00  0.00    -0.165 F 
ATOM     28  F   UNL d   1      -1.519  -2.400  -1.609  0.00  0.00    -0.165 F 
ENDBRANCH  21  25
ENDBRANCH   1  19
TORSDOF 4
