REMARK  2 active torsions:
REMARK  status: ('A' for Active; 'I' for Inactive)
REMARK       I    between atoms: C_2  and  N_5 
REMARK    1  A    between atoms: C_7  and  C_2 
REMARK    2  A    between atoms: N_5  and  C_9 
ROOT
ATOM      1  C   UNL d   1      -2.661   3.640   0.019  0.00  0.00     0.256 C 
ATOM      2  N   UNL d   1      -3.017   2.302   0.075  0.00  0.00    -0.323 N 
ATOM      3  O   UNL d   1      -1.533   4.091   0.192  0.00  0.00    -0.267 OA
ATOM      4  H   UNL d   1      -4.003   2.081   0.104  0.00  0.00     0.169 HD
ENDROOT
BRANCH   2   5
ATOM      5  C   UNL d   1      -2.126   1.203   0.126  0.00  0.00     0.036 A 
ATOM      6  C   UNL d   1      -0.738   1.333   0.026  0.00  0.00     0.048 A 
ATOM      7  C   UNL d   1       0.028   0.178   0.006  0.00  0.00     0.050 A 
ATOM      8  C   UNL d   1       1.473   0.055  -0.131  0.00  0.00     0.294 A 
ATOM      9  C   UNL d   1      -0.521  -1.083   0.088  0.00  0.00    -0.018 A 
ATOM     10  O   UNL d   1       1.750  -1.285  -0.133  0.00  0.00    -0.313 OA
ATOM     11  O   UNL d   1       2.279   0.958  -0.232  0.00  0.00    -0.259 OA
ATOM     12  C   UNL d   1       0.557  -2.087   0.000  0.00  0.00     0.218 A 
ATOM     13  C   UNL d   1      -1.889  -1.239   0.213  0.00  0.00     0.012 A 
ATOM     14  C   UNL d   1      -2.690  -0.087   0.230  0.00  0.00     0.030 A 
ENDBRANCH   2   5
BRANCH   1  15
ATOM     15  C   UNL d   1      -3.756   4.612  -0.261  0.00  0.00     0.032 A 
ATOM     16  C   UNL d   1      -3.584   5.935   0.179  0.00  0.00     0.018 A 
ATOM     17  C   UNL d   1      -4.524   6.918  -0.137  0.00  0.00     0.025 A 
ATOM     18  C   UNL d   1      -5.640   6.582  -0.898  0.00  0.00     0.034 A 
ATOM     19  C   UNL d   1      -5.828   5.271  -1.338  0.00  0.00     0.025 A 
ATOM     20 CL   UNL d   1      -6.781   7.798  -1.321  0.00  0.00    -0.084 Cl
ATOM     21  C   UNL d   1      -4.885   4.284  -1.024  0.00  0.00     0.018 A 
ENDBRANCH   1  15
TORSDOF 2
