REMARK  5 active torsions:
REMARK  status: ('A' for Active; 'I' for Inactive)
REMARK    1  A    between atoms: C_7  and  C_1 
REMARK    2  A    between atoms: C_10  and  C_2 
REMARK    3  A    between atoms: N_6  and  C_7 
REMARK    4  A    between atoms: C_11  and  N_9 
REMARK    5  A    between atoms: C_22  and  C_11 
ROOT
ATOM      1  C   UNL d   1       1.102   2.440   0.544  0.00  0.00     0.016 A 
ATOM      2  C   UNL d   1       0.249   3.452  -0.041  0.00  0.00     0.067 A 
ATOM      3  N   UNL d   1      -0.352   4.190   0.906  0.00  0.00    -0.300 N 
ATOM      4  HN  UNL d   1      -0.964   4.995   0.775  1.00  0.00     0.187 HD
ATOM      5  N   UNL d   1       0.032   3.636   2.057  0.00  0.00    -0.311 N 
ATOM      6  C   UNL d   1       0.856   2.567   1.899  0.00  0.00     0.118 A 
ATOM      7  H   UNL d   1      -0.330   4.025   2.922  0.00  0.00     0.186 HD
ENDROOT
BRANCH   1   8
ATOM      8  C   UNL d   1       1.927   1.435  -0.219  0.00  0.00     0.315 C 
BRANCH   8   9
ATOM      9  N   UNL d   1       3.249   1.082   0.345  0.00  0.00     0.096 N 
ATOM     10  C   UNL d   1       3.974   0.227  -0.641  0.00  0.00     0.303 C 
ATOM     11  C   UNL d   1       3.433  -1.228  -0.776  0.00  0.00     0.303 C 
ATOM     12  N   UNL d   1       3.243  -1.962   0.494  0.00  0.00     0.096 N 
ATOM     13  C   UNL d   1       2.561  -1.083   1.469  0.00  0.00     0.303 C 
ATOM     14  C   UNL d   1       3.203   0.311   1.601  0.00  0.00     0.303 C 
BRANCH  12  15
ATOM     15  C   UNL d   1       4.531  -2.474   1.001  0.00  0.00     0.311 C 
BRANCH  15  16
ATOM     16  C   UNL d   1       4.399  -3.292   2.271  0.00  0.00    -0.030 A 
ATOM     17  C   UNL d   1       3.590  -4.438   2.303  0.00  0.00     0.009 A 
ATOM     18  C   UNL d   1       3.434  -5.164   3.484  0.00  0.00     0.001 A 
ATOM     19  C   UNL d   1       4.090  -4.757   4.645  0.00  0.00     0.000 A 
ATOM     20  C   UNL d   1       4.906  -3.627   4.624  0.00  0.00     0.001 A 
ATOM     21  C   UNL d   1       5.062  -2.899   3.444  0.00  0.00     0.009 A 
ENDBRANCH  15  16
ENDBRANCH  12  15
ENDBRANCH   8   9
ENDBRANCH   1   8
BRANCH   2  22
ATOM     22  C   UNL d   1      -0.034   3.723  -1.454  0.00  0.00    -0.007 A 
ATOM     23  C   UNL d   1      -0.212   2.678  -2.373  0.00  0.00     0.017 A 
ATOM     24  C   UNL d   1      -0.473   2.951  -3.717  0.00  0.00     0.043 A 
ATOM     25  C   UNL d   1      -0.589   4.271  -4.139  0.00  0.00     0.116 A 
ATOM     26  C   UNL d   1      -0.453   5.321  -3.240  0.00  0.00     0.043 A 
ATOM     27  F   UNL d   1      -0.847   4.529  -5.427  0.00  0.00    -0.206 F 
ATOM     28  C   UNL d   1      -0.177   5.047  -1.899  0.00  0.00     0.017 A 
ENDBRANCH   2  22
TORSDOF 5
