REMARK  2 active torsions:
REMARK  status: ('A' for Active; 'I' for Inactive)
REMARK    1  A    between atoms: C_17  and  N_10 
REMARK    2  A    between atoms: C_14  and  C_12 
ROOT
ATOM      1  N   UNL d   1       1.291  -0.610  -0.018  0.00  0.00    -0.203 N 
ATOM      2  C   UNL d   1      -1.129  -0.649  -0.013  0.00  0.00     0.062 A 
ATOM      3  C   UNL d   1      -1.048   0.682   0.020  0.00  0.00     0.116 A 
ATOM      4  C   UNL d   1       1.278   0.780   0.009  0.00  0.00     0.133 A 
ATOM      5  C   UNL d   1       0.125  -1.425  -0.038  0.00  0.00     0.278 A 
ATOM      6  N   UNL d   1       2.564  -1.091  -0.028  0.00  0.00    -0.293 N 
ATOM      7  HN  UNL d   1       2.863  -2.067  -0.050  1.00  0.00     0.187 HD
ATOM      8  C   UNL d   1      -2.420   1.205   0.046  0.00  0.00     0.271 C 
ATOM      9  N   UNL d   1       0.093   1.424   0.021  0.00  0.00    -0.336 N 
ATOM     10  N   UNL d   1      -3.266   0.105   0.173  0.00  0.00    -0.338 N 
ATOM     11  C   UNL d   1       2.573   1.200   0.023  0.00  0.00     0.077 A 
ATOM     12  C   UNL d   1       3.341   0.006  -0.002  0.00  0.00     0.037 A 
ATOM     13  C   UNL d   1      -2.518  -1.143  -0.001  0.00  0.00     0.173 C 
ATOM     14  O   UNL d   1       0.172  -2.647  -0.068  0.00  0.00    -0.265 OA
ATOM     15  O   UNL d   1      -2.674   2.392  -0.035  0.00  0.00    -0.266 OA
ATOM     16  H   UNL d   1      -0.029   2.436   0.051  0.00  0.00     0.168 HD
ENDROOT
BRANCH  10  17
ATOM     17  C   UNL d   1      -4.728   0.201   0.018  0.00  0.00     0.088 C 
ATOM     18  C   UNL d   1      -5.351   1.397   0.768  0.00  0.00     0.025 C 
ATOM     19  C   UNL d   1      -5.205   1.256   2.280  0.00  0.00     0.002 C 
ATOM     20  C   UNL d   1      -5.817  -0.045   2.790  0.00  0.00     0.000 C 
ATOM     21  C   UNL d   1      -5.397  -1.275   1.987  0.00  0.00     0.002 C 
ATOM     22  C   UNL d   1      -5.474  -1.064   0.473  0.00  0.00     0.025 C 
ENDBRANCH  10  17
BRANCH  12  23
ATOM     23  C   UNL d   1       4.860  -0.068  -0.002  0.00  0.00    -0.007 C 
ATOM     24  C   UNL d   1       5.377  -1.519  -0.039  0.00  0.00     0.021 C 
ATOM     25  C   UNL d   1       5.413   0.676  -1.236  0.00  0.00     0.021 C 
ATOM     26  C   UNL d   1       5.412   0.608   1.271  0.00  0.00     0.021 C 
ENDBRANCH  12  23
TORSDOF 2
