REMARK  4 active torsions:
REMARK  status: ('A' for Active; 'I' for Inactive)
REMARK    1  A    between atoms: N_2  and  C_1 
REMARK    2  A    between atoms: N_4  and  N_2 
REMARK       I    between atoms: C_3  and  N_4 
REMARK    3  A    between atoms: C_5  and  C_3 
REMARK    4  A    between atoms: C_19  and  C_15 
ROOT
ATOM      1  C   UNL d   1      -1.252   4.223   0.115  0.00  0.00     0.270 C 
ATOM      2  N   UNL d   1      -1.225   2.946  -0.407  0.00  0.00    -0.265 N 
ATOM      3  O   UNL d   1      -2.239   4.694   0.676  0.00  0.00    -0.266 OA
ATOM      4  H   UNL d   1      -0.393   2.509  -0.784  0.00  0.00     0.190 HD
ENDROOT
BRANCH   2   5
ATOM      5  N   UNL d   1      -2.357   2.157  -0.327  0.00  0.00    -0.295 N 
ATOM      6  H   UNL d   1      -3.161   2.627   0.108  0.00  0.00     0.187 HD
BRANCH   5   7
ATOM      7  C   UNL d   1      -2.234   0.790   0.048  0.00  0.00     0.091 A 
ATOM      8  C   UNL d   1      -1.029   0.089   0.295  0.00  0.00     0.063 A 
ATOM      9 CL   UNL d   1       0.537   0.835   0.379  0.00  0.00    -0.082 Cl
ATOM     10  C   UNL d   1      -1.026  -1.298   0.523  0.00  0.00     0.026 A 
ATOM     11  C   UNL d   1      -2.206  -2.031   0.487  0.00  0.00     0.003 A 
ATOM     12  C   UNL d   1      -3.406  -1.377   0.244  0.00  0.00     0.026 A 
ATOM     13  C   UNL d   1      -3.419   0.008   0.035  0.00  0.00     0.063 A 
ATOM     14 CL   UNL d   1      -4.964   0.738  -0.275  0.00  0.00    -0.082 Cl
ENDBRANCH   5   7
ENDBRANCH   2   5
BRANCH   1  15
ATOM     15  C   UNL d   1       0.012   5.012  -0.015  0.00  0.00     0.033 A 
ATOM     16  C   UNL d   1       1.022   4.677  -0.928  0.00  0.00     0.017 A 
ATOM     17  C   UNL d   1       2.199   5.433  -0.991  0.00  0.00     0.008 A 
ATOM     18  C   UNL d   1       2.377   6.545  -0.160  0.00  0.00    -0.059 A 
ATOM     19  C   UNL d   1       1.356   6.890   0.737  0.00  0.00     0.008 A 
ATOM     20  C   UNL d   1       0.183   6.133   0.808  0.00  0.00     0.017 A 
BRANCH  18  21
ATOM     21  C   UNL d   1       3.652   7.345  -0.218  0.00  0.00     0.034 C 
ATOM     22  C   UNL d   1       4.693   6.816   0.756  0.00  0.00     0.010 C 
ENDBRANCH  18  21
ENDBRANCH   1  15
TORSDOF 4
