REMARK  10 active torsions:
REMARK  status: ('A' for Active; 'I' for Inactive)
REMARK    1  A    between atoms: C_9  and  S_1 
REMARK    2  A    between atoms: N_19  and  S_1 
REMARK    3  A    between atoms: S_2  and  C_10 
REMARK    4  A    between atoms: N_18  and  S_2 
REMARK    5  A    between atoms: N_11  and  C_5 
REMARK    6  A    between atoms: N_12  and  C_6 
REMARK    7  A    between atoms: C_31  and  N_18 
REMARK    8  A    between atoms: C_32  and  N_18 
REMARK    9  A    between atoms: C_29  and  N_19 
REMARK   10  A    between atoms: C_30  and  N_19 
ROOT
ATOM      1  C   UNL d   1      -1.193   5.573   0.348  0.00  0.00     0.025 A 
ATOM      2  C   UNL d   1      -0.421   4.321   0.374  0.00  0.00     0.025 A 
ATOM      3  C   UNL d   1      -0.893   6.922   0.203  0.00  0.00     0.116 A 
ATOM      4  C   UNL d   1       0.918   3.980   0.531  0.00  0.00     0.116 A 
ATOM      5  C   UNL d   1      -1.321   3.241   0.237  0.00  0.00     0.030 A 
ATOM      6  C   UNL d   1      -2.565   5.249   0.352  0.00  0.00     0.030 A 
ATOM      7  C   UNL d   1       0.415   1.627   0.160  0.00  0.00     0.083 A 
ATOM      8  C   UNL d   1      -3.255   7.526   0.205  0.00  0.00     0.078 A 
ATOM      9  C   UNL d   1      -2.691   3.785   0.267  0.00  0.00     0.194 A 
ATOM     10  C   UNL d   1       1.347   2.646   0.415  0.00  0.00     0.062 A 
ATOM     11  C   UNL d   1      -1.904   7.896   0.127  0.00  0.00     0.061 A 
ATOM     12  C   UNL d   1      -0.951   1.905   0.127  0.00  0.00     0.041 A 
ATOM     13  C   UNL d   1      -3.599   6.176   0.303  0.00  0.00     0.041 A 
ATOM     14  O   UNL d   1      -3.719   3.146   0.201  0.00  0.00    -0.287 OA
ENDROOT
BRANCH   7  15
ATOM     15  S   UNL d   1       0.992  -0.051  -0.012  0.00  0.00     0.260 S 
ATOM     16  O   UNL d   1      -0.079  -0.916   0.415  0.00  0.00    -0.200 OA
ATOM     17  O   UNL d   1       2.292  -0.120   0.627  0.00  0.00    -0.200 OA
BRANCH  15  18
ATOM     18  N   UNL d   1       1.207  -0.247  -1.702  0.00  0.00    -0.307 N 
BRANCH  18  19
ATOM     19  C   UNL d   1       1.963   0.799  -2.447  0.00  0.00     0.131 C 
ATOM     20  C   UNL d   1       3.432   0.905  -2.086  0.00  0.00     0.027 C 
ENDBRANCH  18  19
BRANCH  18  21
ATOM     21  C   UNL d   1       1.552  -1.665  -2.046  0.00  0.00     0.131 C 
ATOM     22  C   UNL d   1       1.684  -1.927  -3.538  0.00  0.00     0.027 C 
ENDBRANCH  18  21
ENDBRANCH  15  18
ENDBRANCH   7  15
BRANCH   4  23
ATOM     23  N   UNL d   1       1.905   4.929   0.993  0.00  0.00    -0.115 N 
ATOM     24  O   UNL d   1       1.643   5.523   2.045  0.00  0.00    -0.532 OA
ATOM     25  O   UNL d   1       2.934   5.048   0.319  0.00  0.00    -0.532 OA
ENDBRANCH   4  23
BRANCH   3  26
ATOM     26  N   UNL d   1       0.434   7.398  -0.110  0.00  0.00    -0.115 N 
ATOM     27  O   UNL d   1       0.967   6.913  -1.117  0.00  0.00    -0.532 OA
ATOM     28  O   UNL d   1       0.906   8.280   0.616  0.00  0.00    -0.532 OA
ENDBRANCH   3  26
BRANCH   8  29
ATOM     29  S   UNL d   1      -4.536   8.740  -0.090  0.00  0.00     0.243 S 
ATOM     30  O   UNL d   1      -4.242   9.328  -1.376  0.00  0.00    -0.206 OA
ATOM     31  O   UNL d   1      -5.787   8.054   0.163  0.00  0.00    -0.206 OA
BRANCH  29  32
ATOM     32  N   UNL d   1      -4.328   9.951   1.128  0.00  0.00    -0.207 NA
BRANCH  32  33
ATOM     33  C   UNL d   1      -3.369  11.050   0.766  0.00  0.00     0.103 C 
ATOM     34  C   UNL d   1      -3.068  12.010   1.908  0.00  0.00     0.021 C 
ENDBRANCH  32  33
BRANCH  32  35
ATOM     35  C   UNL d   1      -5.634  10.449   1.679  0.00  0.00     0.103 C 
ATOM     36  C   UNL d   1      -6.461  11.212   0.653  0.00  0.00     0.021 C 
ENDBRANCH  32  35
ENDBRANCH  29  32
ENDBRANCH   8  29
TORSDOF 10
