REMARK  5 active torsions:
REMARK  status: ('A' for Active; 'I' for Inactive)
REMARK    1  A    between atoms: C_10  and  S_1 
REMARK    2  A    between atoms: N_11  and  S_1 
REMARK    3  A    between atoms: C_2  and  C_13 
REMARK    4  A    between atoms: C_17  and  C_5 
REMARK    5  A    between atoms: C_13  and  N_11 
ROOT
ATOM      1  N   UNL d   1       0.440  -0.007  -1.437  0.00  0.00    -0.311 N 
ATOM      2  H   UNL d   1      -0.483  -0.408  -1.576  0.00  0.00     0.172 HD
ENDROOT
BRANCH   1   3
ATOM      3  S   UNL d   1       0.913   0.082   0.165  0.00  0.00     0.259 S 
ATOM      4  O   UNL d   1       0.064  -0.837   0.886  0.00  0.00    -0.201 OA
ATOM      5  O   UNL d   1       2.356   0.009   0.245  0.00  0.00    -0.201 OA
BRANCH   3   6
ATOM      6  C   UNL d   1       0.419   1.719   0.633  0.00  0.00     0.081 A 
ATOM      7  C   UNL d   1      -0.951   2.002   0.702  0.00  0.00     0.051 A 
ATOM      8  C   UNL d   1      -1.407   3.264   1.104  0.00  0.00     0.045 A 
ATOM      9  N   UNL d   1      -2.785   3.552   1.217  0.00  0.00    -0.283 NA
ATOM     10  C   UNL d   1      -0.423   4.252   1.359  0.00  0.00     0.090 A 
ATOM     11  C   UNL d   1      -3.021   4.791   1.973  0.00  0.00     0.122 C 
ATOM     12  C   UNL d   1      -3.681   2.447   1.557  0.00  0.00     0.116 C 
ATOM     13  C   UNL d   1      -2.086   5.885   1.474  0.00  0.00     0.190 C 
ATOM     14  O   UNL d   1      -0.717   5.549   1.719  0.00  0.00    -0.348 OA
ATOM     15  C   UNL d   1       0.945   3.958   1.309  0.00  0.00     0.040 A 
ATOM     16  C   UNL d   1       1.371   2.680   0.963  0.00  0.00     0.028 A 
ENDBRANCH   3   6
ENDBRANCH   1   3
BRANCH   1  17
ATOM     17  C   UNL d   1       0.978   0.888  -2.448  0.00  0.00     0.176 C 
BRANCH  17  18
ATOM     18  C   UNL d   1       2.387   0.565  -2.767  0.00  0.00     0.021 A 
ATOM     19  C   UNL d   1       2.977  -0.657  -3.237  0.00  0.00     0.075 A 
ATOM     20  N   UNL d   1       4.308  -0.508  -3.361  0.00  0.00    -0.260 N 
ATOM     21  O   UNL d   1       4.601   0.779  -2.987  0.00  0.00    -0.242 OA
ATOM     22  HN  UNL d   1       4.972  -1.216  -3.673  1.00  0.00     0.195 HD
ATOM     23  C   UNL d   1       3.461   1.423  -2.643  0.00  0.00     0.083 A 
ATOM     24  C   UNL d   1       3.610   2.830  -2.226  0.00  0.00     0.079 C 
BRANCH  19  25
ATOM     25  C   UNL d   1       2.357  -1.943  -3.575  0.00  0.00    -0.007 A 
ATOM     26  C   UNL d   1       3.044  -3.141  -3.316  0.00  0.00     0.014 A 
ATOM     27  C   UNL d   1       2.491  -4.377  -3.663  0.00  0.00     0.001 A 
ATOM     28  C   UNL d   1       1.240  -4.433  -4.271  0.00  0.00     0.000 A 
ATOM     29  C   UNL d   1       0.546  -3.256  -4.537  0.00  0.00     0.001 A 
ATOM     30  C   UNL d   1       1.104  -2.018  -4.198  0.00  0.00     0.014 A 
ENDBRANCH  19  25
ENDBRANCH  17  18
ENDBRANCH   1  17
TORSDOF 5
