REMARK  4 active torsions:
REMARK  status: ('A' for Active; 'I' for Inactive)
REMARK    1  A    between atoms: C_16  and  C_2 
REMARK    2  A    between atoms: N_13  and  C_7 
REMARK    3  A    between atoms: N_10  and  N_13 
REMARK    4  A    between atoms: C_12  and  C_14 
ROOT
ATOM      1  C   UNL d   1       0.463  -0.363  -0.001  0.00  0.00     0.141 C 
ATOM      2  C   UNL d   1      -0.365  -1.423  -0.021  0.00  0.00     0.085 C 
ATOM      3  N   UNL d   1      -1.546   0.972   0.077  0.00  0.00    -0.153 N 
ATOM      4  C   UNL d   1      -0.182   0.965   0.010  0.00  0.00     0.282 C 
ATOM      5  N   UNL d   1      -1.734  -1.330  -0.091  0.00  0.00    -0.188 N 
ATOM      6  HN  UNL d   1      -2.303  -2.172  -0.175  1.00  0.00     0.184 HD
ATOM      7  C   UNL d   1      -2.294  -0.162  -0.049  0.00  0.00     0.700 C 
ATOM      8  C   UNL d   1       1.874  -0.446  -0.016  0.00  0.00     0.107 C 
ATOM      9  N   UNL d   1       3.034  -0.532  -0.043  0.00  0.00    -0.191 NA
ATOM     10  O   UNL d   1       0.447   2.015  -0.059  0.00  0.00    -0.266 OA
ATOM     11  H   UNL d   1      -1.985   1.877   0.008  0.00  0.00     0.187 HD
ENDROOT
BRANCH   2  12
ATOM     12  C   UNL d   1       0.154  -2.806   0.001  0.00  0.00    -0.007 A 
ATOM     13  C   UNL d   1       0.405  -3.440   1.225  0.00  0.00     0.014 A 
ATOM     14  C   UNL d   1       0.856  -4.761   1.256  0.00  0.00     0.001 A 
ATOM     15  C   UNL d   1       1.055  -5.458   0.064  0.00  0.00     0.000 A 
ATOM     16  C   UNL d   1       0.802  -4.836  -1.158  0.00  0.00     0.001 A 
ATOM     17  C   UNL d   1       0.351  -3.514  -1.192  0.00  0.00     0.014 A 
ENDBRANCH   2  12
BRANCH   7  18
ATOM     18  N   UNL d   1      -3.653   0.025  -0.182  0.00  0.00    -0.132 N 
ATOM     19  H   UNL d   1      -4.054   0.745   0.415  0.00  0.00     0.205 HD
BRANCH  18  20
ATOM     20  N   UNL d   1      -4.558  -0.911  -0.619  0.00  0.00    -0.295 N 
ATOM     21  C   UNL d   1      -4.158  -1.629  -1.627  0.00  0.00     0.144 C 
ATOM     22  HN  UNL d   1      -5.473  -1.034  -0.186  1.00  0.00     0.186 HD
BRANCH  21  23
ATOM     23  C   UNL d   1      -4.971  -2.673  -2.167  0.00  0.00     0.091 A 
ATOM     24  O   UNL d   1      -4.484  -3.379  -3.232  0.00  0.00    -0.321 OA
ATOM     25  C   UNL d   1      -5.416  -4.315  -3.546  0.00  0.00     0.142 A 
ATOM     26  C   UNL d   1      -6.500  -4.216  -2.706  0.00  0.00     0.027 A 
ATOM     27  C   UNL d   1      -6.215  -3.152  -1.818  0.00  0.00     0.040 A 
ENDBRANCH  21  23
ENDBRANCH  18  20
ENDBRANCH   7  18
TORSDOF 4
