REMARK  6 active torsions:
REMARK  status: ('A' for Active; 'I' for Inactive)
REMARK    1  A    between atoms: C_8  and  C_1 
REMARK    2  A    between atoms: O_14  and  C_2 
REMARK    3  A    between atoms: N_4  and  C_11 
REMARK    4  A    between atoms: C_13  and  N_6 
REMARK    5  A    between atoms: N_9  and  C_8 
REMARK    6  A    between atoms: O_20  and  C_15 
ROOT
ATOM      1  C   UNL d   1      -0.452  -0.858  -0.064  0.00  0.00    -0.005 A 
ATOM      2  C   UNL d   1      -0.522   0.548  -0.002  0.00  0.00     0.079 A 
ATOM      3  C   UNL d   1       0.634   1.348  -0.017  0.00  0.00    -0.026 A 
ATOM      4  C   UNL d   1       0.824  -1.428  -0.223  0.00  0.00     0.042 A 
ATOM      5  C   UNL d   1       2.001  -0.663  -0.192  0.00  0.00     0.049 A 
ATOM      6  C   UNL d   1       1.889   0.726  -0.099  0.00  0.00     0.040 A 
ATOM      7  C   UNL d   1       0.582   2.850   0.059  0.00  0.00     0.051 C 
ENDROOT
BRANCH   5   8
ATOM      8  N   UNL d   1       3.288  -1.245  -0.259  0.00  0.00    -0.300 N 
ATOM      9  N   UNL d   1       3.340  -2.282   0.440  0.00  0.00    -0.300 N 
ATOM     10  HN  UNL d   1       2.533  -2.668   0.931  1.00  0.00     0.187 HD
ATOM     11  HN  UNL d   1       4.067  -0.872  -0.802  1.00  0.00     0.187 HD
BRANCH   9  12
ATOM     12  C   UNL d   1       4.621  -2.865   0.481  0.00  0.00     0.048 A 
ATOM     13  C   UNL d   1       5.797  -2.121   0.640  0.00  0.00     0.034 A 
ATOM     14  C   UNL d   1       7.039  -2.752   0.782  0.00  0.00     0.039 A 
ATOM     15  C   UNL d   1       7.120  -4.146   0.770  0.00  0.00     0.068 A 
ATOM     16  C   UNL d   1       5.953  -4.894   0.606  0.00  0.00     0.039 A 
ATOM     17  C   UNL d   1       4.715  -4.260   0.465  0.00  0.00     0.034 A 
BRANCH  15  18
ATOM     18  O   UNL d   1       8.260  -4.888   0.912  0.00  0.00    -0.356 OA
ATOM     19  C   UNL d   1       9.470  -4.173   1.129  0.00  0.00     0.210 C 
ENDBRANCH  15  18
ENDBRANCH   9  12
ENDBRANCH   5   8
BRANCH   1  20
ATOM     20  C   UNL d   1      -1.698  -1.726   0.008  0.00  0.00     0.158 C 
BRANCH  20  21
ATOM     21  N   UNL d   1      -1.609  -3.069   0.567  0.00  0.00    -0.408 N 
ATOM     22  C   UNL d   1      -0.974  -3.261   1.861  0.00  0.00     0.117 C 
ATOM     23  C   UNL d   1      -0.055  -4.457   1.667  0.00  0.00     0.021 C 
ATOM     24  C   UNL d   1      -0.712  -5.245   0.549  0.00  0.00     0.021 C 
ATOM     25  C   UNL d   1      -1.349  -4.179  -0.331  0.00  0.00     0.117 C 
ENDBRANCH  20  21
ENDBRANCH   1  20
BRANCH   2  26
ATOM     26  O   UNL d   1      -1.718   1.211   0.079  0.00  0.00    -0.360 OA
ATOM     27  H   UNL d   1      -2.445   0.631  -0.186  0.00  0.00     0.217 HD
ENDBRANCH   2  26
TORSDOF 6
