REMARK  4 active torsions:
REMARK  status: ('A' for Active; 'I' for Inactive)
REMARK    1  A    between atoms: CA_2  and  C_1 
REMARK    2  A    between atoms: OXT_6  and  C_1 
REMARK    3  A    between atoms: C_4  and  CA_2 
REMARK    4  A    between atoms: CA_2  and  N_5 
ROOT
ATOM      1  CA  UNL d   1       0.376  -0.833  -0.983  0.00  0.00     0.347 C 
ENDROOT
BRANCH   1   2
ATOM      2  C   UNL d   1       1.041  -1.934  -1.840  0.00  0.00     0.178 C 
ATOM      3  O   UNL d   1       1.703  -1.757  -2.848  0.00  0.00    -0.648 OA
BRANCH   2   4
ATOM      4  OXT UNL d   1       0.820  -3.170  -1.307  0.00  0.00    -0.775 OA
ATOM      5  HXT UNL d   1       0.303  -3.015  -0.476  0.00  0.00     0.167 HD
ENDBRANCH   2   4
ENDBRANCH   1   2
BRANCH   1   6
ATOM      6  C   UNL d   1      -0.507   0.091  -1.792  0.00  0.00    -0.015 A 
ATOM      7  C   UNL d   1      -1.603  -0.406  -2.520  0.00  0.00     0.010 A 
ATOM      8  C   UNL d   1      -2.424   0.455  -3.249  0.00  0.00     0.001 A 
ATOM      9  C   UNL d   1      -2.154   1.821  -3.271  0.00  0.00     0.000 A 
ATOM     10  C   UNL d   1      -1.064   2.327  -2.566  0.00  0.00     0.001 A 
ATOM     11  C   UNL d   1      -0.247   1.469  -1.826  0.00  0.00     0.010 A 
ENDBRANCH   1   6
BRANCH   1  12
ATOM     12  N   UNL d   1      -0.400  -1.479   0.127  0.00  0.00     0.097 N 
ATOM     13  H1  UNL d   1      -1.356  -1.636  -0.210  0.00  0.00     0.314 HD
ATOM     14  H2  UNL d   1      -0.526  -0.760   0.846  0.00  0.00     0.314 HD
ENDBRANCH   1  12
TORSDOF 4
