REMARK  5 active torsions:
REMARK  status: ('A' for Active; 'I' for Inactive)
REMARK    1  A    between atoms: C_7  and  C_1 
REMARK    2  A    between atoms: C_6  and  C_11 
REMARK    3  A    between atoms: C_9  and  C_7 
REMARK       I    between atoms: C_8  and  N_10 
REMARK    4  A    between atoms: C_13  and  C_8 
REMARK       I    between atoms: N_12  and  C_9 
REMARK    5  A    between atoms: N_10  and  N_12 
ROOT
ATOM      1  C   UNL d   1       4.314   1.663  -0.348  0.00  0.00     0.240 C 
ATOM      2  N   UNL d   1       3.421   2.691  -0.122  0.00  0.00    -0.267 N 
ATOM      3  O   UNL d   1       5.484   1.887  -0.671  0.00  0.00    -0.271 OA
ATOM      4  H   UNL d   1       2.525   2.547   0.345  0.00  0.00     0.190 HD
ENDROOT
BRANCH   2   5
ATOM      5  N   UNL d   1       3.977   3.986  -0.001  0.00  0.00    -0.263 N 
ATOM      6  C   UNL d   1       3.378   4.862   0.889  0.00  0.00     0.270 C 
ATOM      7  O   UNL d   1       2.288   4.634   1.406  0.00  0.00    -0.266 OA
ATOM      8  H   UNL d   1       4.980   4.029  -0.186  0.00  0.00     0.190 HD
BRANCH   6   9
ATOM      9  C   UNL d   1       4.162   6.079   1.252  0.00  0.00     0.033 A 
ATOM     10  C   UNL d   1       5.150   6.614   0.413  0.00  0.00     0.018 A 
ATOM     11  C   UNL d   1       5.897   7.725   0.823  0.00  0.00     0.017 A 
ATOM     12  C   UNL d   1       5.665   8.326   2.070  0.00  0.00     0.048 A 
ATOM     13  C   UNL d   1       4.646   7.809   2.888  0.00  0.00     0.017 A 
ATOM     14  C   UNL d   1       3.899   6.700   2.478  0.00  0.00     0.018 A 
BRANCH  12  15
ATOM     15  C   UNL d   1       6.490   9.499   2.543  0.00  0.00     0.417 C 
ATOM     16  F   UNL d   1       7.458   9.874   1.660  0.00  0.00    -0.166 F 
ATOM     17  F   UNL d   1       5.738  10.612   2.767  0.00  0.00    -0.166 F 
ATOM     18  F   UNL d   1       7.134   9.241   3.714  0.00  0.00    -0.166 F 
ENDBRANCH  12  15
ENDBRANCH   6   9
ENDBRANCH   2   5
BRANCH   1  19
ATOM     19  C   UNL d   1       3.821   0.266  -0.049  0.00  0.00     0.151 C 
BRANCH  19  20
ATOM     20  C   UNL d   1       2.723  -0.225  -0.951  0.00  0.00    -0.001 C 
ATOM     21  S   UNL d   1       1.242  -0.692  -0.229  0.00  0.00    -0.093 SA
ATOM     22  C   UNL d   1       0.674  -1.446  -1.660  0.00  0.00     0.016 A 
ATOM     23  C   UNL d   1      -0.505  -2.206  -1.802  0.00  0.00     0.021 A 
ATOM     24  C   UNL d   1       1.549  -1.230  -2.726  0.00  0.00    -0.011 A 
ATOM     25  C   UNL d   1      -0.802  -2.770  -3.043  0.00  0.00     0.025 A 
ATOM     26  C   UNL d   1       0.040  -2.557  -4.123  0.00  0.00     0.035 A 
ATOM     27  C   UNL d   1       1.199  -1.788  -3.985  0.00  0.00     0.037 A 
ATOM     28 CL   UNL d   1      -0.332  -3.267  -5.647  0.00  0.00    -0.084 Cl
ATOM     29  C   UNL d   1       2.731  -0.488  -2.314  0.00  0.00    -0.037 C 
ATOM     30  C   UNL d   1       3.845  -0.161  -3.262  0.00  0.00     0.050 C 
ENDBRANCH  19  20
ENDBRANCH   1  19
TORSDOF 5
