REMARK  5 active torsions:
REMARK  status: ('A' for Active; 'I' for Inactive)
REMARK    1  A    between atoms: C_10  and  C_1 
REMARK    2  A    between atoms: C_6  and  O_11 
REMARK       I    between atoms: C_7  and  N_9 
REMARK       I    between atoms: N_8  and  C_7 
REMARK    3  A    between atoms: C_16  and  N_8 
REMARK    4  A    between atoms: N_9  and  C_10 
REMARK    5  A    between atoms: O_11  and  C_17 
ROOT
ATOM      1  C   UNL d   1       5.491   1.568  -0.338  0.00  0.00     0.321 C 
ATOM      2  N   UNL d   1       5.953   2.824  -0.661  0.00  0.00    -0.309 N 
ATOM      3  N   UNL d   1       4.115   1.471  -0.441  0.00  0.00    -0.338 N 
ATOM      4  O   UNL d   1       6.178   0.615  -0.002  0.00  0.00    -0.247 OA
ATOM      5  H   UNL d   1       5.276   3.438  -1.096  0.00  0.00     0.170 HD
ATOM      6  H   UNL d   1       3.598   2.318  -0.271  0.00  0.00     0.164 HD
ENDROOT
BRANCH   3   7
ATOM      7  C   UNL d   1       3.515   0.247   0.048  0.00  0.00     0.171 C 
BRANCH   7   8
ATOM      8  C   UNL d   1       2.021   0.315  -0.015  0.00  0.00     0.008 A 
ATOM      9  S   UNL d   1       1.168   0.887   1.352  0.00  0.00    -0.092 SA
ATOM     10  C   UNL d   1      -0.358   0.459   0.693  0.00  0.00     0.016 A 
ATOM     11  C   UNL d   1      -1.614   0.568   1.327  0.00  0.00     0.019 A 
ATOM     12  C   UNL d   1      -0.227  -0.046  -0.601  0.00  0.00    -0.012 A 
ATOM     13  C   UNL d   1      -2.759   0.151   0.643  0.00  0.00     0.001 A 
ATOM     14  C   UNL d   1      -2.660  -0.356  -0.642  0.00  0.00     0.001 A 
ATOM     15  C   UNL d   1      -1.413  -0.448  -1.271  0.00  0.00     0.013 A 
ATOM     16  C   UNL d   1       1.163  -0.093  -1.026  0.00  0.00    -0.036 A 
ATOM     17  C   UNL d   1       1.589  -0.599  -2.368  0.00  0.00     0.050 C 
ENDBRANCH   7   8
ENDBRANCH   3   7
BRANCH   2  18
ATOM     18  C   UNL d   1       7.277   3.303  -0.560  0.00  0.00     0.036 A 
ATOM     19  C   UNL d   1       8.338   2.565  -0.028  0.00  0.00     0.032 A 
ATOM     20  C   UNL d   1       9.630   3.109   0.061  0.00  0.00     0.039 A 
ATOM     21  C   UNL d   1       9.885   4.395  -0.407  0.00  0.00     0.078 A 
ATOM     22  C   UNL d   1       8.822   5.143  -0.917  0.00  0.00     0.039 A 
ATOM     23  C   UNL d   1       7.532   4.604  -0.999  0.00  0.00     0.032 A 
BRANCH  21  24
ATOM     24  O   UNL d   1      11.087   5.037  -0.437  0.00  0.00    -0.255 OA
BRANCH  24  25
ATOM     25  C   UNL d   1      12.258   4.321  -0.076  0.00  0.00     0.530 C 
ATOM     26  F   UNL d   1      12.309   3.099  -0.644  0.00  0.00    -0.144 F 
ATOM     27  F   UNL d   1      13.332   5.021  -0.506  0.00  0.00    -0.144 F 
ATOM     28  F   UNL d   1      12.343   4.202   1.266  0.00  0.00    -0.144 F 
ENDBRANCH  24  25
ENDBRANCH  21  24
ENDBRANCH   2  18
TORSDOF 5
