REMARK  11 active torsions:
REMARK  status: ('A' for Active; 'I' for Inactive)
REMARK    1  A    between atoms: C_2  and  S_1 
REMARK    2  A    between atoms: N_3  and  S_1 
REMARK    3  A    between atoms: N_7  and  N_3 
REMARK       I    between atoms: C_6  and  N_13 
REMARK    4  A    between atoms: C_16  and  C_6 
REMARK       I    between atoms: C_9  and  N_7 
REMARK    5  A    between atoms: C_18  and  C_8 
REMARK    6  A    between atoms: C_14  and  C_9 
REMARK    7  A    between atoms: N_13  and  C_18 
REMARK    8  A    between atoms: C_21  and  C_14 
REMARK    9  A    between atoms: S_19  and  C_21 
REMARK   10  A    between atoms: C_20  and  S_19 
REMARK   11  A    between atoms: O_27  and  C_22 
ROOT
ATOM      1  S   UNL d   1       1.052  -0.037  -0.127  0.00  0.00     0.282 S 
ATOM      2  O   UNL d   1       2.417   0.167   0.309  0.00  0.00    -0.198 OA
ATOM      3  O   UNL d   1       0.695  -0.003  -1.529  0.00  0.00    -0.198 OA
ENDROOT
BRANCH   1   4
ATOM      4  C   UNL d   1       0.124   1.294   0.602  0.00  0.00     0.122 A 
ATOM      5  S   UNL d   1      -1.033   0.871   1.785  0.00  0.00    -0.080 SA
ATOM      6  C   UNL d   1      -1.522   2.498   2.003  0.00  0.00     0.002 A 
ATOM      7  C   UNL d   1      -0.808   3.351   1.183  0.00  0.00     0.018 A 
ATOM      8  C   UNL d   1       0.141   2.657   0.377  0.00  0.00     0.034 A 
BRANCH   6   9
ATOM      9  C   UNL d   1      -2.611   2.836   2.972  0.00  0.00     0.169 C 
BRANCH   9  10
ATOM     10  N   UNL d   1      -3.871   2.770   2.273  0.00  0.00    -0.352 N 
ATOM     11  C   UNL d   1      -5.059   2.998   2.930  0.00  0.00     0.251 C 
ATOM     12  O   UNL d   1      -5.129   3.283   4.120  0.00  0.00    -0.268 OA
ATOM     13  H   UNL d   1      -3.859   2.758   1.262  0.00  0.00     0.163 HD
BRANCH  11  14
ATOM     14  C   UNL d   1      -6.285   2.918   2.092  0.00  0.00     0.032 A 
ATOM     15  C   UNL d   1      -6.359   2.060   0.985  0.00  0.00     0.017 A 
ATOM     16  C   UNL d   1      -7.520   2.015   0.211  0.00  0.00     0.001 A 
ATOM     17  C   UNL d   1      -8.611   2.817   0.544  0.00  0.00     0.000 A 
ATOM     18  C   UNL d   1      -8.550   3.657   1.657  0.00  0.00     0.001 A 
ATOM     19  C   UNL d   1      -7.391   3.703   2.434  0.00  0.00     0.017 A 
ENDBRANCH  11  14
ENDBRANCH   9  10
ENDBRANCH   6   9
ENDBRANCH   1   4
BRANCH   1  20
ATOM     20  N   UNL d   1       0.514  -1.505   0.503  0.00  0.00    -0.220 N 
ATOM     21  H   UNL d   1      -0.493  -1.587   0.695  0.00  0.00     0.200 HD
BRANCH  20  22
ATOM     22  N   UNL d   1       1.182  -2.735   0.124  0.00  0.00    -0.260 N 
ATOM     23  C   UNL d   1       0.445  -3.897   0.170  0.00  0.00     0.237 C 
ATOM     24  O   UNL d   1      -0.735  -3.917   0.521  0.00  0.00    -0.272 OA
ATOM     25  H   UNL d   1       2.106  -2.678  -0.307  0.00  0.00     0.190 HD
BRANCH  23  26
ATOM     26  C   UNL d   1       1.198  -5.154  -0.209  0.00  0.00     0.115 C 
BRANCH  26  27
ATOM     27  C   UNL d   1       1.567  -5.237  -1.685  0.00  0.00     0.089 C 
BRANCH  27  28
ATOM     28  S   UNL d   1       2.951  -4.118  -2.111  0.00  0.00    -0.130 SA
BRANCH  28  29
ATOM     29  C   UNL d   1       3.104  -4.473  -3.851  0.00  0.00     0.000 A 
ATOM     30  C   UNL d   1       2.825  -3.476  -4.790  0.00  0.00     0.021 A 
ATOM     31  C   UNL d   1       2.985  -3.723  -6.160  0.00  0.00     0.038 A 
ATOM     32  C   UNL d   1       3.431  -4.968  -6.601  0.00  0.00     0.068 A 
ATOM     33  C   UNL d   1       3.713  -5.962  -5.661  0.00  0.00     0.038 A 
ATOM     34  C   UNL d   1       3.555  -5.718  -4.294  0.00  0.00     0.021 A 
BRANCH  32  35
ATOM     35  O   UNL d   1       3.637  -5.338  -7.901  0.00  0.00    -0.356 OA
ATOM     36  C   UNL d   1       3.395  -4.352  -8.898  0.00  0.00     0.210 C 
ENDBRANCH  32  35
ENDBRANCH  28  29
ENDBRANCH  27  28
ENDBRANCH  26  27
ENDBRANCH  23  26
ENDBRANCH  20  22
ENDBRANCH   1  20
TORSDOF 11
