REMARK  2 active torsions:
REMARK  status: ('A' for Active; 'I' for Inactive)
REMARK    1  A    between atoms: S_2  and  C_1 
REMARK    2  A    between atoms: C_7  and  S_2 
ROOT
ATOM      1  C   UNL d   1       1.053  -3.625  -0.823  0.00  0.00     0.051 A 
ATOM      2  C   UNL d   1       1.331  -3.467  -2.192  0.00  0.00     0.068 A 
ATOM      3  C   UNL d   1       1.723  -4.654  -0.137  0.00  0.00     0.068 A 
ATOM      4  N   UNL d   1       2.885  -5.329  -2.155  0.00  0.00    -0.372 N 
ATOM      5  HN  UNL d   1       3.541  -5.944  -2.636  1.00  0.00     0.164 HD
ATOM      6 CL   UNL d   1       1.533  -4.961   1.553  0.00  0.00    -0.081 Cl
ATOM      7 CL   UNL d   1       0.636  -2.229  -3.177  0.00  0.00    -0.081 Cl
ATOM      8  C   UNL d   1       2.612  -5.463  -0.839  0.00  0.00     0.113 A 
ATOM      9  C   UNL d   1       2.237  -4.333  -2.799  0.00  0.00     0.113 A 
ENDROOT
BRANCH   1  10
ATOM     10  S   UNL d   1      -0.008  -2.462   0.050  0.00  0.00    -0.087 SA
BRANCH  10  11
ATOM     11  C   UNL d   1      -1.610  -3.237  -0.060  0.00  0.00     0.005 A 
ATOM     12  C   UNL d   1      -2.089  -4.015   1.000  0.00  0.00     0.020 A 
ATOM     13  C   UNL d   1      -3.392  -4.528   0.972  0.00  0.00     0.025 A 
ATOM     14  C   UNL d   1      -4.219  -4.259  -0.114  0.00  0.00     0.034 A 
ATOM     15  C   UNL d   1      -3.754  -3.487  -1.177  0.00  0.00     0.025 A 
ATOM     16 CL   UNL d   1      -5.832  -4.856  -0.133  0.00  0.00    -0.084 Cl
ATOM     17  C   UNL d   1      -2.453  -2.974  -1.146  0.00  0.00     0.020 A 
ENDBRANCH  10  11
ENDBRANCH   1  10
TORSDOF 2
