REMARK  9 active torsions:
REMARK  status: ('A' for Active; 'I' for Inactive)
REMARK    1  A    between atoms: N_2  and  C_1 
REMARK    2  A    between atoms: C_3  and  C_1 
REMARK    3  A    between atoms: C_4  and  C_1 
REMARK    4  A    between atoms: N_5  and  C_1 
REMARK       I    between atoms: C_6  and  N_2 
REMARK    5  A    between atoms: O_15  and  C_4 
REMARK    6  A    between atoms: C_7  and  N_5 
REMARK    7  A    between atoms: O_14  and  C_6 
REMARK    8  A    between atoms: C_20  and  O_14 
REMARK    9  A    between atoms: C_21  and  O_15 
ROOT
ATOM      1  C   UNL d   1       0.885  -0.008  -0.130  0.00  0.00     0.298 C 
ENDROOT
BRANCH   1   2
ATOM      2  N   UNL d   1       0.183  -0.757  -1.169  0.00  0.00    -0.294 N 
ATOM      3  C   UNL d   1       0.156  -2.108  -1.218  0.00  0.00     0.363 C 
ATOM      4  O   UNL d   1       0.802  -2.845  -0.498  0.00  0.00    -0.238 OA
ATOM      5  H   UNL d   1      -0.528  -0.280  -1.707  0.00  0.00     0.168 HD
BRANCH   3   6
ATOM      6  O   UNL d   1      -0.708  -2.482  -2.189  0.00  0.00    -0.304 OA
BRANCH   6   7
ATOM      7  C   UNL d   1      -0.831  -3.894  -2.416  0.00  0.00     0.176 C 
ATOM      8  C   UNL d   1       0.246  -4.358  -3.377  0.00  0.00     0.034 C 
ENDBRANCH   6   7
ENDBRANCH   3   6
ENDBRANCH   1   2
BRANCH   1   9
ATOM      9  C   UNL d   1       0.487  -0.408   1.334  0.00  0.00     0.442 C 
ATOM     10  F   UNL d   1      -0.740  -0.987   1.383  0.00  0.00    -0.166 F 
ATOM     11  F   UNL d   1       1.366  -1.299   1.865  0.00  0.00    -0.166 F 
ATOM     12  F   UNL d   1       0.448   0.641   2.190  0.00  0.00    -0.166 F 
ENDBRANCH   1   9
BRANCH   1  13
ATOM     13  C   UNL d   1       0.417   1.462  -0.233  0.00  0.00     0.318 C 
ATOM     14  O   UNL d   1      -0.666   1.787  -0.713  0.00  0.00    -0.260 OA
BRANCH  13  15
ATOM     15  O   UNL d   1       1.349   2.340   0.231  0.00  0.00    -0.318 OA
BRANCH  15  16
ATOM     16  C   UNL d   1       1.070   3.734   0.044  0.00  0.00     0.174 C 
ATOM     17  C   UNL d   1       1.416   4.161  -1.372  0.00  0.00     0.034 C 
ENDBRANCH  15  16
ENDBRANCH  13  15
ENDBRANCH   1  13
BRANCH   1  18
ATOM     18  N   UNL d   1       2.342  -0.160  -0.394  0.00  0.00    -0.348 N 
ATOM     19  H   UNL d   1       2.702  -1.034  -0.011  0.00  0.00     0.163 HD
BRANCH  18  20
ATOM     20  C   UNL d   1       3.030   0.256  -1.525  0.00  0.00     0.030 A 
ATOM     21  C   UNL d   1       2.444   0.878  -2.633  0.00  0.00     0.036 A 
ATOM     22  C   UNL d   1       3.209   1.366  -3.705  0.00  0.00    -0.060 A 
ATOM     23  C   UNL d   1       2.547   2.022  -4.880  0.00  0.00     0.048 C 
ATOM     24  C   UNL d   1       4.599   1.248  -3.659  0.00  0.00     0.007 A 
ATOM     25  C   UNL d   1       5.208   0.643  -2.564  0.00  0.00     0.003 A 
ATOM     26  C   UNL d   1       4.429   0.155  -1.512  0.00  0.00     0.029 A 
ENDBRANCH  18  20
ENDBRANCH   1  18
TORSDOF 9
