REMARK  4 active torsions:
REMARK  status: ('A' for Active; 'I' for Inactive)
REMARK    1  A    between atoms: C_11  and  C_1 
REMARK    2  A    between atoms: C_5  and  C_8 
REMARK    3  A    between atoms: C_14  and  C_7 
REMARK       I    between atoms: C_13  and  N_15 
REMARK    4  A    between atoms: N_15  and  C_24 
ROOT
ATOM      1  C   UNL d   1       1.016   0.603   0.120  0.00  0.00     0.140 C 
ATOM      2  N   UNL d   1      -0.278   1.167  -0.062  0.00  0.00    -0.351 N 
ATOM      3  N   UNL d   1       0.992  -0.683   0.298  0.00  0.00    -0.303 N 
ATOM      4  HN  UNL d   1       1.791  -1.308   0.406  1.00  0.00     0.182 HD
ATOM      5  N   UNL d   1      -0.343  -1.024   0.311  0.00  0.00    -0.211 NA
ATOM      6  C   UNL d   1      -1.211   0.063  -0.149  0.00  0.00     0.209 C 
ATOM      7  H   UNL d   1      -0.418   2.150  -0.236  0.00  0.00     0.163 HD
ATOM      8  H   UNL d   1      -0.548  -1.909  -0.152  0.00  0.00     0.149 HD
ENDROOT
BRANCH   1   9
ATOM      9  C   UNL d   1       2.198   1.471  -0.014  0.00  0.00     0.077 A 
ATOM     10  N   UNL d   1       1.939   2.784  -0.268  0.00  0.00    -0.362 N 
ATOM     11  C   UNL d   1       3.017   3.585  -0.455  0.00  0.00     0.104 A 
ATOM     12  HN  UNL d   1       0.986   3.145  -0.314  1.00  0.00     0.165 HD
ATOM     13  C   UNL d   1       4.333   3.140  -0.410  0.00  0.00     0.063 A 
ATOM     14  C   UNL d   1       4.553   1.779  -0.160  0.00  0.00     0.020 A 
ATOM     15  C   UNL d   1       3.472   0.926   0.042  0.00  0.00     0.034 A 
BRANCH  13  16
ATOM     16  C   UNL d   1       5.478   4.088  -0.621  0.00  0.00     0.418 C 
ATOM     17  F   UNL d   1       5.083   5.368  -0.861  0.00  0.00    -0.166 F 
ATOM     18  F   UNL d   1       6.304   4.144   0.458  0.00  0.00    -0.166 F 
ATOM     19  F   UNL d   1       6.256   3.729  -1.676  0.00  0.00    -0.166 F 
ENDBRANCH  13  16
ENDBRANCH   1   9
BRANCH   6  20
ATOM     20  C   UNL d   1      -1.654  -0.066  -1.590  0.00  0.00    -0.020 A 
ATOM     21  C   UNL d   1      -0.742  -0.283  -2.639  0.00  0.00     0.013 A 
ATOM     22  C   UNL d   1      -1.170  -0.347  -3.970  0.00  0.00     0.030 A 
ATOM     23  C   UNL d   1      -2.522  -0.203  -4.290  0.00  0.00     0.034 A 
ATOM     24  C   UNL d   1      -3.434  -0.000  -3.252  0.00  0.00     0.030 A 
ATOM     25  C   UNL d   1      -3.008   0.068  -1.919  0.00  0.00     0.013 A 
BRANCH  23  26
ATOM     26  N   UNL d   1      -2.880  -0.265  -5.654  0.00  0.00    -0.328 N 
ATOM     27  C   UNL d   1      -4.149  -0.130  -6.186  0.00  0.00     0.218 C 
ATOM     28  O   UNL d   1      -5.187   0.065  -5.561  0.00  0.00    -0.274 OA
ATOM     29  C   UNL d   1      -4.187  -0.244  -7.689  0.00  0.00     0.117 C 
ATOM     30  H   UNL d   1      -2.121  -0.418  -6.306  0.00  0.00     0.169 HD
ENDBRANCH  23  26
ENDBRANCH   6  20
TORSDOF 4
