REMARK  3 active torsions:
REMARK  status: ('A' for Active; 'I' for Inactive)
REMARK    1  A    between atoms: C_9  and  C_3 
REMARK    2  A    between atoms: C_8  and  C_7 
REMARK    3  A    between atoms: C_13  and  C_9 
ROOT
ATOM      1  N   UNL d   1       1.251  -1.135  -0.101  0.00  0.00    -0.297 N 
ATOM      2  HN  UNL d   1       1.778  -2.008  -0.104  1.00  0.00     0.187 HD
ATOM      3  C   UNL d   1      -0.216   1.295  -0.047  0.00  0.00     0.018 A 
ATOM      4  N   UNL d   1      -0.111  -1.122  -0.178  0.00  0.00    -0.266 N 
ATOM      5  C   UNL d   1      -0.910  -0.007  -0.208  0.00  0.00     0.266 A 
ATOM      6  C   UNL d   1       1.121   1.311   0.023  0.00  0.00     0.045 A 
ATOM      7  C   UNL d   1       1.845   0.017  -0.025  0.00  0.00     0.059 A 
ATOM      8  O   UNL d   1      -2.126  -0.083  -0.359  0.00  0.00    -0.266 OA
ATOM      9  H   UNL d   1      -0.568  -2.022  -0.273  0.00  0.00     0.190 HD
ENDROOT
BRANCH   3  10
ATOM     10  C   UNL d   1      -1.056   2.539   0.012  0.00  0.00     0.083 C 
BRANCH  10  11
ATOM     11  C   UNL d   1      -1.500   2.876   1.418  0.00  0.00    -0.054 A 
ATOM     12  C   UNL d   1      -0.716   3.696   2.241  0.00  0.00     0.008 A 
ATOM     13  C   UNL d   1      -1.114   3.971   3.552  0.00  0.00     0.007 A 
ATOM     14  C   UNL d   1      -2.299   3.431   4.063  0.00  0.00    -0.062 A 
ATOM     15  C   UNL d   1      -3.081   2.611   3.243  0.00  0.00     0.007 A 
ATOM     16  C   UNL d   1      -2.709   3.721   5.476  0.00  0.00     0.048 C 
ATOM     17  C   UNL d   1      -2.684   2.335   1.933  0.00  0.00     0.008 A 
ENDBRANCH  10  11
ENDBRANCH   3  10
BRANCH   7  18
ATOM     18  C   UNL d   1       3.334   0.070   0.054  0.00  0.00    -0.008 A 
ATOM     19  C   UNL d   1       4.014  -0.999   0.659  0.00  0.00     0.017 A 
ATOM     20  C   UNL d   1       5.407  -0.979   0.762  0.00  0.00     0.043 A 
ATOM     21  C   UNL d   1       6.116   0.103   0.256  0.00  0.00     0.116 A 
ATOM     22  C   UNL d   1       5.461   1.162  -0.363  0.00  0.00     0.043 A 
ATOM     23  F   UNL d   1       7.451   0.126   0.358  0.00  0.00    -0.206 F 
ATOM     24  C   UNL d   1       4.069   1.144  -0.472  0.00  0.00     0.017 A 
ENDBRANCH   7  18
TORSDOF 3
