REMARK  13 active torsions:
REMARK  status: ('A' for Active; 'I' for Inactive)
REMARK    1  A    between atoms: C_1  and  O_7 
REMARK    2  A    between atoms: C_2  and  O_8 
REMARK    3  A    between atoms: C_3  and  O_10 
REMARK    4  A    between atoms: C_4  and  O_9 
REMARK    5  A    between atoms: C_6  and  C_17 
REMARK    6  A    between atoms: C_12  and  O_7 
REMARK    7  A    between atoms: C_11  and  O_8 
REMARK    8  A    between atoms: C_13  and  O_9 
REMARK    9  A    between atoms: C_25  and  O_10 
REMARK   10  A    between atoms: C_23  and  C_14 
REMARK   11  A    between atoms: C_15  and  C_26 
REMARK   12  A    between atoms: C_16  and  O_18 
REMARK   13  A    between atoms: O_18  and  C_17 
ROOT
ATOM      1  C   UNL d   1       0.173  -8.469  10.465  0.00  0.00     0.219 C 
ATOM      2  C   UNL d   1       0.069  -9.974  10.098  0.00  0.00     0.198 C 
ATOM      3  C   UNL d   1      -1.193  -7.731  10.426  0.00  0.00     0.299 C 
ATOM      4  C   UNL d   1      -1.115 -10.659  10.801  0.00  0.00     0.195 C 
ATOM      5  O   UNL d   1      -2.149  -8.501  11.183  0.00  0.00    -0.348 OA
ATOM      6  C   UNL d   1      -2.375  -9.800  10.611  0.00  0.00     0.181 C 
ENDROOT
BRANCH   3   7
ATOM      7  O   UNL d   1      -1.114  -6.430  11.054  0.00  0.00    -0.318 OA
BRANCH   7   8
ATOM      8  C   UNL d   1      -0.711  -5.343  10.329  0.00  0.00     0.072 C 
ATOM      9  C   UNL d   1      -0.562  -5.298   8.948  0.00  0.00     0.037 C 
ATOM     10  C   UNL d   1       0.066  -4.215   8.328  0.00  0.00     0.014 C 
ATOM     11  C   UNL d   1       0.484  -3.118   9.076  0.00  0.00    -0.036 C 
ATOM     12  C   UNL d   1       0.173  -3.072  10.436  0.00  0.00     0.014 C 
ATOM     13  C   UNL d   1      -0.412  -4.187  11.059  0.00  0.00     0.037 C 
BRANCH  11  14
ATOM     14  C   UNL d   1       1.232  -2.059   8.404  0.00  0.00     0.015 C 
ATOM     15  C   UNL d   1       2.560  -1.863   8.390  0.00  0.00     0.050 C 
BRANCH  15  16
ATOM     16  C   UNL d   1       3.694  -2.592   9.030  0.00  0.00     0.145 C 
ATOM     17  O   UNL d   1       4.793  -2.033   9.050  0.00  0.00    -0.294 OA
ATOM     18  C   UNL d   1       3.527  -3.959   9.629  0.00  0.00     0.096 C 
ENDBRANCH  15  16
ENDBRANCH  11  14
ENDBRANCH   7   8
ENDBRANCH   3   7
BRANCH   1  19
ATOM     19  O   UNL d   1       1.226  -7.826   9.690  0.00  0.00    -0.308 OA
BRANCH  19  20
ATOM     20  C   UNL d   1       1.092  -7.809   8.336  0.00  0.00     0.255 C 
ATOM     21  O   UNL d   1       0.105  -8.205   7.731  0.00  0.00    -0.266 OA
ATOM     22  C   UNL d   1       2.260  -7.133   7.690  0.00  0.00     0.126 C 
ENDBRANCH  19  20
ENDBRANCH   1  19
BRANCH   2  23
ATOM     23  O   UNL d   1       1.310 -10.603  10.526  0.00  0.00    -0.311 OA
BRANCH  23  24
ATOM     24  C   UNL d   1       2.332 -10.609   9.616  0.00  0.00     0.255 C 
ATOM     25  O   UNL d   1       2.219 -10.447   8.414  0.00  0.00    -0.266 OA
ATOM     26  C   UNL d   1       3.642 -10.677  10.332  0.00  0.00     0.126 C 
ENDBRANCH  23  24
ENDBRANCH   2  23
BRANCH   6  27
ATOM     27  C   UNL d   1      -3.602 -10.423  11.297  0.00  0.00     0.213 C 
BRANCH  27  28
ATOM     28  O   UNL d   1      -4.779  -9.612  11.089  0.00  0.00    -0.319 OA
BRANCH  28  29
ATOM     29  C   UNL d   1      -5.379  -9.739   9.877  0.00  0.00     0.254 C 
ATOM     30  O   UNL d   1      -5.009 -10.491   8.985  0.00  0.00    -0.266 OA
ATOM     31  C   UNL d   1      -6.571  -8.836   9.770  0.00  0.00     0.126 C 
ENDBRANCH  28  29
ENDBRANCH  27  28
ENDBRANCH   6  27
BRANCH   4  32
ATOM     32  O   UNL d   1      -1.313 -11.955  10.181  0.00  0.00    -0.311 OA
BRANCH  32  33
ATOM     33  C   UNL d   1      -1.133 -13.053  10.965  0.00  0.00     0.255 C 
ATOM     34  O   UNL d   1      -0.879 -13.026  12.157  0.00  0.00    -0.266 OA
ATOM     35  C   UNL d   1      -1.308 -14.322  10.180  0.00  0.00     0.126 C 
ENDBRANCH  32  33
ENDBRANCH   4  32
TORSDOF 13
