REMARK  11 active torsions:
REMARK  status: ('A' for Active; 'I' for Inactive)
REMARK    1  A    between atoms: N_5  and  S_1 
REMARK    2  A    between atoms: C_13  and  S_1 
REMARK    3  A    between atoms: S_2  and  N_6 
REMARK    4  A    between atoms: C_14  and  S_2 
REMARK    5  A    between atoms: S_3  and  C_7 
REMARK    6  A    between atoms: C_17  and  S_3 
REMARK    7  A    between atoms: S_4  and  C_18 
REMARK    8  A    between atoms: C_8  and  S_4 
REMARK    9  A    between atoms: C_9  and  N_5 
REMARK   10  A    between atoms: N_6  and  C_10 
REMARK   11  A    between atoms: C_28  and  C_27 
ROOT
ATOM      1  C   UNL d   1       1.469   4.636  -6.594  0.00  0.00     0.064 A 
ATOM      2  C   UNL d   1       0.937   4.398  -9.368  0.00  0.00    -0.026 A 
ATOM      3  C   UNL d   1       0.202   4.942  -7.090  0.00  0.00     0.025 A 
ATOM      4  C   UNL d   1       2.486   4.248  -7.465  0.00  0.00     0.025 A 
ATOM      5  C   UNL d   1      -0.060   4.805  -8.460  0.00  0.00     0.014 A 
ATOM      6  C   UNL d   1       2.216   4.136  -8.835  0.00  0.00     0.014 A 
ENDROOT
BRANCH   2   7
ATOM      7  C   UNL d   1       0.664   4.258 -10.824  0.00  0.00    -0.026 A 
ATOM      8  C   UNL d   1       1.317   3.280 -11.602  0.00  0.00     0.014 A 
ATOM      9  C   UNL d   1       1.087   3.152 -12.978  0.00  0.00     0.025 A 
ATOM     10  C   UNL d   1       0.185   4.008 -13.607  0.00  0.00     0.064 A 
ATOM     11  C   UNL d   1      -0.507   4.964 -12.865  0.00  0.00     0.025 A 
ATOM     12  C   UNL d   1      -0.258   5.090 -11.491  0.00  0.00     0.014 A 
BRANCH  10  13
ATOM     13  S   UNL d   1      -0.161   3.810 -15.340  0.00  0.00     0.206 S 
ATOM     14  O   UNL d   1       0.158   2.438 -15.693  0.00  0.00    -0.217 OA
ATOM     15  O   UNL d   1      -1.493   4.333 -15.582  0.00  0.00    -0.217 OA
BRANCH  13  16
ATOM     16  C   UNL d   1       0.980   4.849 -16.234  0.00  0.00     0.066 A 
ATOM     17  C   UNL d   1       2.219   4.327 -16.619  0.00  0.00     0.050 A 
ATOM     18  C   UNL d   1       3.076   5.100 -17.404  0.00  0.00     0.062 A 
ATOM     19 CL   UNL d   1       4.564   4.387 -17.916  0.00  0.00    -0.082 Cl
ATOM     20  C   UNL d   1       2.712   6.400 -17.788  0.00  0.00     0.064 A 
ATOM     21  C   UNL d   1       1.460   6.902 -17.419  0.00  0.00     0.033 A 
ATOM     22  C   UNL d   1       0.589   6.127 -16.646  0.00  0.00     0.026 A 
BRANCH  20  23
ATOM     23  N   UNL d   1       3.552   7.184 -18.624  0.00  0.00    -0.279 N 
ATOM     24  H   UNL d   1       3.425   7.179 -19.634  0.00  0.00     0.179 HD
BRANCH  23  25
ATOM     25  S   UNL d   1       4.457   8.446 -17.998  0.00  0.00     0.263 S 
ATOM     26  O   UNL d   1       5.067   9.108 -19.131  0.00  0.00    -0.200 OA
ATOM     27  O   UNL d   1       3.650   9.178 -17.047  0.00  0.00    -0.200 OA
BRANCH  25  28
ATOM     28  C   UNL d   1       5.754   7.618 -17.105  0.00  0.00     0.080 A 
ATOM     29  C   UNL d   1       6.901   7.187 -17.783  0.00  0.00     0.027 A 
ATOM     30  C   UNL d   1       7.929   6.564 -17.071  0.00  0.00     0.025 A 
ATOM     31  C   UNL d   1       7.811   6.387 -15.691  0.00  0.00     0.034 A 
ATOM     32  C   UNL d   1       6.673   6.830 -15.014  0.00  0.00     0.025 A 
ATOM     33 CL   UNL d   1       9.082   5.629 -14.813  0.00  0.00    -0.084 Cl
ATOM     34  C   UNL d   1       5.641   7.452 -15.720  0.00  0.00     0.027 A 
ENDBRANCH  25  28
ENDBRANCH  23  25
ENDBRANCH  20  23
ENDBRANCH  13  16
ENDBRANCH  10  13
ENDBRANCH   2   7
BRANCH   1  35
ATOM     35  S   UNL d   1       1.807   4.816  -4.853  0.00  0.00     0.206 S 
ATOM     36  O   UNL d   1       0.876   5.790  -4.321  0.00  0.00    -0.217 OA
ATOM     37  O   UNL d   1       3.240   5.013  -4.718  0.00  0.00    -0.217 OA
BRANCH  35  38
ATOM     38  C   UNL d   1       1.409   3.265  -4.069  0.00  0.00     0.066 A 
ATOM     39  C   UNL d   1       2.391   2.551  -3.376  0.00  0.00     0.026 A 
ATOM     40  C   UNL d   1       2.060   1.336  -2.765  0.00  0.00     0.027 A 
ATOM     41  C   UNL d   1       0.749   0.845  -2.831  0.00  0.00     0.044 A 
ATOM     42  C   UNL d   1      -0.229   1.577  -3.526  0.00  0.00     0.057 A 
ATOM     43  C   UNL d   1       0.095   2.792  -4.133  0.00  0.00     0.049 A 
ATOM     44 CL   UNL d   1      -1.865   1.030  -3.624  0.00  0.00    -0.082 Cl
BRANCH  41  45
ATOM     45  N   UNL d   1       0.456  -0.464  -2.289  0.00  0.00    -0.180 NA
ATOM     46  H   UNL d   1       1.004  -0.636  -1.444  0.00  0.00     0.146 HD
BRANCH  45  47
ATOM     47  S   UNL d   1       0.831  -1.729  -3.376  0.00  0.00     0.245 S 
ATOM     48  O   UNL d   1       2.165  -2.164  -3.018  0.00  0.00    -0.206 OA
ATOM     49  O   UNL d   1       0.502  -1.335  -4.728  0.00  0.00    -0.206 OA
BRANCH  47  50
ATOM     50  C   UNL d   1      -0.312  -3.005  -2.890  0.00  0.00     0.074 A 
ATOM     51  C   UNL d   1      -1.597  -3.025  -3.444  0.00  0.00     0.026 A 
ATOM     52  C   UNL d   1      -2.451  -4.097  -3.170  0.00  0.00     0.025 A 
ATOM     53  C   UNL d   1      -2.017  -5.142  -2.354  0.00  0.00     0.034 A 
ATOM     54  C   UNL d   1      -0.738  -5.119  -1.795  0.00  0.00     0.025 A 
ATOM     55 CL   UNL d   1      -3.053  -6.482  -2.054  0.00  0.00    -0.084 Cl
ATOM     56  C   UNL d   1       0.121  -4.050  -2.066  0.00  0.00     0.026 A 
ENDBRANCH  47  50
ENDBRANCH  45  47
ENDBRANCH  41  45
ENDBRANCH  35  38
ENDBRANCH   1  35
TORSDOF 11
