REMARK  6 active torsions:
REMARK  status: ('A' for Active; 'I' for Inactive)
REMARK    1  A    between atoms: C_2  and  C_1 
REMARK    2  A    between atoms: C_3  and  C_2 
REMARK    3  A    between atoms: N_5  and  C_4 
REMARK       I    between atoms: C_6  and  N_5 
REMARK    4  A    between atoms: C_13  and  C_6 
REMARK    5  A    between atoms: C_7  and  C_12 
REMARK       I    between atoms: N_21  and  C_7 
REMARK    6  A    between atoms: N_8  and  C_13 
ROOT
ATOM      1  C   UNL d   1       4.927  -2.529   1.823  0.00  0.00     0.038 A 
ATOM      2  C   UNL d   1       4.320  -1.258   1.869  0.00  0.00     0.029 A 
ATOM      3  C   UNL d   1       5.382  -3.103   3.029  0.00  0.00     0.041 A 
ATOM      4  C   UNL d   1       4.134  -0.622   3.111  0.00  0.00     0.026 A 
ATOM      5  C   UNL d   1       5.228  -2.442   4.245  0.00  0.00     0.035 A 
ATOM      6  C   UNL d   1       4.595  -1.206   4.293  0.00  0.00     0.026 A 
ATOM      7 CL   UNL d   1       5.801  -3.166   5.693  0.00  0.00    -0.084 Cl
ENDROOT
BRANCH   2   8
ATOM      8  N   UNL d   1       3.888  -0.542   0.720  0.00  0.00    -0.227 NA
ATOM      9  C   UNL d   1       4.752   0.455   0.255  0.00  0.00     0.230 C 
ATOM     10  O   UNL d   1       5.905   0.615   0.639  0.00  0.00    -0.278 OA
ATOM     11  H   UNL d   1       2.971  -0.107   0.811  0.00  0.00     0.136 HD
BRANCH   9  12
ATOM     12  C   UNL d   1       4.135   1.369  -0.799  0.00  0.00     0.368 C 
BRANCH  12  13
ATOM     13  N   UNL d   1       2.977   2.138  -0.271  0.00  0.00     0.096 N 
ATOM     14  C   UNL d   1       3.413   3.087   0.778  0.00  0.00     0.273 C 
ATOM     15  C   UNL d   1       2.235   3.922   1.300  0.00  0.00     0.044 C 
ATOM     16  C   UNL d   1       1.477   4.651   0.184  0.00  0.00     0.081 C 
ATOM     17  C   UNL d   1       1.162   3.682  -0.959  0.00  0.00     0.044 C 
ATOM     18  C   UNL d   1       2.400   2.902  -1.396  0.00  0.00     0.273 C 
BRANCH  16  19
ATOM     19  C   UNL d   1       2.232   5.883  -0.309  0.00  0.00     0.219 C 
ATOM     20  O   UNL d   1       3.341   6.220   0.086  0.00  0.00    -0.273 OA
ATOM     21  N   UNL d   1       1.575   6.637  -1.238  0.00  0.00    -0.370 N 
ATOM     22  H   UNL d   1       0.596   6.513  -1.450  0.00  0.00     0.159 HD
ATOM     23  H   UNL d   1       2.020   7.500  -1.525  0.00  0.00     0.159 HD
ENDBRANCH  16  19
ENDBRANCH  12  13
ENDBRANCH   9  12
ENDBRANCH   2   8
BRANCH   1  24
ATOM     24  C   UNL d   1       5.023  -3.440   0.642  0.00  0.00     0.195 C 
ATOM     25  O   UNL d   1       5.051  -4.655   0.833  0.00  0.00    -0.287 OA
BRANCH  24  26
ATOM     26  C   UNL d   1       5.015  -3.016  -0.762  0.00  0.00     0.037 A 
ATOM     27  C   UNL d   1       6.042  -2.270  -1.340  0.00  0.00     0.048 A 
ATOM     28 CL   UNL d   1       7.468  -1.835  -0.473  0.00  0.00    -0.083 Cl
ATOM     29  C   UNL d   1       5.984  -1.956  -2.704  0.00  0.00     0.025 A 
ATOM     30  C   UNL d   1       4.953  -2.459  -3.502  0.00  0.00     0.002 A 
ATOM     31  C   UNL d   1       3.981  -3.287  -2.946  0.00  0.00     0.001 A 
ATOM     32  C   UNL d   1       4.007  -3.561  -1.578  0.00  0.00     0.017 A 
ENDBRANCH  24  26
ENDBRANCH   1  24
TORSDOF 6
