REMARK  5 active torsions:
REMARK  status: ('A' for Active; 'I' for Inactive)
REMARK    1  A    between atoms: C_9  and  C_1 
REMARK    2  A    between atoms: C_13  and  C_4 
REMARK    3  A    between atoms: C_6  and  C_11 
REMARK       I    between atoms: C_8  and  N_10 
REMARK       I    between atoms: N_12  and  C_8 
REMARK    4  A    between atoms: N_10  and  C_9 
REMARK    5  A    between atoms: C_20  and  N_12 
ROOT
ATOM      1  C   UNL d   1       2.159  -3.625  -1.216  0.00  0.00     0.320 C 
ATOM      2  N   UNL d   1       1.841  -2.811  -0.148  0.00  0.00    -0.338 N 
ATOM      3  N   UNL d   1       3.516  -3.815  -1.347  0.00  0.00    -0.309 N 
ATOM      4  O   UNL d   1       1.297  -4.089  -1.950  0.00  0.00    -0.247 OA
ATOM      5  H   UNL d   1       2.539  -2.580   0.537  0.00  0.00     0.164 HD
ATOM      6  H   UNL d   1       4.088  -3.598  -0.547  0.00  0.00     0.170 HD
ENDROOT
BRANCH   2   7
ATOM      7  C   UNL d   1       0.454  -2.569   0.176  0.00  0.00     0.168 C 
BRANCH   7   8
ATOM      8  C   UNL d   1       0.072  -1.132   0.139  0.00  0.00     0.020 A 
ATOM      9  C   UNL d   1      -1.229  -0.591   0.463  0.00  0.00     0.075 A 
ATOM     10  N   UNL d   1      -1.214   0.745   0.348  0.00  0.00    -0.260 N 
ATOM     11  O   UNL d   1       0.044   1.095  -0.071  0.00  0.00    -0.242 OA
ATOM     12  HN  UNL d   1      -1.990   1.379   0.536  1.00  0.00     0.195 HD
ATOM     13  C   UNL d   1       0.812  -0.014  -0.199  0.00  0.00     0.082 A 
ATOM     14  C   UNL d   1       2.197   0.230  -0.650  0.00  0.00     0.079 C 
BRANCH   9  15
ATOM     15  C   UNL d   1      -2.451  -1.279   0.910  0.00  0.00    -0.007 A 
ATOM     16  C   UNL d   1      -2.777  -2.576   0.491  0.00  0.00     0.014 A 
ATOM     17  C   UNL d   1      -3.912  -3.231   0.980  0.00  0.00     0.001 A 
ATOM     18  C   UNL d   1      -4.763  -2.582   1.867  0.00  0.00     0.000 A 
ATOM     19  C   UNL d   1      -4.487  -1.275   2.257  0.00  0.00     0.001 A 
ATOM     20  C   UNL d   1      -3.339  -0.630   1.784  0.00  0.00     0.014 A 
ENDBRANCH   9  15
ENDBRANCH   7   8
ENDBRANCH   2   7
BRANCH   3  21
ATOM     21  C   UNL d   1       4.162  -4.413  -2.452  0.00  0.00     0.036 A 
ATOM     22  C   UNL d   1       3.521  -4.672  -3.666  0.00  0.00     0.030 A 
ATOM     23  C   UNL d   1       4.223  -5.201  -4.751  0.00  0.00     0.018 A 
ATOM     24  C   UNL d   1       5.589  -5.484  -4.644  0.00  0.00     0.048 A 
ATOM     25  C   UNL d   1       6.230  -5.247  -3.419  0.00  0.00     0.018 A 
ATOM     26  C   UNL d   1       5.524  -4.712  -2.334  0.00  0.00     0.030 A 
BRANCH  24  27
ATOM     27  C   UNL d   1       6.365  -6.009  -5.826  0.00  0.00     0.417 C 
ATOM     28  F   UNL d   1       5.605  -6.203  -6.940  0.00  0.00    -0.166 F 
ATOM     29  F   UNL d   1       7.366  -5.165  -6.202  0.00  0.00    -0.166 F 
ATOM     30  F   UNL d   1       6.963  -7.206  -5.569  0.00  0.00    -0.166 F 
ENDBRANCH  24  27
ENDBRANCH   3  21
TORSDOF 5
