REMARK  6 active torsions:
REMARK  status: ('A' for Active; 'I' for Inactive)
REMARK    1  A    between atoms: C_7  and  S_1 
REMARK    2  A    between atoms: N_9  and  S_1 
REMARK    3  A    between atoms: C_2  and  C_14 
REMARK    4  A    between atoms: C_20  and  N_9 
REMARK    5  A    between atoms: O_26  and  C_13 
REMARK    6  A    between atoms: O_28  and  C_16 
ROOT
ATOM      1  C   UNL d   1       1.579  -0.967  -5.325  0.00  0.00    -0.002 A 
ATOM      2  C   UNL d   1       0.886  -0.991  -2.600  0.00  0.00     0.042 A 
ATOM      3  C   UNL d   1       2.543  -0.719  -4.337  0.00  0.00     0.016 A 
ATOM      4  C   UNL d   1       0.265  -1.254  -4.917  0.00  0.00     0.016 A 
ATOM      5  C   UNL d   1      -0.086  -1.250  -3.561  0.00  0.00     0.031 A 
ATOM      6  C   UNL d   1       2.196  -0.720  -2.986  0.00  0.00     0.031 A 
ENDROOT
BRANCH   2   7
ATOM      7  N   UNL d   1       0.551  -0.944  -1.229  0.00  0.00    -0.281 N 
ATOM      8  H   UNL d   1       0.091  -0.125  -0.834  0.00  0.00     0.179 HD
BRANCH   7   9
ATOM      9  S   UNL d   1       0.592  -2.309  -0.262  0.00  0.00     0.263 S 
ATOM     10  O   UNL d   1       0.240  -1.874   1.071  0.00  0.00    -0.200 OA
ATOM     11  O   UNL d   1      -0.144  -3.377  -0.917  0.00  0.00    -0.200 OA
BRANCH   9  12
ATOM     12  C   UNL d   1       2.315  -2.742  -0.255  0.00  0.00     0.082 A 
ATOM     13  C   UNL d   1       2.792  -3.663  -1.195  0.00  0.00     0.065 A 
ATOM     14  C   UNL d   1       4.154  -3.981  -1.251  0.00  0.00     0.102 A 
ATOM     15  C   UNL d   1       5.030  -3.383  -0.324  0.00  0.00     0.101 A 
ATOM     16  C   UNL d   1       4.532  -2.469   0.619  0.00  0.00     0.041 A 
ATOM     17  C   UNL d   1       3.174  -2.156   0.671  0.00  0.00     0.028 A 
BRANCH  14  18
ATOM     18  O   UNL d   1       4.688  -4.813  -2.197  0.00  0.00    -0.353 OA
ATOM     19  C   UNL d   1       3.810  -5.396  -3.155  0.00  0.00     0.210 C 
ENDBRANCH  14  18
BRANCH  15  20
ATOM     20  O   UNL d   1       6.393  -3.534  -0.252  0.00  0.00    -0.353 OA
ATOM     21  C   UNL d   1       6.930  -4.797  -0.628  0.00  0.00     0.210 C 
ENDBRANCH  15  20
ENDBRANCH   9  12
ENDBRANCH   7   9
ENDBRANCH   2   7
BRANCH   1  22
ATOM     22  C   UNL d   1       1.898  -0.911  -6.760  0.00  0.00     0.085 A 
ATOM     23  N   UNL d   1       1.287  -1.623  -7.684  0.00  0.00    -0.349 N 
ATOM     24  C   UNL d   1       1.750  -1.272  -8.941  0.00  0.00     0.050 A 
ATOM     25  HN  UNL d   1       0.576  -2.331  -7.500  1.00  0.00     0.166 HD
ATOM     26  C   UNL d   1       1.308  -1.814 -10.162  0.00  0.00     0.031 A 
ATOM     27  C   UNL d   1       2.728  -0.280  -8.965  0.00  0.00     0.034 A 
ATOM     28  C   UNL d   1       1.853  -1.351 -11.365  0.00  0.00     0.009 A 
ATOM     29  C   UNL d   1       2.836  -0.358 -11.373  0.00  0.00    -0.061 A 
ATOM     30  C   UNL d   1       3.288   0.192 -10.164  0.00  0.00     0.028 A 
ATOM     31  C   UNL d   1       3.402   0.113 -12.681  0.00  0.00     0.048 C 
ATOM     32  S   UNL d   1       3.067   0.206  -7.355  0.00  0.00    -0.070 SA
ENDBRANCH   1  22
TORSDOF 6
