REMARK  7 active torsions:
REMARK  status: ('A' for Active; 'I' for Inactive)
REMARK    1  A    between atoms: C_5  and  S_1 
REMARK    2  A    between atoms: N_7  and  S_1 
REMARK    3  A    between atoms: N_3  and  C_2 
REMARK    4  A    between atoms: S_9  and  C_6 
REMARK    5  A    between atoms: C_10  and  N_7 
REMARK    6  A    between atoms: C_8  and  C_10 
REMARK    7  A    between atoms: C_18  and  S_9 
ROOT
ATOM      1  C   UNL d   1      -0.693   0.087  -3.555  0.00  0.00     0.121 A 
ATOM      2  C   UNL d   1      -0.297   0.525  -2.287  0.00  0.00     0.062 A 
ATOM      3  C   UNL d   1       0.574  -0.263  -1.537  0.00  0.00     0.082 A 
ATOM      4  C   UNL d   1      -0.274  -1.147  -4.079  0.00  0.00     0.034 A 
ATOM      5  C   UNL d   1       0.682  -1.868  -3.349  0.00  0.00     0.023 A 
ATOM      6  C   UNL d   1       1.097  -1.446  -2.082  0.00  0.00     0.027 A 
ENDROOT
BRANCH   3   7
ATOM      7  S   UNL d   1       0.820   0.124   0.184  0.00  0.00     0.260 S 
ATOM      8  O   UNL d   1       1.516  -1.000   0.766  0.00  0.00    -0.200 OA
ATOM      9  O   UNL d   1      -0.490   0.516   0.662  0.00  0.00    -0.200 OA
BRANCH   7  10
ATOM     10  N   UNL d   1       1.764   1.524   0.203  0.00  0.00    -0.294 N 
ATOM     11  H   UNL d   1       1.271   2.372  -0.062  0.00  0.00     0.174 HD
BRANCH  10  12
ATOM     12  C   UNL d   1       3.241   1.524   0.150  0.00  0.00     0.103 C 
ATOM     13  C   UNL d   1       3.820   2.904   0.605  0.00  0.00     0.045 C 
ATOM     14  C   UNL d   1       3.850   4.045  -0.405  0.00  0.00     0.004 C 
ATOM     15  C   UNL d   1       4.249   3.591  -1.800  0.00  0.00     0.000 C 
ATOM     16  C   UNL d   1       3.417   2.392  -2.225  0.00  0.00     0.004 C 
ATOM     17  C   UNL d   1       3.688   1.209  -1.282  0.00  0.00     0.045 C 
BRANCH  12  18
ATOM     18  C   UNL d   1       3.752   0.605   1.194  0.00  0.00    -0.085 C 
ATOM     19  C   UNL d   1       4.039   0.058   2.219  0.00  0.00     0.015 C 
ENDBRANCH  12  18
ENDBRANCH  10  12
ENDBRANCH   7  10
ENDBRANCH   3   7
BRANCH   1  20
ATOM     20  N   UNL d   1      -1.494   1.015  -4.324  0.00  0.00    -0.114 N 
ATOM     21  O   UNL d   1      -0.934   2.067  -4.668  0.00  0.00    -0.532 OA
ATOM     22  O   UNL d   1      -2.689   0.752  -4.490  0.00  0.00    -0.532 OA
ENDBRANCH   1  20
BRANCH   4  23
ATOM     23  S   UNL d   1      -0.866  -1.911  -5.580  0.00  0.00    -0.118 SA
BRANCH  23  24
ATOM     24  C   UNL d   1      -2.243  -3.027  -4.962  0.00  0.00     0.002 C 
ATOM     25  C   UNL d   1      -3.475  -2.180  -4.631  0.00  0.00     0.026 C 
ATOM     26  C   UNL d   1      -2.589  -3.993  -6.109  0.00  0.00     0.026 C 
ATOM     27  C   UNL d   1      -1.851  -3.865  -3.737  0.00  0.00     0.026 C 
ENDBRANCH  23  24
ENDBRANCH   4  23
TORSDOF 7
