REMARK  4 active torsions:
REMARK  status: ('A' for Active; 'I' for Inactive)
REMARK    1  A    between atoms: N_2  and  S_1 
REMARK    2  A    between atoms: C_6  and  S_1 
REMARK    3  A    between atoms: C_8  and  N_2 
REMARK    4  A    between atoms: N_3  and  C_7 
ROOT
ATOM      1  C   UNL d   1       1.458   0.383  -5.375  0.00  0.00     0.030 A 
ATOM      2  C   UNL d   1       0.885  -0.273  -2.680  0.00  0.00     0.042 A 
ATOM      3  C   UNL d   1       2.432   0.486  -4.369  0.00  0.00     0.031 A 
ATOM      4  C   UNL d   1       0.177  -0.025  -4.973  0.00  0.00     0.031 A 
ATOM      5  C   UNL d   1      -0.107  -0.368  -3.646  0.00  0.00     0.032 A 
ATOM      6  C   UNL d   1       2.153   0.173  -3.034  0.00  0.00     0.032 A 
ENDROOT
BRANCH   2   7
ATOM      7  N   UNL d   1       0.622  -0.717  -1.357  0.00  0.00    -0.281 N 
ATOM      8  H   UNL d   1       0.919  -0.121  -0.588  0.00  0.00     0.179 HD
BRANCH   7   9
ATOM      9  S   UNL d   1       0.807  -2.362  -1.008  0.00  0.00     0.263 S 
ATOM     10  O   UNL d   1      -0.041  -3.139  -1.884  0.00  0.00    -0.200 OA
ATOM     11  O   UNL d   1       0.699  -2.478   0.435  0.00  0.00    -0.200 OA
BRANCH   9  12
ATOM     12  C   UNL d   1       2.504  -2.696  -1.437  0.00  0.00     0.079 A 
ATOM     13  C   UNL d   1       3.511  -2.486  -0.489  0.00  0.00     0.025 A 
ATOM     14  C   UNL d   1       4.840  -2.734  -0.832  0.00  0.00     0.002 A 
ATOM     15  C   UNL d   1       5.158  -3.199  -2.112  0.00  0.00     0.000 A 
ATOM     16  C   UNL d   1       4.146  -3.431  -3.045  0.00  0.00     0.002 A 
ATOM     17  C   UNL d   1       2.815  -3.192  -2.709  0.00  0.00     0.025 A 
ENDBRANCH   9  12
ENDBRANCH   7   9
ENDBRANCH   2   7
BRANCH   1  18
ATOM     18  N   UNL d   1       1.779   0.606  -6.701  0.00  0.00    -0.381 N 
ATOM     19  C   UNL d   1       1.042  -0.041  -7.788  0.00  0.00     0.123 C 
ATOM     20  C   UNL d   1       2.046  -0.582  -8.807  0.00  0.00     0.020 C 
ATOM     21  C   UNL d   1       3.006   0.505  -9.287  0.00  0.00     0.003 C 
ATOM     22  C   UNL d   1       3.671   1.223  -8.111  0.00  0.00     0.020 C 
ATOM     23  C   UNL d   1       2.636   1.723  -7.103  0.00  0.00     0.123 C 
ENDBRANCH   1  18
TORSDOF 4
