REMARK  4 active torsions:
REMARK  status: ('A' for Active; 'I' for Inactive)
REMARK    1  A    between atoms: C_15  and  N_2 
REMARK    2  A    between atoms: C_14  and  C_8 
REMARK    3  A    between atoms: C_16  and  C_13 
REMARK    4  A    between atoms: C_18  and  C_15 
ROOT
ATOM      1  C   UNL d   1      -0.509  -1.266   0.130  0.00  0.00     0.105 A 
ATOM      2  N   UNL d   1       0.784  -0.807   0.157  0.00  0.00    -0.284 N 
ATOM      3  C   UNL d   1      -0.918  -2.630   0.064  0.00  0.00     0.193 A 
ATOM      4  N   UNL d   1       0.855   0.550   0.146  0.00  0.00    -0.301 N 
ATOM      5  HN  UNL d   1       1.695   1.128   0.168  1.00  0.00     0.187 HD
ATOM      6  C   UNL d   1      -1.304  -0.141   0.117  0.00  0.00     0.063 A 
ATOM      7  O   UNL d   1      -2.108  -3.016  -0.506  0.00  0.00    -0.271 OA
ATOM      8  C   UNL d   1      -2.044  -4.380  -0.419  0.00  0.00     0.175 A 
ATOM      9  N   UNL d   1      -0.217  -3.661   0.479  0.00  0.00    -0.276 N 
ATOM     10  HN  UNL d   1       0.693  -3.631   0.939  1.00  0.00     0.189 HD
ATOM     11  N   UNL d   1      -0.946  -4.793   0.174  0.00  0.00    -0.277 N 
ATOM     12  HN  UNL d   1      -0.684  -5.759   0.370  1.00  0.00     0.189 HD
ATOM     13  C   UNL d   1      -0.420   0.964   0.102  0.00  0.00     0.036 A 
ENDROOT
BRANCH   2  14
ATOM     14  C   UNL d   1       2.024  -1.570   0.005  0.00  0.00     0.187 C 
BRANCH  14  15
ATOM     15  C   UNL d   1       2.601  -2.025   1.325  0.00  0.00    -0.038 A 
ATOM     16  C   UNL d   1       2.793  -3.393   1.585  0.00  0.00     0.012 A 
ATOM     17  C   UNL d   1       3.294  -3.817   2.818  0.00  0.00     0.043 A 
ATOM     18  C   UNL d   1       3.617  -2.877   3.786  0.00  0.00     0.116 A 
ATOM     19  C   UNL d   1       3.476  -1.517   3.537  0.00  0.00     0.043 A 
ATOM     20  F   UNL d   1       4.067  -3.285   4.980  0.00  0.00    -0.206 F 
ATOM     21  C   UNL d   1       2.977  -1.091   2.305  0.00  0.00     0.012 A 
ENDBRANCH  14  15
ENDBRANCH   2  14
BRANCH  13  22
ATOM     22  C   UNL d   1      -0.770   2.446   0.047  0.00  0.00    -0.007 C 
ATOM     23  C   UNL d   1      -0.925   3.002   1.474  0.00  0.00     0.021 C 
ATOM     24  C   UNL d   1       0.321   3.258  -0.684  0.00  0.00     0.021 C 
ATOM     25  C   UNL d   1      -2.097   2.676  -0.712  0.00  0.00     0.021 C 
ENDBRANCH  13  22
BRANCH   8  26
ATOM     26  C   UNL d   1      -3.131  -5.127  -1.047  0.00  0.00     0.023 A 
ATOM     27  C   UNL d   1      -3.586  -6.371  -0.558  0.00  0.00    -0.048 A 
ATOM     28  C   UNL d   1      -3.090  -7.003   0.714  0.00  0.00     0.049 C 
ATOM     29  C   UNL d   1      -4.559  -7.080  -1.291  0.00  0.00     0.007 A 
ATOM     30  C   UNL d   1      -5.102  -6.560  -2.463  0.00  0.00     0.001 A 
ATOM     31  C   UNL d   1      -4.690  -5.316  -2.924  0.00  0.00     0.001 A 
ATOM     32  C   UNL d   1      -3.714  -4.608  -2.220  0.00  0.00     0.016 A 
ENDBRANCH   8  26
TORSDOF 4
