REMARK  6 active torsions:
REMARK  status: ('A' for Active; 'I' for Inactive)
REMARK    1  A    between atoms: N_2  and  C_1 
REMARK    2  A    between atoms: N_6  and  C_1 
REMARK    3  A    between atoms: C_3  and  N_2 
REMARK    4  A    between atoms: C_12  and  N_6 
REMARK    5  A    between atoms: O_18  and  C_13 
REMARK    6  A    between atoms: C_19  and  O_18 
ROOT
ATOM      1  C   UNL d   1       0.983  -0.005  -0.119  0.00  0.00     0.172 C 
ATOM      2  S   UNL d   1       0.669  -0.694  -1.606  0.00  0.00    -0.041 SA
ENDROOT
BRANCH   1   3
ATOM      3  N   UNL d   1       2.312   0.193   0.149  0.00  0.00    -0.362 N 
ATOM      4  H   UNL d   1       2.906   0.012  -0.654  0.00  0.00     0.162 HD
BRANCH   3   5
ATOM      5  C   UNL d   1       2.984   0.499   1.401  0.00  0.00     0.092 C 
ATOM      6  C   UNL d   1       4.468   0.034   1.444  0.00  0.00     0.031 C 
ATOM      7  C   UNL d   1       5.253   0.702   0.334  0.00  0.00    -0.024 C 
ATOM      8  C   UNL d   1       4.976   0.874   2.620  0.00  0.00     0.019 C 
ATOM      9  C   UNL d   1       5.330   2.006   0.636  0.00  0.00    -0.026 C 
ATOM     10  C   UNL d   1       4.612   2.204   1.951  0.00  0.00     0.010 C 
ATOM     11  C   UNL d   1       3.096   2.022   1.704  0.00  0.00     0.034 C 
ENDBRANCH   3   5
ENDBRANCH   1   3
BRANCH   1  12
ATOM     12  N   UNL d   1       0.121   0.345   0.892  0.00  0.00    -0.333 N 
ATOM     13  H   UNL d   1       0.572   0.620   1.748  0.00  0.00     0.168 HD
BRANCH  12  14
ATOM     14  C   UNL d   1      -1.290   0.285   0.988  0.00  0.00     0.034 A 
ATOM     15  C   UNL d   1      -1.838   0.333   2.277  0.00  0.00     0.032 A 
ATOM     16  C   UNL d   1      -3.217   0.216   2.487  0.00  0.00     0.039 A 
ATOM     17  C   UNL d   1      -4.078   0.073   1.402  0.00  0.00     0.068 A 
ATOM     18  C   UNL d   1      -3.546   0.087   0.116  0.00  0.00     0.039 A 
ATOM     19  C   UNL d   1      -2.166   0.196  -0.092  0.00  0.00     0.032 A 
BRANCH  17  20
ATOM     20  O   UNL d   1      -5.436  -0.075   1.463  0.00  0.00    -0.352 OA
BRANCH  20  21
ATOM     21  C   UNL d   1      -6.013  -0.216   2.760  0.00  0.00     0.171 C 
ATOM     22  C   UNL d   1      -7.500  -0.476   2.592  0.00  0.00     0.034 C 
ENDBRANCH  20  21
ENDBRANCH  17  20
ENDBRANCH  12  14
ENDBRANCH   1  12
TORSDOF 6
