REMARK  2 active torsions:
REMARK  status: ('A' for Active; 'I' for Inactive)
REMARK    1  A    between atoms: C_2  and  N_1 
REMARK       I    between atoms: C_3  and  N_1 
REMARK    2  A    between atoms: C_7  and  C_3 
ROOT
ATOM      1  N   UNL d   1       1.108  -0.059  -0.269  0.00  0.00    -0.303 N 
ATOM      2  C   UNL d   1       2.481  -0.004  -0.371  0.00  0.00     0.257 C 
ATOM      3  O   UNL d   1       3.150   1.013  -0.531  0.00  0.00    -0.267 OA
ATOM      4  H   UNL d   1       0.619  -0.913  -0.062  0.00  0.00     0.171 HD
ENDROOT
BRANCH   2   5
ATOM      5  C   UNL d   1       3.213  -1.306  -0.233  0.00  0.00     0.032 A 
ATOM      6  C   UNL d   1       2.597  -2.564  -0.334  0.00  0.00     0.023 A 
ATOM      7  C   UNL d   1       3.347  -3.743  -0.176  0.00  0.00    -0.061 A 
ATOM      8  C   UNL d   1       2.698  -5.093  -0.274  0.00  0.00     0.048 C 
ATOM      9  C   UNL d   1       4.724  -3.656   0.054  0.00  0.00     0.007 A 
ATOM     10  C   UNL d   1       5.348  -2.415   0.140  0.00  0.00     0.002 A 
ATOM     11  C   UNL d   1       4.597  -1.248   0.000  0.00  0.00     0.017 A 
ENDBRANCH   2   5
BRANCH   1  12
ATOM     12  C   UNL d   1       0.332   1.068  -0.312  0.00  0.00     0.151 A 
ATOM     13  N   UNL d   1       0.671   2.313  -0.521  0.00  0.00    -0.346 N 
ATOM     14  C   UNL d   1      -0.444   3.118  -0.419  0.00  0.00     0.097 A 
ATOM     15  HN  UNL d   1       1.615   2.638  -0.729  1.00  0.00     0.167 HD
ATOM     16  C   UNL d   1      -1.625   2.463  -0.140  0.00  0.00     0.070 A 
ATOM     17  S   UNL d   1      -1.329   0.776  -0.023  0.00  0.00    -0.064 SA
ENDBRANCH   1  12
TORSDOF 2
