REMARK  2 active torsions:
REMARK  status: ('A' for Active; 'I' for Inactive)
REMARK    1  A    between atoms: N_2  and  C_3 
REMARK       I    between atoms: C_6  and  N_4 
REMARK    2  A    between atoms: C_21  and  C_6 
ROOT
ATOM      1  C   UNL d   1      -2.187  -0.643  -1.300  0.00  0.00     0.017 A 
ATOM      2  C   UNL d   1      -2.471  -1.275  -0.052  0.00  0.00     0.044 A 
ATOM      3  C   UNL d   1      -1.853   0.731  -1.290  0.00  0.00     0.046 A 
ATOM      4  C   UNL d   1      -2.171  -1.322  -2.546  0.00  0.00     0.018 A 
ATOM      5  C   UNL d   1      -1.544   1.370  -2.480  0.00  0.00     0.054 A 
ATOM      6  N   UNL d   1      -1.794   1.460  -0.166  0.00  0.00    -0.365 N 
ATOM      7  HN  UNL d   1      -1.548   2.449  -0.192  1.00  0.00     0.165 HD
ATOM      8  C   UNL d   1      -1.566   0.690  -3.695  0.00  0.00     0.036 A 
ATOM      9  C   UNL d   1      -2.411  -0.489   1.102  0.00  0.00     0.047 A 
ATOM     10  C   UNL d   1      -1.883  -0.656  -3.736  0.00  0.00     0.025 A 
ATOM     11  C   UNL d   1      -2.068   0.845   0.996  0.00  0.00     0.090 A 
ATOM     12 CL   UNL d   1      -1.179   1.521  -5.151  0.00  0.00    -0.084 Cl
ENDROOT
BRANCH   2  13
ATOM     13  N   UNL d   1      -2.713  -2.654   0.021  0.00  0.00    -0.377 N 
ATOM     14  C   UNL d   1      -2.302  -3.380   1.236  0.00  0.00     0.143 C 
ATOM     15  C   UNL d   1      -2.092  -4.861   0.882  0.00  0.00     0.145 C 
ATOM     16  N   UNL d   1      -3.290  -5.434   0.245  0.00  0.00    -0.349 N 
ATOM     17  C   UNL d   1      -3.805  -4.660  -0.896  0.00  0.00     0.145 C 
ATOM     18  C   UNL d   1      -3.837  -6.673   0.535  0.00  0.00     0.219 C 
ATOM     19  C   UNL d   1      -3.988  -3.166  -0.538  0.00  0.00     0.143 C 
ATOM     20  O   UNL d   1      -4.772  -7.143  -0.113  0.00  0.00    -0.273 OA
BRANCH  18  21
ATOM     21  C   UNL d   1      -3.239  -7.416   1.720  0.00  0.00     0.098 C 
ATOM     22  C   UNL d   1      -3.945  -8.728   2.008  0.00  0.00     0.014 C 
ENDBRANCH  18  21
ENDBRANCH   2  13
TORSDOF 2
