REMARK  5 active torsions:
REMARK  status: ('A' for Active; 'I' for Inactive)
REMARK    1  A    between atoms: C_3  and  C_1 
REMARK       I    between atoms: N_4  and  C_1 
REMARK    2  A    between atoms: C_2  and  N_7 
REMARK    3  A    between atoms: N_8  and  C_2 
REMARK    4  A    between atoms: N_7  and  N_4 
REMARK    5  A    between atoms: C_12  and  N_8 
ROOT
ATOM      1  C   UNL d   1      -1.807  -0.419   2.494  0.00  0.00     0.191 C 
ATOM      2  S   UNL d   1      -1.211  -0.345   0.929  0.00  0.00    -0.039 SA
ENDROOT
BRANCH   1   3
ATOM      3  N   UNL d   1      -3.163  -0.238   2.651  0.00  0.00    -0.273 N 
ATOM      4  H   UNL d   1      -3.628   0.097   1.801  0.00  0.00     0.189 HD
BRANCH   3   5
ATOM      5  N   UNL d   1      -3.688   0.324   3.826  0.00  0.00    -0.262 N 
ATOM      6  C   UNL d   1      -4.725   1.236   3.691  0.00  0.00     0.293 C 
ATOM      7  O   UNL d   1      -5.091   1.633   2.584  0.00  0.00    -0.264 OA
ATOM      8  H   UNL d   1      -3.453  -0.065   4.732  0.00  0.00     0.190 HD
BRANCH   6   9
ATOM      9  C   UNL d   1      -5.345   1.640   4.932  0.00  0.00     0.144 A 
ATOM     10  O   UNL d   1      -4.872   1.154   6.123  0.00  0.00    -0.317 OA
ATOM     11  C   UNL d   1      -5.644   1.690   7.105  0.00  0.00     0.143 A 
ATOM     12  C   UNL d   1      -6.612   2.506   6.571  0.00  0.00     0.027 A 
ATOM     13  C   UNL d   1      -6.420   2.477   5.169  0.00  0.00     0.045 A 
ENDBRANCH   6   9
ENDBRANCH   3   5
ENDBRANCH   1   3
BRANCH   1  14
ATOM     14  N   UNL d   1      -1.120  -0.726   3.654  0.00  0.00    -0.332 N 
ATOM     15  H   UNL d   1      -1.622  -1.376   4.247  0.00  0.00     0.168 HD
BRANCH  14  16
ATOM     16  C   UNL d   1       0.287  -0.703   3.807  0.00  0.00     0.037 A 
ATOM     17  C   UNL d   1       1.054   0.331   3.265  0.00  0.00     0.069 A 
ATOM     18  C   UNL d   1       2.442   0.274   3.316  0.00  0.00     0.104 A 
ATOM     19  O   UNL d   1       3.119   1.280   2.675  0.00  0.00    -0.346 OA
ATOM     20  C   UNL d   1       3.080  -0.779   3.974  0.00  0.00     0.102 A 
ATOM     21  C   UNL d   1       4.438   0.848   2.335  0.00  0.00     0.202 C 
ATOM     22  C   UNL d   1       5.124   0.257   3.555  0.00  0.00     0.202 C 
ATOM     23  O   UNL d   1       4.444  -0.914   4.029  0.00  0.00    -0.346 OA
ATOM     24  C   UNL d   1       2.318  -1.774   4.586  0.00  0.00     0.042 A 
ATOM     25  C   UNL d   1       0.919  -1.729   4.519  0.00  0.00     0.032 A 
ENDBRANCH  14  16
ENDBRANCH   1  14
TORSDOF 5
