REMARK  3 active torsions:
REMARK  status: ('A' for Active; 'I' for Inactive)
REMARK    1  A    between atoms: C_13  and  C_2 
REMARK    2  A    between atoms: C_9  and  C_6 
REMARK    3  A    between atoms: C_12  and  C_10 
ROOT
ATOM      1  C   UNL d   1       0.053   0.865   0.002  0.00  0.00     0.041 A 
ATOM      2  C   UNL d   1      -2.088  -0.157  -0.019  0.00  0.00     0.079 A 
ATOM      3  C   UNL d   1      -1.389   1.040  -0.035  0.00  0.00     0.060 A 
ATOM      4  C   UNL d   1       0.352  -0.496   0.022  0.00  0.00     0.088 A 
ATOM      5  S   UNL d   1      -1.017  -1.494  -0.038  0.00  0.00    -0.066 SA
ATOM      6  C   UNL d   1       1.175   1.744   0.014  0.00  0.00     0.065 A 
ATOM      7  N   UNL d   1       1.569  -1.070   0.080  0.00  0.00    -0.349 N 
ATOM      8  HN  UNL d   1       1.693  -2.083   0.078  1.00  0.00     0.166 HD
ATOM      9  C   UNL d   1       2.605  -0.225   0.142  0.00  0.00     0.051 A 
ATOM     10  C   UNL d   1       2.458   1.152   0.088  0.00  0.00     0.048 A 
ATOM     11  N   UNL d   1      -1.992   2.250  -0.081  0.00  0.00    -0.397 N 
ATOM     12  H   UNL d   1      -2.953   2.382  -0.387  0.00  0.00     0.156 HD
ATOM     13  H   UNL d   1      -1.466   3.120  -0.169  0.00  0.00     0.156 HD
ENDROOT
BRANCH   9  14
ATOM     14  C   UNL d   1       3.915  -0.886   0.274  0.00  0.00     0.031 A 
ATOM     15  S   UNL d   1       5.222  -0.120   1.091  0.00  0.00    -0.100 SA
ATOM     16  C   UNL d   1       6.258  -1.456   0.856  0.00  0.00     0.050 A 
ATOM     17  C   UNL d   1       5.636  -2.477   0.176  0.00  0.00     0.008 A 
ATOM     18  C   UNL d   1       4.287  -2.152  -0.151  0.00  0.00     0.021 A 
ENDBRANCH   9  14
BRANCH   6  19
ATOM     19  C   UNL d   1       1.157   3.252  -0.032  0.00  0.00     0.418 C 
ATOM     20  F   UNL d   1      -0.070   3.828  -0.134  0.00  0.00    -0.166 F 
ATOM     21  F   UNL d   1       1.728   3.802   1.076  0.00  0.00    -0.166 F 
ATOM     22  F   UNL d   1       1.869   3.735  -1.089  0.00  0.00    -0.166 F 
ENDBRANCH   6  19
BRANCH   2  23
ATOM     23  C   UNL d   1      -3.514  -0.459   0.022  0.00  0.00     0.164 C 
ATOM     24  O   UNL d   1      -4.007  -1.476  -0.472  0.00  0.00    -0.292 OA
ATOM     25  C   UNL d   1      -4.439   0.523   0.702  0.00  0.00     0.097 C 
ENDBRANCH   2  23
TORSDOF 3
