REMARK  10 active torsions:
REMARK  status: ('A' for Active; 'I' for Inactive)
REMARK    1  A    between atoms: C_2  and  S_1 
REMARK    2  A    between atoms: O_8  and  S_1 
REMARK    3  A    between atoms: O_10  and  C_3 
REMARK    4  A    between atoms: N_5  and  C_16 
REMARK    5  A    between atoms: C_6  and  C_20 
REMARK    6  A    between atoms: C_7  and  C_22 
REMARK    7  A    between atoms: C_31  and  O_8 
REMARK    8  A    between atoms: C_20  and  O_10 
REMARK    9  A    between atoms: O_19  and  C_15 
REMARK   10  A    between atoms: C_22  and  O_19 
ROOT
ATOM      1  C   UNL d   1       0.443  -0.299  -1.640  0.00  0.00     0.121 A 
ATOM      2  C   UNL d   1      -0.014   0.696  -2.525  0.00  0.00     0.116 A 
ATOM      3  C   UNL d   1      -0.501   0.286  -3.787  0.00  0.00     0.112 A 
ATOM      4  C   UNL d   1      -1.095   1.214  -4.714  0.00  0.00     0.105 C 
ATOM      5  N   UNL d   1      -1.540   1.996  -5.449  0.00  0.00    -0.191 NA
ATOM      6  C   UNL d   1       0.505  -1.643  -2.029  0.00  0.00     0.031 A 
ATOM      7  C   UNL d   1      -0.478  -1.081  -4.158  0.00  0.00     0.092 A 
ATOM      8  C   UNL d   1       0.069  -2.027  -3.290  0.00  0.00     0.040 A 
ENDROOT
BRANCH   2   9
ATOM      9  O   UNL d   1      -0.013   1.973  -2.039  0.00  0.00    -0.339 OA
BRANCH   9  10
ATOM     10  C   UNL d   1       0.246   3.094  -2.897  0.00  0.00     0.293 C 
BRANCH  10  11
ATOM     11  C   UNL d   1       0.953   4.231  -2.152  0.00  0.00     0.408 C 
ATOM     12  F   UNL d   1       1.323   3.888  -0.901  0.00  0.00    -0.169 F 
ATOM     13  F   UNL d   1       2.082   4.591  -2.812  0.00  0.00    -0.169 F 
ATOM     14  F   UNL d   1       0.169   5.329  -2.068  0.00  0.00    -0.169 F 
ENDBRANCH  10  11
ENDBRANCH   9  10
ENDBRANCH   2   9
BRANCH   7  15
ATOM     15  O   UNL d   1      -1.023  -1.417  -5.377  0.00  0.00    -0.341 OA
BRANCH  15  16
ATOM     16  C   UNL d   1      -1.296  -2.810  -5.608  0.00  0.00     0.293 C 
BRANCH  16  17
ATOM     17  C   UNL d   1      -2.212  -3.042  -6.806  0.00  0.00     0.408 C 
ATOM     18  F   UNL d   1      -2.316  -1.964  -7.607  0.00  0.00    -0.169 F 
ATOM     19  F   UNL d   1      -1.748  -4.068  -7.559  0.00  0.00    -0.169 F 
ATOM     20  F   UNL d   1      -3.458  -3.380  -6.398  0.00  0.00    -0.169 F 
ENDBRANCH  16  17
ENDBRANCH  15  16
ENDBRANCH   7  15
BRANCH   1  21
ATOM     21  S   UNL d   1       0.898   0.047   0.061  0.00  0.00     0.305 S 
ATOM     22  O   UNL d   1       0.604  -1.172   0.799  0.00  0.00    -0.193 OA
ATOM     23  O   UNL d   1       0.264   1.278   0.478  0.00  0.00    -0.193 OA
BRANCH  21  24
ATOM     24  O   UNL d   1       2.510   0.304  -0.027  0.00  0.00    -0.229 OA
BRANCH  24  25
ATOM     25  C   UNL d   1       3.478  -0.665   0.065  0.00  0.00     0.089 A 
ATOM     26  C   UNL d   1       4.648  -0.404  -0.662  0.00  0.00     0.040 A 
ATOM     27  C   UNL d   1       5.754  -1.258  -0.575  0.00  0.00     0.039 A 
ATOM     28  C   UNL d   1       5.689  -2.386   0.253  0.00  0.00     0.103 A 
ATOM     29  C   UNL d   1       4.524  -2.658   0.978  0.00  0.00     0.039 A 
ATOM     30  C   UNL d   1       3.429  -1.787   0.893  0.00  0.00     0.040 A 
BRANCH  28  31
ATOM     31  N   UNL d   1       6.855  -3.269   0.387  0.00  0.00    -0.116 N 
ATOM     32  O   UNL d   1       7.873  -2.976  -0.256  0.00  0.00    -0.532 OA
ATOM     33  O   UNL d   1       6.751  -4.252   1.133  0.00  0.00    -0.532 OA
ENDBRANCH  28  31
ENDBRANCH  24  25
ENDBRANCH  21  24
ENDBRANCH   1  21
TORSDOF 10
