REMARK  3 active torsions:
REMARK  status: ('A' for Active; 'I' for Inactive)
REMARK    1  A    between atoms: S_10  and  C_2 
REMARK    2  A    between atoms: C_6  and  C_11 
REMARK    3  A    between atoms: C_11  and  S_10 
ROOT
ATOM      1  C   UNL d   1       2.410  -0.818   0.044  0.00  0.00     0.085 A 
ATOM      2  C   UNL d   1       2.363   0.578   0.088  0.00  0.00     0.092 A 
ATOM      3  N   UNL d   1       1.195   1.262   0.070  0.00  0.00    -0.349 N 
ATOM      4  HN  UNL d   1       1.198   2.282   0.087  1.00  0.00     0.166 HD
ATOM      5  C   UNL d   1       1.189  -1.537   0.018  0.00  0.00    -0.026 A 
ATOM      6  C   UNL d   1      -0.036  -0.814   0.021  0.00  0.00    -0.002 A 
ATOM      7  C   UNL d   1       3.670  -1.501   0.025  0.00  0.00     0.103 C 
ATOM      8  C   UNL d   1       0.036   0.593   0.030  0.00  0.00     0.043 A 
ATOM      9  N   UNL d   1       4.668  -2.096   0.002  0.00  0.00    -0.191 NA
ATOM     10  C   UNL d   1       1.160  -3.049  -0.009  0.00  0.00     0.050 C 
ATOM     11  C   UNL d   1      -1.318  -1.420   0.005  0.00  0.00     0.014 A 
ATOM     12  C   UNL d   1      -1.139   1.335  -0.004  0.00  0.00     0.030 A 
ATOM     13  C   UNL d   1      -2.485  -0.656  -0.026  0.00  0.00     0.001 A 
ATOM     14  C   UNL d   1      -2.394   0.727  -0.038  0.00  0.00     0.002 A 
ENDROOT
BRANCH   2  15
ATOM     15  S   UNL d   1       3.841   1.605   0.139  0.00  0.00    -0.106 SA
BRANCH  15  16
ATOM     16  C   UNL d   1       3.136   3.106   0.889  0.00  0.00     0.124 C 
BRANCH  16  17
ATOM     17  C   UNL d   1       4.136   4.207   1.138  0.00  0.00     0.012 A 
ATOM     18  C   UNL d   1       4.217   5.270   0.228  0.00  0.00     0.125 A 
ATOM     19  F   UNL d   1       3.477   5.249  -0.891  0.00  0.00    -0.205 F 
ATOM     20  C   UNL d   1       5.020   6.385   0.461  0.00  0.00     0.043 A 
ATOM     21  C   UNL d   1       5.780   6.456   1.623  0.00  0.00     0.005 A 
ATOM     22  C   UNL d   1       5.751   5.394   2.527  0.00  0.00     0.024 A 
ATOM     23  C   UNL d   1       4.942   4.275   2.284  0.00  0.00     0.044 A 
ATOM     24 CL   UNL d   1       4.956   3.015   3.466  0.00  0.00    -0.084 Cl
ENDBRANCH  16  17
ENDBRANCH  15  16
ENDBRANCH   2  15
TORSDOF 3
