REMARK  4 active torsions:
REMARK  status: ('A' for Active; 'I' for Inactive)
REMARK    1  A    between atoms: S_2  and  C_1 
REMARK    2  A    between atoms: C_5  and  S_2 
REMARK       I    between atoms: C_3  and  N_4 
REMARK       I    between atoms: N_9  and  C_3 
REMARK    3  A    between atoms: N_4  and  C_8 
REMARK    4  A    between atoms: C_13  and  N_9 
ROOT
ATOM      1  C   UNL d   1      -1.659  -3.280  -0.821  0.00  0.00     0.027 A 
ATOM      2  C   UNL d   1      -2.724  -2.557  -1.396  0.00  0.00     0.033 A 
ATOM      3  C   UNL d   1      -1.917  -4.574  -0.342  0.00  0.00     0.021 A 
ATOM      4  C   UNL d   1      -3.962  -3.179  -1.616  0.00  0.00     0.025 A 
ATOM      5  C   UNL d   1      -3.183  -5.150  -0.468  0.00  0.00     0.001 A 
ATOM      6  C   UNL d   1      -4.191  -4.469  -1.142  0.00  0.00     0.002 A 
ENDROOT
BRANCH   2   7
ATOM      7  N   UNL d   1      -2.657  -1.167  -1.658  0.00  0.00    -0.214 NA
ATOM      8  C   UNL d   1      -2.787  -0.332  -0.553  0.00  0.00     0.281 C 
ATOM      9  N   UNL d   1      -2.878   1.000  -0.921  0.00  0.00    -0.215 NA
ATOM     10  O   UNL d   1      -2.710  -0.673   0.623  0.00  0.00    -0.260 OA
ATOM     11  H   UNL d   1      -2.177   1.429  -0.320  0.00  0.00     0.138 HD
ATOM     12  H   UNL d   1      -3.260  -0.826  -2.396  0.00  0.00     0.138 HD
BRANCH   9  13
ATOM     13  C   UNL d   1      -4.066   1.728  -0.611  0.00  0.00     0.016 A 
ATOM     14  C   UNL d   1      -4.775   1.569   0.586  0.00  0.00     0.025 A 
ATOM     15  C   UNL d   1      -5.860   2.403   0.875  0.00  0.00     0.025 A 
ATOM     16  C   UNL d   1      -6.235   3.392  -0.033  0.00  0.00     0.034 A 
ATOM     17  C   UNL d   1      -5.535   3.551  -1.228  0.00  0.00     0.025 A 
ATOM     18 CL   UNL d   1      -7.553   4.435   0.333  0.00  0.00    -0.084 Cl
ATOM     19  C   UNL d   1      -4.444   2.727  -1.513  0.00  0.00     0.025 A 
ENDBRANCH   9  13
ENDBRANCH   2   7
BRANCH   1  20
ATOM     20  S   UNL d   1       0.076  -2.832  -0.938  0.00  0.00    -0.085 SA
BRANCH  20  21
ATOM     21  C   UNL d   1       0.287  -1.360   0.052  0.00  0.00     0.051 A 
ATOM     22  C   UNL d   1       0.090  -1.343   1.442  0.00  0.00     0.068 A 
ATOM     23 CL   UNL d   1      -0.374  -2.729   2.365  0.00  0.00    -0.081 Cl
ATOM     24  C   UNL d   1       0.306  -0.157   2.132  0.00  0.00     0.113 A 
ATOM     25  N   UNL d   1       0.738   0.996   1.568  0.00  0.00    -0.372 N 
ATOM     26  C   UNL d   1       0.973   0.948   0.240  0.00  0.00     0.113 A 
ATOM     27  HN  UNL d   1       0.876   1.847   2.113  1.00  0.00     0.164 HD
ATOM     28  C   UNL d   1       0.763  -0.176  -0.550  0.00  0.00     0.068 A 
ATOM     29 CL   UNL d   1       1.112  -0.029  -2.239  0.00  0.00    -0.081 Cl
ENDBRANCH  20  21
ENDBRANCH   1  20
TORSDOF 4
