REMARK  5 active torsions:
REMARK  status: ('A' for Active; 'I' for Inactive)
REMARK    1  A    between atoms: C_7  and  N_1 
REMARK    2  A    between atoms: C_8  and  N_3 
REMARK    3  A    between atoms: N_14  and  C_4 
REMARK    4  A    between atoms: C_10  and  C_8 
REMARK    5  A    between atoms: C_12  and  C_9 
ROOT
ATOM      1  N   UNL d   1      -0.592   1.250  -0.089  0.00  0.00    -0.254 N 
ATOM      2  C   UNL d   1      -1.373   0.092  -0.258  0.00  0.00     0.338 C 
ATOM      3  N   UNL d   1      -0.685  -1.116  -0.239  0.00  0.00    -0.261 N 
ATOM      4  C   UNL d   1       0.802   1.234  -0.139  0.00  0.00     0.094 C 
ATOM      5  C   UNL d   1       0.684  -1.212  -0.156  0.00  0.00     0.254 C 
ATOM      6  C   UNL d   1       1.428   0.052  -0.188  0.00  0.00     0.117 C 
ATOM      7  O   UNL d   1      -2.603   0.126  -0.370  0.00  0.00    -0.246 OA
ATOM      8  O   UNL d   1       1.315  -2.259  -0.039  0.00  0.00    -0.268 OA
ENDROOT
BRANCH   1   9
ATOM      9  C   UNL d   1      -1.317   2.473   0.021  0.00  0.00     0.052 A 
ATOM     10  C   UNL d   1      -1.779   2.999   1.257  0.00  0.00    -0.023 A 
ATOM     11  C   UNL d   1      -2.479   4.231   1.173  0.00  0.00     0.010 A 
ATOM     12  C   UNL d   1      -2.739   4.878  -0.039  0.00  0.00     0.001 A 
ATOM     13  C   UNL d   1      -2.280   4.337  -1.228  0.00  0.00     0.002 A 
ATOM     14  C   UNL d   1      -1.566   3.146  -1.196  0.00  0.00     0.031 A 
BRANCH  10  15
ATOM     15  C   UNL d   1      -1.524   2.405   2.671  0.00  0.00    -0.022 C 
ATOM     16  C   UNL d   1      -0.247   3.062   3.237  0.00  0.00     0.019 C 
ATOM     17  C   UNL d   1      -2.697   2.712   3.644  0.00  0.00     0.019 C 
ATOM     18  C   UNL d   1      -1.345   0.875   2.772  0.00  0.00     0.019 C 
ENDBRANCH  10  15
ENDBRANCH   1   9
BRANCH   4  19
ATOM     19  N   UNL d   1       1.555   2.394  -0.129  0.00  0.00    -0.288 NA
ATOM     20  H   UNL d   1       1.062   3.187   0.279  0.00  0.00     0.125 HD
ATOM     21  H   UNL d   1       2.496   2.289   0.242  0.00  0.00     0.125 HD
ENDBRANCH   4  19
BRANCH   3  22
ATOM     22  C   UNL d   1      -1.465  -2.348  -0.189  0.00  0.00     0.178 C 
BRANCH  22  23
ATOM     23  C   UNL d   1      -1.588  -3.038  -1.525  0.00  0.00    -0.001 A 
ATOM     24  C   UNL d   1      -1.039  -4.308  -1.715  0.00  0.00     0.124 A 
ATOM     25  F   UNL d   1      -0.431  -4.935  -0.698  0.00  0.00    -0.205 F 
ATOM     26  C   UNL d   1      -1.124  -4.961  -2.941  0.00  0.00     0.043 A 
ATOM     27  C   UNL d   1      -1.781  -4.348  -4.005  0.00  0.00     0.003 A 
ATOM     28  C   UNL d   1      -2.363  -3.093  -3.830  0.00  0.00     0.001 A 
ATOM     29  C   UNL d   1      -2.271  -2.440  -2.596  0.00  0.00     0.012 A 
ENDBRANCH  22  23
ENDBRANCH   3  22
TORSDOF 5
