REMARK  4 active torsions:
REMARK  status: ('A' for Active; 'I' for Inactive)
REMARK    1  A    between atoms: C_2  and  C_1 
REMARK       I    between atoms: N_11  and  C_2 
REMARK    2  A    between atoms: N_4  and  N_11 
REMARK    3  A    between atoms: N_17  and  C_8 
REMARK    4  A    between atoms: C_16  and  C_15 
ROOT
ATOM      1  C   UNL d   1       0.884   2.616   0.307  0.00  0.00     0.271 C 
ATOM      2  N   UNL d   1       0.220   3.814   0.063  0.00  0.00    -0.266 N 
ATOM      3  O   UNL d   1       0.326   1.569   0.638  0.00  0.00    -0.266 OA
ATOM      4  H   UNL d   1       0.697   4.619  -0.323  0.00  0.00     0.190 HD
ENDROOT
BRANCH   2   5
ATOM      5  N   UNL d   1      -1.139   3.818   0.165  0.00  0.00    -0.308 N 
ATOM      6  C   UNL d   1      -1.764   4.917  -0.102  0.00  0.00     0.118 C 
ATOM      7  HN  UNL d   1      -1.648   2.979   0.444  1.00  0.00     0.186 HD
BRANCH   6   8
ATOM      8  C   UNL d   1      -3.243   4.963  -0.051  0.00  0.00    -0.017 A 
ATOM      9  C   UNL d   1      -3.905   6.165  -0.327  0.00  0.00     0.052 A 
ATOM     10  C   UNL d   1      -5.286   6.146  -0.305  0.00  0.00     0.105 A 
ATOM     11  O   UNL d   1      -6.100   7.206  -0.562  0.00  0.00    -0.323 OA
ATOM     12  C   UNL d   1      -5.998   5.002  -0.019  0.00  0.00     0.105 A 
ATOM     13  C   UNL d   1      -7.401   6.589  -0.441  0.00  0.00     0.352 A 
ATOM     14  O   UNL d   1      -7.342   5.199  -0.063  0.00  0.00    -0.323 OA
ATOM     15  C   UNL d   1      -5.372   3.809   0.269  0.00  0.00     0.040 A 
ATOM     16  C   UNL d   1      -3.974   3.793   0.251  0.00  0.00     0.016 A 
ENDBRANCH   6   8
ENDBRANCH   2   5
BRANCH   1  17
ATOM     17  C   UNL d   1       2.369   2.616   0.139  0.00  0.00     0.054 A 
ATOM     18  C   UNL d   1       3.022   1.424  -0.250  0.00  0.00     0.021 A 
ATOM     19  C   UNL d   1       4.417   1.431  -0.384  0.00  0.00     0.024 A 
ATOM     20  C   UNL d   1       5.163   2.563  -0.054  0.00  0.00     0.002 A 
ATOM     21  C   UNL d   1       4.519   3.721   0.376  0.00  0.00     0.001 A 
ATOM     22  C   UNL d   1       3.125   3.752   0.471  0.00  0.00     0.019 A 
BRANCH  18  23
ATOM     23  N   UNL d   1       2.315   0.299  -0.728  0.00  0.00    -0.302 NA
ATOM     24  H   UNL d   1       1.365   0.275  -0.330  0.00  0.00     0.124 HD
ATOM     25  H   UNL d   1       2.796  -0.580  -0.574  0.00  0.00     0.124 HD
ENDBRANCH  18  23
ENDBRANCH   1  17
TORSDOF 4
