REMARK  6 active torsions:
REMARK  status: ('A' for Active; 'I' for Inactive)
REMARK       I    between atoms: N_3  and  C_1 
REMARK    1  A    between atoms: C_6  and  C_1 
REMARK    2  A    between atoms: C_2  and  C_8 
REMARK    3  A    between atoms: O_9  and  C_2 
REMARK    4  A    between atoms: C_8  and  N_3 
REMARK    5  A    between atoms: C_7  and  C_6 
REMARK    6  A    between atoms: C_13  and  O_9 
ROOT
ATOM      1  C   UNL d   1       0.776  -0.168   0.032  0.00  0.00     0.218 C 
ATOM      2  N   UNL d   1       0.159  -1.155   0.756  0.00  0.00    -0.352 N 
ATOM      3  O   UNL d   1       0.158   0.621  -0.675  0.00  0.00    -0.274 OA
ATOM      4  H   UNL d   1       0.692  -1.760   1.368  0.00  0.00     0.162 HD
ENDROOT
BRANCH   2   5
ATOM      5  C   UNL d   1      -1.292  -1.247   0.796  0.00  0.00     0.233 C 
BRANCH   5   6
ATOM      6  C   UNL d   1      -1.831  -2.456   1.556  0.00  0.00     0.276 C 
ATOM      7  O   UNL d   1      -3.022  -2.677   1.715  0.00  0.00    -0.263 OA
BRANCH   6   8
ATOM      8  O   UNL d   1      -0.819  -3.246   2.021  0.00  0.00    -0.321 OA
BRANCH   8   9
ATOM      9  C   UNL d   1      -1.235  -4.425   2.732  0.00  0.00     0.174 C 
ATOM     10  C   UNL d   1      -1.564  -5.541   1.759  0.00  0.00     0.034 C 
ENDBRANCH   8   9
ENDBRANCH   6   8
ENDBRANCH   5   6
ENDBRANCH   2   5
BRANCH   1  11
ATOM     11  C   UNL d   1       2.282  -0.089   0.203  0.00  0.00     0.111 C 
BRANCH  11  12
ATOM     12  C   UNL d   1       3.126  -1.121  -0.579  0.00  0.00    -0.043 C 
ATOM     13  C   UNL d   1       2.791  -1.072  -2.081  0.00  0.00     0.015 C 
ATOM     14  C   UNL d   1       4.613  -0.752  -0.379  0.00  0.00     0.015 C 
ATOM     15  C   UNL d   1       2.924  -2.555  -0.065  0.00  0.00     0.015 C 
ENDBRANCH  11  12
ENDBRANCH   1  11
TORSDOF 6
