REMARK  5 active torsions:
REMARK  status: ('A' for Active; 'I' for Inactive)
REMARK    1  A    between atoms: O_2  and  C_1 
REMARK    2  A    between atoms: C_4  and  C_1 
REMARK    3  A    between atoms: C_6  and  O_2 
REMARK    4  A    between atoms: C_3  and  C_6 
REMARK    5  A    between atoms: C_8  and  C_3 
ROOT
ATOM      1  O   UNL d   1       3.279  -1.021  -0.128  0.00  0.00    -0.310 OA
ENDROOT
BRANCH   1   2
ATOM      2  C   UNL d   1       2.297  -0.089  -0.035  0.00  0.00     0.293 C 
ATOM      3  O   UNL d   1       1.105  -0.332   0.100  0.00  0.00    -0.259 OA
BRANCH   2   4
ATOM      4  C   UNL d   1       2.850   1.294  -0.031  0.00  0.00     0.039 A 
ATOM      5  C   UNL d   1       1.944   2.361   0.049  0.00  0.00     0.018 A 
ATOM      6  C   UNL d   1       2.402   3.681   0.105  0.00  0.00     0.007 A 
ATOM      7  C   UNL d   1       3.774   3.957   0.082  0.00  0.00    -0.062 A 
ATOM      8  C   UNL d   1       4.680   2.892  -0.004  0.00  0.00     0.007 A 
ATOM      9  C   UNL d   1       4.246   5.380   0.151  0.00  0.00     0.048 C 
ATOM     10  C   UNL d   1       4.223   1.568  -0.062  0.00  0.00     0.018 A 
ENDBRANCH   2   4
ENDBRANCH   1   2
BRANCH   1  11
ATOM     11  C   UNL d   1       2.820  -2.372  -0.016  0.00  0.00     0.263 C 
BRANCH  11  12
ATOM     12  C   UNL d   1       2.282  -2.979  -1.313  0.00  0.00     0.183 C 
ATOM     13  O   UNL d   1       2.318  -2.378  -2.386  0.00  0.00    -0.290 OA
BRANCH  12  14
ATOM     14  C   UNL d   1       1.737  -4.377  -1.271  0.00  0.00     0.012 A 
ATOM     15  C   UNL d   1       1.712  -5.142  -0.096  0.00  0.00     0.015 A 
ATOM     16  C   UNL d   1       1.211  -6.449  -0.114  0.00  0.00     0.001 A 
ATOM     17  C   UNL d   1       0.735  -7.002  -1.300  0.00  0.00     0.000 A 
ATOM     18  C   UNL d   1       0.753  -6.250  -2.473  0.00  0.00     0.001 A 
ATOM     19  C   UNL d   1       1.251  -4.944  -2.459  0.00  0.00     0.015 A 
ENDBRANCH  12  14
ENDBRANCH  11  12
ENDBRANCH   1  11
TORSDOF 5
