REMARK  3 active torsions:
REMARK  status: ('A' for Active; 'I' for Inactive)
REMARK    1  A    between atoms: C_2  and  C_1 
REMARK    2  A    between atoms: C_13  and  N_3 
REMARK    3  A    between atoms: C_9  and  C_4 
ROOT
ATOM      1  C   UNL d   1      -0.445  -2.685  -0.045  0.00  0.00     0.065 A 
ATOM      2  C   UNL d   1      -1.443  -3.279  -0.784  0.00  0.00     0.124 A 
ATOM      3  N   UNL d   1      -0.447  -4.912   0.415  0.00  0.00    -0.271 N 
ATOM      4  HN  UNL d   1      -0.212  -5.826   0.803  1.00  0.00     0.194 HD
ATOM      5  O   UNL d   1      -1.445  -4.618  -0.497  0.00  0.00    -0.236 OA
ATOM      6  C   UNL d   1       0.142  -3.746   0.677  0.00  0.00     0.132 A 
ENDROOT
BRANCH   1   7
ATOM      7  C   UNL d   1      -0.089  -1.248  -0.001  0.00  0.00     0.153 C 
ATOM      8  N   UNL d   1       1.149  -0.687   0.260  0.00  0.00    -0.224 N 
ATOM      9  N   UNL d   1       0.957   0.617   0.566  0.00  0.00     0.001 NA
ATOM     10  N   UNL d   1      -0.308   0.872   0.263  0.00  0.00    -0.007 NA
ATOM     11  N   UNL d   1      -0.964  -0.270  -0.116  0.00  0.00    -0.269 N 
ATOM     12  HN  UNL d   1      -1.933  -0.346  -0.425  1.00  0.00     0.185 HD
BRANCH   8  13
ATOM     13  C   UNL d   1       2.445  -1.230   0.103  0.00  0.00     0.056 A 
ATOM     14  C   UNL d   1       2.668  -2.294  -0.782  0.00  0.00     0.032 A 
ATOM     15  C   UNL d   1       3.951  -2.817  -0.939  0.00  0.00     0.009 A 
ATOM     16  C   UNL d   1       5.026  -2.284  -0.221  0.00  0.00    -0.062 A 
ATOM     17  C   UNL d   1       4.804  -1.200   0.637  0.00  0.00     0.009 A 
ATOM     18  C   UNL d   1       6.398  -2.857  -0.413  0.00  0.00     0.048 C 
ATOM     19  C   UNL d   1       3.523  -0.663   0.791  0.00  0.00     0.032 A 
ENDBRANCH   8  13
ENDBRANCH   1   7
BRANCH   2  20
ATOM     20  C   UNL d   1      -2.371  -2.870  -1.831  0.00  0.00     0.007 A 
ATOM     21  C   UNL d   1      -2.050  -1.829  -2.712  0.00  0.00     0.056 A 
ATOM     22  C   UNL d   1      -2.924  -1.475  -3.737  0.00  0.00     0.120 A 
ATOM     23  F   UNL d   1      -2.587  -0.483  -4.571  0.00  0.00    -0.206 F 
ATOM     24  C   UNL d   1      -4.124  -2.142  -3.917  0.00  0.00     0.084 A 
ATOM     25  C   UNL d   1      -4.443  -3.176  -3.051  0.00  0.00     0.120 A 
ATOM     26  C   UNL d   1      -3.585  -3.546  -2.018  0.00  0.00     0.056 A 
ATOM     27  F   UNL d   1      -5.595  -3.840  -3.217  0.00  0.00    -0.206 F 
ENDBRANCH   2  20
TORSDOF 3
