REMARK  3 active torsions:
REMARK  status: ('A' for Active; 'I' for Inactive)
REMARK    1  A    between atoms: C_5  and  C_1 
REMARK    2  A    between atoms: C_6  and  C_2 
REMARK       I    between atoms: N_7  and  C_5 
REMARK    3  A    between atoms: C_14  and  N_10 
ROOT
ATOM      1  C   UNL d   1       0.863  -2.617   1.689  0.00  0.00     0.093 C 
ATOM      2  C   UNL d   1       2.217  -2.289   2.030  0.00  0.00     0.088 C 
ATOM      3  N   UNL d   1       2.406  -2.463   3.352  0.00  0.00    -0.259 N 
ATOM      4  HN  UNL d   1       3.295  -2.416   3.850  1.00  0.00     0.195 HD
ATOM      5  O   UNL d   1       1.175  -2.715   3.900  0.00  0.00    -0.241 OA
ATOM      6  C   UNL d   1       0.245  -2.760   2.916  0.00  0.00     0.090 C 
ATOM      7  C   UNL d   1      -1.144  -2.931   3.382  0.00  0.00     0.080 C 
ENDROOT
BRANCH   1   8
ATOM      8  C   UNL d   1       0.216  -2.649   0.387  0.00  0.00     0.258 C 
ATOM      9  N   UNL d   1      -0.609  -3.737   0.093  0.00  0.00    -0.346 N 
ATOM     10  C   UNL d   1      -1.350  -3.764  -1.175  0.00  0.00     0.141 C 
ATOM     11  C   UNL d   1      -0.581  -5.044   0.766  0.00  0.00     0.141 C 
ATOM     12  C   UNL d   1      -2.778  -4.340  -1.005  0.00  0.00     0.115 C 
ATOM     13  N   UNL d   1      -2.770  -5.619  -0.240  0.00  0.00    -0.280 NA
ATOM     14  C   UNL d   1      -2.015  -5.537   1.029  0.00  0.00     0.115 C 
ATOM     15  O   UNL d   1       0.375  -1.720  -0.400  0.00  0.00    -0.267 OA
BRANCH  13  16
ATOM     16  C   UNL d   1      -4.051  -6.203  -0.158  0.00  0.00     0.013 A 
ATOM     17  C   UNL d   1      -4.852  -6.170   0.989  0.00  0.00     0.040 A 
ATOM     18  C   UNL d   1      -6.094  -6.791   0.971  0.00  0.00     0.089 A 
ATOM     19  N   UNL d   1      -6.592  -7.444  -0.097  0.00  0.00    -0.375 N 
ATOM     20  C   UNL d   1      -5.812  -7.472  -1.195  0.00  0.00     0.089 A 
ATOM     21  HN  UNL d   1      -7.509  -7.891  -0.075  1.00  0.00     0.164 HD
ATOM     22  C   UNL d   1      -4.564  -6.870  -1.274  0.00  0.00     0.040 A 
ENDBRANCH  13  16
ENDBRANCH   1   8
BRANCH   2  23
ATOM     23  C   UNL d   1       3.342  -1.870   1.193  0.00  0.00     0.054 A 
ATOM     24  C   UNL d   1       4.215  -0.827   1.568  0.00  0.00     0.049 A 
ATOM     25 CL   UNL d   1       3.977   0.158   2.976  0.00  0.00    -0.083 Cl
ATOM     26  C   UNL d   1       5.331  -0.504   0.781  0.00  0.00     0.025 A 
ATOM     27  C   UNL d   1       5.580  -1.189  -0.405  0.00  0.00     0.005 A 
ATOM     28  C   UNL d   1       4.711  -2.200  -0.805  0.00  0.00     0.043 A 
ATOM     29  C   UNL d   1       3.615  -2.537  -0.007  0.00  0.00     0.130 A 
ATOM     30  F   UNL d   1       2.840  -3.556  -0.414  0.00  0.00    -0.205 F 
ENDBRANCH   2  23
TORSDOF 3
