REMARK  5 active torsions:
REMARK  status: ('A' for Active; 'I' for Inactive)
REMARK    1  A    between atoms: C_5  and  N_1 
REMARK    2  A    between atoms: O_12  and  C_2 
REMARK    3  A    between atoms: O_13  and  C_3 
REMARK    4  A    between atoms: O_14  and  C_4 
REMARK    5  A    between atoms: C_8  and  C_6 
ROOT
ATOM      1  C   UNL d   1      -0.991  -4.296   4.503  0.00  0.00     0.135 A 
ATOM      2  C   UNL d   1       0.121  -3.499   4.863  0.00  0.00     0.105 A 
ATOM      3  C   UNL d   1      -1.474  -4.207   3.175  0.00  0.00     0.105 A 
ATOM      4  C   UNL d   1       0.211  -2.526   2.624  0.00  0.00    -0.029 A 
ATOM      5  C   UNL d   1       0.706  -2.634   3.922  0.00  0.00     0.051 A 
ATOM      6  C   UNL d   1      -0.883  -3.308   2.271  0.00  0.00     0.051 A 
ENDROOT
BRANCH   4   7
ATOM      7  C   UNL d   1       0.868  -1.588   1.703  0.00  0.00     0.035 C 
ATOM      8  C   UNL d   1       0.952  -1.784   0.385  0.00  0.00     0.168 C 
BRANCH   8   9
ATOM      9  N   UNL d   1       1.678  -0.848  -0.433  0.00  0.00    -0.127 N 
ATOM     10  O   UNL d   1       1.703  -1.090  -1.643  0.00  0.00    -0.532 OA
ATOM     11  O   UNL d   1       2.235   0.124   0.107  0.00  0.00    -0.532 OA
ENDBRANCH   8   9
ENDBRANCH   4   7
BRANCH   2  12
ATOM     12  O   UNL d   1       0.693  -3.642   6.108  0.00  0.00    -0.353 OA
ATOM     13  C   UNL d   1       1.275  -2.464   6.666  0.00  0.00     0.210 C 
ENDBRANCH   2  12
BRANCH   3  14
ATOM     14  O   UNL d   1      -2.472  -4.911   2.556  0.00  0.00    -0.353 OA
ATOM     15  C   UNL d   1      -3.306  -5.811   3.262  0.00  0.00     0.210 C 
ENDBRANCH   3  14
BRANCH   1  16
ATOM     16  O   UNL d   1      -1.652  -5.165   5.326  0.00  0.00    -0.351 OA
ATOM     17  C   UNL d   1      -1.429  -5.154   6.728  0.00  0.00     0.210 C 
ENDBRANCH   1  16
TORSDOF 5
