REMARK  8 active torsions:
REMARK  status: ('A' for Active; 'I' for Inactive)
REMARK    1  A    between atoms: C_7  and  C_1 
REMARK    2  A    between atoms: N_8  and  C_2 
REMARK    3  A    between atoms: C_10  and  C_3 
REMARK       I    between atoms: C_9  and  N_8 
REMARK    4  A    between atoms: C_20  and  C_9 
REMARK    5  A    between atoms: C_11  and  C_21 
REMARK    6  A    between atoms: O_19  and  C_11 
REMARK    7  A    between atoms: O_18  and  C_20 
REMARK    8  A    between atoms: C_21  and  O_18 
ROOT
ATOM      1  C   UNL d   1       1.336   0.722  -0.004  0.00  0.00     0.147 A 
ATOM      2  C   UNL d   1       0.115  -1.165  -0.045  0.00  0.00     0.138 A 
ATOM      3  C   UNL d   1       1.430  -0.712   0.065  0.00  0.00     0.053 A 
ATOM      4  N   UNL d   1       0.053   1.107  -0.127  0.00  0.00    -0.292 N 
ATOM      5  HN  UNL d   1      -0.302   2.061  -0.194  1.00  0.00     0.187 HD
ATOM      6  N   UNL d   1      -0.663  -0.029  -0.141  0.00  0.00    -0.280 N 
ATOM      7  C   UNL d   1      -2.099   0.114  -0.066  0.00  0.00     0.179 C 
ENDROOT
BRANCH   2   8
ATOM      8  N   UNL d   1      -0.267  -2.512  -0.051  0.00  0.00    -0.309 N 
ATOM      9  C   UNL d   1      -1.313  -3.017  -0.892  0.00  0.00     0.246 C 
ATOM     10  O   UNL d   1      -1.886  -2.276  -1.676  0.00  0.00    -0.271 OA
ATOM     11  H   UNL d   1       0.344  -3.193   0.398  0.00  0.00     0.170 HD
BRANCH   9  12
ATOM     12  C   UNL d   1      -1.530  -4.532  -0.840  0.00  0.00     0.271 C 
BRANCH  12  13
ATOM     13  O   UNL d   1      -1.026  -5.286  -1.941  0.00  0.00    -0.372 OA
BRANCH  13  14
ATOM     14  C   UNL d   1       0.388  -5.252  -2.087  0.00  0.00     0.277 C 
BRANCH  14  15
ATOM     15  C   UNL d   1       1.125  -5.847  -0.904  0.00  0.00     0.164 C 
ATOM     16  O   UNL d   1       1.237  -5.246   0.152  0.00  0.00    -0.648 OA
BRANCH  15  17
ATOM     17  O   UNL d   1       1.546  -7.123  -1.079  0.00  0.00    -0.775 OA
ATOM     18  H   UNL d   1       1.305  -7.524  -1.935  0.00  0.00     0.167 HD
ENDBRANCH  15  17
ENDBRANCH  14  15
ENDBRANCH  13  14
ENDBRANCH  12  13
ENDBRANCH   9  12
ENDBRANCH   2   8
BRANCH   3  19
ATOM     19  C   UNL d   1       2.622  -1.558   0.095  0.00  0.00    -0.020 A 
ATOM     20  C   UNL d   1       3.705  -1.271  -0.751  0.00  0.00     0.012 A 
ATOM     21  C   UNL d   1       4.889  -2.011  -0.683  0.00  0.00     0.001 A 
ATOM     22  C   UNL d   1       4.981  -3.099   0.177  0.00  0.00     0.000 A 
ATOM     23  C   UNL d   1       3.899  -3.429   0.987  0.00  0.00     0.001 A 
ATOM     24  C   UNL d   1       2.741  -2.643   0.973  0.00  0.00     0.012 A 
ENDBRANCH   3  19
BRANCH   1  25
ATOM     25  C   UNL d   1       2.429   1.769   0.039  0.00  0.00     0.434 C 
ATOM     26  F   UNL d   1       3.667   1.259   0.265  0.00  0.00    -0.165 F 
ATOM     27  F   UNL d   1       2.509   2.453  -1.135  0.00  0.00    -0.165 F 
ATOM     28  F   UNL d   1       2.219   2.687   1.019  0.00  0.00    -0.165 F 
ENDBRANCH   1  25
TORSDOF 8
