REMARK  6 active torsions:
REMARK  status: ('A' for Active; 'I' for Inactive)
REMARK    1  A    between atoms: C_4  and  N_1 
REMARK    2  A    between atoms: S_7  and  O_14 
REMARK    3  A    between atoms: S_9  and  O_15 
REMARK    4  A    between atoms: C_12  and  O_14 
REMARK    5  A    between atoms: C_13  and  C_16 
REMARK    6  A    between atoms: O_15  and  C_16 
ROOT
ATOM      1  C   UNL d   1      -1.243  -2.550  -0.192  0.00  0.00     0.235 C 
ATOM      2  O   UNL d   1      -2.055  -2.988   0.920  0.00  0.00    -0.356 OA
ATOM      3  C   UNL d   1      -2.157  -2.661  -1.406  0.00  0.00     0.090 C 
ATOM      4  C   UNL d   1      -2.873  -3.961  -1.107  0.00  0.00     0.177 C 
ATOM      5  C   UNL d   1      -3.139  -3.803   0.397  0.00  0.00     0.179 C 
ENDROOT
BRANCH   1   6
ATOM      6  N   UNL d   1      -0.675  -1.223   0.019  0.00  0.00    -0.282 N 
ATOM      7  C   UNL d   1       0.210  -0.764  -0.952  0.00  0.00     0.331 C 
ATOM      8  N   UNL d   1       0.776   0.457  -0.720  0.00  0.00    -0.275 N 
ATOM      9  O   UNL d   1       0.508  -1.390  -1.967  0.00  0.00    -0.246 OA
ATOM     10  C   UNL d   1       0.686   1.174   0.434  0.00  0.00     0.256 C 
ATOM     11  H   UNL d   1       1.431   0.785  -1.412  0.00  0.00     0.173 HD
ATOM     12  C   UNL d   1      -0.235   0.630   1.460  0.00  0.00     0.022 C 
ATOM     13  O   UNL d   1       1.338   2.195   0.622  0.00  0.00    -0.267 OA
ATOM     14  C   UNL d   1      -0.867  -0.521   1.196  0.00  0.00     0.110 C 
ATOM     15  C   UNL d   1      -0.363   1.396   2.735  0.00  0.00     0.056 C 
ENDBRANCH   1   6
BRANCH   5  16
ATOM     16  C   UNL d   1      -4.461  -3.099   0.724  0.00  0.00     0.224 C 
BRANCH  16  17
ATOM     17  O   UNL d   1      -5.579  -3.888   0.333  0.00  0.00    -0.273 OA
BRANCH  17  18
ATOM     18  S   UNL d   1      -7.053  -3.250   0.638  0.00  0.00     0.261 S 
ATOM     19  O   UNL d   1      -7.195  -3.098   2.071  0.00  0.00    -0.199 OA
ATOM     20  O   UNL d   1      -7.262  -2.148  -0.274  0.00  0.00    -0.199 OA
ATOM     21  C   UNL d   1      -8.041  -4.630   0.112  0.00  0.00     0.194 C 
ENDBRANCH  17  18
ENDBRANCH  16  17
ENDBRANCH   5  16
BRANCH   4  22
ATOM     22  O   UNL d   1      -2.001  -5.088  -1.289  0.00  0.00    -0.268 OA
BRANCH  22  23
ATOM     23  S   UNL d   1      -1.543  -5.501  -2.800  0.00  0.00     0.261 S 
ATOM     24  O   UNL d   1      -2.729  -5.666  -3.610  0.00  0.00    -0.199 OA
ATOM     25  O   UNL d   1      -0.448  -4.646  -3.200  0.00  0.00    -0.199 OA
ATOM     26  C   UNL d   1      -0.871  -7.102  -2.427  0.00  0.00     0.194 C 
ENDBRANCH  22  23
ENDBRANCH   4  22
TORSDOF 6
