REMARK  5 active torsions:
REMARK  status: ('A' for Active; 'I' for Inactive)
REMARK    1  A    between atoms: C_2  and  C_1 
REMARK       I    between atoms: N_3  and  C_1 
REMARK    2  A    between atoms: C_11  and  N_3 
REMARK    3  A    between atoms: N_4  and  C_12 
REMARK    4  A    between atoms: C_7  and  C_6 
REMARK    5  A    between atoms: O_14  and  C_8 
ROOT
ATOM      1  C   UNL d   1      -1.147   1.240  -0.139  0.00  0.00     0.035 A 
ATOM      2  C   UNL d   1      -3.971   1.396   0.011  0.00  0.00     0.032 A 
ATOM      3  C   UNL d   1      -1.845   0.603   0.887  0.00  0.00     0.032 A 
ATOM      4  C   UNL d   1      -1.868   2.008  -1.059  0.00  0.00     0.032 A 
ATOM      5  C   UNL d   1      -3.266   2.082  -0.981  0.00  0.00     0.031 A 
ATOM      6  C   UNL d   1      -3.241   0.686   0.965  0.00  0.00     0.031 A 
ENDROOT
BRANCH   1   7
ATOM      7  N   UNL d   1       0.251   1.135  -0.320  0.00  0.00    -0.323 N 
ATOM      8  C   UNL d   1       1.115   0.329   0.400  0.00  0.00     0.259 C 
ATOM      9  O   UNL d   1       0.817  -0.397   1.348  0.00  0.00    -0.267 OA
ATOM     10  H   UNL d   1       0.617   1.604  -1.139  0.00  0.00     0.169 HD
BRANCH   8  11
ATOM     11  C   UNL d   1       2.530   0.270  -0.064  0.00  0.00     0.065 A 
ATOM     12  C   UNL d   1       3.275  -0.898   0.172  0.00  0.00     0.081 A 
ATOM     13  C   UNL d   1       4.588  -1.011  -0.278  0.00  0.00     0.037 A 
ATOM     14  C   UNL d   1       5.183   0.056  -0.949  0.00  0.00     0.003 A 
ATOM     15  C   UNL d   1       4.468   1.235  -1.161  0.00  0.00     0.001 A 
ATOM     16  C   UNL d   1       3.145   1.347  -0.718  0.00  0.00     0.020 A 
BRANCH  12  17
ATOM     17  O   UNL d   1       2.774  -1.984   0.843  0.00  0.00    -0.360 OA
ATOM     18  H   UNL d   1       1.925  -1.711   1.258  0.00  0.00     0.217 HD
ENDBRANCH  12  17
ENDBRANCH   8  11
ENDBRANCH   1   7
BRANCH   2  19
ATOM     19  N   UNL d   1      -5.372   1.492   0.012  0.00  0.00    -0.365 N 
ATOM     20  C   UNL d   1      -6.078   0.449   0.324  0.00  0.00     0.101 C 
ATOM     21  HN  UNL d   1      -5.829   2.371  -0.229  1.00  0.00     0.165 HD
BRANCH  20  22
ATOM     22  C   UNL d   1      -7.559   0.480   0.291  0.00  0.00     0.001 A 
ATOM     23  C   UNL d   1      -8.334  -0.604   0.721  0.00  0.00     0.045 A 
ATOM     24 CL   UNL d   1      -7.652  -2.051   1.376  0.00  0.00    -0.083 Cl
ATOM     25  C   UNL d   1      -9.730  -0.539   0.632  0.00  0.00     0.024 A 
ATOM     26  C   UNL d   1     -10.353   0.599   0.116  0.00  0.00     0.002 A 
ATOM     27  C   UNL d   1      -9.584   1.680  -0.306  0.00  0.00     0.001 A 
ATOM     28  C   UNL d   1      -8.193   1.623  -0.218  0.00  0.00     0.014 A 
ENDBRANCH  20  22
ENDBRANCH   2  19
TORSDOF 5
