REMARK  6 active torsions:
REMARK  status: ('A' for Active; 'I' for Inactive)
REMARK    1  A    between atoms: N_10  and  C_1 
REMARK    2  A    between atoms: C_9  and  C_4 
REMARK    3  A    between atoms: C_8  and  C_5 
REMARK    4  A    between atoms: O_18  and  C_9 
REMARK    5  A    between atoms: C_17  and  N_10 
REMARK    6  A    between atoms: C_24  and  O_18 
ROOT
ATOM      1  C   UNL d   1       1.153  -0.817  -0.347  0.00  0.00     0.125 A 
ATOM      2  N   UNL d   1       1.241   0.534  -0.343  0.00  0.00    -0.327 N 
ATOM      3  HN  UNL d   1       2.138   0.991  -0.507  1.00  0.00     0.169 HD
ATOM      4  C   UNL d   1      -0.069  -1.429  -0.101  0.00  0.00     0.099 A 
ATOM      5  C   UNL d   1       0.139   1.266  -0.121  0.00  0.00     0.124 A 
ATOM      6  N   UNL d   1      -1.085   0.760   0.071  0.00  0.00    -0.350 N 
ATOM      7  HN  UNL d   1      -1.908   1.351   0.193  1.00  0.00     0.166 HD
ATOM      8  C   UNL d   1      -1.152  -0.585   0.090  0.00  0.00     0.111 A 
ENDROOT
BRANCH   1   9
ATOM      9  N   UNL d   1       2.326  -1.553  -0.635  0.00  0.00    -0.342 N 
ATOM     10  H   UNL d   1       2.378  -2.421  -0.114  0.00  0.00     0.167 HD
BRANCH   9  11
ATOM     11  C   UNL d   1       3.601  -1.067  -1.022  0.00  0.00     0.033 A 
ATOM     12  C   UNL d   1       3.784   0.144  -1.701  0.00  0.00     0.030 A 
ATOM     13  C   UNL d   1       5.055   0.592  -2.079  0.00  0.00     0.009 A 
ATOM     14  C   UNL d   1       6.187  -0.176  -1.809  0.00  0.00    -0.062 A 
ATOM     15  C   UNL d   1       6.021  -1.405  -1.163  0.00  0.00     0.009 A 
ATOM     16  C   UNL d   1       7.537   0.302  -2.253  0.00  0.00     0.048 C 
ATOM     17  C   UNL d   1       4.744  -1.844  -0.779  0.00  0.00     0.030 A 
ENDBRANCH   9  11
ENDBRANCH   1   9
BRANCH   4  18
ATOM     18  C   UNL d   1      -0.325  -2.859   0.119  0.00  0.00     0.298 C 
ATOM     19  O   UNL d   1      -1.156  -3.236   0.929  0.00  0.00    -0.259 OA
BRANCH  18  20
ATOM     20  O   UNL d   1       0.435  -3.667  -0.659  0.00  0.00    -0.318 OA
BRANCH  20  21
ATOM     21  C   UNL d   1       0.277  -5.077  -0.399  0.00  0.00     0.174 C 
ATOM     22  C   UNL d   1      -0.985  -5.654  -1.023  0.00  0.00     0.034 C 
ENDBRANCH  20  21
ENDBRANCH  18  20
ENDBRANCH   4  18
BRANCH   5  23
ATOM     23  C   UNL d   1       0.266   2.725  -0.064  0.00  0.00     0.049 A 
ATOM     24  S   UNL d   1       1.809   3.481   0.025  0.00  0.00    -0.098 SA
ATOM     25  C   UNL d   1       1.127   5.046   0.089  0.00  0.00     0.050 A 
ATOM     26  C   UNL d   1      -0.247   5.012   0.039  0.00  0.00     0.009 A 
ATOM     27  C   UNL d   1      -0.741   3.677  -0.044  0.00  0.00     0.023 A 
ENDBRANCH   5  23
TORSDOF 6
