REMARK  9 active torsions:
REMARK  status: ('A' for Active; 'I' for Inactive)
REMARK    1  A    between atoms: C_17  and  N_3 
REMARK    2  A    between atoms: C_15  and  N_4 
REMARK    3  A    between atoms: S_14  and  C_10 
REMARK    4  A    between atoms: C_16  and  C_13 
REMARK    5  A    between atoms: C_21  and  S_14 
REMARK    6  A    between atoms: C_19  and  C_15 
REMARK    7  A    between atoms: C_18  and  C_21 
REMARK    8  A    between atoms: O_23  and  C_18 
REMARK    9  A    between atoms: C_33  and  O_23 
ROOT
ATOM      1  C   UNL d   1      -0.175  -1.316   0.375  0.00  0.00     0.153 A 
ATOM      2  C   UNL d   1      -0.458  -2.707   0.240  0.00  0.00     0.098 C 
ATOM      3  N   UNL d   1      -0.085  -0.523   1.510  0.00  0.00    -0.305 N 
ATOM      4  N   UNL d   1      -1.295  -3.291  -0.694  0.00  0.00    -0.284 N 
ATOM      5  N   UNL d   1       0.151  -0.596  -0.684  0.00  0.00    -0.281 N 
ATOM      6  HN  UNL d   1       0.123  -0.920  -1.651  1.00  0.00     0.188 HD
ATOM      7  N   UNL d   1      -1.488  -4.617  -0.448  0.00  0.00    -0.301 N 
ATOM      8  HN  UNL d   1      -2.170  -5.240  -0.881  1.00  0.00     0.187 HD
ATOM      9  C   UNL d   1       0.180  -3.779   0.827  0.00  0.00     0.062 C 
ATOM     10  C   UNL d   1       0.410   0.680   1.025  0.00  0.00     0.163 A 
ATOM     11  N   UNL d   1       0.530   0.646  -0.277  0.00  0.00    -0.278 N 
ATOM     12  HN  UNL d   1       0.848   1.408  -0.876  1.00  0.00     0.189 HD
ATOM     13  C   UNL d   1      -0.583  -4.920   0.491  0.00  0.00     0.036 C 
ENDROOT
BRANCH   3  14
ATOM     14  C   UNL d   1      -0.411  -0.739   2.923  0.00  0.00     0.094 C 
ATOM     15  C   UNL d   1      -0.264  -2.128   3.570  0.00  0.00     0.026 C 
ATOM     16  C   UNL d   1      -1.525  -2.987   3.554  0.00  0.00     0.002 C 
ATOM     17  C   UNL d   1      -2.715  -2.238   4.128  0.00  0.00     0.000 C 
ATOM     18  C   UNL d   1      -2.954  -0.957   3.343  0.00  0.00     0.002 C 
ATOM     19  C   UNL d   1      -1.728  -0.050   3.354  0.00  0.00     0.026 C 
ENDBRANCH   3  14
BRANCH   4  20
ATOM     20  C   UNL d   1      -1.683  -2.772  -2.007  0.00  0.00     0.187 C 
BRANCH  20  21
ATOM     21  C   UNL d   1      -3.134  -2.385  -2.159  0.00  0.00    -0.038 A 
ATOM     22  C   UNL d   1      -4.162  -3.334  -2.038  0.00  0.00     0.015 A 
ATOM     23  C   UNL d   1      -5.492  -3.003  -2.338  0.00  0.00    -0.061 A 
ATOM     24  C   UNL d   1      -6.587  -4.024  -2.237  0.00  0.00     0.048 C 
ATOM     25  C   UNL d   1      -5.795  -1.703  -2.758  0.00  0.00     0.007 A 
ATOM     26  C   UNL d   1      -4.785  -0.749  -2.875  0.00  0.00     0.001 A 
ATOM     27  C   UNL d   1      -3.465  -1.086  -2.577  0.00  0.00     0.009 A 
ENDBRANCH  20  21
ENDBRANCH   4  20
BRANCH  10  28
ATOM     28  S   UNL d   1       0.827   2.062   1.988  0.00  0.00    -0.082 SA
BRANCH  28  29
ATOM     29  C   UNL d   1       2.593   2.193   1.578  0.00  0.00     0.193 C 
BRANCH  29  30
ATOM     30  C   UNL d   1       3.425   1.135   2.278  0.00  0.00     0.268 C 
ATOM     31  O   UNL d   1       3.005   0.154   2.879  0.00  0.00    -0.264 OA
BRANCH  30  32
ATOM     32  O   UNL d   1       4.747   1.449   2.133  0.00  0.00    -0.321 OA
BRANCH  32  33
ATOM     33  C   UNL d   1       5.682   0.575   2.786  0.00  0.00     0.174 C 
ATOM     34  C   UNL d   1       6.032  -0.593   1.884  0.00  0.00     0.034 C 
ENDBRANCH  32  33
ENDBRANCH  30  32
ENDBRANCH  29  30
ENDBRANCH  28  29
ENDBRANCH  10  28
BRANCH  13  35
ATOM     35  C   UNL d   1      -0.485  -6.322   1.066  0.00  0.00    -0.007 C 
ATOM     36  C   UNL d   1      -1.849  -6.748   1.650  0.00  0.00     0.021 C 
ATOM     37  C   UNL d   1      -0.063  -7.323  -0.023  0.00  0.00     0.021 C 
ATOM     38  C   UNL d   1       0.551  -6.392   2.211  0.00  0.00     0.021 C 
ENDBRANCH  13  35
TORSDOF 9
