REMARK  4 active torsions:
REMARK  status: ('A' for Active; 'I' for Inactive)
REMARK    1  A    between atoms: N_8  and  C_3 
REMARK    2  A    between atoms: C_15  and  C_5 
REMARK    3  A    between atoms: C_10  and  C_14 
REMARK    4  A    between atoms: C_14  and  N_12 
ROOT
ATOM      1  N   UNL d   1       0.134   0.670   0.594  0.00  0.00    -0.330 N 
ATOM      2  HN  UNL d   1       0.709   1.153   1.284  1.00  0.00     0.168 HD
ATOM      3  C   UNL d   1      -0.475   1.368  -0.380  0.00  0.00     0.108 A 
ATOM      4  C   UNL d   1      -1.222   0.713  -1.359  0.00  0.00     0.094 A 
ATOM      5  C   UNL d   1      -0.014  -0.659   0.659  0.00  0.00     0.134 A 
ATOM      6  N   UNL d   1      -0.716  -1.371  -0.239  0.00  0.00    -0.343 N 
ATOM      7  HN  UNL d   1      -0.793  -2.386  -0.173  1.00  0.00     0.167 HD
ATOM      8  C   UNL d   1      -1.317  -0.677  -1.237  0.00  0.00     0.032 A 
ATOM      9 CL   UNL d   1      -2.024   1.563  -2.633  0.00  0.00    -0.079 Cl
ATOM     10  C   UNL d   1      -2.107  -1.509  -2.205  0.00  0.00     0.070 C 
ENDROOT
BRANCH   3  11
ATOM     11  N   UNL d   1      -0.345   2.801  -0.328  0.00  0.00    -0.266 NA
ATOM     12  C   UNL d   1      -0.052   3.150   1.095  0.00  0.00     0.127 C 
ATOM     13  C   UNL d   1      -0.155   4.643   1.412  0.00  0.00     0.287 C 
ATOM     14  N   UNL d   1       0.824   5.550   0.794  0.00  0.00     0.093 N 
ATOM     15  C   UNL d   1       0.480   5.775  -0.611  0.00  0.00     0.274 C 
ATOM     16  C   UNL d   1       0.656   4.674  -1.667  0.00  0.00     0.045 C 
ATOM     17  C   UNL d   1       0.723   3.203  -1.259  0.00  0.00     0.099 C 
BRANCH  14  18
ATOM     18  C   UNL d   1       2.240   5.210   1.011  0.00  0.00     0.312 C 
BRANCH  18  19
ATOM     19  C   UNL d   1       2.711   5.194   2.460  0.00  0.00    -0.008 A 
ATOM     20  C   UNL d   1       3.703   4.302   2.917  0.00  0.00     0.043 A 
ATOM     21  C   UNL d   1       4.188   4.370   4.228  0.00  0.00     0.048 A 
ATOM     22 CL   UNL d   1       4.406   3.096   1.894  0.00  0.00    -0.084 Cl
ATOM     23  C   UNL d   1       3.693   5.336   5.098  0.00  0.00     0.035 A 
ATOM     24  C   UNL d   1       2.717   6.229   4.674  0.00  0.00     0.024 A 
ATOM     25 CL   UNL d   1       4.314   5.441   6.701  0.00  0.00    -0.084 Cl
ATOM     26  C   UNL d   1       2.237   6.164   3.363  0.00  0.00     0.012 A 
ENDBRANCH  18  19
ENDBRANCH  14  18
ENDBRANCH   3  11
BRANCH   5  27
ATOM     27  C   UNL d   1       0.620  -1.346   1.810  0.00  0.00     0.076 A 
ATOM     28  N   UNL d   1       1.237  -0.551   2.736  0.00  0.00    -0.363 N 
ATOM     29  C   UNL d   1       1.828  -1.139   3.796  0.00  0.00     0.088 A 
ATOM     30  HN  UNL d   1       1.251   0.463   2.628  1.00  0.00     0.165 HD
ATOM     31  C   UNL d   1       1.842  -2.505   3.999  0.00  0.00     0.017 A 
ATOM     32  C   UNL d   1       1.211  -3.314   3.063  0.00  0.00     0.004 A 
ATOM     33  C   UNL d   1       0.591  -2.732   1.958  0.00  0.00     0.033 A 
ENDBRANCH   5  27
TORSDOF 4
