REMARK  5 active torsions:
REMARK  status: ('A' for Active; 'I' for Inactive)
REMARK    1  A    between atoms: C_13  and  C_7 
REMARK    2  A    between atoms: C_11  and  C_10 
REMARK    3  A    between atoms: C_12  and  C_11 
REMARK    4  A    between atoms: O_16  and  C_12 
REMARK    5  A    between atoms: C_20  and  O_16 
ROOT
ATOM      1  N   UNL d   1      -0.330  -0.613   0.002  0.00  0.00    -0.204 N 
ATOM      2  C   UNL d   1      -0.260   0.766   0.016  0.00  0.00     0.133 A 
ATOM      3  N   UNL d   1      -1.618  -1.056   0.002  0.00  0.00    -0.293 N 
ATOM      4  HN  UNL d   1      -1.946  -2.022   0.014  1.00  0.00     0.187 HD
ATOM      5  C   UNL d   1      -1.545   1.230   0.005  0.00  0.00     0.077 A 
ATOM      6  C   UNL d   1       0.790  -1.458   0.005  0.00  0.00     0.270 A 
ATOM      7  C   UNL d   1      -2.359   0.064  -0.017  0.00  0.00     0.037 A 
ATOM      8  C   UNL d   1       2.093  -0.734   0.013  0.00  0.00     0.101 A 
ATOM      9  N   UNL d   1       0.954   1.361   0.036  0.00  0.00    -0.344 N 
ATOM     10  C   UNL d   1       2.125   0.616   0.015  0.00  0.00     0.025 A 
ATOM     11  O   UNL d   1       0.699  -2.681   0.009  0.00  0.00    -0.266 OA
ATOM     12  H   UNL d   1       1.044   2.375  -0.018  0.00  0.00     0.167 HD
ENDROOT
BRANCH  10  13
ATOM     13  C   UNL d   1       3.441   1.360   0.023  0.00  0.00     0.168 C 
BRANCH  13  14
ATOM     14  C   UNL d   1       3.979   1.558  -1.381  0.00  0.00     0.264 C 
ATOM     15  O   UNL d   1       3.423   1.230  -2.420  0.00  0.00    -0.265 OA
BRANCH  14  16
ATOM     16  O   UNL d   1       5.233   2.093  -1.300  0.00  0.00    -0.322 OA
BRANCH  16  17
ATOM     17  C   UNL d   1       6.029   1.960  -2.486  0.00  0.00     0.174 C 
ATOM     18  C   UNL d   1       6.765   0.634  -2.403  0.00  0.00     0.034 C 
ENDBRANCH  16  17
ENDBRANCH  14  16
ENDBRANCH  13  14
ENDBRANCH  10  13
BRANCH   7  19
ATOM     19  C   UNL d   1      -3.880  -0.009   0.000  0.00  0.00    -0.007 C 
ATOM     20  C   UNL d   1      -4.374  -0.038   1.459  0.00  0.00     0.021 C 
ATOM     21  C   UNL d   1      -4.498   1.215  -0.707  0.00  0.00     0.021 C 
ATOM     22  C   UNL d   1      -4.399  -1.271  -0.721  0.00  0.00     0.021 C 
ENDBRANCH   7  19
TORSDOF 5
