REMARK  4 active torsions:
REMARK  status: ('A' for Active; 'I' for Inactive)
REMARK    1  A    between atoms: C_4  and  C_1 
REMARK       I    between atoms: N_5  and  C_1 
REMARK    2  A    between atoms: O_3  and  C_4 
REMARK    3  A    between atoms: C_6  and  O_3 
REMARK    4  A    between atoms: O_12  and  C_7 
ROOT
ATOM      1  C   UNL d   1      -2.002   0.265   2.171  0.00  0.00     0.069 A 
ATOM      2  C   UNL d   1      -3.885   0.959   4.130  0.00  0.00     0.068 A 
ATOM      3  C   UNL d   1      -1.757   1.327   3.043  0.00  0.00     0.039 A 
ATOM      4  C   UNL d   1      -3.217  -0.413   2.243  0.00  0.00     0.039 A 
ATOM      5  C   UNL d   1      -4.155  -0.063   3.219  0.00  0.00     0.039 A 
ATOM      6  C   UNL d   1      -2.692   1.672   4.026  0.00  0.00     0.039 A 
ENDROOT
BRANCH   1   7
ATOM      7  O   UNL d   1      -0.995  -0.009   1.284  0.00  0.00    -0.342 OA
BRANCH   7   8
ATOM      8  C   UNL d   1      -0.992  -1.335   0.754  0.00  0.00     0.278 C 
BRANCH   8   9
ATOM      9  C   UNL d   1       0.355  -1.680   0.127  0.00  0.00     0.239 C 
ATOM     10  O   UNL d   1       0.622  -2.795  -0.313  0.00  0.00    -0.271 OA
ATOM     11  N   UNL d   1       1.267  -0.667   0.066  0.00  0.00    -0.368 N 
ATOM     12  H   UNL d   1       2.184  -0.856  -0.311  0.00  0.00     0.159 HD
ATOM     13  H   UNL d   1       1.061   0.235   0.478  0.00  0.00     0.159 HD
ENDBRANCH   8   9
ENDBRANCH   7   8
ENDBRANCH   1   7
BRANCH   2  14
ATOM     14  O   UNL d   1      -4.871   1.200   5.046  0.00  0.00    -0.356 OA
ATOM     15  C   UNL d   1      -4.428   1.713   6.297  0.00  0.00     0.210 C 
ENDBRANCH   2  14
TORSDOF 4
