REMARK  6 active torsions:
REMARK  status: ('A' for Active; 'I' for Inactive)
REMARK    1  A    between atoms: N_2  and  C_1 
REMARK    2  A    between atoms: N_4  and  C_1 
REMARK    3  A    between atoms: C_3  and  N_2 
REMARK    4  A    between atoms: C_10  and  N_4 
REMARK    5  A    between atoms: C_12  and  N_4 
REMARK    6  A    between atoms: C_11  and  C_12 
ROOT
ATOM      1  N   UNL d   1      -0.801   2.225   2.109  0.00  0.00    -0.197 NA
ATOM      2  C   UNL d   1      -1.200   1.478   1.318  0.00  0.00     0.060 C 
ATOM      3  C   UNL d   1      -1.681   0.527   0.306  0.00  0.00     0.143 C 
ENDROOT
BRANCH   3   4
ATOM      4  C   UNL d   1      -0.974   0.725  -1.045  0.00  0.00     0.139 C 
BRANCH   4   5
ATOM      5  N   UNL d   1       0.499   0.792  -0.985  0.00  0.00    -0.352 N 
BRANCH   5   6
ATOM      6  C   UNL d   1       1.260  -0.223  -0.340  0.00  0.00     0.174 C 
ATOM      7  S   UNL d   1       0.800  -1.835  -0.270  0.00  0.00    -0.041 SA
BRANCH   6   8
ATOM      8  N   UNL d   1       2.357   0.344   0.305  0.00  0.00    -0.332 N 
ATOM      9  H   UNL d   1       2.091   1.221   0.727  0.00  0.00     0.168 HD
BRANCH   8  10
ATOM     10  C   UNL d   1       3.488  -0.278   0.878  0.00  0.00     0.046 A 
ATOM     11  C   UNL d   1       4.277  -1.197   0.151  0.00  0.00    -0.035 A 
ATOM     12  C   UNL d   1       5.399  -1.779   0.770  0.00  0.00     0.009 A 
ATOM     13  C   UNL d   1       4.054  -1.555  -1.294  0.00  0.00     0.050 C 
ATOM     14  C   UNL d   1       5.785  -1.408   2.052  0.00  0.00     0.001 A 
ATOM     15  C   UNL d   1       5.057  -0.443   2.735  0.00  0.00     0.009 A 
ATOM     16  C   UNL d   1       3.908   0.137   2.166  0.00  0.00    -0.035 A 
ATOM     17  C   UNL d   1       3.203   1.165   3.017  0.00  0.00     0.050 C 
ENDBRANCH   8  10
ENDBRANCH   6   8
ENDBRANCH   5   6
BRANCH   5  18
ATOM     18  C   UNL d   1       1.233   1.816  -1.790  0.00  0.00     0.086 C 
ATOM     19  C   UNL d   1       1.352   3.173  -1.082  0.00  0.00     0.025 C 
ATOM     20  C   UNL d   1       0.158   4.088  -1.308  0.00  0.00     0.002 C 
ATOM     21  C   UNL d   1      -0.097   4.302  -2.792  0.00  0.00     0.000 C 
ATOM     22  C   UNL d   1      -0.291   2.993  -3.550  0.00  0.00     0.002 C 
ATOM     23  C   UNL d   1       0.786   1.946  -3.260  0.00  0.00     0.025 C 
ENDBRANCH   5  18
ENDBRANCH   4   5
ENDBRANCH   3   4
TORSDOF 6
