REMARK  5 active torsions:
REMARK  status: ('A' for Active; 'I' for Inactive)
REMARK    1  A    between atoms: C_7  and  C_1 
REMARK    2  A    between atoms: C_10  and  C_3 
REMARK    3  A    between atoms: C_8  and  C_4 
REMARK    4  A    between atoms: O_14  and  C_7 
REMARK    5  A    between atoms: C_20  and  O_14 
ROOT
ATOM      1  C   UNL d   1       0.274   1.293   0.275  0.00  0.00     0.168 C 
ATOM      2  C   UNL d   1       1.047  -0.005   0.305  0.00  0.00     0.164 C 
ATOM      3  C   UNL d   1      -1.076   1.162  -0.465  0.00  0.00     0.044 C 
ATOM      4  C   UNL d   1      -1.060  -1.276   0.211  0.00  0.00    -0.044 C 
ATOM      5  C   UNL d   1       0.281  -1.284   0.283  0.00  0.00     0.059 C 
ATOM      6  C   UNL d   1      -1.879  -0.016   0.123  0.00  0.00     0.050 C 
ATOM      7  O   UNL d   1       2.269  -0.066   0.425  0.00  0.00    -0.292 OA
ENDROOT
BRANCH   4   8
ATOM      8  C   UNL d   1      -1.793  -2.547   0.138  0.00  0.00    -0.030 A 
ATOM      9  C   UNL d   1      -2.179  -3.218   1.302  0.00  0.00     0.012 A 
ATOM     10  C   UNL d   1      -2.876  -4.427   1.220  0.00  0.00     0.007 A 
ATOM     11  C   UNL d   1      -3.193  -4.984  -0.026  0.00  0.00    -0.062 A 
ATOM     12  C   UNL d   1      -2.804  -4.312  -1.190  0.00  0.00     0.007 A 
ATOM     13  C   UNL d   1      -3.944  -6.282  -0.100  0.00  0.00     0.048 C 
ATOM     14  C   UNL d   1      -2.109  -3.100  -1.108  0.00  0.00     0.012 A 
ENDBRANCH   4   8
BRANCH   3  15
ATOM     15  C   UNL d   1      -1.046   1.075  -1.994  0.00  0.00    -0.052 A 
ATOM     16  C   UNL d   1      -0.003   0.487  -2.726  0.00  0.00     0.007 A 
ATOM     17  C   UNL d   1      -0.031   0.447  -4.121  0.00  0.00     0.001 A 
ATOM     18  C   UNL d   1      -1.116   0.972  -4.814  0.00  0.00     0.000 A 
ATOM     19  C   UNL d   1      -2.172   1.540  -4.110  0.00  0.00     0.001 A 
ATOM     20  C   UNL d   1      -2.138   1.593  -2.715  0.00  0.00     0.007 A 
ENDBRANCH   3  15
BRANCH   1  21
ATOM     21  C   UNL d   1       0.999   2.525  -0.206  0.00  0.00     0.271 C 
ATOM     22  O   UNL d   1       0.704   3.647   0.196  0.00  0.00    -0.264 OA
BRANCH  21  23
ATOM     23  O   UNL d   1       1.873   2.273  -1.212  0.00  0.00    -0.321 OA
BRANCH  23  24
ATOM     24  C   UNL d   1       2.291   3.395  -2.005  0.00  0.00     0.174 C 
ATOM     25  C   UNL d   1       3.746   3.720  -1.741  0.00  0.00     0.034 C 
ENDBRANCH  23  24
ENDBRANCH  21  23
ENDBRANCH   1  21
TORSDOF 5
