REMARK  4 active torsions:
REMARK  status: ('A' for Active; 'I' for Inactive)
REMARK    1  A    between atoms: C_6  and  C_2 
REMARK    2  A    between atoms: C_12  and  C_6 
REMARK    3  A    between atoms: S_11  and  C_12 
REMARK    4  A    between atoms: C_16  and  S_11 
ROOT
ATOM      1  C   UNL d   1      -3.736   1.272   0.055  0.00  0.00     0.169 C 
ATOM      2  O   UNL d   1      -3.740   2.504   0.051  0.00  0.00    -0.291 OA
ENDROOT
BRANCH   1   3
ATOM      3  C   UNL d   1      -2.420   0.555  -0.020  0.00  0.00     0.013 A 
ATOM      4  C   UNL d   1      -1.246   1.325   0.004  0.00  0.00     0.054 A 
ATOM      5  C   UNL d   1       0.005   0.714  -0.056  0.00  0.00     0.103 A 
ATOM      6  C   UNL d   1       0.102  -0.679  -0.096  0.00  0.00     0.102 A 
ATOM      7  O   UNL d   1       1.102   1.540  -0.061  0.00  0.00    -0.346 OA
ATOM      8  O   UNL d   1       1.296  -1.354  -0.106  0.00  0.00    -0.346 OA
ATOM      9  C   UNL d   1      -1.054  -1.453  -0.146  0.00  0.00     0.040 A 
ATOM     10  C   UNL d   1       2.386  -0.495   0.259  0.00  0.00     0.202 C 
ATOM     11  C   UNL d   1       2.283   0.834  -0.469  0.00  0.00     0.202 C 
ATOM     12  C   UNL d   1      -2.314  -0.840  -0.118  0.00  0.00     0.018 A 
ENDBRANCH   1   3
BRANCH   1  13
ATOM     13  C   UNL d   1      -5.047   0.504   0.083  0.00  0.00     0.163 C 
BRANCH  13  14
ATOM     14  S   UNL d   1      -5.242  -0.392   1.657  0.00  0.00    -0.122 SA
BRANCH  14  15
ATOM     15  C   UNL d   1      -6.905  -1.051   1.599  0.00  0.00     0.002 A 
ATOM     16  C   UNL d   1      -7.255  -1.928   2.640  0.00  0.00     0.045 A 
ATOM     17  C   UNL d   1      -8.550  -2.445   2.736  0.00  0.00     0.073 A 
ATOM     18 CL   UNL d   1      -8.946  -3.501   4.037  0.00  0.00    -0.081 Cl
ATOM     19  C   UNL d   1      -9.505  -2.094   1.789  0.00  0.00     0.138 A 
ATOM     20  C   UNL d   1      -9.173  -1.242   0.741  0.00  0.00     0.045 A 
ATOM     21  F   UNL d   1     -10.758  -2.563   1.869  0.00  0.00    -0.204 F 
ATOM     22  C   UNL d   1      -7.876  -0.723   0.644  0.00  0.00     0.021 A 
ENDBRANCH  14  15
ENDBRANCH  13  14
ENDBRANCH   1  13
TORSDOF 4
