REMARK  3 active torsions:
REMARK  status: ('A' for Active; 'I' for Inactive)
REMARK    1  A    between atoms: C_3  and  O_10 
REMARK    2  A    between atoms: C_11  and  C_9 
REMARK    3  A    between atoms: O_10  and  C_11 
ROOT
ATOM      1  N   UNL d   1       6.453  -3.474  -1.137  0.00  0.00    -0.197 NA
ATOM      2  C   UNL d   1       5.978  -2.483  -0.752  0.00  0.00     0.061 C 
ATOM      3  C   UNL d   1       5.410  -1.212  -0.286  0.00  0.00     0.150 C 
ENDROOT
BRANCH   3   4
ATOM      4  C   UNL d   1       6.232  -0.051  -0.830  0.00  0.00     0.189 C 
BRANCH   4   5
ATOM      5  O   UNL d   1       5.723   1.221  -0.400  0.00  0.00    -0.350 OA
BRANCH   5   6
ATOM      6  C   UNL d   1       6.460   2.305  -0.830  0.00  0.00     0.069 A 
ATOM      7  C   UNL d   1       7.570   2.210  -1.675  0.00  0.00     0.043 A 
ATOM      8  C   UNL d   1       8.293   3.341  -2.062  0.00  0.00    -0.059 A 
ATOM      9  C   UNL d   1       9.492   3.189  -2.949  0.00  0.00     0.048 C 
ATOM     10  C   UNL d   1       7.892   4.595  -1.599  0.00  0.00     0.013 A 
ATOM     11  C   UNL d   1       6.777   4.723  -0.758  0.00  0.00    -0.059 A 
ATOM     12  C   UNL d   1       6.063   3.570  -0.379  0.00  0.00     0.043 A 
ATOM     13  C   UNL d   1       6.388   6.093  -0.279  0.00  0.00     0.048 C 
ENDBRANCH   5   6
ENDBRANCH   4   5
ENDBRANCH   3   4
TORSDOF 3
