REMARK  0 active torsions:
REMARK  status: ('A' for Active; 'I' for Inactive)
ROOT
ATOM      1  C   UNL d   1      -1.387  -0.065  -0.075  0.00  0.00     0.013 A 
ATOM      2  C   UNL d   1       1.407   0.064  -0.074  0.00  0.00     0.013 A 
ATOM      3  C   UNL d   1      -0.730   1.174  -0.072  0.00  0.00     0.026 A 
ATOM      4  C   UNL d   1       0.751  -1.175  -0.071  0.00  0.00     0.026 A 
ATOM      5  C   UNL d   1      -0.652  -1.259  -0.082  0.00  0.00    -0.044 A 
ATOM      6  C   UNL d   1       0.674   1.259  -0.081  0.00  0.00    -0.044 A 
ATOM      7  I   UNL d   1      -3.486  -0.025  -0.089  0.00  0.00    -0.044 I 
ATOM      8  I   UNL d   1       3.507   0.024  -0.085  0.00  0.00    -0.044 I 
ATOM      9  C   UNL d   1      -1.292  -2.619  -0.131  0.00  0.00     0.049 C 
ATOM     10  C   UNL d   1       1.313   2.617  -0.131  0.00  0.00     0.049 C 
ENDROOT
TORSDOF 0
