REMARK  1 active torsions:
REMARK  status: ('A' for Active; 'I' for Inactive)
REMARK    1  A    between atoms: N_2  and  S_1 
ROOT
ATOM      1  N   UNL d   1       0.349   1.035   1.095  0.00  0.00    -0.307 N 
ATOM      2  C   UNL d   1       0.521   2.489   0.814  0.00  0.00     0.174 C 
ATOM      3  C   UNL d   1      -0.456   3.400   1.528  0.00  0.00    -0.033 A 
ATOM      4  C   UNL d   1      -0.929   0.642   1.751  0.00  0.00     0.140 C 
ATOM      5  C   UNL d   1      -1.772   2.953   1.736  0.00  0.00    -0.049 A 
ATOM      6  C   UNL d   1      -2.094   1.540   1.336  0.00  0.00     0.060 C 
ATOM      7  C   UNL d   1      -0.108   4.703   1.904  0.00  0.00     0.009 A 
ATOM      8  C   UNL d   1      -2.727   3.803   2.298  0.00  0.00     0.008 A 
ATOM      9  C   UNL d   1      -1.060   5.542   2.487  0.00  0.00     0.001 A 
ATOM     10  C   UNL d   1      -2.367   5.095   2.678  0.00  0.00     0.001 A 
ENDROOT
BRANCH   1  11
ATOM     11  S   UNL d   1       0.936   0.005  -0.112  0.00  0.00     0.225 S 
ATOM     12  O   UNL d   1       2.077   0.643  -0.733  0.00  0.00    -0.206 OA
ATOM     13  O   UNL d   1      -0.190  -0.454  -0.895  0.00  0.00    -0.206 OA
ATOM     14  C   UNL d   1       1.556  -1.358   0.856  0.00  0.00     0.186 C 
ENDBRANCH   1  11
TORSDOF 1
