REMARK  2 active torsions:
REMARK  status: ('A' for Active; 'I' for Inactive)
REMARK    1  A    between atoms: N_4  and  C_1 
REMARK       I    between atoms: C_6  and  N_4 
REMARK    2  A    between atoms: C_12  and  C_6 
REMARK       I    between atoms: C_10  and  N_8 
ROOT
ATOM      1  N   UNL d   1      -4.507  -0.170  -0.707  0.00  0.00    -0.307 N 
ATOM      2  C   UNL d   1      -5.041  -1.184   0.063  0.00  0.00     0.227 C 
ATOM      3  O   UNL d   1      -6.117  -1.186   0.644  0.00  0.00    -0.273 OA
ATOM      4  H   UNL d   1      -3.647  -0.335  -1.215  0.00  0.00     0.171 HD
ENDROOT
BRANCH   1   5
ATOM      5  C   UNL d   1      -4.975   1.097  -0.916  0.00  0.00     0.152 A 
ATOM      6  N   UNL d   1      -4.336   1.887  -1.741  0.00  0.00    -0.335 N 
ATOM      7  C   UNL d   1      -4.945   3.125  -1.768  0.00  0.00     0.051 A 
ATOM      8  HN  UNL d   1      -3.511   1.627  -2.283  1.00  0.00     0.168 HD
ATOM      9  C   UNL d   1      -4.540   4.226  -2.551  0.00  0.00     0.032 A 
ATOM     10  C   UNL d   1      -6.054   3.260  -0.929  0.00  0.00     0.036 A 
ATOM     11  C   UNL d   1      -5.244   5.431  -2.470  0.00  0.00     0.026 A 
ATOM     12  C   UNL d   1      -6.337   5.543  -1.620  0.00  0.00     0.035 A 
ATOM     13  C   UNL d   1      -6.766   4.467  -0.832  0.00  0.00     0.045 A 
ATOM     14 CL   UNL d   1      -7.185   7.041  -1.531  0.00  0.00    -0.084 Cl
ATOM     15  S   UNL d   1      -6.318   1.755  -0.118  0.00  0.00    -0.052 SA
ENDBRANCH   1   5
BRANCH   2  16
ATOM     16  C   UNL d   1      -4.077  -2.379   0.106  0.00  0.00     0.081 C 
ATOM     17  C   UNL d   1      -3.975  -3.045  -1.286  0.00  0.00     0.034 C 
ATOM     18  C   UNL d   1      -4.801  -4.317  -1.420  0.00  0.00     0.126 C 
ATOM     19  N   UNL d   1      -4.517  -5.172  -0.284  0.00  0.00    -0.352 N 
ATOM     20  C   UNL d   1      -5.042  -4.633   0.961  0.00  0.00     0.126 C 
ATOM     21  C   UNL d   1      -3.426  -6.031  -0.385  0.00  0.00     0.215 C 
ATOM     22  C   UNL d   1      -4.315  -3.333   1.301  0.00  0.00     0.034 C 
ATOM     23  O   UNL d   1      -2.829  -6.216  -1.447  0.00  0.00    -0.274 OA
ATOM     24  C   UNL d   1      -2.984  -6.767   0.854  0.00  0.00     0.117 C 
ENDBRANCH   2  16
TORSDOF 2
