REMARK  4 active torsions:
REMARK  status: ('A' for Active; 'I' for Inactive)
REMARK    1  A    between atoms: C_2  and  C_1 
REMARK    2  A    between atoms: C_4  and  C_1 
REMARK    3  A    between atoms: S_3  and  C_4 
REMARK    4  A    between atoms: C_8  and  S_3 
ROOT
ATOM      1  C   UNL d   1       0.873  -0.034   0.037  0.00  0.00     0.169 C 
ATOM      2  O   UNL d   1       1.503   1.012  -0.136  0.00  0.00    -0.291 OA
ENDROOT
BRANCH   1   3
ATOM      3  C   UNL d   1       0.864  -0.660   1.398  0.00  0.00     0.011 A 
ATOM      4  C   UNL d   1       0.215  -1.870   1.680  0.00  0.00     0.016 A 
ATOM      5  C   UNL d   1       0.212  -2.382   2.983  0.00  0.00     0.020 A 
ATOM      6  C   UNL d   1       0.854  -1.688   4.007  0.00  0.00     0.011 A 
ATOM      7  C   UNL d   1       1.521  -0.497   3.738  0.00  0.00     0.020 A 
ATOM      8 BR   UNL d   1       0.799  -2.358   5.773  0.00  0.00    -0.051 Br
ATOM      9  C   UNL d   1       1.528   0.013   2.437  0.00  0.00     0.016 A 
ENDBRANCH   1   3
BRANCH   1  10
ATOM     10  C   UNL d   1       0.127  -0.688  -1.108  0.00  0.00     0.163 C 
BRANCH  10  11
ATOM     11  S   UNL d   1      -1.632  -0.218  -1.054  0.00  0.00    -0.122 SA
BRANCH  11  12
ATOM     12  C   UNL d   1      -2.341  -1.091  -2.446  0.00  0.00     0.001 A 
ATOM     13  C   UNL d   1      -1.621  -1.911  -3.325  0.00  0.00     0.020 A 
ATOM     14  C   UNL d   1      -2.270  -2.578  -4.371  0.00  0.00     0.025 A 
ATOM     15  C   UNL d   1      -3.641  -2.426  -4.553  0.00  0.00     0.034 A 
ATOM     16  C   UNL d   1      -4.370  -1.604  -3.698  0.00  0.00     0.025 A 
ATOM     17 CL   UNL d   1      -4.432  -3.257  -5.832  0.00  0.00    -0.084 Cl
ATOM     18  C   UNL d   1      -3.721  -0.941  -2.652  0.00  0.00     0.020 A 
ENDBRANCH  11  12
ENDBRANCH  10  11
ENDBRANCH   1  10
TORSDOF 4
