REMARK  4 active torsions:
REMARK  status: ('A' for Active; 'I' for Inactive)
REMARK    1  A    between atoms: C_8  and  C_3 
REMARK    2  A    between atoms: C_9  and  N_4 
REMARK    3  A    between atoms: O_13  and  C_7 
REMARK       I    between atoms: N_12  and  C_8 
REMARK    4  A    between atoms: N_14  and  N_12 
ROOT
ATOM      1  N   UNL d   1      -0.695   1.135   0.059  0.00  0.00    -0.283 N 
ATOM      2  HN  UNL d   1      -1.196   2.022   0.120  1.00  0.00     0.188 HD
ATOM      3  C   UNL d   1      -1.332   0.002   0.039  0.00  0.00     0.151 A 
ATOM      4  N   UNL d   1       0.697   1.094  -0.005  0.00  0.00    -0.220 N 
ATOM      5  C   UNL d   1       1.426  -0.104  -0.042  0.00  0.00     0.269 A 
ATOM      6  C   UNL d   1       0.635  -1.349  -0.036  0.00  0.00     0.115 A 
ATOM      7  C   UNL d   1      -0.694  -1.337  -0.001  0.00  0.00     0.104 A 
ATOM      8  O   UNL d   1       2.651  -0.232  -0.052  0.00  0.00    -0.266 OA
ENDROOT
BRANCH   3   9
ATOM      9  C   UNL d   1      -2.859   0.032   0.016  0.00  0.00     0.286 C 
ATOM     10  O   UNL d   1      -3.491  -1.018  -0.032  0.00  0.00    -0.265 OA
ATOM     11  N   UNL d   1      -3.419   1.298   0.030  0.00  0.00    -0.288 N 
ATOM     12  H   UNL d   1      -2.807   2.108   0.142  0.00  0.00     0.183 HD
BRANCH  11  13
ATOM     13  N   UNL d   1      -4.821   1.454   0.013  0.00  0.00    -0.247 NA
ATOM     14  H   UNL d   1      -5.243   0.516   0.077  0.00  0.00     0.143 HD
ATOM     15  H   UNL d   1      -5.097   1.791  -0.914  0.00  0.00     0.143 HD
ENDBRANCH  11  13
ENDBRANCH   3   9
BRANCH   7  16
ATOM     16  O   UNL d   1      -1.406  -2.522  -0.005  0.00  0.00    -0.358 OA
ATOM     17  H   UNL d   1      -2.368  -2.316  -0.004  0.00  0.00     0.217 HD
ENDBRANCH   7  16
BRANCH   4  18
ATOM     18  C   UNL d   1       1.317   2.389  -0.103  0.00  0.00     0.060 A 
ATOM     19  C   UNL d   1       2.596   2.562  -0.654  0.00  0.00     0.031 A 
ATOM     20  C   UNL d   1       3.176   3.830  -0.773  0.00  0.00     0.002 A 
ATOM     21  C   UNL d   1       2.491   4.955  -0.329  0.00  0.00     0.000 A 
ATOM     22  C   UNL d   1       1.224   4.810   0.229  0.00  0.00     0.002 A 
ATOM     23  C   UNL d   1       0.639   3.541   0.331  0.00  0.00     0.031 A 
ENDBRANCH   4  18
TORSDOF 4
