REMARK  9 active torsions:
REMARK  status: ('A' for Active; 'I' for Inactive)
REMARK    1  A    between atoms: C_8  and  C_1 
REMARK       I    between atoms: C_3  and  N_2 
REMARK       I    between atoms: N_12  and  C_3 
REMARK    2  A    between atoms: N_10  and  C_4 
REMARK    3  A    between atoms: C_5  and  C_7 
REMARK    4  A    between atoms: C_7  and  C_9 
REMARK    5  A    between atoms: O_24  and  C_8 
REMARK       I    between atoms: C_9  and  N_10 
REMARK    6  A    between atoms: C_20  and  N_12 
REMARK    7  A    between atoms: O_21  and  C_23 
REMARK    8  A    between atoms: C_26  and  O_21 
REMARK    9  A    between atoms: C_31  and  C_26 
ROOT
ATOM      1  N   UNL d   1       0.731   1.155   0.279  0.00  0.00    -0.319 N 
ATOM      2  C   UNL d   1       1.349   0.477  -0.758  0.00  0.00     0.323 C 
ATOM      3  C   UNL d   1       0.607   2.686   0.211  0.00  0.00     0.184 C 
ATOM      4  C   UNL d   1       0.052   3.283   1.550  0.00  0.00     0.221 C 
ATOM      5  N   UNL d   1       1.461  -0.883  -0.888  0.00  0.00    -0.309 N 
ATOM      6  N   UNL d   1      -0.941   2.592   2.197  0.00  0.00    -0.260 NA
ATOM      7  O   UNL d   1       1.987   1.099  -1.619  0.00  0.00    -0.247 OA
ATOM      8  O   UNL d   1       0.356   4.372   2.033  0.00  0.00    -0.278 OA
ATOM      9  C   UNL d   1      -0.312   0.522   1.074  0.00  0.00     0.143 C 
ATOM     10  C   UNL d   1      -0.691   1.215   2.378  0.00  0.00     0.115 C 
ATOM     11  H   UNL d   1       2.228  -1.038  -1.529  0.00  0.00     0.170 HD
ATOM     12  H   UNL d   1      -1.243   3.110   3.019  0.00  0.00     0.130 HD
ENDROOT
BRANCH   3  13
ATOM     13  C   UNL d   1       1.863   3.550  -0.133  0.00  0.00     0.137 C 
BRANCH  13  14
ATOM     14  C   UNL d   1       1.451   5.043  -0.283  0.00  0.00     0.224 C 
ATOM     15  N   UNL d   1       2.196   5.897   0.528  0.00  0.00    -0.326 N 
ATOM     16  H   UNL d   1       2.940   5.436   1.037  0.00  0.00     0.169 HD
ATOM     17  O   UNL d   1       0.510   5.382  -0.991  0.00  0.00    -0.273 OA
BRANCH  15  18
ATOM     18  C   UNL d   1       1.741   7.056   1.186  0.00  0.00     0.058 A 
ATOM     19  C   UNL d   1       0.715   7.975   0.943  0.00  0.00     0.106 A 
ATOM     20  S   UNL d   1       0.560   9.088   2.289  0.00  0.00    -0.094 SA
ATOM     21  C   UNL d   1       1.810   8.363   3.164  0.00  0.00     0.053 A 
ATOM     22  C   UNL d   1       2.385   7.344   2.451  0.00  0.00     0.038 A 
BRANCH  19  23
ATOM     23  C   UNL d   1      -0.257   8.260  -0.100  0.00  0.00     0.302 C 
ATOM     24  O   UNL d   1      -1.388   8.700   0.110  0.00  0.00    -0.259 OA
BRANCH  23  25
ATOM     25  O   UNL d   1       0.282   8.181  -1.354  0.00  0.00    -0.322 OA
ATOM     26  C   UNL d   1      -0.577   8.627  -2.413  0.00  0.00     0.213 C 
ENDBRANCH  23  25
ENDBRANCH  19  23
ENDBRANCH  15  18
ENDBRANCH  13  14
ENDBRANCH   3  13
BRANCH   5  27
ATOM     27  C   UNL d   1       0.992  -2.085  -0.306  0.00  0.00     0.036 C 
ATOM     28  C   UNL d   1      -0.277  -2.293   0.218  0.00  0.00     0.032 C 
ATOM     29  C   UNL d   1      -0.495  -3.308   1.159  0.00  0.00     0.039 C 
ATOM     30  C   UNL d   1       0.522  -4.206   1.453  0.00  0.00     0.069 C 
ATOM     31  C   UNL d   1       1.638  -4.241   0.624  0.00  0.00     0.039 C 
ATOM     32  C   UNL d   1       1.880  -3.170  -0.250  0.00  0.00     0.032 C 
BRANCH  30  33
ATOM     33  O   UNL d   1       0.368  -4.985   2.570  0.00  0.00    -0.347 OA
BRANCH  33  34
ATOM     34  C   UNL d   1       1.592  -5.168   3.306  0.00  0.00     0.214 C 
BRANCH  34  35
ATOM     35  C   UNL d   1       1.378  -5.094   4.804  0.00  0.00    -0.034 A 
ATOM     36  C   UNL d   1       0.474  -5.951   5.444  0.00  0.00     0.009 A 
ATOM     37  C   UNL d   1       0.348  -5.937   6.837  0.00  0.00     0.001 A 
ATOM     38  C   UNL d   1       1.121  -5.066   7.604  0.00  0.00     0.000 A 
ATOM     39  C   UNL d   1       2.017  -4.203   6.980  0.00  0.00     0.001 A 
ATOM     40  C   UNL d   1       2.145  -4.216   5.589  0.00  0.00     0.009 A 
ENDBRANCH  34  35
ENDBRANCH  33  34
ENDBRANCH  30  33
ENDBRANCH   5  27
TORSDOF 9
