REMARK  4 active torsions:
REMARK  status: ('A' for Active; 'I' for Inactive)
REMARK    1  A    between atoms: N_5  and  S_1 
REMARK    2  A    between atoms: N_2  and  C_4 
REMARK    3  A    between atoms: C_10  and  N_5 
REMARK    4  A    between atoms: C_17  and  C_12 
ROOT
ATOM      1  C   UNL d   1       0.332   3.647  -3.598  0.00  0.00     0.039 A 
ATOM      2  C   UNL d   1      -0.036   2.412  -3.026  0.00  0.00     0.054 A 
ATOM      3  C   UNL d   1       0.920   1.539  -2.494  0.00  0.00     0.024 A 
ATOM      4  C   UNL d   1       1.696   4.013  -3.574  0.00  0.00    -0.035 A 
ATOM      5  C   UNL d   1       2.649   3.108  -3.061  0.00  0.00     0.011 A 
ATOM      6  C   UNL d   1       2.264   1.886  -2.517  0.00  0.00     0.025 A 
ATOM      7  C   UNL d   1       2.201   5.347  -4.050  0.00  0.00     0.050 C 
ENDROOT
BRANCH   1   8
ATOM      8  N   UNL d   1      -0.725   4.466  -4.069  0.00  0.00    -0.365 N 
ATOM      9  C   UNL d   1      -0.640   5.031  -5.232  0.00  0.00     0.100 C 
ATOM     10  HN  UNL d   1      -1.553   4.611  -3.492  1.00  0.00     0.165 HD
BRANCH   9  11
ATOM     11  C   UNL d   1      -1.728   5.864  -5.798  0.00  0.00    -0.019 A 
ATOM     12  C   UNL d   1      -1.450   6.675  -6.907  0.00  0.00     0.038 A 
ATOM     13  C   UNL d   1      -2.472   7.424  -7.503  0.00  0.00     0.056 A 
ATOM     14 CL   UNL d   1      -2.057   8.402  -8.866  0.00  0.00    -0.083 Cl
ATOM     15  C   UNL d   1      -3.776   7.356  -6.998  0.00  0.00     0.055 A 
ATOM     16  C   UNL d   1      -4.049   6.554  -5.887  0.00  0.00     0.026 A 
ATOM     17 CL   UNL d   1      -5.090   8.228  -7.707  0.00  0.00    -0.083 Cl
ATOM     18  C   UNL d   1      -3.026   5.815  -5.281  0.00  0.00     0.014 A 
ENDBRANCH   9  11
ENDBRANCH   1   8
BRANCH   3  19
ATOM     19  N   UNL d   1       0.540   0.308  -1.876  0.00  0.00    -0.186 NA
ATOM     20  H   UNL d   1      -0.229  -0.186  -2.332  0.00  0.00     0.145 HD
BRANCH  19  21
ATOM     21  S   UNL d   1       0.259   0.311  -0.205  0.00  0.00     0.210 S 
ATOM     22  O   UNL d   1      -0.669  -0.773   0.023  0.00  0.00    -0.211 OA
ATOM     23  O   UNL d   1      -0.031   1.654   0.251  0.00  0.00    -0.211 OA
ATOM     24  C   UNL d   1       1.836  -0.195   0.451  0.00  0.00     0.180 C 
ENDBRANCH  19  21
ENDBRANCH   3  19
TORSDOF 4
