REMARK  6 active torsions:
REMARK  status: ('A' for Active; 'I' for Inactive)
REMARK    1  A    between atoms: C_2  and  N_1 
REMARK       I    between atoms: C_4  and  N_1 
REMARK    2  A    between atoms: C_11  and  C_4 
REMARK    3  A    between atoms: C_5  and  C_12 
REMARK    4  A    between atoms: O_9  and  C_5 
REMARK    5  A    between atoms: C_13  and  C_11 
REMARK    6  A    between atoms: C_12  and  C_13 
ROOT
ATOM      1  N   UNL d   1       1.256   0.238   0.141  0.00  0.00    -0.352 N 
ATOM      2  C   UNL d   1       1.896  -0.874  -0.341  0.00  0.00     0.218 C 
ATOM      3  O   UNL d   1       1.803  -1.274  -1.494  0.00  0.00    -0.274 OA
ATOM      4  H   UNL d   1       1.290   0.419   1.137  0.00  0.00     0.163 HD
ENDROOT
BRANCH   1   5
ATOM      5  C   UNL d   1       0.283   1.006  -0.621  0.00  0.00     0.118 C 
ATOM      6  C   UNL d   1      -1.021   0.979   0.150  0.00  0.00    -0.029 A 
ATOM      7  C   UNL d   1      -1.377   2.024   1.021  0.00  0.00    -0.050 A 
ATOM      8  C   UNL d   1      -1.838  -0.162   0.063  0.00  0.00     0.010 A 
ATOM      9  C   UNL d   1      -2.550   1.910   1.782  0.00  0.00     0.007 A 
ATOM     10  C   UNL d   1      -0.568   3.297   1.113  0.00  0.00     0.039 C 
ATOM     11  C   UNL d   1      -3.351   0.771   1.689  0.00  0.00     0.001 A 
ATOM     12  C   UNL d   1      -2.999  -0.262   0.827  0.00  0.00     0.001 A 
ATOM     13  C   UNL d   1       0.821   3.209   0.483  0.00  0.00     0.007 C 
ATOM     14  C   UNL d   1       0.778   2.443  -0.837  0.00  0.00     0.030 C 
ENDBRANCH   1   5
BRANCH   2  15
ATOM     15  C   UNL d   1       2.738  -1.567   0.716  0.00  0.00     0.103 C 
BRANCH  15  16
ATOM     16  C   UNL d   1       3.975  -2.256   0.140  0.00  0.00     0.019 C 
BRANCH  16  17
ATOM     17  C   UNL d   1       4.919  -1.307  -0.605  0.00  0.00     0.110 C 
BRANCH  17  18
ATOM     18  C   UNL d   1       5.437  -0.194   0.276  0.00  0.00     0.139 C 
ATOM     19  O   UNL d   1       5.666  -0.303   1.470  0.00  0.00    -0.650 OA
BRANCH  18  20
ATOM     20  O   UNL d   1       5.643   0.962  -0.395  0.00  0.00    -0.776 OA
ATOM     21  H   UNL d   1       5.422   0.915  -1.345  0.00  0.00     0.167 HD
ENDBRANCH  18  20
ENDBRANCH  17  18
ENDBRANCH  16  17
ENDBRANCH  15  16
ENDBRANCH   2  15
TORSDOF 6
