REMARK  4 active torsions:
REMARK  status: ('A' for Active; 'I' for Inactive)
REMARK    1  A    between atoms: C_3  and  N_1 
REMARK    2  A    between atoms: C_2  and  C_7 
REMARK       I    between atoms: N_4  and  C_2 
REMARK    3  A    between atoms: C_16  and  N_4 
REMARK    4  A    between atoms: C_15  and  C_16 
ROOT
ATOM      1  C   UNL d   1      -1.670  -3.108  -4.033  0.00  0.00     0.251 C 
ATOM      2  N   UNL d   1      -2.649  -2.547  -4.827  0.00  0.00    -0.353 N 
ATOM      3  O   UNL d   1      -1.306  -4.272  -4.168  0.00  0.00    -0.268 OA
ATOM      4  H   UNL d   1      -2.985  -1.610  -4.675  0.00  0.00     0.163 HD
ENDROOT
BRANCH   1   5
ATOM      5  C   UNL d   1      -1.027  -2.268  -2.973  0.00  0.00     0.032 A 
ATOM      6  C   UNL d   1      -1.401  -0.949  -2.679  0.00  0.00     0.019 A 
ATOM      7  C   UNL d   1      -0.729  -0.227  -1.680  0.00  0.00     0.037 A 
ATOM      8  C   UNL d   1       0.324  -0.825  -0.971  0.00  0.00     0.102 A 
ATOM      9  C   UNL d   1       0.699  -2.142  -1.244  0.00  0.00     0.037 A 
ATOM     10  C   UNL d   1       0.022  -2.854  -2.239  0.00  0.00     0.019 A 
BRANCH   8  11
ATOM     11  N   UNL d   1       1.044  -0.062   0.059  0.00  0.00    -0.116 N 
ATOM     12  O   UNL d   1       1.971  -0.627   0.654  0.00  0.00    -0.532 OA
ATOM     13  O   UNL d   1       0.680   1.105   0.265  0.00  0.00    -0.532 OA
ENDBRANCH   8  11
ENDBRANCH   1   5
BRANCH   2  14
ATOM     14  C   UNL d   1      -3.352  -3.346  -5.816  0.00  0.00     0.162 C 
BRANCH  14  15
ATOM     15  C   UNL d   1      -3.338  -2.749  -7.195  0.00  0.00    -0.025 A 
ATOM     16  C   UNL d   1      -4.424  -2.948  -8.046  0.00  0.00     0.096 A 
ATOM     17  N   UNL d   1      -4.479  -2.527  -9.330  0.00  0.00    -0.375 N 
ATOM     18  C   UNL d   1      -3.388  -1.894  -9.808  0.00  0.00     0.087 A 
ATOM     19  HN  UNL d   1      -5.304  -2.682  -9.909  1.00  0.00     0.164 HD
ATOM     20  C   UNL d   1      -2.251  -1.654  -9.056  0.00  0.00     0.018 A 
ATOM     21  C   UNL d   1      -2.226  -2.094  -7.733  0.00  0.00     0.011 A 
ENDBRANCH  14  15
ENDBRANCH   2  14
TORSDOF 4
