REMARK  4 active torsions:
REMARK  status: ('A' for Active; 'I' for Inactive)
REMARK    1  A    between atoms: N_10  and  C_1 
REMARK    2  A    between atoms: O_13  and  C_8 
REMARK    3  A    between atoms: O_12  and  C_9 
REMARK    4  A    between atoms: C_11  and  N_10 
ROOT
ATOM      1  C   UNL d   1      -1.281  -0.123  -0.039  0.00  0.00     0.689 A 
ATOM      2  N   UNL d   1      -0.552  -1.232  -0.049  0.00  0.00    -0.154 N 
ATOM      3  HN  UNL d   1      -0.967  -2.162  -0.106  1.00  0.00     0.188 HD
ATOM      4  N   UNL d   1      -0.769   1.101   0.012  0.00  0.00    -0.154 N 
ATOM      5  HN  UNL d   1      -1.356   1.935   0.018  1.00  0.00     0.188 HD
ATOM      6  N   UNL d   1       1.377   0.136   0.073  0.00  0.00    -0.287 N 
ATOM      7  HN  UNL d   1       2.391   0.233   0.122  1.00  0.00     0.173 HD
ATOM      8  C   UNL d   1       0.554   1.169   0.056  0.00  0.00     0.240 A 
ATOM      9  C   UNL d   1       0.764  -1.036   0.021  0.00  0.00     0.240 A 
ENDROOT
BRANCH   1  10
ATOM     10  N   UNL d   1      -2.670  -0.275  -0.115  0.00  0.00    -0.192 N 
ATOM     11  H   UNL d   1      -2.898  -1.262  -0.081  0.00  0.00     0.184 HD
BRANCH  10  12
ATOM     12  C   UNL d   1      -3.642   0.550   0.481  0.00  0.00     0.049 A 
ATOM     13  C   UNL d   1      -4.916   0.630  -0.100  0.00  0.00     0.033 A 
ATOM     14  C   UNL d   1      -5.908   1.436   0.465  0.00  0.00     0.044 A 
ATOM     15  C   UNL d   1      -5.636   2.143   1.629  0.00  0.00     0.116 A 
ATOM     16  C   UNL d   1      -4.393   2.059   2.239  0.00  0.00     0.044 A 
ATOM     17  F   UNL d   1      -6.586   2.915   2.172  0.00  0.00    -0.206 F 
ATOM     18  C   UNL d   1      -3.398   1.264   1.665  0.00  0.00     0.033 A 
ENDBRANCH  10  12
ENDBRANCH   1  10
BRANCH   9  19
ATOM     19  O   UNL d   1       1.620  -2.116   0.050  0.00  0.00    -0.327 OA
ATOM     20  C   UNL d   1       0.958  -3.372   0.059  0.00  0.00     0.213 C 
ENDBRANCH   9  19
BRANCH   8  21
ATOM     21  O   UNL d   1       1.170   2.402   0.106  0.00  0.00    -0.327 OA
ATOM     22  C   UNL d   1       0.251   3.487   0.030  0.00  0.00     0.213 C 
ENDBRANCH   8  21
TORSDOF 4
