REMARK  8 active torsions:
REMARK  status: ('A' for Active; 'I' for Inactive)
REMARK    1  A    between atoms: C_2  and  N_1 
REMARK       I    between atoms: C_4  and  N_1 
REMARK    2  A    between atoms: O_5  and  C_3 
REMARK    3  A    between atoms: C_11  and  C_4 
REMARK    4  A    between atoms: C_9  and  O_5 
REMARK    5  A    between atoms: C_6  and  C_12 
REMARK    6  A    between atoms: O_10  and  C_6 
REMARK    7  A    between atoms: C_13  and  C_11 
REMARK    8  A    between atoms: C_12  and  C_13 
ROOT
ATOM      1  C   UNL d   1       0.337   0.815   0.700  0.00  0.00     0.069 A 
ATOM      2  C   UNL d   1       0.687   2.159   0.477  0.00  0.00     0.102 A 
ATOM      3  C   UNL d   1      -0.901   0.524   1.289  0.00  0.00     0.032 A 
ATOM      4  C   UNL d   1      -0.178   3.180   0.891  0.00  0.00     0.039 A 
ATOM      5  C   UNL d   1      -1.763   1.547   1.686  0.00  0.00     0.002 A 
ATOM      6  C   UNL d   1      -1.399   2.876   1.494  0.00  0.00     0.003 A 
ENDROOT
BRANCH   1   7
ATOM      7  N   UNL d   1       1.236  -0.232   0.397  0.00  0.00    -0.325 N 
ATOM      8  C   UNL d   1       0.852  -1.474  -0.055  0.00  0.00     0.222 C 
ATOM      9  O   UNL d   1      -0.298  -1.814  -0.335  0.00  0.00    -0.273 OA
ATOM     10  H   UNL d   1       2.201   0.038   0.235  0.00  0.00     0.169 HD
BRANCH   8  11
ATOM     11  C   UNL d   1       1.992  -2.457  -0.184  0.00  0.00     0.103 C 
BRANCH  11  12
ATOM     12  C   UNL d   1       1.763  -3.585   0.823  0.00  0.00     0.019 C 
BRANCH  12  13
ATOM     13  C   UNL d   1       2.772  -4.719   0.689  0.00  0.00     0.110 C 
BRANCH  13  14
ATOM     14  C   UNL d   1       4.167  -4.319   1.107  0.00  0.00     0.139 C 
ATOM     15  O   UNL d   1       4.464  -3.281   1.676  0.00  0.00    -0.650 OA
BRANCH  14  16
ATOM     16  O   UNL d   1       5.086  -5.259   0.790  0.00  0.00    -0.776 OA
ATOM     17  H   UNL d   1       4.710  -6.043   0.348  0.00  0.00     0.167 HD
ENDBRANCH  14  16
ENDBRANCH  13  14
ENDBRANCH  12  13
ENDBRANCH  11  12
ENDBRANCH   8  11
ENDBRANCH   1   7
BRANCH   2  18
ATOM     18  O   UNL d   1       1.868   2.601  -0.082  0.00  0.00    -0.309 OA
BRANCH  18  19
ATOM     19  C   UNL d   1       2.369   2.018  -1.225  0.00  0.00     0.076 A 
ATOM     20  C   UNL d   1       1.612   1.349  -2.191  0.00  0.00     0.037 A 
ATOM     21  C   UNL d   1       2.253   0.696  -3.247  0.00  0.00     0.003 A 
ATOM     22  C   UNL d   1       3.641   0.758  -3.371  0.00  0.00     0.000 A 
ATOM     23  C   UNL d   1       4.390   1.487  -2.450  0.00  0.00     0.003 A 
ATOM     24  C   UNL d   1       3.754   2.117  -1.380  0.00  0.00     0.037 A 
ENDBRANCH  18  19
ENDBRANCH   2  18
TORSDOF 8
