REMARK  5 active torsions:
REMARK  status: ('A' for Active; 'I' for Inactive)
REMARK    1  A    between atoms: N_2  and  C_1 
REMARK    2  A    between atoms: N_3  and  C_9 
REMARK    3  A    between atoms: N_6  and  N_13 
REMARK    4  A    between atoms: N_13  and  C_11 
REMARK    5  A    between atoms: C_23  and  C_12 
ROOT
ATOM      1  C   UNL d   1       3.851   1.616  -1.043  0.00  0.00     0.060 C 
ATOM      2  C   UNL d   1       3.125   0.849  -2.135  0.00  0.00    -0.029 C 
ATOM      3  N   UNL d   1       3.601   1.652   0.233  0.00  0.00    -0.315 N 
ATOM      4  HN  UNL d   1       4.015   2.363   0.836  1.00  0.00     0.181 HD
ATOM      5  C   UNL d   1       5.141   2.238  -1.446  0.00  0.00    -0.002 A 
ATOM      6  C   UNL d   1       1.784   0.729  -2.019  0.00  0.00     0.021 C 
ATOM      7  C   UNL d   1       5.978   1.497  -2.293  0.00  0.00    -0.045 A 
ATOM      8  C   UNL d   1       3.981   0.312  -3.249  0.00  0.00     0.045 C 
ATOM      9  C   UNL d   1       5.470   0.222  -2.908  0.00  0.00     0.044 C 
ATOM     10  C   UNL d   1       5.626   3.358  -0.760  0.00  0.00     0.014 A 
ATOM     11  C   UNL d   1       7.320   1.872  -2.417  0.00  0.00     0.008 A 
ATOM     12  C   UNL d   1       6.963   3.727  -0.899  0.00  0.00     0.001 A 
ATOM     13  C   UNL d   1       7.810   2.977  -1.716  0.00  0.00     0.001 A 
ENDROOT
BRANCH   3  14
ATOM     14  N   UNL d   1       2.765   0.702   0.729  0.00  0.00    -0.203 NA
ATOM     15  H   UNL d   1       2.866  -0.215   0.268  0.00  0.00     0.153 HD
BRANCH  14  16
ATOM     16  C   UNL d   1       2.777   0.576   2.141  0.00  0.00     0.060 A 
ATOM     17  C   UNL d   1       2.700  -0.664   2.807  0.00  0.00     0.128 A 
ATOM     18  C   UNL d   1       2.570  -0.733   4.207  0.00  0.00     0.074 A 
ATOM     19  C   UNL d   1       2.520   0.454   4.948  0.00  0.00     0.105 A 
ATOM     20  C   UNL d   1       2.640   1.693   4.318  0.00  0.00     0.038 A 
ATOM     21  C   UNL d   1       2.765   1.747   2.927  0.00  0.00     0.030 A 
BRANCH  17  22
ATOM     22  N   UNL d   1       2.791  -1.929   2.060  0.00  0.00    -0.114 N 
ATOM     23  O   UNL d   1       2.523  -2.976   2.671  0.00  0.00    -0.532 OA
ATOM     24  O   UNL d   1       3.134  -1.890   0.870  0.00  0.00    -0.532 OA
ENDBRANCH  17  22
BRANCH  19  25
ATOM     25  N   UNL d   1       2.311   0.394   6.400  0.00  0.00    -0.116 N 
ATOM     26  O   UNL d   1       2.145  -0.721   6.911  0.00  0.00    -0.532 OA
ATOM     27  O   UNL d   1       2.300   1.465   7.026  0.00  0.00    -0.532 OA
ENDBRANCH  19  25
ENDBRANCH  14  16
ENDBRANCH   3  14
BRANCH   6  28
ATOM     28  C   UNL d   1       0.813  -0.067  -2.800  0.00  0.00    -0.036 A 
ATOM     29  C   UNL d   1      -0.339  -0.515  -2.128  0.00  0.00     0.011 A 
ATOM     30  C   UNL d   1      -1.295  -1.307  -2.771  0.00  0.00     0.001 A 
ATOM     31  C   UNL d   1      -1.118  -1.663  -4.103  0.00  0.00     0.000 A 
ATOM     32  C   UNL d   1      -0.000  -1.202  -4.795  0.00  0.00     0.001 A 
ATOM     33  C   UNL d   1       0.948  -0.394  -4.153  0.00  0.00     0.011 A 
ENDBRANCH   6  28
TORSDOF 5
