REMARK  4 active torsions:
REMARK  status: ('A' for Active; 'I' for Inactive)
REMARK    1  A    between atoms: N_2  and  S_1 
REMARK    2  A    between atoms: C_5  and  S_1 
REMARK    3  A    between atoms: S_4  and  N_2 
REMARK    4  A    between atoms: C_8  and  S_4 
ROOT
ATOM      1  S   UNL d   1      -0.711   0.866  -2.587  0.00  0.00     0.267 S 
ATOM      2  O   UNL d   1      -0.375   1.141  -3.971  0.00  0.00    -0.200 OA
ATOM      3  O   UNL d   1      -1.911   1.422  -1.990  0.00  0.00    -0.200 OA
ENDROOT
BRANCH   1   4
ATOM      4  N   UNL d   1       0.672   1.207  -1.634  0.00  0.00    -0.260 N 
ATOM      5  HN  UNL d   1       1.474   0.577  -1.635  1.00  0.00     0.186 HD
BRANCH   4   6
ATOM      6  S   UNL d   1       0.677   2.542  -0.736  0.00  0.00    -0.086 SA
ATOM      7  C   UNL d   1       0.173   3.785  -1.960  0.00  0.00     0.108 C 
BRANCH   6   8
ATOM      8  C   UNL d   1       2.468   2.779  -0.857  0.00  0.00     0.010 A 
ATOM      9  C   UNL d   1       3.154   2.768  -2.079  0.00  0.00     0.019 A 
ATOM     10  C   UNL d   1       4.524   3.031  -2.124  0.00  0.00     0.001 A 
ATOM     11  C   UNL d   1       5.222   3.295  -0.948  0.00  0.00     0.000 A 
ATOM     12  C   UNL d   1       4.552   3.293   0.274  0.00  0.00     0.001 A 
ATOM     13  C   UNL d   1       3.178   3.037   0.319  0.00  0.00     0.019 A 
ENDBRANCH   6   8
ENDBRANCH   4   6
ENDBRANCH   1   4
BRANCH   1  14
ATOM     14  C   UNL d   1      -0.855  -0.900  -2.407  0.00  0.00     0.080 A 
ATOM     15  C   UNL d   1      -1.278  -1.419  -1.177  0.00  0.00     0.027 A 
ATOM     16  C   UNL d   1      -1.512  -2.790  -1.051  0.00  0.00     0.025 A 
ATOM     17  C   UNL d   1      -1.331  -3.628  -2.152  0.00  0.00     0.034 A 
ATOM     18  C   UNL d   1      -0.908  -3.109  -3.378  0.00  0.00     0.025 A 
ATOM     19 CL   UNL d   1      -1.653  -5.311  -2.004  0.00  0.00    -0.084 Cl
ATOM     20  C   UNL d   1      -0.668  -1.739  -3.510  0.00  0.00     0.027 A 
ENDBRANCH   1  14
TORSDOF 4
