REMARK  3 active torsions:
REMARK  status: ('A' for Active; 'I' for Inactive)
REMARK    1  A    between atoms: C_9  and  N_1 
REMARK    2  A    between atoms: C_12  and  N_3 
REMARK    3  A    between atoms: C_14  and  C_9 
ROOT
ATOM      1  N   UNL d   1      -0.676   1.199  -0.065  0.00  0.00    -0.258 N 
ATOM      2  C   UNL d   1      -1.394   0.017  -0.242  0.00  0.00     0.351 A 
ATOM      3  N   UNL d   1      -0.660  -1.178  -0.055  0.00  0.00    -0.204 N 
ATOM      4  N   UNL d   1       0.704  -1.216   0.166  0.00  0.00    -0.275 N 
ATOM      5  HN  UNL d   1       1.189  -2.104   0.291  1.00  0.00     0.188 HD
ATOM      6  C   UNL d   1       0.688   1.235   0.120  0.00  0.00     0.290 A 
ATOM      7  C   UNL d   1       1.349  -0.096   0.212  0.00  0.00     0.198 A 
ATOM      8  C   UNL d   1       2.776  -0.266   0.349  0.00  0.00     0.125 C 
ATOM      9  N   UNL d   1       3.925  -0.408   0.443  0.00  0.00    -0.190 NA
ATOM     10  O   UNL d   1      -2.595   0.064  -0.510  0.00  0.00    -0.244 OA
ATOM     11  O   UNL d   1       1.377   2.242   0.210  0.00  0.00    -0.264 OA
ENDROOT
BRANCH   3  12
ATOM     12  C   UNL d   1      -1.280  -2.478  -0.046  0.00  0.00     0.061 A 
ATOM     13  C   UNL d   1      -2.503  -2.735  -0.682  0.00  0.00     0.032 A 
ATOM     14  C   UNL d   1      -3.124  -3.986  -0.590  0.00  0.00     0.002 A 
ATOM     15  C   UNL d   1      -2.530  -5.008   0.142  0.00  0.00     0.000 A 
ATOM     16  C   UNL d   1      -1.300  -4.790   0.754  0.00  0.00     0.002 A 
ATOM     17  C   UNL d   1      -0.674  -3.542   0.646  0.00  0.00     0.032 A 
ENDBRANCH   3  12
BRANCH   1  18
ATOM     18  C   UNL d   1      -1.411   2.458  -0.065  0.00  0.00     0.175 C 
BRANCH  18  19
ATOM     19  C   UNL d   1      -1.989   2.772   1.304  0.00  0.00    -0.040 A 
ATOM     20  C   UNL d   1      -1.252   3.512   2.240  0.00  0.00     0.010 A 
ATOM     21  C   UNL d   1      -1.772   3.764   3.513  0.00  0.00     0.024 A 
ATOM     22  C   UNL d   1      -3.030   3.274   3.861  0.00  0.00     0.034 A 
ATOM     23  C   UNL d   1      -3.776   2.542   2.943  0.00  0.00     0.024 A 
ATOM     24 CL   UNL d   1      -3.659   3.567   5.435  0.00  0.00    -0.084 Cl
ATOM     25  C   UNL d   1      -3.258   2.293   1.669  0.00  0.00     0.010 A 
ENDBRANCH  18  19
ENDBRANCH   1  18
TORSDOF 3
