REMARK  8 active torsions:
REMARK  status: ('A' for Active; 'I' for Inactive)
REMARK    1  A    between atoms: C_8  and  C_1 
REMARK    2  A    between atoms: C_2  and  C_6 
REMARK    3  A    between atoms: C_5  and  N_17 
REMARK    4  A    between atoms: N_7  and  C_8 
REMARK    5  A    between atoms: C_26  and  N_9 
REMARK    6  A    between atoms: N_17  and  C_31 
REMARK    7  A    between atoms: C_27  and  C_26 
REMARK    8  A    between atoms: C_31  and  C_27 
ROOT
ATOM      1  C   UNL d   1      -4.771   3.272  -0.966  0.00  0.00     0.273 C 
ENDROOT
BRANCH   1   2
ATOM      2  N   UNL d   1      -3.843   2.177  -0.646  0.00  0.00     0.091 N 
ATOM      3  C   UNL d   1      -2.716   2.065  -1.590  0.00  0.00     0.302 C 
ATOM      4  C   UNL d   1      -1.605   3.115  -1.384  0.00  0.00     0.303 C 
ATOM      5  N   UNL d   1      -1.036   3.133  -0.025  0.00  0.00     0.096 N 
ATOM      6  C   UNL d   1      -2.124   3.209   0.966  0.00  0.00     0.303 C 
ATOM      7  C   UNL d   1      -3.326   2.258   0.736  0.00  0.00     0.302 C 
BRANCH   5   8
ATOM      8  C   UNL d   1      -0.114   2.005   0.186  0.00  0.00     0.316 C 
BRANCH   8   9
ATOM      9  C   UNL d   1       0.870   2.212   1.319  0.00  0.00     0.030 A 
ATOM     10  C   UNL d   1       1.732   3.318   1.412  0.00  0.00     0.045 A 
ATOM     11 CL   UNL d   1       1.772   4.573   0.222  0.00  0.00    -0.084 Cl
ATOM     12  C   UNL d   1       2.647   3.430   2.470  0.00  0.00     0.024 A 
ATOM     13  C   UNL d   1       2.741   2.429   3.434  0.00  0.00     0.005 A 
ATOM     14  C   UNL d   1       1.921   1.311   3.338  0.00  0.00     0.043 A 
ATOM     15  C   UNL d   1       1.002   1.213   2.293  0.00  0.00     0.126 A 
ATOM     16  F   UNL d   1       0.244   0.108   2.224  0.00  0.00    -0.205 F 
ENDBRANCH   8   9
ENDBRANCH   5   8
ENDBRANCH   1   2
BRANCH   1  17
ATOM     17  C   UNL d   1      -5.539   3.049  -2.281  0.00  0.00     0.045 C 
BRANCH  17  18
ATOM     18  C   UNL d   1      -6.279   1.709  -2.287  0.00  0.00     0.097 C 
BRANCH  18  19
ATOM     19  N   UNL d   1      -6.919   1.497  -3.580  0.00  0.00    -0.264 NA
ATOM     20  H   UNL d   1      -6.289   1.512  -4.376  0.00  0.00     0.130 HD
BRANCH  19  21
ATOM     21  C   UNL d   1      -7.598   0.288  -3.660  0.00  0.00     0.157 A 
ATOM     22  N   UNL d   1      -7.590  -0.311  -4.854  0.00  0.00    -0.329 N 
ATOM     23  C   UNL d   1      -8.245  -1.498  -4.973  0.00  0.00     0.120 A 
ATOM     24  HN  UNL d   1      -7.109   0.108  -5.649  1.00  0.00     0.168 HD
ATOM     25  C   UNL d   1      -8.892  -2.087  -3.900  0.00  0.00     0.051 A 
ATOM     26  C   UNL d   1      -8.833  -1.398  -2.717  0.00  0.00     0.093 A 
ATOM     27  N   UNL d   1      -8.203  -0.222  -2.579  0.00  0.00    -0.343 N 
ATOM     28  HN  UNL d   1      -8.184   0.266  -1.683  1.00  0.00     0.167 HD
BRANCH  23  29
ATOM     29  C   UNL d   1      -8.282  -2.201  -6.317  0.00  0.00     0.432 C 
ATOM     30  F   UNL d   1      -7.597  -1.567  -7.309  0.00  0.00    -0.165 F 
ATOM     31  F   UNL d   1      -7.758  -3.463  -6.256  0.00  0.00    -0.165 F 
ATOM     32  F   UNL d   1      -9.554  -2.364  -6.786  0.00  0.00    -0.165 F 
ENDBRANCH  23  29
ENDBRANCH  19  21
ENDBRANCH  18  19
ENDBRANCH  17  18
ENDBRANCH   1  17
TORSDOF 8
