REMARK  4 active torsions:
REMARK  status: ('A' for Active; 'I' for Inactive)
REMARK    1  A    between atoms: C_6  and  C_1 
REMARK    2  A    between atoms: C_10  and  C_2 
REMARK    3  A    between atoms: O_14  and  C_5 
REMARK    4  A    between atoms: O_15  and  C_6 
ROOT
ATOM      1  C   UNL d   1      -0.690   1.274  -0.007  0.00  0.00     0.080 A 
ATOM      2  C   UNL d   1      -1.407   0.084  -0.054  0.00  0.00     0.064 A 
ATOM      3  N   UNL d   1      -0.771  -1.117  -0.055  0.00  0.00    -0.321 N 
ATOM      4  HN  UNL d   1      -1.291  -1.995  -0.060  1.00  0.00     0.169 HD
ATOM      5  C   UNL d   1       0.565  -1.096  -0.049  0.00  0.00     0.221 A 
ATOM      6  N   UNL d   1       1.351  -0.022  -0.037  0.00  0.00    -0.331 N 
ATOM      7  HN  UNL d   1       2.369  -0.084  -0.041  1.00  0.00     0.168 HD
ATOM      8  C   UNL d   1       0.693   1.152  -0.019  0.00  0.00     0.112 A 
ENDROOT
BRANCH   2   9
ATOM      9  C   UNL d   1      -2.884  -0.030  -0.047  0.00  0.00    -0.006 A 
ATOM     10  C   UNL d   1      -3.722   0.854  -0.738  0.00  0.00     0.030 A 
ATOM     11  C   UNL d   1      -5.095   0.767  -0.561  0.00  0.00     0.088 A 
ATOM     12  N   UNL d   1      -5.691  -0.162   0.211  0.00  0.00    -0.375 N 
ATOM     13  C   UNL d   1      -4.887  -1.065   0.804  0.00  0.00     0.088 A 
ATOM     14  HN  UNL d   1      -6.703  -0.180   0.341  1.00  0.00     0.164 HD
ATOM     15  C   UNL d   1      -3.506  -1.038   0.706  0.00  0.00     0.030 A 
ENDBRANCH   2   9
BRANCH   1  16
ATOM     16  C   UNL d   1      -1.223   2.641   0.045  0.00  0.00     0.179 C 
ATOM     17  O   UNL d   1      -0.701   3.545  -0.587  0.00  0.00    -0.646 OA
BRANCH  16  18
ATOM     18  O   UNL d   1      -2.255   2.844   0.884  0.00  0.00    -0.773 OA
ATOM     19  H   UNL d   1      -2.599   2.079   1.385  0.00  0.00     0.167 HD
ENDBRANCH  16  18
ENDBRANCH   1  16
BRANCH   5  20
ATOM     20  O   UNL d   1       1.215  -2.285  -0.034  0.00  0.00    -0.332 OA
ATOM     21  H   UNL d   1       2.132  -1.962  -0.030  0.00  0.00     0.220 HD
ENDBRANCH   5  20
TORSDOF 4
