REMARK  7 active torsions:
REMARK  status: ('A' for Active; 'I' for Inactive)
REMARK    1  A    between atoms: N_4  and  C_1 
REMARK    2  A    between atoms: S_7  and  C_2 
REMARK    3  A    between atoms: S_8  and  C_3 
REMARK    4  A    between atoms: C_5  and  C_9 
REMARK    5  A    between atoms: C_6  and  C_10 
REMARK    6  A    between atoms: C_19  and  S_7 
REMARK    7  A    between atoms: C_20  and  S_8 
ROOT
ATOM      1  C   UNL d   1      -0.141  -1.720   0.008  0.00  0.00     0.170 A 
ATOM      2  C   UNL d   1       1.088  -1.087  -0.018  0.00  0.00     0.113 A 
ATOM      3  C   UNL d   1      -1.271  -0.924   0.039  0.00  0.00     0.113 A 
ATOM      4  N   UNL d   1       1.187   0.266   0.003  0.00  0.00    -0.344 N 
ATOM      5  HN  UNL d   1       2.093   0.734   0.004  1.00  0.00     0.167 HD
ATOM      6  N   UNL d   1      -1.182   0.430   0.033  0.00  0.00    -0.344 N 
ATOM      7  HN  UNL d   1      -2.016   1.018   0.036  1.00  0.00     0.167 HD
ATOM      8  C   UNL d   1       0.044   0.958   0.022  0.00  0.00     0.182 A 
ENDROOT
BRANCH   2   9
ATOM      9  S   UNL d   1       2.681  -1.889  -0.020  0.00  0.00    -0.052 SA
BRANCH   9  10
ATOM     10  C   UNL d   1       2.800  -2.545  -1.672  0.00  0.00     0.075 A 
ATOM     11  N   UNL d   1       1.702  -2.549  -2.458  0.00  0.00    -0.359 N 
ATOM     12  C   UNL d   1       1.817  -3.097  -3.694  0.00  0.00     0.105 A 
ATOM     13  HN  UNL d   1       0.819  -2.155  -2.134  1.00  0.00     0.166 HD
ATOM     14  C   UNL d   1       2.990  -3.639  -4.200  0.00  0.00     0.063 A 
ATOM     15  C   UNL d   1       4.114  -3.617  -3.371  0.00  0.00     0.020 A 
ATOM     16  C   UNL d   1       4.019  -3.068  -2.093  0.00  0.00     0.038 A 
BRANCH  14  17
ATOM     17  C   UNL d   1       3.048  -4.217  -5.581  0.00  0.00     0.418 C 
ATOM     18  F   UNL d   1       1.857  -4.186  -6.240  0.00  0.00    -0.166 F 
ATOM     19  F   UNL d   1       3.932  -3.558  -6.380  0.00  0.00    -0.166 F 
ATOM     20  F   UNL d   1       3.444  -5.520  -5.585  0.00  0.00    -0.166 F 
ENDBRANCH  14  17
ENDBRANCH   9  10
ENDBRANCH   2   9
BRANCH   1  21
ATOM     21  N   UNL d   1      -0.240  -3.148   0.005  0.00  0.00    -0.110 N 
ATOM     22  O   UNL d   1       0.300  -3.763   0.936  0.00  0.00    -0.532 OA
ATOM     23  O   UNL d   1      -0.860  -3.680  -0.928  0.00  0.00    -0.532 OA
ENDBRANCH   1  21
BRANCH   3  24
ATOM     24  S   UNL d   1      -2.959  -1.500   0.022  0.00  0.00    -0.052 SA
BRANCH  24  25
ATOM     25  C   UNL d   1      -3.185  -2.143   1.668  0.00  0.00     0.075 A 
ATOM     26  N   UNL d   1      -2.108  -2.286   2.472  0.00  0.00    -0.359 N 
ATOM     27  C   UNL d   1      -2.313  -2.813   3.706  0.00  0.00     0.105 A 
ATOM     28  HN  UNL d   1      -1.176  -2.009   2.163  1.00  0.00     0.166 HD
ATOM     29  C   UNL d   1      -3.553  -3.200   4.192  0.00  0.00     0.063 A 
ATOM     30  C   UNL d   1      -4.650  -3.040   3.342  0.00  0.00     0.020 A 
ATOM     31  C   UNL d   1      -4.465  -2.509   2.067  0.00  0.00     0.038 A 
BRANCH  29  32
ATOM     32  C   UNL d   1      -3.710  -3.759   5.573  0.00  0.00     0.418 C 
ATOM     33  F   UNL d   1      -2.538  -3.876   6.254  0.00  0.00    -0.166 F 
ATOM     34  F   UNL d   1      -4.519  -2.989   6.353  0.00  0.00    -0.166 F 
ATOM     35  F   UNL d   1      -4.268  -5.001   5.573  0.00  0.00    -0.166 F 
ENDBRANCH  29  32
ENDBRANCH  24  25
ENDBRANCH   3  24
TORSDOF 7
