REMARK  6 active torsions:
REMARK  status: ('A' for Active; 'I' for Inactive)
REMARK    1  A    between atoms: C_2  and  C_1 
REMARK       I    between atoms: N_5  and  C_2 
REMARK    2  A    between atoms: C_4  and  N_8 
REMARK    3  A    between atoms: N_12  and  C_4 
REMARK    4  A    between atoms: N_8  and  N_5 
REMARK    5  A    between atoms: C_9  and  C_18 
REMARK    6  A    between atoms: C_18  and  N_12 
ROOT
ATOM      1  C   UNL d   1      -2.398  -2.447   0.071  0.00  0.00     0.271 C 
ATOM      2  N   UNL d   1      -2.512  -3.790   0.367  0.00  0.00    -0.264 N 
ATOM      3  O   UNL d   1      -1.306  -1.925  -0.141  0.00  0.00    -0.266 OA
ATOM      4  H   UNL d   1      -3.410  -4.269   0.399  0.00  0.00     0.190 HD
ENDROOT
BRANCH   2   5
ATOM      5  N   UNL d   1      -1.385  -4.611   0.173  0.00  0.00    -0.274 N 
ATOM      6  H   UNL d   1      -0.528  -4.111  -0.058  0.00  0.00     0.189 HD
BRANCH   5   7
ATOM      7  C   UNL d   1      -1.546  -5.959  -0.102  0.00  0.00     0.186 C 
ATOM      8  S   UNL d   1      -2.959  -6.804   0.226  0.00  0.00    -0.040 SA
BRANCH   7   9
ATOM      9  N   UNL d   1      -0.412  -6.516  -0.655  0.00  0.00    -0.360 N 
ATOM     10  H   UNL d   1       0.298  -5.878  -0.989  0.00  0.00     0.162 HD
BRANCH   9  11
ATOM     11  C   UNL d   1      -0.379  -7.834  -1.273  0.00  0.00     0.187 C 
BRANCH  11  12
ATOM     12  C   UNL d   1       0.978  -8.117  -1.797  0.00  0.00     0.070 A 
ATOM     13  O   UNL d   1       1.531  -7.181  -2.623  0.00  0.00    -0.325 OA
ATOM     14  C   UNL d   1       2.736  -7.665  -3.019  0.00  0.00     0.142 A 
ATOM     15  C   UNL d   1       2.969  -8.898  -2.456  0.00  0.00     0.027 A 
ATOM     16  C   UNL d   1       1.835  -9.190  -1.662  0.00  0.00     0.036 A 
ENDBRANCH  11  12
ENDBRANCH   9  11
ENDBRANCH   7   9
ENDBRANCH   5   7
ENDBRANCH   2   5
BRANCH   1  17
ATOM     17  C   UNL d   1      -3.648  -1.619   0.031  0.00  0.00     0.055 A 
ATOM     18  C   UNL d   1      -4.962  -2.101  -0.088  0.00  0.00     0.051 A 
ATOM     19  C   UNL d   1      -6.047  -1.210  -0.117  0.00  0.00     0.048 A 
ATOM     20 CL   UNL d   1      -5.378  -3.769  -0.253  0.00  0.00    -0.083 Cl
ATOM     21  C   UNL d   1      -5.835   0.161  -0.042  0.00  0.00     0.035 A 
ATOM     22  C   UNL d   1      -4.542   0.661   0.058  0.00  0.00     0.025 A 
ATOM     23 CL   UNL d   1      -7.172   1.240  -0.091  0.00  0.00    -0.084 Cl
ATOM     24  C   UNL d   1      -3.458  -0.223   0.095  0.00  0.00     0.020 A 
ENDBRANCH   1  17
TORSDOF 6
