REMARK  4 active torsions:
REMARK  status: ('A' for Active; 'I' for Inactive)
REMARK    1  A    between atoms: S_9  and  C_1 
REMARK    2  A    between atoms: C_11  and  N_2 
REMARK    3  A    between atoms: C_13  and  S_9 
REMARK    4  A    between atoms: C_10  and  C_13 
ROOT
ATOM      1  C   UNL d   1       2.220   1.084   0.015  0.00  0.00     0.167 C 
ATOM      2  N   UNL d   1       2.643  -0.014  -0.712  0.00  0.00    -0.231 N 
ATOM      3  N   UNL d   1       2.284  -1.250  -0.171  0.00  0.00    -0.257 N 
ATOM      4  N   UNL d   1       1.012   1.412   0.345  0.00  0.00    -0.334 N 
ATOM      5  HN  UNL d   1       0.868   2.263   0.889  1.00  0.00     0.168 HD
ATOM      6  C   UNL d   1       1.015  -1.618   0.221  0.00  0.00     0.272 C 
ATOM      7  C   UNL d   1      -0.159  -0.747  -0.026  0.00  0.00     0.060 A 
ATOM      8  C   UNL d   1      -0.098   0.650  -0.012  0.00  0.00     0.050 A 
ATOM      9  O   UNL d   1       0.850  -2.715   0.752  0.00  0.00    -0.266 OA
ATOM     10  C   UNL d   1      -1.405  -1.384  -0.184  0.00  0.00     0.019 A 
ATOM     11  C   UNL d   1      -1.284   1.381  -0.196  0.00  0.00     0.030 A 
ATOM     12  C   UNL d   1      -2.575  -0.640  -0.350  0.00  0.00     0.001 A 
ATOM     13  C   UNL d   1      -2.513   0.747  -0.366  0.00  0.00     0.002 A 
ATOM     14  H   UNL d   1       3.052  -1.860   0.079  0.00  0.00     0.191 HD
ENDROOT
BRANCH   1  15
ATOM     15  S   UNL d   1       3.484   2.163   0.680  0.00  0.00    -0.087 SA
BRANCH  15  16
ATOM     16  C   UNL d   1       2.391   3.368   1.494  0.00  0.00     0.122 C 
BRANCH  16  17
ATOM     17  C   UNL d   1       3.068   4.482   2.252  0.00  0.00    -0.027 A 
ATOM     18  C   UNL d   1       3.510   5.662   1.635  0.00  0.00     0.041 A 
ATOM     19 CL   UNL d   1       3.459   5.873  -0.080  0.00  0.00    -0.084 Cl
ATOM     20  C   UNL d   1       3.967   6.737   2.405  0.00  0.00     0.024 A 
ATOM     21  C   UNL d   1       3.996   6.646   3.797  0.00  0.00     0.002 A 
ATOM     22  C   UNL d   1       3.592   5.470   4.421  0.00  0.00     0.001 A 
ATOM     23  C   UNL d   1       3.141   4.394   3.655  0.00  0.00     0.009 A 
ENDBRANCH  16  17
ENDBRANCH  15  16
ENDBRANCH   1  15
BRANCH   2  24
ATOM     24  C   UNL d   1       2.809   0.005  -2.137  0.00  0.00     0.059 A 
ATOM     25  C   UNL d   1       3.117   1.205  -2.807  0.00  0.00     0.031 A 
ATOM     26  C   UNL d   1       3.270   1.251  -4.199  0.00  0.00     0.002 A 
ATOM     27  C   UNL d   1       3.118   0.100  -4.960  0.00  0.00     0.000 A 
ATOM     28  C   UNL d   1       2.837  -1.106  -4.327  0.00  0.00     0.002 A 
ATOM     29  C   UNL d   1       2.696  -1.153  -2.931  0.00  0.00     0.031 A 
ENDBRANCH   2  24
TORSDOF 4
