REMARK  11 active torsions:
REMARK  status: ('A' for Active; 'I' for Inactive)
REMARK    1  A    between atoms: N_3  and  C_1 
REMARK    2  A    between atoms: N_8  and  C_1 
REMARK    3  A    between atoms: C_2  and  N_9 
REMARK    4  A    between atoms: N_4  and  C_2 
REMARK       I    between atoms: C_6  and  N_3 
REMARK       I    between atoms: C_7  and  N_4 
REMARK    5  A    between atoms: C_5  and  N_8 
REMARK    6  A    between atoms: O_21  and  C_6 
REMARK    7  A    between atoms: O_20  and  C_7 
REMARK    8  A    between atoms: N_9  and  C_10 
REMARK    9  A    between atoms: C_15  and  C_11 
REMARK   10  A    between atoms: C_26  and  O_20 
REMARK   11  A    between atoms: C_25  and  O_21 
ROOT
ATOM      1  C   UNL d   1      -1.721   0.288   0.745  0.00  0.00     0.061 C 
ATOM      2  C   UNL d   1      -2.092  -1.054   0.515  0.00  0.00     0.061 C 
ATOM      3  C   UNL d   1      -3.734   0.585   2.108  0.00  0.00    -0.048 C 
ATOM      4  C   UNL d   1      -2.527   1.069   1.578  0.00  0.00     0.039 C 
ATOM      5  C   UNL d   1      -3.403  -1.416   0.775  0.00  0.00     0.032 C 
ATOM      6  C   UNL d   1      -4.219  -0.611   1.575  0.00  0.00     0.010 C 
ENDROOT
BRANCH   1   7
ATOM      7  N   UNL d   1      -0.501   0.805   0.231  0.00  0.00    -0.331 N 
ATOM      8  H   UNL d   1       0.213   0.119  -0.002  0.00  0.00     0.168 HD
BRANCH   7   9
ATOM      9  C   UNL d   1      -0.180   2.091  -0.162  0.00  0.00     0.180 C 
ATOM     10  S   UNL d   1      -1.188   3.416  -0.356  0.00  0.00    -0.040 SA
BRANCH   9  11
ATOM     11  N   UNL d   1       1.149   2.298  -0.463  0.00  0.00    -0.279 N 
ATOM     12  C   UNL d   1       2.188   1.409  -0.350  0.00  0.00     0.366 C 
ATOM     13  O   UNL d   1       2.060   0.201  -0.204  0.00  0.00    -0.238 OA
ATOM     14  H   UNL d   1       1.415   3.250  -0.658  0.00  0.00     0.173 HD
BRANCH  12  15
ATOM     15  O   UNL d   1       3.361   2.082  -0.420  0.00  0.00    -0.304 OA
BRANCH  15  16
ATOM     16  C   UNL d   1       4.523   1.313  -0.078  0.00  0.00     0.176 C 
ATOM     17  C   UNL d   1       4.667   1.270   1.433  0.00  0.00     0.034 C 
ENDBRANCH  15  16
ENDBRANCH  12  15
ENDBRANCH   9  11
ENDBRANCH   7   9
ENDBRANCH   1   7
BRANCH   2  18
ATOM     18  N   UNL d   1      -1.173  -1.966  -0.033  0.00  0.00    -0.331 N 
ATOM     19  H   UNL d   1      -0.405  -1.533  -0.530  0.00  0.00     0.168 HD
BRANCH  18  20
ATOM     20  C   UNL d   1      -1.038  -3.298  -0.063  0.00  0.00     0.180 C 
ATOM     21  S   UNL d   1       0.135  -3.885  -1.123  0.00  0.00    -0.040 SA
BRANCH  20  22
ATOM     22  N   UNL d   1      -1.649  -4.251   0.704  0.00  0.00    -0.279 N 
ATOM     23  C   UNL d   1      -2.488  -4.538   1.786  0.00  0.00     0.366 C 
ATOM     24  O   UNL d   1      -2.624  -5.708   2.134  0.00  0.00    -0.238 OA
ATOM     25  H   UNL d   1      -1.277  -5.152   0.427  0.00  0.00     0.173 HD
BRANCH  23  26
ATOM     26  O   UNL d   1      -3.105  -3.501   2.379  0.00  0.00    -0.304 OA
BRANCH  26  27
ATOM     27  C   UNL d   1      -4.081  -3.821   3.389  0.00  0.00     0.176 C 
ATOM     28  C   UNL d   1      -5.337  -4.457   2.804  0.00  0.00     0.034 C 
ENDBRANCH  26  27
ENDBRANCH  23  26
ENDBRANCH  20  22
ENDBRANCH  18  20
ENDBRANCH   2  18
BRANCH   3  29
ATOM     29  C   UNL d   1      -4.446   1.331   3.247  0.00  0.00    -0.024 C 
ATOM     30  C   UNL d   1      -5.228   2.523   2.675  0.00  0.00     0.019 C 
ATOM     31  C   UNL d   1      -5.420   0.422   4.030  0.00  0.00     0.019 C 
ATOM     32  C   UNL d   1      -3.418   1.849   4.287  0.00  0.00     0.019 C 
ENDBRANCH   3  29
TORSDOF 11
