REMARK  2 active torsions:
REMARK  status: ('A' for Active; 'I' for Inactive)
REMARK    1  A    between atoms: C_5  and  C_1 
REMARK    2  A    between atoms: O_13  and  C_5 
ROOT
ATOM      1  C   UNL d   1       0.761   0.770   1.141  0.00  0.00     0.047 C 
ATOM      2  C   UNL d   1       0.529   0.496  -1.377  0.00  0.00    -0.042 C 
ATOM      3  C   UNL d   1      -1.523   0.291   0.108  0.00  0.00    -0.042 C 
ATOM      4  C   UNL d   1       0.259  -1.520   0.153  0.00  0.00    -0.042 C 
ATOM      5  C   UNL d   1      -0.764   1.038   1.227  0.00  0.00     0.029 C 
ATOM      6  C   UNL d   1       0.991  -0.751   1.274  0.00  0.00     0.029 C 
ATOM      7  C   UNL d   1       1.261   1.245  -0.242  0.00  0.00     0.029 C 
ATOM      8  C   UNL d   1      -0.986   0.768  -1.259  0.00  0.00     0.018 C 
ATOM      9  C   UNL d   1       0.777  -1.021  -1.214  0.00  0.00     0.018 C 
ATOM     10  C   UNL d   1      -1.253  -1.223   0.251  0.00  0.00     0.018 C 
ATOM     11  C   UNL d   1       1.047   0.969  -2.740  0.00  0.00     0.015 C 
ATOM     12  C   UNL d   1      -3.028   0.566   0.208  0.00  0.00     0.015 C 
ATOM     13  C   UNL d   1       0.513  -3.024   0.297  0.00  0.00     0.015 C 
ENDROOT
BRANCH   1  14
ATOM     14  C   UNL d   1       1.485   1.514   2.266  0.00  0.00     0.148 C 
ATOM     15  O   UNL d   1       0.930   2.200   3.111  0.00  0.00    -0.649 OA
BRANCH  14  16
ATOM     16  O   UNL d   1       2.828   1.349   2.268  0.00  0.00    -0.776 OA
ATOM     17  H   UNL d   1       3.180   0.780   1.561  0.00  0.00     0.167 HD
ENDBRANCH  14  16
ENDBRANCH   1  14
TORSDOF 2
