REMARK  7 active torsions:
REMARK  status: ('A' for Active; 'I' for Inactive)
REMARK    1  A    between atoms: C_2  and  C_1 
REMARK    2  A    between atoms: C_3  and  C_1 
REMARK    3  A    between atoms: C_4  and  C_1 
REMARK    4  A    between atoms: O_9  and  C_1 
REMARK    5  A    between atoms: O_13  and  C_3 
REMARK    6  A    between atoms: N_14  and  C_12 
REMARK    7  A    between atoms: C_17  and  O_13 
ROOT
ATOM      1  C   UNL d   1       0.904   0.085  -0.037  0.00  0.00     0.271 C 
ENDROOT
BRANCH   1   2
ATOM      2  C   UNL d   1       0.351  -1.144   0.711  0.00  0.00     0.432 C 
ATOM      3  F   UNL d   1      -0.816  -0.914   1.352  0.00  0.00    -0.167 F 
ATOM      4  F   UNL d   1       0.155  -2.212  -0.101  0.00  0.00    -0.167 F 
ATOM      5  F   UNL d   1       1.240  -1.547   1.661  0.00  0.00    -0.167 F 
ENDBRANCH   1   2
BRANCH   1   6
ATOM      6  C   UNL d   1       0.404   1.297   0.766  0.00  0.00     0.308 C 
ATOM      7  O   UNL d   1      -0.659   1.882   0.596  0.00  0.00    -0.261 OA
BRANCH   6   8
ATOM      8  O   UNL d   1       1.327   1.660   1.716  0.00  0.00    -0.319 OA
BRANCH   8   9
ATOM      9  C   UNL d   1       1.074   2.918   2.356  0.00  0.00     0.174 C 
ATOM     10  C   UNL d   1       1.670   4.032   1.514  0.00  0.00     0.034 C 
ENDBRANCH   8   9
ENDBRANCH   6   8
ENDBRANCH   1   6
BRANCH   1  11
ATOM     11  C   UNL d   1       0.459   0.180  -1.502  0.00  0.00    -0.005 A 
ATOM     12  C   UNL d   1      -0.898   0.112  -1.859  0.00  0.00     0.013 A 
ATOM     13  C   UNL d   1      -1.302   0.239  -3.195  0.00  0.00     0.024 A 
ATOM     14  C   UNL d   1      -0.363   0.389  -4.216  0.00  0.00     0.005 A 
ATOM     15  C   UNL d   1       0.980   0.512  -3.866  0.00  0.00     0.024 A 
ATOM     16  C   UNL d   1       1.388   0.395  -2.536  0.00  0.00     0.013 A 
BRANCH  14  17
ATOM     17  N   UNL d   1      -0.772   0.643  -5.525  0.00  0.00    -0.303 NA
ATOM     18  H   UNL d   1      -0.072   0.432  -6.227  0.00  0.00     0.124 HD
ATOM     19  H   UNL d   1      -1.679   0.244  -5.757  0.00  0.00     0.124 HD
ENDBRANCH  14  17
ENDBRANCH   1  11
BRANCH   1  20
ATOM     20  O   UNL d   1       2.362   0.070  -0.013  0.00  0.00    -0.368 OA
ATOM     21  H   UNL d   1       2.617   0.047   0.931  0.00  0.00     0.212 HD
ENDBRANCH   1  20
TORSDOF 7
