REMARK  0 active torsions:
REMARK  status: ('A' for Active; 'I' for Inactive)
ROOT
ATOM      1  C   UNL d   1      -1.110   2.258  -0.001  0.00  0.00     0.225 A 
ATOM      2  S   UNL d   1       0.646   2.663   0.001  0.00  0.00    -0.047 SA
ATOM      3  C   UNL d   1       1.121   0.949   0.002  0.00  0.00     0.020 A 
ATOM      4  C   UNL d   1      -1.214   0.814   0.001  0.00  0.00     0.034 A 
ATOM      5  C   UNL d   1       0.003   0.135   0.002  0.00  0.00     0.006 A 
ATOM      6  O   UNL d   1      -1.968   3.131  -0.002  0.00  0.00    -0.279 OA
ATOM      7  C   UNL d   1       0.106  -1.244   0.002  0.00  0.00    -0.024 A 
ATOM      8  C   UNL d   1       2.409   0.438   0.001  0.00  0.00     0.020 A 
ATOM      9  C   UNL d   1      -2.408   0.083  -0.000  0.00  0.00     0.017 A 
ATOM     10  C   UNL d   1       2.529  -0.960   0.002  0.00  0.00     0.002 A 
ATOM     11  C   UNL d   1      -2.322  -1.316   0.001  0.00  0.00     0.002 A 
ATOM     12  C   UNL d   1       1.398  -1.796   0.002  0.00  0.00     0.012 A 
ATOM     13  C   UNL d   1      -1.087  -1.980   0.002  0.00  0.00     0.012 A 
ENDROOT
TORSDOF 0
