REMARK  8 active torsions:
REMARK  status: ('A' for Active; 'I' for Inactive)
REMARK    1  A    between atoms: C_6  and  N_1 
REMARK    2  A    between atoms: C_7  and  C_6 
REMARK    3  A    between atoms: C_10  and  C_7 
REMARK    4  A    between atoms: C_19  and  C_7 
REMARK    5  A    between atoms: C_20  and  C_7 
REMARK    6  A    between atoms: O_16  and  C_13 
REMARK    7  A    between atoms: C_17  and  C_20 
REMARK    8  A    between atoms: C_18  and  C_19 
ROOT
ATOM      1  N   UNL d   1       4.893  -4.734   0.645  0.00  0.00    -0.197 NA
ATOM      2  C   UNL d   1       4.404  -3.690   0.770  0.00  0.00     0.059 C 
ATOM      3  C   UNL d   1       3.803  -2.358   0.917  0.00  0.00     0.126 C 
ENDROOT
BRANCH   3   4
ATOM      4  C   UNL d   1       4.272  -1.431  -0.219  0.00  0.00     0.042 C 
BRANCH   4   5
ATOM      5  C   UNL d   1       3.779   0.038  -0.092  0.00  0.00     0.060 C 
BRANCH   5   6
ATOM      6  C   UNL d   1       2.259   0.038  -0.092  0.00  0.00    -0.062 C 
BRANCH   6   7
ATOM      7  N   UNL d   1       0.998   0.038  -0.092  0.00  0.00    -0.369 N 
ATOM      8  HN2 UNL d   1       2.018   0.038  -0.092  1.00  0.00     0.165 HD
ATOM      9  HN1 UNL d   1      -0.022   0.038  -0.092  1.00  0.00     0.165 HD
ENDBRANCH   6   7
ENDBRANCH   5   6
BRANCH   5  10
ATOM     10  C   UNL d   1       4.278   0.655   1.249  0.00  0.00    -0.036 A 
ATOM     11  C   UNL d   1       3.377   1.158   2.216  0.00  0.00     0.011 A 
ATOM     12  C   UNL d   1       3.808   1.617   3.465  0.00  0.00     0.037 A 
ATOM     13  C   UNL d   1       5.158   1.601   3.786  0.00  0.00     0.068 A 
ATOM     14  C   UNL d   1       6.071   1.158   2.828  0.00  0.00     0.037 A 
ATOM     15  C   UNL d   1       5.643   0.695   1.573  0.00  0.00     0.011 A 
BRANCH  13  16
ATOM     16  O   UNL d   1       5.697   1.989   4.981  0.00  0.00    -0.356 OA
ATOM     17  C   UNL d   1       4.782   2.352   6.011  0.00  0.00     0.210 C 
ENDBRANCH  13  16
ENDBRANCH   5  10
BRANCH   5  18
ATOM     18  C   UNL d   1       4.285   0.868  -1.303  0.00  0.00     0.042 C 
BRANCH  18  19
ATOM     19  C   UNL d   1       3.845   2.342  -1.305  0.00  0.00     0.126 C 
ATOM     20  C   UNL d   1       4.383   3.037  -2.481  0.00  0.00     0.059 C 
ATOM     21  N   UNL d   1       4.819   3.574  -3.414  0.00  0.00    -0.197 NA
ENDBRANCH  18  19
ENDBRANCH   5  18
ENDBRANCH   4   5
ENDBRANCH   3   4
TORSDOF 8
