REMARK  4 active torsions:
REMARK  status: ('A' for Active; 'I' for Inactive)
REMARK    1  A    between atoms: C_2  and  S_1 
REMARK    2  A    between atoms: N_3  and  S_1 
REMARK    3  A    between atoms: C_11  and  N_3 
REMARK    4  A    between atoms: N_5  and  C_10 
ROOT
ATOM      1  N   UNL d   1       0.677   1.375  -0.723  0.00  0.00    -0.281 N 
ATOM      2  H   UNL d   1       0.545   0.768   0.081  0.00  0.00     0.179 HD
ENDROOT
BRANCH   1   3
ATOM      3  S   UNL d   1       0.518   0.681  -2.231  0.00  0.00     0.266 S 
ATOM      4  O   UNL d   1       0.295  -0.735  -2.023  0.00  0.00    -0.200 OA
ATOM      5  O   UNL d   1      -0.418   1.466  -3.003  0.00  0.00    -0.200 OA
BRANCH   3   6
ATOM      6  C   UNL d   1       2.112   0.852  -2.975  0.00  0.00     0.118 A 
ATOM      7  C   UNL d   1       3.217   0.247  -2.385  0.00  0.00     0.142 A 
ATOM      8  C   UNL d   1       4.473   0.338  -2.981  0.00  0.00     0.086 A 
ATOM      9  F   UNL d   1       3.109  -0.416  -1.226  0.00  0.00    -0.204 F 
ATOM     10  C   UNL d   1       4.608   1.039  -4.174  0.00  0.00     0.119 A 
ATOM     11  C   UNL d   1       3.510   1.645  -4.779  0.00  0.00     0.044 A 
ATOM     12  F   UNL d   1       5.811   1.131  -4.752  0.00  0.00    -0.206 F 
ATOM     13  C   UNL d   1       2.252   1.551  -4.181  0.00  0.00     0.031 A 
ENDBRANCH   3   6
ENDBRANCH   1   3
BRANCH   1  14
ATOM     14  C   UNL d   1       0.905   2.755  -0.544  0.00  0.00     0.042 A 
ATOM     15  C   UNL d   1      -0.147   3.662  -0.572  0.00  0.00     0.032 A 
ATOM     16  C   UNL d   1       0.087   5.011  -0.273  0.00  0.00     0.031 A 
ATOM     17  C   UNL d   1       1.366   5.483   0.059  0.00  0.00     0.030 A 
ATOM     18  C   UNL d   1       2.405   4.538   0.083  0.00  0.00     0.031 A 
ATOM     19  C   UNL d   1       2.181   3.188  -0.208  0.00  0.00     0.032 A 
BRANCH  17  20
ATOM     20  N   UNL d   1       1.634   6.821   0.298  0.00  0.00    -0.381 N 
ATOM     21  C   UNL d   1       0.782   7.876  -0.249  0.00  0.00     0.123 C 
ATOM     22  C   UNL d   1       1.675   9.038  -0.688  0.00  0.00     0.020 C 
ATOM     23  C   UNL d   1       2.595   9.512   0.437  0.00  0.00     0.003 C 
ATOM     24  C   UNL d   1       3.359   8.349   1.074  0.00  0.00     0.020 C 
ATOM     25  C   UNL d   1       2.417   7.213   1.475  0.00  0.00     0.123 C 
ENDBRANCH  17  20
ENDBRANCH   1  14
TORSDOF 4
