REMARK  1 active torsions:
REMARK  status: ('A' for Active; 'I' for Inactive)
REMARK    1  A    between atoms: C_4  and  N_1 
ROOT
ATOM      1  N   UNL d   1       0.943  -0.672   0.004  0.00  0.00    -0.238 N 
ATOM      2  C   UNL d   1       0.717   0.555   0.632  0.00  0.00     0.202 C 
ATOM      3  C   UNL d   1      -0.243  -1.036  -0.640  0.00  0.00     0.348 C 
ATOM      4  N   UNL d   1      -0.631   0.884   0.456  0.00  0.00    -0.272 N 
ATOM      5  N   UNL d   1      -1.159   0.005  -0.467  0.00  0.00    -0.249 N 
ATOM      6  S   UNL d   1       1.728   1.647   1.376  0.00  0.00    -0.038 SA
ATOM      7  O   UNL d   1      -0.542  -2.081  -1.198  0.00  0.00    -0.245 OA
ATOM      8  H   UNL d   1      -0.938   1.851   0.515  0.00  0.00     0.189 HD
ATOM      9  H   UNL d   1      -2.149  -0.211  -0.504  0.00  0.00     0.192 HD
ENDROOT
BRANCH   1  10
ATOM     10  C   UNL d   1       2.119  -1.484   0.005  0.00  0.00     0.048 A 
ATOM     11  C   UNL d   1       2.341  -2.431  -1.012  0.00  0.00     0.056 A 
ATOM     12  C   UNL d   1       3.484  -3.247  -1.025  0.00  0.00     0.058 A 
ATOM     13 CL   UNL d   1       3.657  -4.370  -2.328  0.00  0.00    -0.082 Cl
ATOM     14  C   UNL d   1       4.435  -3.132  -0.012  0.00  0.00     0.055 A 
ATOM     15  C   UNL d   1       4.232  -2.207   1.008  0.00  0.00     0.028 A 
ATOM     16 CL   UNL d   1       5.863  -4.100   0.046  0.00  0.00    -0.083 Cl
ATOM     17  C   UNL d   1       3.086  -1.399   1.017  0.00  0.00     0.032 A 
ENDBRANCH   1  10
TORSDOF 1
