REMARK  4 active torsions:
REMARK  status: ('A' for Active; 'I' for Inactive)
REMARK    1  A    between atoms: C_6  and  C_1 
REMARK    2  A    between atoms: C_5  and  C_2 
REMARK    3  A    between atoms: S_9  and  C_5 
REMARK    4  A    between atoms: C_14  and  S_9 
ROOT
ATOM      1  C   UNL d   1       1.371  -1.340  -0.841  0.00  0.00     0.139 A 
ATOM      2  C   UNL d   1       1.703  -0.105  -0.303  0.00  0.00     0.095 A 
ATOM      3  N   UNL d   1       0.027  -1.694  -0.655  0.00  0.00    -0.349 N 
ATOM      4  HN  UNL d   1      -0.401  -2.552  -1.001  1.00  0.00     0.166 HD
ATOM      5  S   UNL d   1       0.330   0.615   0.428  0.00  0.00    -0.070 SA
ATOM      6  C   UNL d   1      -0.605  -0.766   0.028  0.00  0.00     0.048 A 
ATOM      7  C   UNL d   1      -2.020  -0.870   0.479  0.00  0.00     0.076 C 
ENDROOT
BRANCH   2   8
ATOM      8  C   UNL d   1       3.012   0.495  -0.203  0.00  0.00     0.233 C 
ATOM      9  O   UNL d   1       3.960  -0.062   0.337  0.00  0.00    -0.279 OA
BRANCH   8  10
ATOM     10  S   UNL d   1       3.129   2.064  -0.996  0.00  0.00    -0.047 SA
BRANCH  10  11
ATOM     11  C   UNL d   1       4.864   2.486  -0.967  0.00  0.00     0.008 A 
ATOM     12  C   UNL d   1       5.889   1.558  -1.179  0.00  0.00     0.021 A 
ATOM     13  C   UNL d   1       7.229   1.961  -1.192  0.00  0.00     0.025 A 
ATOM     14  C   UNL d   1       7.553   3.302  -1.023  0.00  0.00     0.034 A 
ATOM     15  C   UNL d   1       6.545   4.247  -0.835  0.00  0.00     0.025 A 
ATOM     16 CL   UNL d   1       9.199   3.801  -1.062  0.00  0.00    -0.084 Cl
ATOM     17  C   UNL d   1       5.207   3.837  -0.807  0.00  0.00     0.021 A 
ENDBRANCH  10  11
ENDBRANCH   8  10
ENDBRANCH   2   8
BRANCH   1  18
ATOM     18  C   UNL d   1       2.304  -2.277  -1.556  0.00  0.00     0.434 C 
ATOM     19  F   UNL d   1       3.446  -1.658  -1.960  0.00  0.00    -0.165 F 
ATOM     20  F   UNL d   1       2.675  -3.324  -0.778  0.00  0.00    -0.165 F 
ATOM     21  F   UNL d   1       1.743  -2.795  -2.681  0.00  0.00    -0.165 F 
ENDBRANCH   1  18
TORSDOF 4
