REMARK  5 active torsions:
REMARK  status: ('A' for Active; 'I' for Inactive)
REMARK    1  A    between atoms: C_2  and  N_1 
REMARK       I    between atoms: C_4  and  N_1 
REMARK    2  A    between atoms: C_18  and  C_4 
REMARK    3  A    between atoms: S_9  and  C_18 
REMARK    4  A    between atoms: C_21  and  S_9 
REMARK    5  A    between atoms: C_14  and  C_21 
ROOT
ATOM      1  N   UNL d   1       2.849   0.197   1.386  0.00  0.00    -0.324 N 
ATOM      2  C   UNL d   1       2.361  -0.166   0.144  0.00  0.00     0.231 C 
ATOM      3  O   UNL d   1       1.238   0.074  -0.291  0.00  0.00    -0.272 OA
ATOM      4  H   UNL d   1       3.861   0.142   1.465  0.00  0.00     0.169 HD
ENDROOT
BRANCH   2   5
ATOM      5  C   UNL d   1       3.341  -0.965  -0.712  0.00  0.00     0.177 C 
BRANCH   5   6
ATOM      6  S   UNL d   1       5.090  -0.550  -0.390  0.00  0.00    -0.155 SA
BRANCH   6   7
ATOM      7  C   UNL d   1       5.852  -1.671  -1.606  0.00  0.00     0.112 C 
BRANCH   7   8
ATOM      8  C   UNL d   1       7.358  -1.581  -1.582  0.00  0.00    -0.049 A 
ATOM      9  C   UNL d   1       8.108  -2.401  -0.724  0.00  0.00     0.009 A 
ATOM     10  C   UNL d   1       9.504  -2.332  -0.714  0.00  0.00     0.024 A 
ATOM     11  C   UNL d   1      10.159  -1.438  -1.558  0.00  0.00     0.034 A 
ATOM     12  C   UNL d   1       9.429  -0.603  -2.402  0.00  0.00     0.024 A 
ATOM     13 CL   UNL d   1      11.878  -1.367  -1.559  0.00  0.00    -0.084 Cl
ATOM     14  C   UNL d   1       8.034  -0.672  -2.412  0.00  0.00     0.009 A 
ENDBRANCH   7   8
ENDBRANCH   6   7
ENDBRANCH   5   6
ENDBRANCH   2   5
BRANCH   1  15
ATOM     15  C   UNL d   1       2.158   0.858   2.426  0.00  0.00     0.073 A 
ATOM     16  C   UNL d   1       0.763   0.906   2.575  0.00  0.00     0.145 A 
ATOM     17  C   UNL d   1       0.171   1.608   3.623  0.00  0.00     0.086 A 
ATOM     18  F   UNL d   1      -0.057   0.216   1.773  0.00  0.00    -0.204 F 
ATOM     19  C   UNL d   1       0.975   2.254   4.549  0.00  0.00     0.119 A 
ATOM     20  C   UNL d   1       2.360   2.194   4.453  0.00  0.00     0.044 A 
ATOM     21  F   UNL d   1       0.412   2.928   5.560  0.00  0.00    -0.206 F 
ATOM     22  C   UNL d   1       2.950   1.491   3.398  0.00  0.00     0.036 A 
ENDBRANCH   1  15
TORSDOF 5
