REMARK  6 active torsions:
REMARK  status: ('A' for Active; 'I' for Inactive)
REMARK    1  A    between atoms: C_10  and  C_3 
REMARK    2  A    between atoms: O_22  and  C_4 
REMARK    3  A    between atoms: C_14  and  C_5 
REMARK    4  A    between atoms: C_6  and  C_9 
REMARK    5  A    between atoms: O_23  and  C_10 
REMARK    6  A    between atoms: C_24  and  O_23 
ROOT
ATOM      1  N   UNL d   1      -0.306  -1.117   0.070  0.00  0.00    -0.320 N 
ATOM      2  HN  UNL d   1      -0.847  -1.981   0.063  1.00  0.00     0.169 HD
ATOM      3  C   UNL d   1      -0.216   1.285   0.054  0.00  0.00     0.105 A 
ATOM      4  C   UNL d   1      -0.903   0.089   0.039  0.00  0.00     0.159 A 
ATOM      5  C   UNL d   1       1.044  -1.127   0.111  0.00  0.00     0.134 A 
ATOM      6  N   UNL d   1       1.800  -0.007   0.141  0.00  0.00    -0.349 N 
ATOM      7  HN  UNL d   1       2.818  -0.055   0.184  1.00  0.00     0.167 HD
ATOM      8  C   UNL d   1       1.154   1.173   0.112  0.00  0.00     0.111 A 
ENDROOT
BRANCH   5   9
ATOM      9  C   UNL d   1       1.740  -2.436   0.126  0.00  0.00     0.076 A 
ATOM     10  N   UNL d   1       3.105  -2.413   0.149  0.00  0.00    -0.362 N 
ATOM     11  C   UNL d   1       3.773  -3.586   0.192  0.00  0.00     0.104 A 
ATOM     12  HN  UNL d   1       3.610  -1.527   0.135  1.00  0.00     0.165 HD
ATOM     13  C   UNL d   1       3.157  -4.825   0.214  0.00  0.00     0.063 A 
ATOM     14  C   UNL d   1       1.761  -4.847   0.172  0.00  0.00     0.020 A 
ATOM     15  C   UNL d   1       1.048  -3.648   0.125  0.00  0.00     0.034 A 
BRANCH  13  16
ATOM     16  C   UNL d   1       3.966  -6.082   0.292  0.00  0.00     0.418 C 
ATOM     17  F   UNL d   1       5.311  -5.865   0.318  0.00  0.00    -0.166 F 
ATOM     18  F   UNL d   1       3.686  -6.809   1.409  0.00  0.00    -0.166 F 
ATOM     19  F   UNL d   1       3.743  -6.913  -0.761  0.00  0.00    -0.166 F 
ENDBRANCH  13  16
ENDBRANCH   5   9
BRANCH   4  20
ATOM     20  O   UNL d   1      -2.268   0.015  -0.027  0.00  0.00    -0.345 OA
ATOM     21  H   UNL d   1      -2.632   0.921  -0.087  0.00  0.00     0.219 HD
ENDBRANCH   4  20
BRANCH   3  22
ATOM     22  C   UNL d   1      -0.902   2.574  -0.074  0.00  0.00     0.299 C 
ATOM     23  O   UNL d   1      -2.113   2.654  -0.204  0.00  0.00    -0.259 OA
BRANCH  22  24
ATOM     24  O   UNL d   1      -0.003   3.581  -0.126  0.00  0.00    -0.318 OA
BRANCH  24  25
ATOM     25  C   UNL d   1      -0.478   4.828  -0.650  0.00  0.00     0.174 C 
ATOM     26  C   UNL d   1      -0.311   4.796  -2.158  0.00  0.00     0.034 C 
ENDBRANCH  24  25
ENDBRANCH  22  24
ENDBRANCH   3  22
TORSDOF 6
