REMARK  6 active torsions:
REMARK  status: ('A' for Active; 'I' for Inactive)
REMARK    1  A    between atoms: C_6  and  N_1 
REMARK    2  A    between atoms: N_2  and  C_7 
REMARK    3  A    between atoms: C_3  and  N_9 
REMARK    4  A    between atoms: N_8  and  C_3 
REMARK    5  A    between atoms: C_23  and  N_8 
REMARK    6  A    between atoms: N_9  and  C_24 
ROOT
ATOM      1  C   UNL d   1       3.490   4.460  -4.893  0.00  0.00     0.176 C 
ATOM      2  S   UNL d   1       4.410   5.320  -6.002  0.00  0.00    -0.041 SA
ENDROOT
BRANCH   1   3
ATOM      3  N   UNL d   1       2.971   4.959  -3.729  0.00  0.00    -0.333 N 
ATOM      4  H   UNL d   1       2.001   4.718  -3.566  0.00  0.00     0.168 HD
BRANCH   3   5
ATOM      5  C   UNL d   1       3.576   5.831  -2.800  0.00  0.00     0.034 A 
ATOM      6  C   UNL d   1       2.768   6.521  -1.891  0.00  0.00     0.032 A 
ATOM      7  C   UNL d   1       3.338   7.296  -0.864  0.00  0.00     0.031 A 
ATOM      8  C   UNL d   1       4.722   7.355  -0.693  0.00  0.00     0.030 A 
ATOM      9  C   UNL d   1       5.512   6.680  -1.636  0.00  0.00     0.031 A 
ATOM     10  C   UNL d   1       4.957   5.930  -2.674  0.00  0.00     0.032 A 
BRANCH   8  11
ATOM     11  N   UNL d   1       5.358   8.029   0.335  0.00  0.00    -0.376 N 
ATOM     12  C   UNL d   1       4.769   9.184   1.029  0.00  0.00     0.154 C 
ATOM     13  C   UNL d   1       5.946  10.025   1.590  0.00  0.00     0.136 C 
ATOM     14  C   UNL d   1       5.472  11.254   2.350  0.00  0.00     0.041 C 
ATOM     15  O   UNL d   1       6.759   9.243   2.495  0.00  0.00    -0.378 OA
ATOM     16  C   UNL d   1       7.307   8.089   1.825  0.00  0.00     0.136 C 
ATOM     17  C   UNL d   1       6.189   7.204   1.237  0.00  0.00     0.154 C 
ATOM     18  C   UNL d   1       8.137   7.308   2.832  0.00  0.00     0.041 C 
ENDBRANCH   8  11
ENDBRANCH   3   5
ENDBRANCH   1   3
BRANCH   1  19
ATOM     19  N   UNL d   1       3.127   3.189  -5.249  0.00  0.00    -0.333 N 
ATOM     20  H   UNL d   1       3.367   2.978  -6.213  0.00  0.00     0.168 HD
BRANCH  19  21
ATOM     21  C   UNL d   1       2.742   2.075  -4.472  0.00  0.00     0.034 A 
ATOM     22  C   UNL d   1       2.737   2.037  -3.084  0.00  0.00     0.032 A 
ATOM     23  C   UNL d   1       2.451   0.842  -2.396  0.00  0.00     0.031 A 
ATOM     24  C   UNL d   1       2.172  -0.359  -3.066  0.00  0.00     0.030 A 
ATOM     25  C   UNL d   1       2.165  -0.295  -4.466  0.00  0.00     0.031 A 
ATOM     26  C   UNL d   1       2.447   0.895  -5.158  0.00  0.00     0.032 A 
BRANCH  24  27
ATOM     27  N   UNL d   1       2.017  -1.579  -2.409  0.00  0.00    -0.376 N 
ATOM     28  C   UNL d   1       2.334  -1.671  -0.969  0.00  0.00     0.154 C 
ATOM     29  C   UNL d   1       2.545  -3.147  -0.580  0.00  0.00     0.136 C 
ATOM     30  C   UNL d   1       2.840  -3.285   0.906  0.00  0.00     0.041 C 
ATOM     31  O   UNL d   1       1.369  -3.921  -0.876  0.00  0.00    -0.378 OA
ATOM     32  C   UNL d   1       1.094  -3.882  -2.291  0.00  0.00     0.136 C 
ATOM     33  C   UNL d   1       0.861  -2.432  -2.785  0.00  0.00     0.154 C 
ATOM     34  C   UNL d   1      -0.125  -4.760  -2.538  0.00  0.00     0.041 C 
ENDBRANCH  24  27
ENDBRANCH  19  21
ENDBRANCH   1  19
TORSDOF 6
