REMARK  5 active torsions:
REMARK  status: ('A' for Active; 'I' for Inactive)
REMARK    1  A    between atoms: S_9  and  C_1 
REMARK    2  A    between atoms: C_17  and  N_2 
REMARK    3  A    between atoms: C_16  and  C_5 
REMARK    4  A    between atoms: C_6  and  S_9 
REMARK    5  A    between atoms: O_24  and  C_10 
ROOT
ATOM      1  C   UNL d   1      -0.037  -1.407   0.333  0.00  0.00     0.176 A 
ATOM      2  N   UNL d   1       1.184  -0.767   0.183  0.00  0.00    -0.255 N 
ATOM      3  N   UNL d   1      -1.019  -0.533   0.324  0.00  0.00    -0.276 N 
ATOM      4  HN  UNL d   1      -2.014  -0.748   0.392  1.00  0.00     0.189 HD
ATOM      5  C   UNL d   1       0.831   0.576   0.117  0.00  0.00     0.245 A 
ATOM      6  N   UNL d   1      -0.471   0.716   0.206  0.00  0.00    -0.263 N 
ATOM      7  HN  UNL d   1      -0.983   1.598   0.191  1.00  0.00     0.190 HD
ENDROOT
BRANCH   1   8
ATOM      8  S   UNL d   1      -0.298  -3.098   0.599  0.00  0.00    -0.025 SA
BRANCH   8   9
ATOM      9  C   UNL d   1       0.163  -3.165   2.280  0.00  0.00     0.137 A 
ATOM     10  N   UNL d   1       1.224  -2.574   2.786  0.00  0.00    -0.328 N 
ATOM     11  C   UNL d   1       1.339  -2.943   4.129  0.00  0.00     0.130 A 
ATOM     12  HN  UNL d   1       1.855  -1.951   2.283  1.00  0.00     0.168 HD
ATOM     13  N   UNL d   1       0.424  -3.769   4.652  0.00  0.00    -0.309 N 
ATOM     14  S   UNL d   1      -0.658  -4.126   3.438  0.00  0.00     0.013 SA
ATOM     15  HN  UNL d   1       0.396  -4.114   5.612  1.00  0.00     0.176 HD
BRANCH  11  16
ATOM     16  C   UNL d   1       2.476  -2.434   4.975  0.00  0.00     0.049 A 
ATOM     17  S   UNL d   1       3.672  -1.351   4.415  0.00  0.00    -0.098 SA
ATOM     18  C   UNL d   1       4.456  -1.326   5.935  0.00  0.00     0.050 A 
ATOM     19  C   UNL d   1       3.829  -2.139   6.852  0.00  0.00     0.009 A 
ATOM     20  C   UNL d   1       2.684  -2.783   6.296  0.00  0.00     0.023 A 
ENDBRANCH  11  16
ENDBRANCH   8   9
ENDBRANCH   1   8
BRANCH   2  21
ATOM     21  C   UNL d   1       2.500  -1.305   0.109  0.00  0.00     0.045 A 
ATOM     22  C   UNL d   1       2.743  -2.521  -0.545  0.00  0.00     0.032 A 
ATOM     23  C   UNL d   1       4.035  -3.055  -0.575  0.00  0.00     0.026 A 
ATOM     24  C   UNL d   1       5.084  -2.375   0.038  0.00  0.00     0.034 A 
ATOM     25  C   UNL d   1       4.856  -1.158   0.673  0.00  0.00     0.026 A 
ATOM     26 CL   UNL d   1       6.668  -3.045   0.013  0.00  0.00    -0.084 Cl
ATOM     27  C   UNL d   1       3.566  -0.620   0.710  0.00  0.00     0.032 A 
ENDBRANCH   2  21
BRANCH   5  28
ATOM     28  O   UNL d   1       1.634   1.605  -0.123  0.00  0.00    -0.331 OA
ATOM     29  H   UNL d   1       2.455   1.277  -0.523  0.00  0.00     0.221 HD
ENDBRANCH   5  28
TORSDOF 5
