REMARK  2 active torsions:
REMARK  status: ('A' for Active; 'I' for Inactive)
REMARK    1  A    between atoms: N_8  and  C_7 
REMARK    2  A    between atoms: C_14  and  N_8 
ROOT
ATOM      1  N   UNL d   1       1.066   0.973  -0.017  0.00  0.00    -0.270 N 
ATOM      2  N   UNL d   1      -1.236   0.441   0.048  0.00  0.00    -0.270 N 
ATOM      3  C   UNL d   1      -0.248   1.416   0.025  0.00  0.00     0.333 A 
ATOM      4  C   UNL d   1       0.388  -1.346   0.099  0.00  0.00     0.116 A 
ATOM      5  C   UNL d   1      -1.024  -0.927   0.030  0.00  0.00     0.268 A 
ATOM      6  C   UNL d   1       1.472  -0.348   0.035  0.00  0.00     0.268 A 
ATOM      7  C   UNL d   1       0.670  -2.654   0.258  0.00  0.00     0.111 C 
ATOM      8  O   UNL d   1      -0.523   2.617   0.042  0.00  0.00    -0.246 OA
ATOM      9  O   UNL d   1       2.658  -0.686   0.042  0.00  0.00    -0.267 OA
ATOM     10  O   UNL d   1      -1.939  -1.747  -0.025  0.00  0.00    -0.267 OA
ATOM     11  C   UNL d   1      -2.627   0.868   0.068  0.00  0.00     0.164 C 
ATOM     12  C   UNL d   1       2.131   1.962  -0.064  0.00  0.00     0.164 C 
ENDROOT
BRANCH   7  13
ATOM     13  N   UNL d   1       1.911  -3.236   0.387  0.00  0.00    -0.362 N 
ATOM     14  H   UNL d   1       2.691  -2.574   0.329  0.00  0.00     0.165 HD
BRANCH  13  15
ATOM     15  C   UNL d   1       2.269  -4.578   0.606  0.00  0.00     0.071 A 
ATOM     16  C   UNL d   1       1.382  -5.668   0.596  0.00  0.00     0.145 A 
ATOM     17  C   UNL d   1       1.813  -6.969   0.853  0.00  0.00     0.086 A 
ATOM     18  F   UNL d   1       0.080  -5.503   0.319  0.00  0.00    -0.204 F 
ATOM     19  C   UNL d   1       3.150  -7.197   1.136  0.00  0.00     0.119 A 
ATOM     20  C   UNL d   1       4.060  -6.148   1.163  0.00  0.00     0.044 A 
ATOM     21  F   UNL d   1       3.570  -8.442   1.387  0.00  0.00    -0.206 F 
ATOM     22  C   UNL d   1       3.620  -4.849   0.900  0.00  0.00     0.036 A 
ENDBRANCH  13  15
ENDBRANCH   7  13
TORSDOF 2
