REMARK  2 active torsions:
REMARK  status: ('A' for Active; 'I' for Inactive)
REMARK    1  A    between atoms: O_12  and  C_6 
REMARK    2  A    between atoms: C_11  and  O_12 
ROOT
ATOM      1  C   UNL d   1       5.891   0.722   0.807  0.00  0.00    -0.091 C 
ATOM      2  C   UNL d   1       7.073   0.511   0.809  0.00  0.00     0.014 C 
ATOM      3  C   UNL d   1       4.448   1.016   0.801  0.00  0.00     0.268 C 
ENDROOT
BRANCH   3   4
ATOM      4  O   UNL d   1       3.752  -0.038   0.132  0.00  0.00    -0.340 OA
BRANCH   4   5
ATOM      5  C   UNL d   1       2.388   0.065   0.099  0.00  0.00     0.070 A 
ATOM      6  C   UNL d   1       1.700  -1.151   0.040  0.00  0.00     0.038 A 
ATOM      7  C   UNL d   1       0.303  -1.179  -0.013  0.00  0.00     0.025 A 
ATOM      8  C   UNL d   1      -0.420   0.016  -0.028  0.00  0.00     0.044 A 
ATOM      9  C   UNL d   1      -1.854  -0.005  -0.074  0.00  0.00     0.099 C 
ATOM     10  C   UNL d   1       0.267   1.235   0.002  0.00  0.00     0.025 A 
ATOM     11  N   UNL d   1      -3.014  -0.018  -0.105  0.00  0.00    -0.191 NA
ATOM     12  C   UNL d   1       1.667   1.259   0.063  0.00  0.00     0.038 A 
ENDBRANCH   4   5
ENDBRANCH   3   4
TORSDOF 2
