REMARK  10 active torsions:
REMARK  status: ('A' for Active; 'I' for Inactive)
REMARK    1  A    between atoms: C_5  and  S_1 
REMARK    2  A    between atoms: N_6  and  S_1 
REMARK    3  A    between atoms: C_2  and  C_3 
REMARK       I    between atoms: C_3  and  N_7 
REMARK    4  A    between atoms: C_4  and  C_13 
REMARK       I    between atoms: N_8  and  C_4 
REMARK    5  A    between atoms: C_25  and  N_6 
REMARK    6  A    between atoms: C_26  and  N_6 
REMARK    7  A    between atoms: N_7  and  N_8 
REMARK    8  A    between atoms: N_22  and  C_11 
REMARK    9  A    between atoms: C_27  and  C_25 
REMARK   10  A    between atoms: C_28  and  C_26 
ROOT
ATOM      1  C   UNL d   1      -0.697   1.163   5.793  0.00  0.00     0.270 C 
ATOM      2  N   UNL d   1      -0.449   2.394   6.369  0.00  0.00    -0.263 N 
ATOM      3  O   UNL d   1      -1.299   0.273   6.391  0.00  0.00    -0.266 OA
ATOM      4  H   UNL d   1      -0.039   3.191   5.892  0.00  0.00     0.190 HD
ENDROOT
BRANCH   1   5
ATOM      5  C   UNL d   1      -0.222   0.951   4.384  0.00  0.00     0.033 A 
ATOM      6  C   UNL d   1       0.475   1.921   3.650  0.00  0.00     0.018 A 
ATOM      7  C   UNL d   1       0.881   1.667   2.331  0.00  0.00     0.026 A 
ATOM      8  C   UNL d   1       0.540   0.465   1.707  0.00  0.00     0.074 A 
ATOM      9  C   UNL d   1      -0.116  -0.529   2.442  0.00  0.00     0.026 A 
ATOM     10  C   UNL d   1      -0.488  -0.287   3.773  0.00  0.00     0.018 A 
BRANCH   8  11
ATOM     11  S   UNL d   1       1.109   0.117   0.046  0.00  0.00     0.243 S 
ATOM     12  O   UNL d   1       0.886  -1.297  -0.169  0.00  0.00    -0.206 OA
ATOM     13  O   UNL d   1       2.440   0.678  -0.080  0.00  0.00    -0.206 OA
BRANCH  11  14
ATOM     14  N   UNL d   1       0.047   1.030  -1.016  0.00  0.00    -0.206 NA
BRANCH  14  15
ATOM     15  C   UNL d   1       0.338   2.515  -0.947  0.00  0.00     0.107 C 
BRANCH  15  16
ATOM     16  C   UNL d   1      -0.581   3.396  -1.800  0.00  0.00     0.011 C 
ATOM     17  C   UNL d   1      -0.286   4.875  -1.573  0.00  0.00     0.006 C 
ENDBRANCH  15  16
ENDBRANCH  14  15
BRANCH  14  18
ATOM     18  C   UNL d   1       0.083   0.527  -2.438  0.00  0.00     0.107 C 
BRANCH  18  19
ATOM     19  C   UNL d   1      -0.648  -0.796  -2.668  0.00  0.00     0.011 C 
ATOM     20  C   UNL d   1      -2.076  -0.804  -2.147  0.00  0.00     0.006 C 
ENDBRANCH  18  19
ENDBRANCH  14  18
ENDBRANCH  11  14
ENDBRANCH   8  11
ENDBRANCH   1   5
BRANCH   2  21
ATOM     21  N   UNL d   1      -0.979   2.683   7.633  0.00  0.00    -0.263 N 
ATOM     22  C   UNL d   1      -0.893   3.986   8.077  0.00  0.00     0.272 C 
ATOM     23  O   UNL d   1      -0.298   4.856   7.432  0.00  0.00    -0.266 OA
ATOM     24  H   UNL d   1      -1.376   1.917   8.181  0.00  0.00     0.190 HD
BRANCH  22  25
ATOM     25  C   UNL d   1      -1.546   4.326   9.368  0.00  0.00     0.056 A 
ATOM     26  C   UNL d   1      -2.764   3.757   9.791  0.00  0.00     0.021 A 
ATOM     27  C   UNL d   1      -3.288   4.161  11.031  0.00  0.00     0.026 A 
ATOM     28  C   UNL d   1      -2.680   5.171  11.783  0.00  0.00     0.026 A 
ATOM     29  C   UNL d   1      -1.503   5.754  11.328  0.00  0.00     0.035 A 
ATOM     30  C   UNL d   1      -0.931   5.337  10.130  0.00  0.00     0.042 A 
ATOM     31 CL   UNL d   1      -0.748   6.990  12.256  0.00  0.00    -0.084 Cl
BRANCH  26  32
ATOM     32  N   UNL d   1      -3.379   2.674   9.137  0.00  0.00    -0.302 NA
ATOM     33  H   UNL d   1      -3.273   2.683   8.123  0.00  0.00     0.124 HD
ATOM     34  H   UNL d   1      -4.353   2.534   9.394  0.00  0.00     0.124 HD
ENDBRANCH  26  32
ENDBRANCH  22  25
ENDBRANCH   2  21
TORSDOF 10
