REMARK  7 active torsions:
REMARK  status: ('A' for Active; 'I' for Inactive)
REMARK    1  A    between atoms: N_6  and  C_1 
REMARK       I    between atoms: C_5  and  N_7 
REMARK    2  A    between atoms: C_15  and  C_5 
REMARK    3  A    between atoms: N_7  and  N_6 
REMARK    4  A    between atoms: C_10  and  C_16 
REMARK    5  A    between atoms: O_14  and  C_10 
REMARK    6  A    between atoms: S_13  and  C_15 
REMARK    7  A    between atoms: C_16  and  S_13 
ROOT
ATOM      1  C   UNL d   1       0.211  -1.212  -0.648  0.00  0.00     0.119 A 
ATOM      2  C   UNL d   1      -1.061  -0.902  -1.145  0.00  0.00     0.084 A 
ATOM      3  C   UNL d   1      -2.092  -1.889  -1.224  0.00  0.00     0.103 C 
ATOM      4  N   UNL d   1      -2.937  -2.685  -1.254  0.00  0.00    -0.191 NA
ATOM      5  N   UNL d   1       1.197  -0.274  -0.576  0.00  0.00    -0.354 N 
ATOM      6  HN  UNL d   1       2.123  -0.510  -0.220  1.00  0.00     0.166 HD
ATOM      7  C   UNL d   1      -1.328   0.407  -1.560  0.00  0.00     0.027 A 
ATOM      8  C   UNL d   1       0.908   0.982  -0.993  0.00  0.00     0.089 A 
ATOM      9  C   UNL d   1      -0.326   1.366  -1.486  0.00  0.00     0.019 A 
ENDROOT
BRANCH   1  10
ATOM     10  N   UNL d   1       0.536  -2.547  -0.302  0.00  0.00    -0.186 NA
ATOM     11  H   UNL d   1      -0.193  -2.999   0.254  0.00  0.00     0.154 HD
BRANCH  10  12
ATOM     12  N   UNL d   1       1.801  -2.671   0.311  0.00  0.00    -0.285 N 
ATOM     13  C   UNL d   1       2.399  -3.913   0.235  0.00  0.00     0.241 C 
ATOM     14  O   UNL d   1       1.833  -4.921  -0.201  0.00  0.00    -0.271 OA
ATOM     15  H   UNL d   1       2.346  -1.806   0.329  0.00  0.00     0.184 HD
BRANCH  13  16
ATOM     16  C   UNL d   1       3.816  -3.975   0.780  0.00  0.00     0.178 C 
BRANCH  16  17
ATOM     17  S   UNL d   1       3.907  -5.022   2.276  0.00  0.00    -0.149 SA
BRANCH  17  18
ATOM     18  C   UNL d   1       3.295  -6.631   1.661  0.00  0.00     0.184 C 
BRANCH  18  19
ATOM     19  C   UNL d   1       4.045  -7.126   0.445  0.00  0.00     0.149 C 
ATOM     20  O   UNL d   1       5.119  -7.709   0.494  0.00  0.00    -0.649 OA
BRANCH  19  21
ATOM     21  O   UNL d   1       3.440  -6.847  -0.734  0.00  0.00    -0.776 OA
ATOM     22  H   UNL d   1       2.609  -6.314  -0.647  0.00  0.00     0.167 HD
ENDBRANCH  19  21
ENDBRANCH  18  19
ENDBRANCH  17  18
ENDBRANCH  16  17
ENDBRANCH  13  16
ENDBRANCH  10  12
ENDBRANCH   1  10
TORSDOF 7
