REMARK  6 active torsions:
REMARK  status: ('A' for Active; 'I' for Inactive)
REMARK    1  A    between atoms: C_3  and  C_2 
REMARK    2  A    between atoms: C_4  and  C_3 
REMARK    3  A    between atoms: O_8  and  C_3 
REMARK    4  A    between atoms: C_11  and  O_8 
REMARK    5  A    between atoms: C_17  and  C_10 
REMARK    6  A    between atoms: O_26  and  C_22 
ROOT
ATOM      1  C   UNL d   1       1.331   2.442   0.801  0.00  0.00     0.199 C 
ENDROOT
BRANCH   1   2
ATOM      2  C   UNL d   1       0.690   1.442  -0.235  0.00  0.00     0.257 C 
ATOM      3  N   UNL d   1      -0.813   1.357  -0.203  0.00  0.00     0.096 N 
ATOM      4  C   UNL d   1      -1.200   0.115  -0.930  0.00  0.00     0.282 C 
ATOM      5  C   UNL d   1      -1.455   2.484  -0.916  0.00  0.00     0.273 C 
ATOM      6  C   UNL d   1      -0.763   0.166  -2.420  0.00  0.00     0.040 C 
ATOM      7  C   UNL d   1       0.024   1.480  -2.667  0.00  0.00    -0.001 C 
ATOM      8  C   UNL d   1      -0.917   2.653  -2.342  0.00  0.00     0.035 C 
ATOM      9  C   UNL d   1       1.199   1.615  -1.684  0.00  0.00     0.044 C 
BRANCH   6  10
ATOM     10  C   UNL d   1       0.019  -1.065  -2.812  0.00  0.00    -0.030 C 
ATOM     11  C   UNL d   1      -0.343  -1.899  -3.796  0.00  0.00     0.007 C 
ENDBRANCH   6  10
ENDBRANCH   1   2
BRANCH   1  12
ATOM     12  C   UNL d   1       2.869   2.473   0.759  0.00  0.00    -0.013 A 
ATOM     13  C   UNL d   1       3.674   1.362   1.145  0.00  0.00     0.002 A 
ATOM     14  C   UNL d   1       5.078   1.489   1.008  0.00  0.00     0.043 A 
ATOM     15  C   UNL d   1       3.172   0.135   1.652  0.00  0.00     0.051 A 
ATOM     16  C   UNL d   1       5.893   0.415   1.329  0.00  0.00     0.033 A 
ATOM     17  N   UNL d   1       5.679   2.605   0.572  0.00  0.00    -0.365 N 
ATOM     18  C   UNL d   1       5.377  -0.803   1.781  0.00  0.00     0.039 A 
ATOM     19  C   UNL d   1       4.008  -0.946   1.944  0.00  0.00     0.069 A 
ATOM     20  C   UNL d   1       4.904   3.651   0.244  0.00  0.00     0.089 A 
ATOM     21  HN  UNL d   1       6.694   2.658   0.493  1.00  0.00     0.165 HD
ATOM     22  C   UNL d   1       3.526   3.631   0.309  0.00  0.00     0.027 A 
BRANCH  19  23
ATOM     23  O   UNL d   1       3.357  -2.071   2.365  0.00  0.00    -0.356 OA
ATOM     24  C   UNL d   1       4.162  -3.192   2.706  0.00  0.00     0.210 C 
ENDBRANCH  19  23
ENDBRANCH   1  12
BRANCH   1  25
ATOM     25  O   UNL d   1       0.828   3.772   0.534  0.00  0.00    -0.309 OA
BRANCH  25  26
ATOM     26  C   UNL d   1       0.238   4.430   1.566  0.00  0.00     0.255 C 
ATOM     27  O   UNL d   1       0.132   4.027   2.716  0.00  0.00    -0.266 OA
ATOM     28  C   UNL d   1      -0.268   5.765   1.105  0.00  0.00     0.126 C 
ENDBRANCH  25  26
ENDBRANCH   1  25
TORSDOF 6
