REMARK  3 active torsions:
REMARK  status: ('A' for Active; 'I' for Inactive)
REMARK    1  A    between atoms: C_3  and  C_1 
REMARK       I    between atoms: N_7  and  C_3 
REMARK    2  A    between atoms: C_10  and  C_4 
REMARK    3  A    between atoms: C_8  and  N_7 
ROOT
ATOM      1  C   UNL d   1      -2.764  -1.289  -0.032  0.00  0.00     0.258 C 
ATOM      2  N   UNL d   1      -3.931  -0.556   0.095  0.00  0.00    -0.320 N 
ATOM      3  O   UNL d   1      -2.731  -2.477  -0.341  0.00  0.00    -0.267 OA
ATOM      4  H   UNL d   1      -3.848   0.442  -0.013  0.00  0.00     0.169 HD
ENDROOT
BRANCH   1   5
ATOM      5  C   UNL d   1      -1.495  -0.567   0.099  0.00  0.00     0.064 A 
ATOM      6  C   UNL d   1      -0.219  -1.180  -0.154  0.00  0.00     0.053 A 
ATOM      7  C   UNL d   1       0.756  -0.236   0.059  0.00  0.00     0.062 A 
ATOM      8  O   UNL d   1       0.162   0.931   0.429  0.00  0.00    -0.318 OA
ATOM      9  C   UNL d   1      -1.189   0.735   0.476  0.00  0.00     0.065 A 
ATOM     10  C   UNL d   1      -1.925   1.942   0.906  0.00  0.00     0.077 C 
BRANCH   7  11
ATOM     11  C   UNL d   1       2.260  -0.223  -0.023  0.00  0.00    -0.002 C 
ATOM     12  C   UNL d   1       2.815  -1.621  -0.357  0.00  0.00     0.021 C 
ATOM     13  C   UNL d   1       2.707   0.757  -1.123  0.00  0.00     0.021 C 
ATOM     14  C   UNL d   1       2.846   0.223   1.329  0.00  0.00     0.021 C 
ENDBRANCH   7  11
ENDBRANCH   1   5
BRANCH   2  15
ATOM     15  C   UNL d   1      -5.236  -1.108  -0.004  0.00  0.00     0.074 A 
ATOM     16  C   UNL d   1      -5.562  -2.442   0.297  0.00  0.00     0.146 A 
ATOM     17  C   UNL d   1      -6.837  -2.952   0.062  0.00  0.00     0.086 A 
ATOM     18  F   UNL d   1      -4.684  -3.259   0.893  0.00  0.00    -0.204 F 
ATOM     19  C   UNL d   1      -7.816  -2.111  -0.438  0.00  0.00     0.119 A 
ATOM     20  C   UNL d   1      -7.550  -0.765  -0.666  0.00  0.00     0.044 A 
ATOM     21  F   UNL d   1      -9.039  -2.594  -0.688  0.00  0.00    -0.206 F 
ATOM     22  C   UNL d   1      -6.264  -0.259  -0.438  0.00  0.00     0.036 A 
ENDBRANCH   2  15
TORSDOF 3
