REMARK  7 active torsions:
REMARK  status: ('A' for Active; 'I' for Inactive)
REMARK    1  A    between atoms: C_4  and  C_3 
REMARK    2  A    between atoms: O_22  and  C_7 
REMARK    3  A    between atoms: C_9  and  O_23 
REMARK    4  A    between atoms: C_12  and  C_9 
REMARK    5  A    between atoms: C_10  and  C_16 
REMARK    6  A    between atoms: C_29  and  C_11 
REMARK    7  A    between atoms: O_23  and  C_29 
ROOT
ATOM      1  N   UNL d   1       1.099   1.365  -0.031  0.00  0.00    -0.352 N 
ATOM      2  HN  UNL d   1       1.055   2.384  -0.036  1.00  0.00     0.166 HD
ATOM      3  C   UNL d   1       2.301   0.727  -0.033  0.00  0.00     0.119 A 
ATOM      4  C   UNL d   1      -0.029  -0.772  -0.007  0.00  0.00     0.025 A 
ATOM      5  C   UNL d   1      -0.028   0.637  -0.023  0.00  0.00     0.045 A 
ATOM      6  C   UNL d   1       1.228  -1.420   0.003  0.00  0.00     0.082 A 
ATOM      7  C   UNL d   1       2.395  -0.662  -0.010  0.00  0.00     0.072 A 
ATOM      8  C   UNL d   1      -1.271  -1.457  -0.014  0.00  0.00     0.037 A 
ATOM      9  C   UNL d   1      -1.242   1.310  -0.042  0.00  0.00     0.032 A 
ATOM     10  C   UNL d   1      -2.481  -0.760  -0.046  0.00  0.00     0.018 A 
ATOM     11  C   UNL d   1      -2.464   0.629  -0.060  0.00  0.00     0.023 A 
ENDROOT
BRANCH  10  12
ATOM     12  C   UNL d   1      -3.732  -1.458  -0.048  0.00  0.00    -0.065 C 
ATOM     13  C   UNL d   1      -4.781  -2.051  -0.022  0.00  0.00    -0.074 C 
BRANCH  13  14
ATOM     14  C   UNL d   1      -6.025  -2.829   0.061  0.00  0.00     0.273 C 
BRANCH  14  15
ATOM     15  O   UNL d   1      -7.113  -2.091  -0.513  0.00  0.00    -0.305 OA
BRANCH  15  16
ATOM     16  C   UNL d   1      -7.886  -2.773  -1.391  0.00  0.00     0.294 C 
ATOM     17  O   UNL d   1      -7.705  -3.920  -1.772  0.00  0.00    -0.259 OA
BRANCH  16  18
ATOM     18  C   UNL d   1      -9.032  -1.944  -1.861  0.00  0.00     0.039 A 
ATOM     19  C   UNL d   1      -9.837  -2.450  -2.894  0.00  0.00     0.019 A 
ATOM     20  C   UNL d   1     -10.909  -1.702  -3.391  0.00  0.00     0.025 A 
ATOM     21  C   UNL d   1     -11.185  -0.449  -2.850  0.00  0.00     0.034 A 
ATOM     22  C   UNL d   1     -10.411   0.055  -1.805  0.00  0.00     0.025 A 
ATOM     23 CL   UNL d   1     -12.484   0.487  -3.481  0.00  0.00    -0.084 Cl
ATOM     24  C   UNL d   1      -9.335  -0.691  -1.309  0.00  0.00     0.019 A 
ENDBRANCH  16  18
ENDBRANCH  15  16
ENDBRANCH  14  15
ENDBRANCH  13  14
ENDBRANCH  10  12
BRANCH   6  25
ATOM     25  O   UNL d   1       1.204  -2.795   0.017  0.00  0.00    -0.355 OA
ATOM     26  C   UNL d   1       2.452  -3.480  -0.002  0.00  0.00     0.210 C 
ENDBRANCH   6  25
BRANCH   3  27
ATOM     27  C   UNL d   1       3.583   1.547  -0.090  0.00  0.00     0.432 C 
ATOM     28  F   UNL d   1       3.395   2.897  -0.091  0.00  0.00    -0.165 F 
ATOM     29  F   UNL d   1       4.414   1.289   0.963  0.00  0.00    -0.165 F 
ATOM     30  F   UNL d   1       4.321   1.274  -1.207  0.00  0.00    -0.165 F 
ENDBRANCH   3  27
TORSDOF 7
