REMARK  0 active torsions:
REMARK  status: ('A' for Active; 'I' for Inactive)
ROOT
ATOM      1  C   UNL d   1      -0.292  -0.679  -0.001  0.00  0.00     0.066 A 
ATOM      2  C   UNL d   1      -0.256   0.713  -0.002  0.00  0.00     0.061 A 
ATOM      3  N   UNL d   1      -1.593  -1.128  -0.001  0.00  0.00    -0.350 N 
ATOM      4  HN  UNL d   1      -1.911  -2.097  -0.000  1.00  0.00     0.166 HD
ATOM      5  C   UNL d   1      -2.337  -0.047  -0.001  0.00  0.00     0.181 A 
ATOM      6  C   UNL d   1       0.913  -1.411   0.000  0.00  0.00    -0.032 A 
ATOM      7  N   UNL d   1      -1.577   1.087  -0.003  0.00  0.00    -0.350 N 
ATOM      8  C   UNL d   1       0.927   1.455  -0.001  0.00  0.00     0.051 A 
ATOM      9  C   UNL d   1       2.116   0.721   0.002  0.00  0.00     0.013 A 
ATOM     10  C   UNL d   1       2.118  -0.676   0.001  0.00  0.00     0.028 A 
ATOM     11 BR   UNL d   1       3.767   1.649   0.007  0.00  0.00    -0.051 Br
ATOM     12  C   UNL d   1       0.960  -2.910   0.002  0.00  0.00     0.050 C 
ATOM     13  H   UNL d   1      -1.926   2.035  -0.004  0.00  0.00     0.166 HD
ENDROOT
TORSDOF 0
