REMARK  4 active torsions:
REMARK  status: ('A' for Active; 'I' for Inactive)
REMARK    1  A    between atoms: C_2  and  S_1 
REMARK    2  A    between atoms: C_6  and  S_1 
REMARK    3  A    between atoms: N_7  and  C_3 
REMARK    4  A    between atoms: C_10  and  N_7 
ROOT
ATOM      1  C   UNL d   1       0.485   0.480  -1.486  0.00  0.00     0.154 C 
ATOM      2  C   UNL d   1      -0.315  -0.440  -2.051  0.00  0.00     0.097 C 
ATOM      3  C   UNL d   1       1.088   0.300  -0.222  0.00  0.00     0.113 C 
ATOM      4  N   UNL d   1       1.628   0.171   0.795  0.00  0.00    -0.191 NA
ENDROOT
BRANCH   1   5
ATOM      5  S   UNL d   1       0.782   1.983  -2.288  0.00  0.00     0.217 S 
ATOM      6  O   UNL d   1       0.422   3.083  -1.411  0.00  0.00    -0.216 OA
ATOM      7  O   UNL d   1       0.249   1.947  -3.640  0.00  0.00    -0.216 OA
BRANCH   5   8
ATOM      8  C   UNL d   1       2.564   2.035  -2.467  0.00  0.00     0.065 A 
ATOM      9  C   UNL d   1       3.152   1.528  -3.632  0.00  0.00     0.025 A 
ATOM     10  C   UNL d   1       4.533   1.645  -3.815  0.00  0.00     0.025 A 
ATOM     11  C   UNL d   1       5.314   2.272  -2.843  0.00  0.00     0.034 A 
ATOM     12  C   UNL d   1       4.727   2.785  -1.686  0.00  0.00     0.025 A 
ATOM     13 CL   UNL d   1       7.010   2.433  -3.086  0.00  0.00    -0.084 Cl
ATOM     14  C   UNL d   1       3.346   2.675  -1.497  0.00  0.00     0.025 A 
ENDBRANCH   5   8
ENDBRANCH   1   5
BRANCH   2  15
ATOM     15  N   UNL d   1      -0.675  -1.671  -1.523  0.00  0.00    -0.267 NA
ATOM     16  H   UNL d   1      -0.553  -2.427  -2.200  0.00  0.00     0.133 HD
BRANCH  15  17
ATOM     17  C   UNL d   1      -1.919  -1.902  -0.856  0.00  0.00     0.018 A 
ATOM     18  C   UNL d   1      -2.248  -3.197  -0.399  0.00  0.00    -0.040 A 
ATOM     19  C   UNL d   1      -3.445  -3.402   0.319  0.00  0.00     0.015 A 
ATOM     20  C   UNL d   1      -1.385  -4.410  -0.627  0.00  0.00     0.050 C 
ATOM     21  C   UNL d   1      -4.309  -2.345   0.618  0.00  0.00    -0.061 A 
ATOM     22  C   UNL d   1      -3.972  -1.064   0.184  0.00  0.00     0.008 A 
ATOM     23  C   UNL d   1      -5.551  -2.594   1.422  0.00  0.00     0.048 C 
ATOM     24  C   UNL d   1      -2.790  -0.846  -0.534  0.00  0.00     0.025 A 
ENDBRANCH  15  17
ENDBRANCH   2  15
TORSDOF 4
