REMARK  3 active torsions:
REMARK  status: ('A' for Active; 'I' for Inactive)
REMARK    1  A    between atoms: C_4  and  C_1 
REMARK    2  A    between atoms: O_11  and  C_8 
REMARK    3  A    between atoms: O_14  and  C_10 
ROOT
ATOM      1  C   UNL d   1       1.776  -1.613  -0.451  0.00  0.00     0.221 C 
ATOM      2  N   UNL d   1       1.421  -2.208  -1.710  0.00  0.00    -0.331 N 
ATOM      3  C   UNL d   1       1.231  -1.532  -2.874  0.00  0.00     0.255 C 
ATOM      4  N   UNL d   1       2.475  -0.355  -0.629  0.00  0.00    -0.364 N 
ATOM      5  C   UNL d   1       1.794  -0.180  -2.961  0.00  0.00     0.058 A 
ATOM      6  C   UNL d   1       2.438   0.332  -1.835  0.00  0.00     0.045 A 
ATOM      7  O   UNL d   1       0.657  -2.060  -3.822  0.00  0.00    -0.268 OA
ATOM      8  C   UNL d   1       1.754   0.533  -4.167  0.00  0.00     0.019 A 
ATOM      9  C   UNL d   1       2.998   1.609  -1.923  0.00  0.00     0.030 A 
ATOM     10  C   UNL d   1       2.336   1.795  -4.242  0.00  0.00     0.001 A 
ATOM     11  C   UNL d   1       2.952   2.339  -3.116  0.00  0.00     0.002 A 
ATOM     12  H   UNL d   1       0.957  -3.105  -1.676  0.00  0.00     0.165 HD
ATOM     13  H   UNL d   1       3.389  -0.318  -0.184  0.00  0.00     0.162 HD
ENDROOT
BRANCH   1  14
ATOM     14  C   UNL d   1       2.637  -2.549   0.386  0.00  0.00     0.020 A 
ATOM     15  C   UNL d   1       2.590  -2.612   1.802  0.00  0.00     0.111 A 
ATOM     16  C   UNL d   1       3.416  -3.537   2.481  0.00  0.00     0.102 A 
ATOM     17  C   UNL d   1       4.263  -4.386   1.753  0.00  0.00     0.039 A 
ATOM     18  C   UNL d   1       4.329  -4.322   0.370  0.00  0.00     0.004 A 
ATOM     19  C   UNL d   1       3.543  -3.396  -0.301  0.00  0.00     0.014 A 
BRANCH  15  20
ATOM     20  O   UNL d   1       1.643  -1.941   2.534  0.00  0.00    -0.352 OA
ATOM     21  C   UNL d   1       1.626  -0.519   2.425  0.00  0.00     0.210 C 
ENDBRANCH  15  20
BRANCH  16  22
ATOM     22  O   UNL d   1       3.511  -3.785   3.826  0.00  0.00    -0.353 OA
ATOM     23  C   UNL d   1       2.969  -2.853   4.744  0.00  0.00     0.210 C 
ENDBRANCH  16  22
ENDBRANCH   1  14
TORSDOF 3
