REMARK  4 active torsions:
REMARK  status: ('A' for Active; 'I' for Inactive)
REMARK    1  A    between atoms: C_2  and  C_1 
REMARK       I    between atoms: N_5  and  C_1 
REMARK    2  A    between atoms: N_3  and  N_5 
REMARK    3  A    between atoms: C_10  and  C_9 
REMARK    4  A    between atoms: O_17  and  C_12 
ROOT
ATOM      1  N   UNL d   1      -1.132   0.940  -0.876  0.00  0.00    -0.308 N 
ATOM      2  HN  UNL d   1      -1.625   0.494  -0.102  1.00  0.00     0.186 HD
ATOM      3  C   UNL d   1      -1.759   1.610  -1.788  0.00  0.00     0.118 C 
ENDROOT
BRANCH   1   4
ATOM      4  N   UNL d   1       0.220   0.861  -1.004  0.00  0.00    -0.266 N 
ATOM      5  C   UNL d   1       0.953   0.147  -0.066  0.00  0.00     0.271 C 
ATOM      6  O   UNL d   1       0.500  -0.386   0.943  0.00  0.00    -0.266 OA
ATOM      7  H   UNL d   1       0.675   1.383  -1.742  0.00  0.00     0.190 HD
BRANCH   5   8
ATOM      8  C   UNL d   1       2.407   0.065  -0.329  0.00  0.00     0.049 A 
ATOM      9  C   UNL d   1       3.280  -0.035   0.747  0.00  0.00     0.104 A 
ATOM     10  N   UNL d   1       4.630  -0.097   0.618  0.00  0.00    -0.374 N 
ATOM     11  C   UNL d   1       5.122  -0.085  -0.640  0.00  0.00     0.087 A 
ATOM     12  HN  UNL d   1       5.243  -0.149   1.431  1.00  0.00     0.164 HD
ATOM     13  C   UNL d   1       4.330  -0.020  -1.776  0.00  0.00     0.018 A 
ATOM     14  C   UNL d   1       2.948   0.052  -1.617  0.00  0.00     0.020 A 
ENDBRANCH   5   8
ENDBRANCH   1   4
BRANCH   3  15
ATOM     15  C   UNL d   1      -3.229   1.744  -1.755  0.00  0.00    -0.019 A 
ATOM     16  C   UNL d   1      -3.962   1.175  -0.711  0.00  0.00     0.015 A 
ATOM     17  C   UNL d   1      -5.356   1.287  -0.689  0.00  0.00     0.037 A 
ATOM     18  C   UNL d   1      -6.021   1.964  -1.711  0.00  0.00     0.068 A 
ATOM     19  C   UNL d   1      -5.278   2.538  -2.750  0.00  0.00     0.037 A 
ATOM     20  C   UNL d   1      -3.884   2.433  -2.777  0.00  0.00     0.015 A 
BRANCH  18  21
ATOM     21  O   UNL d   1      -7.375   2.130  -1.814  0.00  0.00    -0.356 OA
ATOM     22  C   UNL d   1      -8.169   1.551  -0.784  0.00  0.00     0.210 C 
ENDBRANCH  18  21
ENDBRANCH   3  15
TORSDOF 4
