REMARK  6 active torsions:
REMARK  status: ('A' for Active; 'I' for Inactive)
REMARK    1  A    between atoms: N_14  and  C_3 
REMARK    2  A    between atoms: S_4  and  N_13 
REMARK    3  A    between atoms: C_17  and  S_4 
REMARK    4  A    between atoms: C_15  and  C_11 
REMARK    5  A    between atoms: C_22  and  C_12 
REMARK    6  A    between atoms: C_16  and  C_23 
ROOT
ATOM      1  N   UNL d   1       0.213   0.533  -0.601  0.00  0.00    -0.224 N 
ATOM      2  C   UNL d   1       0.070  -0.858  -0.457  0.00  0.00     0.131 A 
ATOM      3  C   UNL d   1      -0.822   1.429  -0.146  0.00  0.00     0.129 A 
ATOM      4  N   UNL d   1       1.419   0.816  -1.183  0.00  0.00    -0.294 N 
ATOM      5  HN  UNL d   1       1.780   1.740  -1.421  1.00  0.00     0.187 HD
ATOM      6  C   UNL d   1      -1.925   0.846   0.373  0.00  0.00     0.084 A 
ATOM      7  N   UNL d   1      -1.037  -1.446   0.077  0.00  0.00    -0.337 N 
ATOM      8  HN  UNL d   1      -1.115  -2.460   0.162  1.00  0.00     0.167 HD
ATOM      9  C   UNL d   1       1.228  -1.426  -0.930  0.00  0.00     0.077 A 
ATOM     10  C   UNL d   1      -1.991  -0.651   0.475  0.00  0.00     0.121 A 
ATOM     11  C   UNL d   1       2.030  -0.359  -1.377  0.00  0.00     0.037 A 
ENDROOT
BRANCH   3  12
ATOM     12  N   UNL d   1      -0.695   2.864  -0.226  0.00  0.00    -0.363 N 
ATOM     13  C   UNL d   1       0.534   3.466  -0.838  0.00  0.00     0.145 C 
ATOM     14  C   UNL d   1       0.432   4.976  -1.093  0.00  0.00     0.155 C 
ATOM     15  N   UNL d   1       0.005   5.719   0.117  0.00  0.00    -0.304 N 
ATOM     16  C   UNL d   1      -1.304   5.211   0.590  0.00  0.00     0.155 C 
ATOM     17  C   UNL d   1      -1.262   3.697   0.886  0.00  0.00     0.145 C 
BRANCH  15  18
ATOM     18  S   UNL d   1       1.181   6.059   1.295  0.00  0.00     0.260 S 
ATOM     19  O   UNL d   1       0.853   5.341   2.505  0.00  0.00    -0.200 OA
ATOM     20  O   UNL d   1       2.493   5.972   0.688  0.00  0.00    -0.200 OA
BRANCH  18  21
ATOM     21  C   UNL d   1       0.855   7.789   1.592  0.00  0.00     0.079 A 
ATOM     22  C   UNL d   1      -0.091   8.167   2.548  0.00  0.00     0.026 A 
ATOM     23  C   UNL d   1      -0.401   9.518   2.714  0.00  0.00     0.018 A 
ATOM     24  C   UNL d   1       0.244  10.501   1.942  0.00  0.00     0.048 A 
ATOM     25  C   UNL d   1       1.247  10.108   1.040  0.00  0.00     0.018 A 
ATOM     26  C   UNL d   1       1.554   8.756   0.864  0.00  0.00     0.026 A 
BRANCH  24  27
ATOM     27  C   UNL d   1      -0.149  11.957   2.046  0.00  0.00     0.417 C 
ATOM     28  F   UNL d   1      -1.159  12.185   2.932  0.00  0.00    -0.166 F 
ATOM     29  F   UNL d   1       0.881  12.755   2.437  0.00  0.00    -0.166 F 
ATOM     30  F   UNL d   1      -0.582  12.457   0.855  0.00  0.00    -0.166 F 
ENDBRANCH  24  27
ENDBRANCH  18  21
ENDBRANCH  15  18
ENDBRANCH   3  12
BRANCH  10  31
ATOM     31  C   UNL d   1      -3.259  -1.244   1.096  0.00  0.00     0.432 C 
ATOM     32  F   UNL d   1      -4.160  -0.291   1.473  0.00  0.00    -0.165 F 
ATOM     33  F   UNL d   1      -3.920  -2.067   0.238  0.00  0.00    -0.165 F 
ATOM     34  F   UNL d   1      -2.995  -1.973   2.214  0.00  0.00    -0.165 F 
ENDBRANCH  10  31
BRANCH  11  35
ATOM     35  C   UNL d   1       3.409  -0.406  -2.026  0.00  0.00    -0.007 C 
ATOM     36  C   UNL d   1       4.389   0.517  -1.272  0.00  0.00     0.021 C 
ATOM     37  C   UNL d   1       4.011  -1.828  -2.018  0.00  0.00     0.021 C 
ATOM     38  C   UNL d   1       3.314   0.057  -3.494  0.00  0.00     0.021 C 
ENDBRANCH  11  35
TORSDOF 6
