REMARK  4 active torsions:
REMARK  status: ('A' for Active; 'I' for Inactive)
REMARK    1  A    between atoms: N_3  and  C_1 
REMARK    2  A    between atoms: C_14  and  N_3 
REMARK    3  A    between atoms: C_13  and  N_5 
REMARK    4  A    between atoms: C_11  and  C_13 
ROOT
ATOM      1  C   UNL d   1       1.175  -0.193  -0.144  0.00  0.00     0.172 C 
ATOM      2  S   UNL d   1       0.524  -0.707   1.309  0.00  0.00    -0.041 SA
ATOM      3  N   UNL d   1       2.516   0.058  -0.122  0.00  0.00    -0.363 N 
ATOM      4  H   UNL d   1       2.943  -0.167   0.770  0.00  0.00     0.162 HD
ENDROOT
BRANCH   1   5
ATOM      5  N   UNL d   1       0.530   0.028  -1.333  0.00  0.00    -0.332 N 
ATOM      6  H   UNL d   1       0.948   0.726  -1.929  0.00  0.00     0.168 HD
BRANCH   5   7
ATOM      7  C   UNL d   1      -0.737  -0.425  -1.779  0.00  0.00     0.049 A 
ATOM      8  C   UNL d   1      -1.361   0.242  -2.833  0.00  0.00     0.117 A 
ATOM      9  N   UNL d   1      -2.556  -0.107  -3.376  0.00  0.00    -0.373 N 
ATOM     10  C   UNL d   1      -3.160  -1.192  -2.849  0.00  0.00     0.088 A 
ATOM     11  HN  UNL d   1      -2.974   0.422  -4.141  1.00  0.00     0.164 HD
ATOM     12  C   UNL d   1      -2.621  -1.941  -1.820  0.00  0.00     0.019 A 
ATOM     13  C   UNL d   1      -1.389  -1.555  -1.289  0.00  0.00     0.032 A 
ENDBRANCH   5   7
ENDBRANCH   1   5
BRANCH   3  14
ATOM     14  C   UNL d   1       3.385   0.701  -1.089  0.00  0.00     0.160 C 
BRANCH  14  15
ATOM     15  C   UNL d   1       4.312  -0.242  -1.819  0.00  0.00    -0.039 A 
ATOM     16  C   UNL d   1       5.628   0.171  -2.090  0.00  0.00     0.034 A 
ATOM     17  C   UNL d   1       6.489  -0.615  -2.862  0.00  0.00     0.056 A 
ATOM     18 CL   UNL d   1       8.079  -0.006  -3.160  0.00  0.00    -0.083 Cl
ATOM     19  C   UNL d   1       6.041  -1.831  -3.380  0.00  0.00     0.055 A 
ATOM     20  C   UNL d   1       4.738  -2.259  -3.109  0.00  0.00     0.026 A 
ATOM     21 CL   UNL d   1       7.031  -2.836  -4.378  0.00  0.00    -0.083 Cl
ATOM     22  C   UNL d   1       3.877  -1.468  -2.337  0.00  0.00     0.010 A 
ENDBRANCH  14  15
ENDBRANCH   3  14
TORSDOF 4
