REMARK  4 active torsions:
REMARK  status: ('A' for Active; 'I' for Inactive)
REMARK    1  A    between atoms: C_9  and  C_1 
REMARK    2  A    between atoms: N_12  and  C_2 
REMARK    3  A    between atoms: O_14  and  C_9 
REMARK    4  A    between atoms: C_17  and  O_14 
ROOT
ATOM      1  C   UNL d   1       2.520   0.062  -0.039  0.00  0.00     0.109 A 
ATOM      2  C   UNL d   1       1.655   1.149  -0.045  0.00  0.00     0.063 A 
ATOM      3  C   UNL d   1       0.253   0.772  -0.041  0.00  0.00     0.032 A 
ATOM      4  S   UNL d   1       1.657  -1.413  -0.083  0.00  0.00    -0.063 SA
ATOM      5  C   UNL d   1       0.159  -0.620  -0.054  0.00  0.00     0.088 A 
ATOM      6  N   UNL d   1      -0.959  -1.372  -0.044  0.00  0.00    -0.354 N 
ATOM      7  HN  UNL d   1      -0.933  -2.392  -0.057  1.00  0.00     0.166 HD
ATOM      8  C   UNL d   1      -0.989   1.477  -0.014  0.00  0.00    -0.045 A 
ATOM      9  C   UNL d   1      -2.167   0.702  -0.003  0.00  0.00     0.032 A 
ATOM     10  C   UNL d   1      -2.108  -0.683  -0.015  0.00  0.00     0.006 A 
ATOM     11  C   UNL d   1      -1.194   2.969   0.008  0.00  0.00     0.049 C 
ATOM     12  C   UNL d   1      -3.377  -1.483   0.003  0.00  0.00     0.068 C 
ENDROOT
BRANCH   1  13
ATOM     13  C   UNL d   1       3.970  -0.015   0.047  0.00  0.00     0.302 C 
ATOM     14  O   UNL d   1       4.638  -1.037   0.131  0.00  0.00    -0.259 OA
BRANCH  13  15
ATOM     15  O   UNL d   1       4.505   1.243   0.117  0.00  0.00    -0.317 OA
BRANCH  15  16
ATOM     16  C   UNL d   1       5.820   1.323   0.681  0.00  0.00     0.174 C 
ATOM     17  C   UNL d   1       5.678   1.416   2.191  0.00  0.00     0.034 C 
ENDBRANCH  15  16
ENDBRANCH  13  15
ENDBRANCH   1  13
BRANCH   2  18
ATOM     18  N   UNL d   1       2.112   2.422  -0.024  0.00  0.00    -0.397 N 
ATOM     19  H   UNL d   1       3.111   2.623  -0.045  0.00  0.00     0.156 HD
ATOM     20  H   UNL d   1       1.540   3.251  -0.077  0.00  0.00     0.156 HD
ENDBRANCH   2  18
TORSDOF 4
