REMARK  4 active torsions:
REMARK  status: ('A' for Active; 'I' for Inactive)
REMARK    1  A    between atoms: C_2  and  S_1 
REMARK    2  A    between atoms: O_5  and  S_1 
REMARK    3  A    between atoms: C_9  and  O_5 
REMARK    4  A    between atoms: N_10  and  C_11 
ROOT
ATOM      1  C   UNL d   1       0.597   1.462   2.283  0.00  0.00     0.111 A 
ATOM      2  C   UNL d   1       1.954   1.118   2.512  0.00  0.00     0.045 A 
ATOM      3  C   UNL d   1      -0.181   1.981   3.334  0.00  0.00     0.040 A 
ATOM      4  C   UNL d   1       2.473   1.348   3.805  0.00  0.00     0.026 A 
ATOM      5  C   UNL d   1       0.359   2.172   4.604  0.00  0.00     0.003 A 
ATOM      6  C   UNL d   1       1.687   1.861   4.839  0.00  0.00     0.002 A 
ENDROOT
BRANCH   1   7
ATOM      7  O   UNL d   1       0.058   1.180   1.036  0.00  0.00    -0.227 OA
BRANCH   7   8
ATOM      8  S   UNL d   1      -1.276   1.949   0.508  0.00  0.00     0.307 S 
ATOM      9  O   UNL d   1      -2.431   1.587   1.310  0.00  0.00    -0.193 OA
ATOM     10  O   UNL d   1      -0.958   3.319   0.170  0.00  0.00    -0.193 OA
BRANCH   8  11
ATOM     11  C   UNL d   1      -1.649   1.230  -0.995  0.00  0.00     0.142 A 
ATOM     12  C   UNL d   1      -2.656   1.653  -1.834  0.00  0.00     0.098 A 
ATOM     13  O   UNL d   1      -2.707   0.827  -2.911  0.00  0.00    -0.241 OA
ATOM     14  C   UNL d   1      -3.659   2.735  -1.802  0.00  0.00     0.081 C 
ATOM     15  N   UNL d   1      -1.743  -0.152  -2.786  0.00  0.00    -0.264 N 
ATOM     16  C   UNL d   1      -1.123   0.081  -1.619  0.00  0.00     0.055 A 
ATOM     17  HN  UNL d   1      -1.542  -0.902  -3.448  1.00  0.00     0.194 HD
ATOM     18  C   UNL d   1      -0.048  -0.841  -1.192  0.00  0.00     0.072 C 
ENDBRANCH   8  11
ENDBRANCH   7   8
ENDBRANCH   1   7
BRANCH   2  19
ATOM     19  N   UNL d   1       2.736   0.518   1.503  0.00  0.00    -0.277 NA
ATOM     20  C   UNL d   1       3.867  -0.330   1.950  0.00  0.00     0.122 C 
ATOM     21  C   UNL d   1       4.387  -1.126   0.748  0.00  0.00     0.182 C 
ATOM     22  O   UNL d   1       4.866  -0.233  -0.272  0.00  0.00    -0.389 OA
ATOM     23  C   UNL d   1       3.809   0.635  -0.719  0.00  0.00     0.182 C 
ATOM     24  C   UNL d   1       3.177   1.447   0.434  0.00  0.00     0.122 C 
ENDBRANCH   2  19
TORSDOF 4
