REMARK  8 active torsions:
REMARK  status: ('A' for Active; 'I' for Inactive)
REMARK    1  A    between atoms: C_2  and  S_1 
REMARK    2  A    between atoms: N_6  and  S_1 
REMARK    3  A    between atoms: S_5  and  C_14 
REMARK    4  A    between atoms: C_11  and  S_5 
REMARK    5  A    between atoms: C_10  and  N_6 
REMARK    6  A    between atoms: C_14  and  C_21 
REMARK    7  A    between atoms: S_20  and  C_17 
REMARK    8  A    between atoms: C_21  and  S_20 
ROOT
ATOM      1  C   UNL d   1       0.676  -1.868  -1.897  0.00  0.00     0.059 A 
ATOM      2  C   UNL d   1       2.069  -1.939  -2.090  0.00  0.00     0.027 A 
ATOM      3  C   UNL d   1      -0.193  -2.381  -2.876  0.00  0.00     0.031 A 
ATOM      4  C   UNL d   1       2.534  -2.509  -3.295  0.00  0.00     0.021 A 
ATOM      5  C   UNL d   1       0.292  -2.945  -4.053  0.00  0.00     0.002 A 
ATOM      6  C   UNL d   1       1.660  -3.009  -4.265  0.00  0.00     0.002 A 
ENDROOT
BRANCH   2   7
ATOM      7  S   UNL d   1       3.395  -1.301  -1.062  0.00  0.00    -0.127 SA
BRANCH   7   8
ATOM      8  C   UNL d   1       2.949  -1.746   0.648  0.00  0.00     0.095 C 
BRANCH   8   9
ATOM      9  C   UNL d   1       4.143  -1.437   1.548  0.00  0.00     0.156 C 
BRANCH   9  10
ATOM     10  S   UNL d   1       3.710  -1.711   3.249  0.00  0.00     0.176 S 
ATOM     11  O   UNL d   1       2.662  -0.778   3.614  0.00  0.00    -0.223 OA
ATOM     12  O   UNL d   1       3.526  -3.138   3.438  0.00  0.00    -0.223 OA
BRANCH  10  13
ATOM     13  C   UNL d   1       5.164  -1.236   4.167  0.00  0.00     0.059 A 
ATOM     14  C   UNL d   1       5.370   0.113   4.480  0.00  0.00     0.025 A 
ATOM     15  C   UNL d   1       6.460   0.479   5.276  0.00  0.00     0.025 A 
ATOM     16  C   UNL d   1       7.327  -0.501   5.761  0.00  0.00     0.034 A 
ATOM     17  C   UNL d   1       7.118  -1.846   5.452  0.00  0.00     0.025 A 
ATOM     18 CL   UNL d   1       8.651  -0.051   6.763  0.00  0.00    -0.084 Cl
ATOM     19  C   UNL d   1       6.032  -2.218   4.656  0.00  0.00     0.025 A 
ENDBRANCH  10  13
ENDBRANCH   9  10
ENDBRANCH   8   9
ENDBRANCH   7   8
ENDBRANCH   2   7
BRANCH   1  20
ATOM     20  N   UNL d   1       0.016  -1.323  -0.754  0.00  0.00    -0.278 N 
ATOM     21  H   UNL d   1       0.269  -1.734   0.140  0.00  0.00     0.179 HD
BRANCH  20  22
ATOM     22  S   UNL d   1      -0.158   0.348  -0.610  0.00  0.00     0.280 S 
ATOM     23  O   UNL d   1      -1.002   0.568   0.546  0.00  0.00    -0.199 OA
ATOM     24  O   UNL d   1       1.145   0.978  -0.689  0.00  0.00    -0.199 OA
BRANCH  22  25
ATOM     25  C   UNL d   1      -1.053   1.065  -1.924  0.00  0.00     0.166 A 
ATOM     26  N   UNL d   1      -1.715   0.366  -2.922  0.00  0.00    -0.340 N 
ATOM     27  C   UNL d   1      -2.216   1.292  -3.712  0.00  0.00     0.183 A 
ATOM     28  HN  UNL d   1      -1.796  -0.646  -3.022  1.00  0.00     0.167 HD
ATOM     29  N   UNL d   1      -1.920   2.548  -3.265  0.00  0.00    -0.354 N 
ATOM     30  C   UNL d   1      -1.199   2.427  -2.116  0.00  0.00     0.135 A 
ATOM     31  C   UNL d   1      -2.285   3.782  -3.915  0.00  0.00     0.156 C 
ENDBRANCH  22  25
ENDBRANCH  20  22
ENDBRANCH   1  20
TORSDOF 8
