REMARK  4 active torsions:
REMARK  status: ('A' for Active; 'I' for Inactive)
REMARK    1  A    between atoms: C_2  and  C_1 
REMARK       I    between atoms: N_5  and  C_1 
REMARK    2  A    between atoms: N_3  and  C_6 
REMARK    3  A    between atoms: N_4  and  C_7 
REMARK    4  A    between atoms: C_18  and  N_5 
ROOT
ATOM      1  C   UNL d   1      -4.021  -0.059   1.711  0.00  0.00     0.030 A 
ATOM      2  C   UNL d   1      -1.188   0.074   1.449  0.00  0.00     0.035 A 
ATOM      3  C   UNL d   1      -3.337  -0.875   0.804  0.00  0.00     0.031 A 
ATOM      4  C   UNL d   1      -3.247   0.820   2.479  0.00  0.00     0.031 A 
ATOM      5  C   UNL d   1      -1.857   0.889   2.355  0.00  0.00     0.032 A 
ATOM      6  C   UNL d   1      -1.940  -0.804   0.664  0.00  0.00     0.032 A 
ENDROOT
BRANCH   1   7
ATOM      7  N   UNL d   1      -5.395  -0.110   1.917  0.00  0.00    -0.381 N 
ATOM      8  C   UNL d   1      -6.157  -1.309   1.578  0.00  0.00     0.125 C 
ATOM      9  C   UNL d   1      -7.325  -1.426   2.555  0.00  0.00     0.045 C 
ATOM     10  C   UNL d   1      -8.147  -0.136   2.692  0.00  0.00     0.091 C 
ATOM     11  C   UNL d   1      -7.290   1.135   2.783  0.00  0.00     0.045 C 
ATOM     12  C   UNL d   1      -6.133   1.151   1.792  0.00  0.00     0.125 C 
BRANCH  10  13
ATOM     13  N   UNL d   1      -9.226  -0.034   1.709  0.00  0.00    -0.362 N 
ATOM     14  C   UNL d   1      -9.110   0.101   0.350  0.00  0.00     0.091 A 
ATOM     15  C   UNL d   1     -10.375   0.173  -0.189  0.00  0.00     0.019 A 
ATOM     16  C   UNL d   1     -11.295   0.070   0.878  0.00  0.00     0.019 A 
ATOM     17  C   UNL d   1     -10.562  -0.058   2.037  0.00  0.00     0.091 A 
ENDBRANCH  10  13
ENDBRANCH   1   7
BRANCH   2  18
ATOM     18  N   UNL d   1       0.209   0.115   1.256  0.00  0.00    -0.323 N 
ATOM     19  C   UNL d   1       1.129   0.786   2.039  0.00  0.00     0.257 C 
ATOM     20  O   UNL d   1       0.887   1.331   3.114  0.00  0.00    -0.267 OA
ATOM     21  H   UNL d   1       0.566  -0.433   0.482  0.00  0.00     0.169 HD
BRANCH  19  22
ATOM     22  C   UNL d   1       2.523   0.900   1.516  0.00  0.00     0.054 A 
ATOM     23  C   UNL d   1       3.159  -0.002   0.653  0.00  0.00     0.049 A 
ATOM     24 CL   UNL d   1       2.438  -1.471   0.093  0.00  0.00    -0.083 Cl
ATOM     25  C   UNL d   1       4.469   0.251   0.218  0.00  0.00     0.025 A 
ATOM     26  C   UNL d   1       5.155   1.391   0.643  0.00  0.00     0.002 A 
ATOM     27  C   UNL d   1       4.538   2.284   1.511  0.00  0.00     0.001 A 
ATOM     28  C   UNL d   1       3.236   2.039   1.944  0.00  0.00     0.019 A 
ENDBRANCH  19  22
ENDBRANCH   2  18
TORSDOF 4
