REMARK  2 active torsions:
REMARK  status: ('A' for Active; 'I' for Inactive)
REMARK    1  A    between atoms: C_6  and  C_2 
REMARK       I    between atoms: N_8  and  C_6 
REMARK    2  A    between atoms: C_14  and  N_8 
ROOT
ATOM      1  C   UNL d   1      -3.823  -0.092  -0.942  0.00  0.00     0.272 C 
ATOM      2  N   UNL d   1      -4.630   0.989  -0.654  0.00  0.00    -0.322 N 
ATOM      3  O   UNL d   1      -4.210  -1.116  -1.493  0.00  0.00    -0.266 OA
ATOM      4  H   UNL d   1      -4.328   1.601   0.090  0.00  0.00     0.169 HD
ENDROOT
BRANCH   1   5
ATOM      5  C   UNL d   1      -2.445   0.055  -0.514  0.00  0.00     0.102 A 
ATOM      6  N   UNL d   1      -1.599  -1.030  -0.418  0.00  0.00    -0.351 N 
ATOM      7  C   UNL d   1      -0.296  -0.631  -0.216  0.00  0.00     0.049 A 
ATOM      8  H   UNL d   1      -1.894  -1.980  -0.588  0.00  0.00     0.166 HD
ATOM      9  C   UNL d   1      -0.315   0.761  -0.143  0.00  0.00    -0.006 A 
ATOM     10  C   UNL d   1       0.888  -1.388  -0.133  0.00  0.00    -0.034 A 
ATOM     11  C   UNL d   1       0.905   1.455  -0.041  0.00  0.00     0.020 A 
ATOM     12  C   UNL d   1      -1.676   1.173  -0.247  0.00  0.00     0.049 A 
ATOM     13  C   UNL d   1       2.113   0.743  -0.052  0.00  0.00    -0.061 A 
ATOM     14  C   UNL d   1       2.090  -0.656  -0.073  0.00  0.00     0.015 A 
ATOM     15  C   UNL d   1       3.415   1.488  -0.085  0.00  0.00     0.048 C 
ATOM     16  C   UNL d   1       0.942  -2.888  -0.151  0.00  0.00     0.050 C 
ENDBRANCH   1   5
BRANCH   2  17
ATOM     17  C   UNL d   1      -5.846   1.298  -1.288  0.00  0.00     0.037 A 
ATOM     18  C   UNL d   1      -6.130   0.890  -2.598  0.00  0.00     0.069 A 
ATOM     19  C   UNL d   1      -7.238   1.435  -3.216  0.00  0.00     0.107 A 
ATOM     20  O   UNL d   1      -7.587   1.266  -4.522  0.00  0.00    -0.323 OA
ATOM     21  C   UNL d   1      -8.095   2.286  -2.558  0.00  0.00     0.105 A 
ATOM     22  C   UNL d   1      -8.661   2.222  -4.636  0.00  0.00     0.352 C 
ATOM     23  O   UNL d   1      -9.089   2.748  -3.362  0.00  0.00    -0.323 OA
ATOM     24  C   UNL d   1      -7.896   2.636  -1.241  0.00  0.00     0.042 A 
ATOM     25  C   UNL d   1      -6.740   2.160  -0.613  0.00  0.00     0.032 A 
ENDBRANCH   2  17
TORSDOF 2
