REMARK  4 active torsions:
REMARK  status: ('A' for Active; 'I' for Inactive)
REMARK    1  A    between atoms: C_8  and  N_1 
REMARK    2  A    between atoms: N_3  and  C_9 
REMARK    3  A    between atoms: O_19  and  C_4 
REMARK    4  A    between atoms: C_11  and  C_5 
ROOT
ATOM      1  N   UNL d   1       1.395  -0.268   0.120  0.00  0.00    -0.299 N 
ATOM      2  C   UNL d   1       0.900   1.041   0.005  0.00  0.00     0.137 A 
ATOM      3  C   UNL d   1       0.418  -1.283   0.007  0.00  0.00     0.170 A 
ATOM      4  C   UNL d   1      -0.405   1.336  -0.153  0.00  0.00     0.101 A 
ATOM      5  O   UNL d   1      -1.363   0.320  -0.163  0.00  0.00    -0.316 OA
ATOM      6  C   UNL d   1      -0.885  -0.977  -0.108  0.00  0.00     0.198 A 
ENDROOT
BRANCH   4   7
ATOM      7  C   UNL d   1      -0.919   2.711  -0.299  0.00  0.00    -0.001 A 
ATOM      8  C   UNL d   1      -0.190   3.686  -1.001  0.00  0.00     0.017 A 
ATOM      9  C   UNL d   1      -0.681   4.988  -1.150  0.00  0.00     0.037 A 
ATOM     10  C   UNL d   1      -1.923   5.320  -0.598  0.00  0.00     0.102 A 
ATOM     11  C   UNL d   1      -2.670   4.362   0.095  0.00  0.00     0.037 A 
ATOM     12  C   UNL d   1      -2.167   3.064   0.239  0.00  0.00     0.017 A 
BRANCH  10  13
ATOM     13  N   UNL d   1      -2.443   6.685  -0.757  0.00  0.00    -0.116 N 
ATOM     14  O   UNL d   1      -1.748   7.499  -1.379  0.00  0.00    -0.532 OA
ATOM     15  O   UNL d   1      -3.549   6.938  -0.258  0.00  0.00    -0.532 OA
ENDBRANCH  10  13
ENDBRANCH   4   7
BRANCH   1  16
ATOM     16  C   UNL d   1       2.774  -0.490   0.474  0.00  0.00     0.041 A 
ATOM     17  C   UNL d   1       3.183  -1.614   1.218  0.00  0.00     0.032 A 
ATOM     18  C   UNL d   1       4.525  -1.824   1.564  0.00  0.00     0.026 A 
ATOM     19  C   UNL d   1       5.487  -0.881   1.219  0.00  0.00     0.034 A 
ATOM     20  C   UNL d   1       5.119   0.254   0.510  0.00  0.00     0.026 A 
ATOM     21 CL   UNL d   1       7.127  -1.117   1.673  0.00  0.00    -0.084 Cl
ATOM     22  C   UNL d   1       3.784   0.435   0.126  0.00  0.00     0.032 A 
ENDBRANCH   1  16
BRANCH   3  23
ATOM     23  O   UNL d   1       0.774  -2.611  -0.101  0.00  0.00    -0.344 OA
ATOM     24  H   UNL d   1       1.668  -2.609  -0.479  0.00  0.00     0.219 HD
ENDBRANCH   3  23
TORSDOF 4
