REMARK  6 active torsions:
REMARK  status: ('A' for Active; 'I' for Inactive)
REMARK    1  A    between atoms: C_8  and  C_1 
REMARK    2  A    between atoms: C_14  and  N_2 
REMARK    3  A    between atoms: C_20  and  C_3 
REMARK    4  A    between atoms: C_7  and  C_15 
REMARK       I    between atoms: N_13  and  C_8 
REMARK    5  A    between atoms: C_15  and  N_13 
REMARK    6  A    between atoms: C_25  and  C_20 
ROOT
ATOM      1  C   UNL d   1      -0.291   1.622  -0.059  0.00  0.00     0.073 A 
ATOM      2  N   UNL d   1       0.819  -0.320   0.093  0.00  0.00    -0.260 N 
ATOM      3  C   UNL d   1       0.995   1.077   0.062  0.00  0.00     0.051 A 
ATOM      4  N   UNL d   1      -0.474  -0.650  -0.154  0.00  0.00    -0.304 N 
ATOM      5  HN  UNL d   1      -0.859  -1.586  -0.281  1.00  0.00     0.186 HD
ATOM      6  C   UNL d   1      -1.129   0.500  -0.197  0.00  0.00     0.126 A 
ENDROOT
BRANCH   1   7
ATOM      7  C   UNL d   1      -0.805   2.987  -0.172  0.00  0.00     0.255 C 
ATOM      8  N   UNL d   1      -0.006   3.997   0.294  0.00  0.00    -0.352 N 
ATOM      9  H   UNL d   1       0.750   3.776   0.924  0.00  0.00     0.163 HD
ATOM     10  O   UNL d   1      -1.913   3.212  -0.648  0.00  0.00    -0.268 OA
BRANCH   8  11
ATOM     11  C   UNL d   1      -0.350   5.392   0.096  0.00  0.00     0.162 C 
BRANCH  11  12
ATOM     12  C   UNL d   1       0.937   6.144  -0.073  0.00  0.00    -0.022 C 
ATOM     13  C   UNL d   1       1.312   7.355   0.626  0.00  0.00    -0.009 A 
ATOM     14  C   UNL d   1       2.670   7.643   0.444  0.00  0.00     0.015 A 
ATOM     15  C   UNL d   1       0.562   8.226   1.460  0.00  0.00     0.037 A 
ATOM     16  C   UNL d   1       3.314   8.678   1.149  0.00  0.00     0.021 A 
ATOM     17  S   UNL d   1       3.387   6.600  -0.719  0.00  0.00    -0.101 SA
ATOM     18  C   UNL d   1       2.555   9.502   1.981  0.00  0.00     0.025 A 
ATOM     19  C   UNL d   1       1.190   9.298   2.104  0.00  0.00     0.035 A 
ATOM     20 CL   UNL d   1       0.253  10.378   3.064  0.00  0.00    -0.084 Cl
ATOM     21  C   UNL d   1       1.934   5.753  -0.949  0.00  0.00     0.060 C 
ENDBRANCH  11  12
ENDBRANCH   8  11
ENDBRANCH   1   7
BRANCH   3  22
ATOM     22  C   UNL d   1       2.338   1.759   0.028  0.00  0.00     0.060 C 
BRANCH  22  23
ATOM     23  C   UNL d   1       3.238   1.368  -1.150  0.00  0.00     0.002 C 
ATOM     24  C   UNL d   1       2.686   1.796  -2.501  0.00  0.00     0.005 C 
ENDBRANCH  22  23
ENDBRANCH   3  22
BRANCH   2  25
ATOM     25  C   UNL d   1       1.736  -1.399   0.307  0.00  0.00     0.056 A 
ATOM     26  C   UNL d   1       2.932  -1.260   1.012  0.00  0.00     0.031 A 
ATOM     27  C   UNL d   1       3.786  -2.358   1.179  0.00  0.00     0.002 A 
ATOM     28  C   UNL d   1       3.449  -3.606   0.653  0.00  0.00     0.000 A 
ATOM     29  C   UNL d   1       2.248  -3.764  -0.027  0.00  0.00     0.002 A 
ATOM     30  C   UNL d   1       1.393  -2.673  -0.194  0.00  0.00     0.031 A 
ENDBRANCH   2  25
TORSDOF 6
