REMARK  5 active torsions:
REMARK  status: ('A' for Active; 'I' for Inactive)
REMARK    1  A    between atoms: C_3  and  C_1 
REMARK    2  A    between atoms: C_7  and  C_2 
REMARK    3  A    between atoms: O_12  and  C_3 
REMARK    4  A    between atoms: O_14  and  C_6 
REMARK    5  A    between atoms: O_15  and  C_9 
ROOT
ATOM      1  C   UNL d   1       0.776  -0.766   0.026  0.00  0.00     0.118 C 
ATOM      2  C   UNL d   1       0.338  -0.228   1.183  0.00  0.00     0.041 C 
ATOM      3  C   UNL d   1       1.941  -1.572  -0.048  0.00  0.00     0.106 C 
ATOM      4  N   UNL d   1       2.879  -2.236  -0.210  0.00  0.00    -0.191 NA
ENDROOT
BRANCH   1   5
ATOM      5  C   UNL d   1       0.001  -0.480  -1.205  0.00  0.00     0.187 C 
ATOM      6  O   UNL d   1      -1.003   0.220  -1.214  0.00  0.00    -0.645 OA
BRANCH   5   7
ATOM      7  O   UNL d   1       0.472  -1.040  -2.341  0.00  0.00    -0.772 OA
ATOM      8  H   UNL d   1       1.275  -1.599  -2.302  0.00  0.00     0.167 HD
ENDBRANCH   5   7
ENDBRANCH   1   5
BRANCH   2   9
ATOM      9  C   UNL d   1       1.028  -0.423   2.460  0.00  0.00    -0.032 A 
ATOM     10  C   UNL d   1       2.055   0.451   2.838  0.00  0.00     0.051 A 
ATOM     11  C   UNL d   1       2.824   0.205   3.986  0.00  0.00     0.102 A 
ATOM     12  C   UNL d   1       2.511  -0.900   4.794  0.00  0.00     0.101 A 
ATOM     13  C   UNL d   1       1.473  -1.761   4.413  0.00  0.00     0.040 A 
ATOM     14  C   UNL d   1       0.732  -1.528   3.256  0.00  0.00     0.014 A 
BRANCH  11  15
ATOM     15  O   UNL d   1       3.866   1.019   4.344  0.00  0.00    -0.353 OA
ATOM     16  C   UNL d   1       4.595   1.607   3.270  0.00  0.00     0.210 C 
ENDBRANCH  11  15
BRANCH  12  17
ATOM     17  O   UNL d   1       3.155  -1.317   5.930  0.00  0.00    -0.353 OA
ATOM     18  C   UNL d   1       3.807  -0.324   6.710  0.00  0.00     0.210 C 
ENDBRANCH  12  17
ENDBRANCH   2   9
TORSDOF 5
