REMARK  5 active torsions:
REMARK  status: ('A' for Active; 'I' for Inactive)
REMARK    1  A    between atoms: C_7  and  C_1 
REMARK    2  A    between atoms: C_8  and  N_2 
REMARK    3  A    between atoms: C_11  and  C_6 
REMARK       I    between atoms: N_14  and  C_7 
REMARK    4  A    between atoms: C_9  and  C_8 
REMARK    5  A    between atoms: N_18  and  N_14 
ROOT
ATOM      1  C   UNL d   1      -0.581  -1.135   0.324  0.00  0.00     0.122 A 
ATOM      2  N   UNL d   1       0.712  -0.730   0.065  0.00  0.00    -0.282 N 
ATOM      3  N   UNL d   1       0.830   0.614  -0.074  0.00  0.00    -0.301 N 
ATOM      4  HN  UNL d   1       1.683   1.150  -0.228  1.00  0.00     0.187 HD
ATOM      5  C   UNL d   1      -1.331   0.026   0.232  0.00  0.00     0.064 A 
ATOM      6  C   UNL d   1      -0.416   1.081   0.037  0.00  0.00     0.036 A 
ENDROOT
BRANCH   2   7
ATOM      7  C   UNL d   1       1.927  -1.543  -0.035  0.00  0.00     0.189 C 
BRANCH   7   8
ATOM      8  C   UNL d   1       2.561  -1.879   1.302  0.00  0.00    -0.017 A 
ATOM      9  C   UNL d   1       3.387  -3.010   1.440  0.00  0.00     0.043 A 
ATOM     10  C   UNL d   1       3.925  -3.366   2.682  0.00  0.00     0.048 A 
ATOM     11 CL   UNL d   1       3.809  -4.001   0.087  0.00  0.00    -0.084 Cl
ATOM     12  C   UNL d   1       3.669  -2.575   3.796  0.00  0.00     0.035 A 
ATOM     13  C   UNL d   1       2.930  -1.404   3.670  0.00  0.00     0.024 A 
ATOM     14 CL   UNL d   1       4.272  -3.043   5.337  0.00  0.00    -0.084 Cl
ATOM     15  C   UNL d   1       2.394  -1.051   2.429  0.00  0.00     0.012 A 
ENDBRANCH   7   8
ENDBRANCH   2   7
BRANCH   1  16
ATOM     16  C   UNL d   1      -1.028  -2.478   0.603  0.00  0.00     0.283 C 
ATOM     17  O   UNL d   1      -0.420  -3.491   0.281  0.00  0.00    -0.265 OA
ATOM     18  N   UNL d   1      -2.245  -2.517   1.292  0.00  0.00    -0.288 N 
ATOM     19  H   UNL d   1      -2.579  -1.667   1.737  0.00  0.00     0.183 HD
BRANCH  18  20
ATOM     20  N   UNL d   1      -2.806  -3.744   1.705  0.00  0.00    -0.247 NA
ATOM     21  H   UNL d   1      -2.267  -4.495   1.253  0.00  0.00     0.143 HD
ATOM     22  H   UNL d   1      -3.746  -3.816   1.306  0.00  0.00     0.143 HD
ENDBRANCH  18  20
ENDBRANCH   1  16
BRANCH   6  23
ATOM     23  C   UNL d   1      -0.736   2.564  -0.018  0.00  0.00    -0.007 C 
ATOM     24  C   UNL d   1      -1.436   2.986   1.291  0.00  0.00     0.021 C 
ATOM     25  C   UNL d   1       0.532   3.425  -0.182  0.00  0.00     0.021 C 
ATOM     26  C   UNL d   1      -1.677   2.858  -1.203  0.00  0.00     0.021 C 
ENDBRANCH   6  23
TORSDOF 5
