REMARK  3 active torsions:
REMARK  status: ('A' for Active; 'I' for Inactive)
REMARK    1  A    between atoms: C_2  and  C_1 
REMARK    2  A    between atoms: C_5  and  C_1 
REMARK    3  A    between atoms: O_7  and  N_3 
ROOT
ATOM      1  C   UNL d   1       0.934  -1.378  -2.328  0.00  0.00    -0.011 C 
ATOM      2  C   UNL d   1       2.275  -1.343  -2.431  0.00  0.00     0.026 C 
ENDROOT
BRANCH   1   3
ATOM      3  C   UNL d   1       0.257  -0.743  -1.134  0.00  0.00     0.038 C 
ATOM      4  N   UNL d   1       0.975  -0.171  -0.202  0.00  0.00    -0.273 N 
ATOM      5  HN  UNL d   1       1.993  -0.113  -0.219  1.00  0.00     0.193 HD
ATOM      6  C   UNL d   1      -1.261  -0.793  -1.046  0.00  0.00     0.071 C 
BRANCH   4   7
ATOM      7  O   UNL d   1       0.175   0.352   0.821  0.00  0.00    -0.290 OA
ATOM      8  H   UNL d   1       0.836   0.736   1.426  0.00  0.00     0.244 HD
ENDBRANCH   4   7
ENDBRANCH   1   3
BRANCH   1   9
ATOM      9  C   UNL d   1       0.170  -2.046  -3.391  0.00  0.00    -0.025 A 
ATOM     10  C   UNL d   1      -0.113  -3.414  -3.302  0.00  0.00     0.012 A 
ATOM     11  C   UNL d   1      -0.900  -4.032  -4.275  0.00  0.00     0.001 A 
ATOM     12  C   UNL d   1      -1.400  -3.288  -5.343  0.00  0.00     0.000 A 
ATOM     13  C   UNL d   1      -1.102  -1.930  -5.450  0.00  0.00     0.001 A 
ATOM     14  C   UNL d   1      -0.314  -1.310  -4.480  0.00  0.00     0.012 A 
ENDBRANCH   1   9
TORSDOF 3
