REMARK  4 active torsions:
REMARK  status: ('A' for Active; 'I' for Inactive)
REMARK    1  A    between atoms: N_2  and  C_1 
REMARK    2  A    between atoms: N_3  and  C_6 
REMARK    3  A    between atoms: N_7  and  C_5 
REMARK    4  A    between atoms: C_14  and  N_7 
ROOT
ATOM      1  C   UNL d   1      -0.401   0.918  -0.252  0.00  0.00     0.131 A 
ATOM      2  C   UNL d   1      -1.196  -0.152   0.189  0.00  0.00     0.074 A 
ATOM      3  C   UNL d   1       0.978   1.004   0.018  0.00  0.00     0.066 A 
ATOM      4  C   UNL d   1      -0.587  -1.181   0.912  0.00  0.00     0.105 A 
ATOM      5  C   UNL d   1       1.554  -0.066   0.726  0.00  0.00     0.034 A 
ATOM      6  C   UNL d   1       0.788  -1.151   1.170  0.00  0.00     0.038 A 
ENDROOT
BRANCH   3   7
ATOM      7  N   UNL d   1       1.767   2.099  -0.407  0.00  0.00    -0.354 N 
ATOM      8  H   UNL d   1       1.399   2.996  -0.085  0.00  0.00     0.166 HD
BRANCH   7   9
ATOM      9  C   UNL d   1       3.162   2.107  -0.615  0.00  0.00     0.032 A 
ATOM     10  C   UNL d   1       3.781   1.076  -1.334  0.00  0.00     0.030 A 
ATOM     11  C   UNL d   1       5.170   1.009  -1.444  0.00  0.00     0.009 A 
ATOM     12  C   UNL d   1       5.973   1.976  -0.834  0.00  0.00    -0.062 A 
ATOM     13  C   UNL d   1       5.363   3.029  -0.144  0.00  0.00     0.009 A 
ATOM     14  C   UNL d   1       7.466   1.848  -0.905  0.00  0.00     0.048 C 
ATOM     15  C   UNL d   1       3.967   3.095  -0.038  0.00  0.00     0.030 A 
ENDBRANCH   7   9
ENDBRANCH   3   7
BRANCH   1  16
ATOM     16  N   UNL d   1      -1.043   1.933  -1.061  0.00  0.00    -0.113 N 
ATOM     17  O   UNL d   1      -1.602   1.556  -2.097  0.00  0.00    -0.532 OA
ATOM     18  O   UNL d   1      -1.016   3.096  -0.632  0.00  0.00    -0.532 OA
ENDBRANCH   1  16
BRANCH   4  19
ATOM     19  N   UNL d   1      -1.395  -2.300   1.415  0.00  0.00    -0.116 N 
ATOM     20  O   UNL d   1      -2.618  -2.252   1.224  0.00  0.00    -0.532 OA
ATOM     21  O   UNL d   1      -0.806  -3.215   2.006  0.00  0.00    -0.532 OA
ENDBRANCH   4  19
TORSDOF 4
