REMARK  6 active torsions:
REMARK  status: ('A' for Active; 'I' for Inactive)
REMARK       I    between atoms: C_5  and  N_1 
REMARK    1  A    between atoms: C_6  and  N_1 
REMARK    2  A    between atoms: C_2  and  C_3 
REMARK    3  A    between atoms: C_4  and  N_11 
REMARK    4  A    between atoms: C_16  and  C_5 
REMARK    5  A    between atoms: N_12  and  C_6 
REMARK    6  A    between atoms: N_11  and  N_12 
ROOT
ATOM      1  N   UNL d   1       2.267  -2.440  -0.317  0.00  0.00    -0.187 NA
ATOM      2  H   UNL d   1       1.402  -2.404  -0.859  0.00  0.00     0.154 HD
ENDROOT
BRANCH   1   3
ATOM      3  C   UNL d   1       3.067  -3.539  -0.731  0.00  0.00     0.120 A 
ATOM      4  N   UNL d   1       4.374  -3.305  -1.032  0.00  0.00    -0.353 N 
ATOM      5  C   UNL d   1       5.155  -4.344  -1.398  0.00  0.00     0.105 A 
ATOM      6  HN  UNL d   1       4.757  -2.361  -0.981  1.00  0.00     0.166 HD
ATOM      7  C   UNL d   1       4.712  -5.652  -1.466  0.00  0.00     0.065 A 
ATOM      8  C   UNL d   1       3.375  -5.898  -1.131  0.00  0.00     0.044 A 
ATOM      9  C   UNL d   1       2.543  -4.836  -0.763  0.00  0.00     0.074 A 
ATOM     10 CL   UNL d   1       0.901  -5.173  -0.355  0.00  0.00    -0.081 Cl
BRANCH   7  11
ATOM     11  C   UNL d   1       5.661  -6.727  -1.891  0.00  0.00     0.418 C 
ATOM     12  F   UNL d   1       5.113  -7.972  -1.877  0.00  0.00    -0.166 F 
ATOM     13  F   UNL d   1       6.124  -6.536  -3.157  0.00  0.00    -0.166 F 
ATOM     14  F   UNL d   1       6.764  -6.794  -1.097  0.00  0.00    -0.166 F 
ENDBRANCH   7  11
ENDBRANCH   1   3
BRANCH   1  15
ATOM     15  N   UNL d   1       2.998  -1.237  -0.381  0.00  0.00    -0.292 N 
ATOM     16  H   UNL d   1       4.014  -1.366  -0.272  0.00  0.00     0.183 HD
BRANCH  15  17
ATOM     17  C   UNL d   1       2.441  -0.032  -0.034  0.00  0.00     0.189 C 
ATOM     18  S   UNL d   1       0.810   0.331  -0.086  0.00  0.00    -0.039 SA
BRANCH  17  19
ATOM     19  N   UNL d   1       3.333   0.952   0.346  0.00  0.00    -0.299 N 
ATOM     20  C   UNL d   1       4.704   0.806   0.521  0.00  0.00     0.257 C 
ATOM     21  O   UNL d   1       5.317  -0.221   0.235  0.00  0.00    -0.267 OA
ATOM     22  H   UNL d   1       2.901   1.841   0.548  0.00  0.00     0.171 HD
BRANCH  20  23
ATOM     23  C   UNL d   1       5.468   1.965   1.057  0.00  0.00     0.032 A 
ATOM     24  C   UNL d   1       4.890   2.973   1.838  0.00  0.00     0.017 A 
ATOM     25  C   UNL d   1       5.689   4.005   2.342  0.00  0.00     0.001 A 
ATOM     26  C   UNL d   1       7.059   4.031   2.076  0.00  0.00     0.000 A 
ATOM     27  C   UNL d   1       7.640   3.026   1.307  0.00  0.00     0.001 A 
ATOM     28  C   UNL d   1       6.848   1.997   0.802  0.00  0.00     0.017 A 
ENDBRANCH  20  23
ENDBRANCH  17  19
ENDBRANCH  15  17
ENDBRANCH   1  15
TORSDOF 6
