REMARK  6 active torsions:
REMARK  status: ('A' for Active; 'I' for Inactive)
REMARK    1  A    between atoms: C_2  and  C_1 
REMARK    2  A    between atoms: O_15  and  C_2 
REMARK    3  A    between atoms: C_5  and  N_10 
REMARK    4  A    between atoms: N_10  and  C_20 
REMARK    5  A    between atoms: C_19  and  O_15 
REMARK    6  A    between atoms: C_20  and  C_19 
ROOT
ATOM      1  N   UNL d   1      -2.663   8.972   0.453  0.00  0.00    -0.351 N 
ATOM      2  HN  UNL d   1      -2.580   9.241  -0.528  1.00  0.00     0.166 HD
ATOM      3  C   UNL d   1      -2.301   7.731   0.853  0.00  0.00     0.102 A 
ATOM      4  N   UNL d   1      -4.253  11.317   4.349  0.00  0.00    -0.191 NA
ATOM      5  C   UNL d   1      -3.817  10.537   3.615  0.00  0.00     0.101 C 
ATOM      6  C   UNL d   1      -3.284   9.567   2.710  0.00  0.00     0.060 A 
ATOM      7  C   UNL d   1      -2.387   7.395   2.207  0.00  0.00     0.050 A 
ATOM      8  C   UNL d   1      -3.135   9.855   1.368  0.00  0.00     0.112 A 
ATOM      9  C   UNL d   1      -2.895   8.306   3.139  0.00  0.00     0.028 A 
ENDROOT
BRANCH   3  10
ATOM     10  N   UNL d   1      -1.795   6.835  -0.086  0.00  0.00    -0.370 N 
ATOM     11  C   UNL d   1      -1.688   7.320  -1.463  0.00  0.00     0.151 C 
BRANCH  10  12
ATOM     12  C   UNL d   1      -2.106   5.398   0.049  0.00  0.00     0.150 C 
BRANCH  12  13
ATOM     13  C   UNL d   1      -0.820   4.571   0.180  0.00  0.00     0.199 C 
BRANCH  13  14
ATOM     14  O   UNL d   1      -0.080   4.537  -1.056  0.00  0.00    -0.316 OA
BRANCH  14  15
ATOM     15  C   UNL d   1      -0.505   3.622  -1.961  0.00  0.00     0.298 C 
ATOM     16  O   UNL d   1      -1.459   2.877  -1.809  0.00  0.00    -0.259 OA
BRANCH  15  17
ATOM     17  C   UNL d   1       0.331   3.668  -3.179  0.00  0.00     0.099 A 
ATOM     18  C   UNL d   1       1.712   3.866  -3.068  0.00  0.00     0.134 A 
ATOM     19  F   UNL d   1       2.296   4.042  -1.874  0.00  0.00    -0.205 F 
ATOM     20  C   UNL d   1       2.539   3.854  -4.192  0.00  0.00     0.043 A 
ATOM     21  C   UNL d   1       1.995   3.626  -5.452  0.00  0.00     0.005 A 
ATOM     22  C   UNL d   1       0.621   3.426  -5.581  0.00  0.00     0.025 A 
ATOM     23  C   UNL d   1      -0.213   3.452  -4.452  0.00  0.00     0.053 A 
ATOM     24 CL   UNL d   1      -1.905   3.251  -4.744  0.00  0.00    -0.083 Cl
ENDBRANCH  15  17
ENDBRANCH  14  15
ENDBRANCH  13  14
ENDBRANCH  12  13
ENDBRANCH  10  12
ENDBRANCH   3  10
TORSDOF 6
