REMARK  5 active torsions:
REMARK  status: ('A' for Active; 'I' for Inactive)
REMARK    1  A    between atoms: S_7  and  C_1 
REMARK    2  A    between atoms: C_17  and  N_2 
REMARK    3  A    between atoms: C_16  and  S_7 
REMARK    4  A    between atoms: C_8  and  N_12 
REMARK    5  A    between atoms: C_9  and  C_16 
REMARK       I    between atoms: N_12  and  C_9 
ROOT
ATOM      1  C   UNL d   1       0.549  -5.556  -0.604  0.00  0.00     0.227 C 
ATOM      2  N   UNL d   1      -0.645  -6.086  -0.130  0.00  0.00    -0.355 N 
ATOM      3  O   UNL d   1       0.673  -4.366  -0.866  0.00  0.00    -0.273 OA
ATOM      4  H   UNL d   1      -0.726  -7.091  -0.034  0.00  0.00     0.162 HD
ENDROOT
BRANCH   1   5
ATOM      5  C   UNL d   1       1.651  -6.610  -0.756  0.00  0.00     0.185 C 
BRANCH   5   6
ATOM      6  S   UNL d   1       3.224  -5.920  -1.371  0.00  0.00    -0.082 SA
BRANCH   6   7
ATOM      7  C   UNL d   1       4.219  -7.336  -1.369  0.00  0.00     0.172 A 
ATOM      8  N   UNL d   1       5.500  -7.404  -1.844  0.00  0.00    -0.256 N 
ATOM      9  N   UNL d   1       5.970  -8.656  -1.673  0.00  0.00    -0.004 NA
ATOM     10  N   UNL d   1       4.980  -9.326  -1.102  0.00  0.00    -0.007 NA
ATOM     11  N   UNL d   1       3.883  -8.521  -0.909  0.00  0.00    -0.265 N 
ATOM     12  HN  UNL d   1       2.991  -8.788  -0.492  1.00  0.00     0.186 HD
BRANCH   8  13
ATOM     13  C   UNL d   1       6.332  -6.419  -2.493  0.00  0.00     0.144 C 
ATOM     14  C   UNL d   1       7.288  -5.730  -1.534  0.00  0.00     0.028 C 
ENDBRANCH   8  13
ENDBRANCH   6   7
ENDBRANCH   5   6
ENDBRANCH   1   5
BRANCH   2  15
ATOM     15  C   UNL d   1      -1.858  -5.278   0.034  0.00  0.00     0.092 C 
ATOM     16  C   UNL d   1      -2.975  -6.038   0.797  0.00  0.00     0.064 C 
ATOM     17  C   UNL d   1      -4.227  -5.546   0.141  0.00  0.00    -0.050 A 
ATOM     18  C   UNL d   1      -5.537  -5.757   0.548  0.00  0.00     0.007 A 
ATOM     19  C   UNL d   1      -3.944  -4.850  -1.035  0.00  0.00    -0.050 A 
ATOM     20  C   UNL d   1      -6.571  -5.242  -0.238  0.00  0.00     0.001 A 
ATOM     21  C   UNL d   1      -6.286  -4.532  -1.413  0.00  0.00     0.001 A 
ATOM     22  C   UNL d   1      -4.965  -4.336  -1.821  0.00  0.00     0.007 A 
ATOM     23  C   UNL d   1      -2.473  -4.821  -1.312  0.00  0.00     0.064 C 
ENDBRANCH   2  15
TORSDOF 5
