REMARK  8 active torsions:
REMARK  status: ('A' for Active; 'I' for Inactive)
REMARK    1  A    between atoms: S_3  and  C_12 
REMARK    2  A    between atoms: N_26  and  S_3 
REMARK    3  A    between atoms: S_4  and  C_13 
REMARK    4  A    between atoms: N_27  and  S_4 
REMARK    5  A    between atoms: N_9  and  C_5 
REMARK    6  A    between atoms: N_10  and  C_6 
REMARK    7  A    between atoms: C_29  and  N_26 
REMARK    8  A    between atoms: C_30  and  N_27 
ROOT
ATOM      1  C   UNL d   1      -0.743   0.847   0.027  0.00  0.00     0.025 A 
ATOM      2  C   UNL d   1       0.731   0.841   0.011  0.00  0.00     0.025 A 
ATOM      3  C   UNL d   1      -1.742   1.817  -0.056  0.00  0.00     0.116 A 
ATOM      4  C   UNL d   1       1.737   1.795   0.151  0.00  0.00     0.116 A 
ATOM      5  C   UNL d   1       1.170  -0.493  -0.130  0.00  0.00     0.030 A 
ATOM      6  C   UNL d   1      -1.194  -0.492   0.029  0.00  0.00     0.030 A 
ATOM      7  C   UNL d   1      -0.014  -1.371  -0.083  0.00  0.00     0.194 A 
ATOM      8  C   UNL d   1      -3.488   0.123   0.000  0.00  0.00     0.082 A 
ATOM      9  C   UNL d   1       3.466   0.117  -0.195  0.00  0.00     0.082 A 
ATOM     10  C   UNL d   1       3.099   1.454   0.020  0.00  0.00     0.062 A 
ATOM     11  C   UNL d   1      -3.108   1.472  -0.051  0.00  0.00     0.062 A 
ATOM     12  C   UNL d   1      -2.527  -0.888   0.025  0.00  0.00     0.041 A 
ATOM     13  C   UNL d   1       2.500  -0.888  -0.235  0.00  0.00     0.041 A 
ATOM     14  O   UNL d   1      -0.017  -2.581  -0.137  0.00  0.00    -0.287 OA
ENDROOT
BRANCH   8  15
ATOM     15  S   UNL d   1      -5.213  -0.276  -0.147  0.00  0.00     0.258 S 
ATOM     16  O   UNL d   1      -5.716   0.502  -1.261  0.00  0.00    -0.201 OA
ATOM     17  O   UNL d   1      -5.363  -1.707  -0.080  0.00  0.00    -0.201 OA
BRANCH  15  18
ATOM     18  N   UNL d   1      -5.872   0.406   1.244  0.00  0.00    -0.316 N 
ATOM     19  H   UNL d   1      -6.715   0.939   1.019  0.00  0.00     0.172 HD
BRANCH  18  20
ATOM     20  C   UNL d   1      -5.920  -0.433   2.449  0.00  0.00     0.128 C 
ATOM     21  C   UNL d   1      -6.509   0.359   3.602  0.00  0.00     0.027 C 
ENDBRANCH  18  20
ENDBRANCH  15  18
ENDBRANCH   8  15
BRANCH   3  22
ATOM     22  N   UNL d   1      -1.448   3.198  -0.366  0.00  0.00    -0.115 N 
ATOM     23  O   UNL d   1      -0.781   3.398  -1.389  0.00  0.00    -0.532 OA
ATOM     24  O   UNL d   1      -1.918   4.060   0.384  0.00  0.00    -0.532 OA
ENDBRANCH   3  22
BRANCH   4  25
ATOM     25  N   UNL d   1       1.464   3.125   0.648  0.00  0.00    -0.115 N 
ATOM     26  O   UNL d   1       0.843   3.189   1.717  0.00  0.00    -0.532 OA
ATOM     27  O   UNL d   1       1.899   4.078  -0.005  0.00  0.00    -0.532 OA
ENDBRANCH   4  25
BRANCH   9  28
ATOM     28  S   UNL d   1       5.195  -0.288  -0.266  0.00  0.00     0.258 S 
ATOM     29  O   UNL d   1       5.825   0.411   0.832  0.00  0.00    -0.201 OA
ATOM     30  O   UNL d   1       5.325  -1.717  -0.444  0.00  0.00    -0.201 OA
BRANCH  28  31
ATOM     31  N   UNL d   1       5.699   0.480  -1.677  0.00  0.00    -0.316 N 
ATOM     32  H   UNL d   1       6.566   0.997  -1.514  0.00  0.00     0.172 HD
BRANCH  31  33
ATOM     33  C   UNL d   1       5.609  -0.277  -2.933  0.00  0.00     0.128 C 
ATOM     34  C   UNL d   1       6.073   0.589  -4.092  0.00  0.00     0.027 C 
ENDBRANCH  31  33
ENDBRANCH  28  31
ENDBRANCH   9  28
TORSDOF 8
