REMARK  6 active torsions:
REMARK  status: ('A' for Active; 'I' for Inactive)
REMARK    1  A    between atoms: O_14  and  C_1 
REMARK    2  A    between atoms: O_17  and  C_2 
REMARK    3  A    between atoms: O_16  and  C_3 
REMARK    4  A    between atoms: C_4  and  C_5 
REMARK       I    between atoms: N_7  and  C_4 
REMARK    5  A    between atoms: C_6  and  C_8 
REMARK    6  A    between atoms: C_11  and  N_7 
ROOT
ATOM      1  C   UNL d   1      -3.373   1.436  -0.240  0.00  0.00     0.075 C 
ATOM      2  C   UNL d   1      -2.732   0.391   0.303  0.00  0.00     0.017 C 
ENDROOT
BRANCH   2   3
ATOM      3  C   UNL d   1      -1.299   0.117   0.140  0.00  0.00    -0.031 A 
ATOM      4  C   UNL d   1      -0.361   1.147   0.040  0.00  0.00     0.051 A 
ATOM      5  C   UNL d   1       1.013   0.887  -0.051  0.00  0.00     0.105 A 
ATOM      6  C   UNL d   1       1.463  -0.444  -0.029  0.00  0.00     0.135 A 
ATOM      7  C   UNL d   1       0.528  -1.492   0.140  0.00  0.00     0.105 A 
ATOM      8  C   UNL d   1      -0.843  -1.203   0.189  0.00  0.00     0.051 A 
BRANCH   5   9
ATOM      9  O   UNL d   1       1.736   2.046  -0.149  0.00  0.00    -0.353 OA
ATOM     10  C   UNL d   1       3.151   1.980  -0.193  0.00  0.00     0.210 C 
ENDBRANCH   5   9
BRANCH   6  11
ATOM     11  O   UNL d   1       2.812  -0.694  -0.039  0.00  0.00    -0.351 OA
ATOM     12  C   UNL d   1       3.244  -1.588  -1.064  0.00  0.00     0.210 C 
ENDBRANCH   6  11
BRANCH   7  13
ATOM     13  O   UNL d   1       1.035  -2.765   0.263  0.00  0.00    -0.353 OA
ATOM     14  C   UNL d   1       0.162  -3.770   0.764  0.00  0.00     0.210 C 
ENDBRANCH   7  13
ENDBRANCH   2   3
BRANCH   1  15
ATOM     15  C   UNL d   1      -4.817   1.635   0.059  0.00  0.00     0.245 C 
ATOM     16  N   UNL d   1      -5.376   2.633  -0.714  0.00  0.00    -0.324 N 
ATOM     17  H   UNL d   1      -4.801   3.038  -1.441  0.00  0.00     0.169 HD
ATOM     18  O   UNL d   1      -5.389   0.938   0.887  0.00  0.00    -0.268 OA
BRANCH  16  19
ATOM     19  C   UNL d   1      -6.717   3.070  -0.670  0.00  0.00     0.036 A 
ATOM     20  C   UNL d   1      -7.616   2.713   0.338  0.00  0.00     0.053 A 
ATOM     21  C   UNL d   1      -8.938   3.154   0.286  0.00  0.00     0.036 A 
ATOM     22 CL   UNL d   1     -10.040   2.705   1.531  0.00  0.00    -0.084 Cl
ATOM     23  C   UNL d   1      -9.379   3.954  -0.765  0.00  0.00     0.024 A 
ATOM     24  C   UNL d   1      -8.483   4.337  -1.760  0.00  0.00     0.004 A 
ATOM     25  C   UNL d   1      -7.155   3.906  -1.707  0.00  0.00     0.029 A 
ENDBRANCH  16  19
ENDBRANCH   1  15
TORSDOF 6
