REMARK  1 active torsions:
REMARK  status: ('A' for Active; 'I' for Inactive)
REMARK    1  A    between atoms: C_9  and  C_4 
ROOT
ATOM      1  C   UNL d   1      -0.743  -0.776   0.029  0.00  0.00     0.058 C 
ATOM      2  C   UNL d   1      -0.919   0.740   0.014  0.00  0.00     0.174 C 
ATOM      3  N   UNL d   1       0.635  -1.114   0.067  0.00  0.00    -0.280 NA
ATOM      4  C   UNL d   1      -1.738  -1.674  -0.026  0.00  0.00     0.039 C 
ATOM      5  C   UNL d   1       0.442   1.432  -0.024  0.00  0.00     0.064 C 
ATOM      6  C   UNL d   1       1.365  -0.637  -1.147  0.00  0.00     0.096 C 
ATOM      7  C   UNL d   1       1.326  -0.551   1.268  0.00  0.00     0.096 C 
ATOM      8  O   UNL d   1      -1.979   1.346   0.043  0.00  0.00    -0.291 OA
ATOM      9  C   UNL d   1       1.175   0.891  -1.268  0.00  0.00     0.027 C 
ATOM     10  C   UNL d   1       1.192   0.987   1.244  0.00  0.00     0.027 C 
ENDROOT
BRANCH   4  11
ATOM     11  C   UNL d   1      -3.160  -1.347  -0.110  0.00  0.00    -0.032 A 
ATOM     12  C   UNL d   1      -3.910  -1.181   1.061  0.00  0.00     0.051 A 
ATOM     13  C   UNL d   1      -5.225  -0.793   0.929  0.00  0.00     0.105 A 
ATOM     14  O   UNL d   1      -6.090  -0.556   1.952  0.00  0.00    -0.323 OA
ATOM     15  C   UNL d   1      -5.802  -0.584  -0.303  0.00  0.00     0.105 A 
ATOM     16  C   UNL d   1      -7.251  -0.108   1.224  0.00  0.00     0.352 A 
ATOM     17  O   UNL d   1      -7.098  -0.186  -0.208  0.00  0.00    -0.323 OA
ATOM     18  C   UNL d   1      -5.098  -0.761  -1.474  0.00  0.00     0.040 A 
ATOM     19  C   UNL d   1      -3.758  -1.147  -1.373  0.00  0.00     0.014 A 
ENDBRANCH   4  11
TORSDOF 1
