REMARK  3 active torsions:
REMARK  status: ('A' for Active; 'I' for Inactive)
REMARK    1  A    between atoms: C_11  and  C_1 
REMARK    2  A    between atoms: C_4  and  N_14 
REMARK    3  A    between atoms: N_14  and  N_12 
ROOT
ATOM      1  C   UNL d   1       3.622   0.258   0.033  0.00  0.00     0.126 C 
ATOM      2  N   UNL d   1       4.245   1.293  -0.435  0.00  0.00    -0.310 N 
ATOM      3  HN  UNL d   1       3.736   2.121  -0.746  1.00  0.00     0.186 HD
ENDROOT
BRANCH   2   4
ATOM      4  N   UNL d   1       5.596   1.234  -0.497  0.00  0.00    -0.298 N 
ATOM      5  H   UNL d   1       6.089   0.377  -0.244  0.00  0.00     0.187 HD
BRANCH   4   6
ATOM      6  C   UNL d   1       6.218   1.908  -1.583  0.00  0.00     0.091 A 
ATOM      7  C   UNL d   1       7.465   2.537  -1.368  0.00  0.00     0.065 A 
ATOM      8  C   UNL d   1       8.140   3.201  -2.396  0.00  0.00     0.050 A 
ATOM      9 CL   UNL d   1       8.215   2.523   0.196  0.00  0.00    -0.082 Cl
ATOM     10  C   UNL d   1       7.591   3.228  -3.671  0.00  0.00     0.037 A 
ATOM     11  C   UNL d   1       6.386   2.587  -3.932  0.00  0.00     0.050 A 
ATOM     12 CL   UNL d   1       8.423   4.030  -4.945  0.00  0.00    -0.084 Cl
ATOM     13  C   UNL d   1       5.709   1.922  -2.902  0.00  0.00     0.065 A 
ATOM     14 CL   UNL d   1       4.283   1.059  -3.387  0.00  0.00    -0.082 Cl
ENDBRANCH   4   6
ENDBRANCH   2   4
BRANCH   1  15
ATOM     15  C   UNL d   1       2.177   0.226   0.071  0.00  0.00     0.029 A 
ATOM     16  S   UNL d   1       1.435  -1.310   0.146  0.00  0.00    -0.088 SA
ATOM     17  C   UNL d   1      -0.147  -0.650   0.070  0.00  0.00     0.016 A 
ATOM     18  C   UNL d   1      -1.364  -1.361   0.055  0.00  0.00     0.019 A 
ATOM     19  C   UNL d   1      -0.112   0.744   0.030  0.00  0.00    -0.012 A 
ATOM     20  C   UNL d   1      -2.567  -0.649   0.011  0.00  0.00     0.001 A 
ATOM     21  C   UNL d   1      -2.562   0.735  -0.018  0.00  0.00     0.001 A 
ATOM     22  C   UNL d   1      -1.351   1.434  -0.012  0.00  0.00     0.013 A 
ATOM     23  C   UNL d   1       1.247   1.255   0.032  0.00  0.00    -0.032 A 
ATOM     24  C   UNL d   1       1.540   2.726   0.004  0.00  0.00     0.050 C 
ENDBRANCH   1  15
TORSDOF 3
