REMARK  2 active torsions:
REMARK  status: ('A' for Active; 'I' for Inactive)
REMARK    1  A    between atoms: C_4  and  C_1 
REMARK       I    between atoms: N_7  and  C_1 
REMARK    2  A    between atoms: C_14  and  N_7 
ROOT
ATOM      1  C   UNL d   1       1.001   0.009  -0.014  0.00  0.00     0.256 C 
ATOM      2  N   UNL d   1       0.240  -1.088  -0.383  0.00  0.00    -0.323 N 
ATOM      3  O   UNL d   1       0.591   1.124   0.277  0.00  0.00    -0.267 OA
ATOM      4  H   UNL d   1       0.696  -1.990  -0.396  0.00  0.00     0.169 HD
ENDROOT
BRANCH   1   5
ATOM      5  C   UNL d   1       2.466  -0.239   0.082  0.00  0.00     0.033 A 
ATOM      6  C   UNL d   1       3.118  -1.079  -0.834  0.00  0.00     0.038 A 
ATOM      7  C   UNL d   1       4.499  -1.284  -0.669  0.00  0.00     0.033 A 
ATOM      8  S   UNL d   1       5.566  -2.273  -1.596  0.00  0.00    -0.083 SA
ATOM      9  C   UNL d   1       5.228  -0.662   0.350  0.00  0.00     0.049 A 
ATOM     10  C   UNL d   1       6.857  -1.834  -0.562  0.00  0.00     0.139 A 
ATOM     11  N   UNL d   1       6.573  -0.986   0.400  0.00  0.00    -0.359 N 
ATOM     12  HN  UNL d   1       7.241  -0.621   1.079  1.00  0.00     0.166 HD
ATOM     13  C   UNL d   1       4.559   0.216   1.224  0.00  0.00     0.032 A 
ATOM     14  C   UNL d   1       3.183   0.421   1.083  0.00  0.00     0.019 A 
ENDBRANCH   1   5
BRANCH   2  15
ATOM     15  C   UNL d   1      -1.139  -1.089  -0.683  0.00  0.00     0.035 A 
ATOM     16  C   UNL d   1      -1.897   0.074  -0.817  0.00  0.00     0.030 A 
ATOM     17  C   UNL d   1      -3.243   0.009  -1.185  0.00  0.00     0.009 A 
ATOM     18  C   UNL d   1      -3.859  -1.222  -1.424  0.00  0.00    -0.062 A 
ATOM     19  C   UNL d   1      -3.111  -2.393  -1.264  0.00  0.00     0.009 A 
ATOM     20  C   UNL d   1      -5.290  -1.260  -1.869  0.00  0.00     0.048 C 
ATOM     21  C   UNL d   1      -1.760  -2.326  -0.901  0.00  0.00     0.030 A 
ENDBRANCH   2  15
TORSDOF 2
