REMARK  9 active torsions:
REMARK  status: ('A' for Active; 'I' for Inactive)
REMARK    1  A    between atoms: O_5  and  C_1 
REMARK       I    between atoms: C_2  and  N_4 
REMARK    2  A    between atoms: C_16  and  C_2 
REMARK    3  A    between atoms: C_3  and  C_17 
REMARK    4  A    between atoms: O_18  and  C_3 
REMARK    5  A    between atoms: N_4  and  C_12 
REMARK    6  A    between atoms: C_13  and  O_5 
REMARK    7  A    between atoms: O_8  and  C_14 
REMARK    8  A    between atoms: C_15  and  O_8 
REMARK    9  A    between atoms: C_17  and  C_16 
ROOT
ATOM      1  C   UNL d   1       5.887  -0.167   7.296  0.00  0.00     0.034 A 
ATOM      2  C   UNL d   1       3.177   0.270   6.688  0.00  0.00     0.076 A 
ATOM      3  C   UNL d   1       5.489   0.984   6.612  0.00  0.00     0.032 A 
ATOM      4  C   UNL d   1       4.919  -1.113   7.647  0.00  0.00     0.032 A 
ATOM      5  C   UNL d   1       3.575  -0.912   7.321  0.00  0.00     0.039 A 
ATOM      6  C   UNL d   1       4.140   1.201   6.310  0.00  0.00     0.039 A 
ENDROOT
BRANCH   2   7
ATOM      7  O   UNL d   1       1.870   0.570   6.366  0.00  0.00    -0.311 OA
BRANCH   7   8
ATOM      8  C   UNL d   1       0.879   0.186   7.236  0.00  0.00     0.076 A 
ATOM      9  C   UNL d   1       1.016   0.234   8.625  0.00  0.00     0.040 A 
ATOM     10  C   UNL d   1       0.006  -0.274   9.436  0.00  0.00     0.040 A 
ATOM     11  C   UNL d   1      -1.168  -0.790   8.878  0.00  0.00     0.078 A 
ATOM     12  C   UNL d   1      -1.357  -0.709   7.498  0.00  0.00     0.040 A 
ATOM     13  C   UNL d   1      -0.326  -0.237   6.678  0.00  0.00     0.040 A 
BRANCH  11  14
ATOM     14  O   UNL d   1      -2.035  -1.305   9.790  0.00  0.00    -0.255 OA
BRANCH  14  15
ATOM     15  C   UNL d   1      -2.988  -2.279   9.394  0.00  0.00     0.530 C 
ATOM     16  F   UNL d   1      -2.729  -2.853   8.200  0.00  0.00    -0.144 F 
ATOM     17  F   UNL d   1      -4.214  -1.717   9.357  0.00  0.00    -0.144 F 
ATOM     18  F   UNL d   1      -3.002  -3.262  10.323  0.00  0.00    -0.144 F 
ENDBRANCH  14  15
ENDBRANCH  11  14
ENDBRANCH   7   8
ENDBRANCH   2   7
BRANCH   1  19
ATOM     19  N   UNL d   1       7.224  -0.445   7.649  0.00  0.00    -0.327 N 
ATOM     20  C   UNL d   1       8.305   0.395   7.519  0.00  0.00     0.222 C 
ATOM     21  O   UNL d   1       8.293   1.565   7.129  0.00  0.00    -0.273 OA
ATOM     22  H   UNL d   1       7.375  -1.323   8.137  0.00  0.00     0.169 HD
BRANCH  20  23
ATOM     23  C   UNL d   1       9.607  -0.209   8.012  0.00  0.00     0.113 C 
BRANCH  23  24
ATOM     24  C   UNL d   1      10.345   0.826   8.849  0.00  0.00     0.119 C 
BRANCH  24  25
ATOM     25  C   UNL d   1       9.527   1.168  10.067  0.00  0.00     0.139 C 
ATOM     26  O   UNL d   1       9.596   0.549  11.118  0.00  0.00    -0.650 OA
BRANCH  25  27
ATOM     27  O   UNL d   1       8.645   2.171   9.868  0.00  0.00    -0.776 OA
ATOM     28  H   UNL d   1       8.597   2.491   8.937  0.00  0.00     0.167 HD
ENDBRANCH  25  27
ENDBRANCH  24  25
ENDBRANCH  23  24
ENDBRANCH  20  23
ENDBRANCH   1  19
TORSDOF 9
