REMARK  7 active torsions:
REMARK  status: ('A' for Active; 'I' for Inactive)
REMARK    1  A    between atoms: N_3  and  C_1 
REMARK    2  A    between atoms: N_5  and  C_1 
REMARK       I    between atoms: C_2  and  N_6 
REMARK    3  A    between atoms: O_10  and  C_2 
REMARK    4  A    between atoms: C_4  and  N_3 
REMARK    5  A    between atoms: N_6  and  N_5 
REMARK    6  A    between atoms: O_11  and  C_9 
REMARK    7  A    between atoms: C_14  and  O_10 
ROOT
ATOM      1  C   UNL d   1       0.852  -0.588  -0.219  0.00  0.00     0.191 C 
ATOM      2  S   UNL d   1       0.059   0.091  -1.523  0.00  0.00    -0.039 SA
ENDROOT
BRANCH   1   3
ATOM      3  N   UNL d   1       0.336  -0.424   1.046  0.00  0.00    -0.330 N 
ATOM      4  H   UNL d   1      -0.628  -0.112   1.094  0.00  0.00     0.168 HD
BRANCH   3   5
ATOM      5  C   UNL d   1       1.019  -0.513   2.283  0.00  0.00     0.068 A 
ATOM      6  C   UNL d   1       0.318  -0.769   3.473  0.00  0.00     0.095 A 
ATOM      7  C   UNL d   1       1.000  -0.779   4.697  0.00  0.00     0.039 A 
ATOM      8  C   UNL d   1       2.373  -0.536   4.750  0.00  0.00     0.003 A 
ATOM      9  C   UNL d   1       3.070  -0.258   3.581  0.00  0.00     0.002 A 
ATOM     10  C   UNL d   1       2.395  -0.242   2.360  0.00  0.00     0.032 A 
BRANCH   6  11
ATOM     11  O   UNL d   1      -1.036  -0.965   3.562  0.00  0.00    -0.354 OA
ATOM     12  C   UNL d   1      -1.559  -1.992   2.722  0.00  0.00     0.210 C 
ENDBRANCH   6  11
ENDBRANCH   3   5
ENDBRANCH   1   3
BRANCH   1  13
ATOM     13  N   UNL d   1       1.994  -1.348  -0.292  0.00  0.00    -0.272 N 
ATOM     14  H   UNL d   1       2.157  -2.038   0.445  0.00  0.00     0.189 HD
BRANCH  13  15
ATOM     15  N   UNL d   1       2.704  -1.583  -1.479  0.00  0.00    -0.243 N 
ATOM     16  C   UNL d   1       3.626  -2.598  -1.433  0.00  0.00     0.379 C 
ATOM     17  O   UNL d   1       3.604  -3.506  -0.607  0.00  0.00    -0.237 OA
ATOM     18  H   UNL d   1       2.914  -0.776  -2.058  0.00  0.00     0.192 HD
BRANCH  16  19
ATOM     19  O   UNL d   1       4.592  -2.404  -2.365  0.00  0.00    -0.303 OA
BRANCH  19  20
ATOM     20  C   UNL d   1       5.664  -3.361  -2.332  0.00  0.00     0.176 C 
ATOM     21  C   UNL d   1       6.650  -3.037  -1.222  0.00  0.00     0.034 C 
ENDBRANCH  19  20
ENDBRANCH  16  19
ENDBRANCH  13  15
ENDBRANCH   1  13
TORSDOF 7
