REMARK  10 active torsions:
REMARK  status: ('A' for Active; 'I' for Inactive)
REMARK    1  A    between atoms: O_15  and  C_1 
REMARK    2  A    between atoms: C_3  and  C_2 
REMARK    3  A    between atoms: S_4  and  C_3 
REMARK    4  A    between atoms: C_7  and  C_3 
REMARK    5  A    between atoms: C_11  and  S_4 
REMARK    6  A    between atoms: O_17  and  C_5 
REMARK    7  A    between atoms: O_18  and  C_6 
REMARK    8  A    between atoms: C_8  and  C_7 
REMARK    9  A    between atoms: C_14  and  C_8 
REMARK   10  A    between atoms: N_16  and  C_12 
ROOT
ATOM      1  C   UNL d   1      -2.732   0.535  -0.420  0.00  0.00     0.092 C 
ENDROOT
BRANCH   1   2
ATOM      2  C   UNL d   1      -1.305   0.059  -0.095  0.00  0.00    -0.038 C 
ATOM      3  C   UNL d   1      -0.252   0.071  -1.014  0.00  0.00     0.048 C 
ATOM      4  C   UNL d   1       0.984  -0.520  -0.744  0.00  0.00     0.104 C 
ATOM      5  C   UNL d   1       1.188  -1.193   0.463  0.00  0.00     0.135 C 
ATOM      6  C   UNL d   1       0.197  -1.113   1.460  0.00  0.00     0.104 C 
ATOM      7  C   UNL d   1      -1.033  -0.497   1.172  0.00  0.00     0.048 C 
BRANCH   4   8
ATOM      8  O   UNL d   1       1.919  -0.299  -1.719  0.00  0.00    -0.353 OA
ATOM      9  C   UNL d   1       2.595  -1.457  -2.183  0.00  0.00     0.210 C 
ENDBRANCH   4   8
BRANCH   5  10
ATOM     10  O   UNL d   1       2.383  -1.833   0.671  0.00  0.00    -0.351 OA
ATOM     11  C   UNL d   1       2.230  -3.218   0.997  0.00  0.00     0.210 C 
ENDBRANCH   5  10
BRANCH   6  12
ATOM     12  O   UNL d   1       0.486  -1.685   2.675  0.00  0.00    -0.353 OA
ATOM     13  C   UNL d   1      -0.228  -1.185   3.800  0.00  0.00     0.210 C 
ENDBRANCH   6  12
ENDBRANCH   1   2
BRANCH   1  14
ATOM     14  S   UNL d   1      -2.956   1.370  -2.074  0.00  0.00    -0.118 SA
BRANCH  14  15
ATOM     15  C   UNL d   1      -1.898   2.819  -1.947  0.00  0.00     0.022 C 
ATOM     16  C   UNL d   1      -2.093   3.847  -1.006  0.00  0.00     0.022 C 
ATOM     17  C   UNL d   1      -1.133   4.865  -0.914  0.00  0.00     0.024 C 
ATOM     18  C   UNL d   1      -0.070   4.940  -1.817  0.00  0.00     0.002 C 
ATOM     19  C   UNL d   1       0.056   3.985  -2.819  0.00  0.00     0.001 C 
ATOM     20  C   UNL d   1      -0.862   2.938  -2.890  0.00  0.00     0.020 C 
BRANCH  16  21
ATOM     21  N   UNL d   1      -3.113   3.783  -0.035  0.00  0.00    -0.302 NA
ATOM     22  H   UNL d   1      -3.910   3.244  -0.378  0.00  0.00     0.124 HD
ATOM     23  H   UNL d   1      -3.399   4.699   0.295  0.00  0.00     0.124 HD
ENDBRANCH  16  21
ENDBRANCH  14  15
ENDBRANCH   1  14
BRANCH   1  24
ATOM     24  C   UNL d   1      -3.640  -0.721  -0.377  0.00  0.00     0.104 C 
BRANCH  24  25
ATOM     25  C   UNL d   1      -5.136  -0.493  -0.506  0.00  0.00     0.161 C 
ATOM     26  O   UNL d   1      -5.641   0.627  -0.502  0.00  0.00    -0.292 OA
BRANCH  25  27
ATOM     27  C   UNL d   1      -6.027  -1.703  -0.561  0.00  0.00     0.010 A 
ATOM     28  C   UNL d   1      -5.556  -2.998  -0.310  0.00  0.00     0.015 A 
ATOM     29  C   UNL d   1      -6.434  -4.088  -0.306  0.00  0.00     0.001 A 
ATOM     30  C   UNL d   1      -7.791  -3.887  -0.560  0.00  0.00     0.000 A 
ATOM     31  C   UNL d   1      -8.267  -2.607  -0.830  0.00  0.00     0.001 A 
ATOM     32  C   UNL d   1      -7.390  -1.517  -0.830  0.00  0.00     0.015 A 
ENDBRANCH  25  27
ENDBRANCH  24  25
ENDBRANCH   1  24
TORSDOF 10
