REMARK  9 active torsions:
REMARK  status: ('A' for Active; 'I' for Inactive)
REMARK    1  A    between atoms: C_4  and  C_1 
REMARK    2  A    between atoms: N_2  and  C_4 
REMARK    3  A    between atoms: C_10  and  N_3 
REMARK    4  A    between atoms: C_7  and  C_8 
REMARK    5  A    between atoms: C_18  and  C_10 
REMARK    6  A    between atoms: O_13  and  C_22 
REMARK    7  A    between atoms: C_19  and  O_13 
REMARK    8  A    between atoms: C_22  and  C_18 
REMARK    9  A    between atoms: O_25  and  C_18 
ROOT
ATOM      1  N   UNL d   1      -1.009   3.156  -0.349  0.00  0.00     0.096 N 
ATOM      2  N   UNL d   1      -3.835   2.186  -0.960  0.00  0.00     0.094 N 
ATOM      3  C   UNL d   1      -2.071   3.098   0.670  0.00  0.00     0.303 C 
ATOM      4  C   UNL d   1      -1.628   3.280  -1.684  0.00  0.00     0.303 C 
ATOM      5  C   UNL d   1      -3.202   2.078   0.378  0.00  0.00     0.302 C 
ATOM      6  C   UNL d   1      -2.771   2.277  -1.984  0.00  0.00     0.302 C 
ENDROOT
BRANCH   2   7
ATOM      7  C   UNL d   1      -4.787   3.310  -1.005  0.00  0.00     0.306 C 
BRANCH   7   8
ATOM      8  C   UNL d   1      -5.717   3.397  -2.244  0.00  0.00     0.170 C 
BRANCH   8   9
ATOM      9  C   UNL d   1      -6.521   2.107  -2.507  0.00  0.00     0.209 C 
BRANCH   9  10
ATOM     10  O   UNL d   1      -7.327   2.298  -3.684  0.00  0.00    -0.349 OA
BRANCH  10  11
ATOM     11  C   UNL d   1      -8.047   1.227  -4.145  0.00  0.00     0.068 A 
ATOM     12  C   UNL d   1      -8.146  -0.016  -3.529  0.00  0.00     0.037 A 
ATOM     13  C   UNL d   1      -8.905  -1.037  -4.120  0.00  0.00     0.018 A 
ATOM     14  C   UNL d   1      -9.582  -0.825  -5.329  0.00  0.00     0.009 A 
ATOM     15  C   UNL d   1      -9.487   0.424  -5.944  0.00  0.00     0.018 A 
ATOM     16  C   UNL d   1      -8.729   1.441  -5.348  0.00  0.00     0.037 A 
BRANCH  14  17
ATOM     17  C   UNL d   1     -10.353  -1.968  -5.905  0.00  0.00     0.155 C 
ATOM     18  O   UNL d   1     -10.107  -3.112  -5.522  0.00  0.00    -0.293 OA
ATOM     19  C   UNL d   1     -11.422  -1.725  -6.939  0.00  0.00     0.096 C 
ENDBRANCH  14  17
ENDBRANCH  10  11
ENDBRANCH   9  10
ENDBRANCH   8   9
BRANCH   8  20
ATOM     20  O   UNL d   1      -6.612   4.508  -2.031  0.00  0.00    -0.392 OA
ATOM     21  H   UNL d   1      -7.343   4.200  -1.469  0.00  0.00     0.210 HD
ENDBRANCH   8  20
ENDBRANCH   7   8
ENDBRANCH   2   7
BRANCH   1  22
ATOM     22  C   UNL d   1      -0.072   2.020  -0.282  0.00  0.00     0.316 C 
BRANCH  22  23
ATOM     23  C   UNL d   1       0.885   2.074   0.892  0.00  0.00     0.030 A 
ATOM     24  C   UNL d   1       0.884   1.030   1.826  0.00  0.00     0.126 A 
ATOM     25  F   UNL d   1       0.024   0.011   1.688  0.00  0.00    -0.205 F 
ATOM     26  C   UNL d   1       1.769   0.997   2.906  0.00  0.00     0.043 A 
ATOM     27  C   UNL d   1       2.686   2.028   3.082  0.00  0.00     0.005 A 
ATOM     28  C   UNL d   1       2.715   3.077   2.164  0.00  0.00     0.024 A 
ATOM     29  C   UNL d   1       1.831   3.097   1.073  0.00  0.00     0.045 A 
ATOM     30 CL   UNL d   1       1.998   4.408  -0.043  0.00  0.00    -0.084 Cl
ENDBRANCH  22  23
ENDBRANCH   1  22
TORSDOF 9
