REMARK  1 active torsions:
REMARK  status: ('A' for Active; 'I' for Inactive)
REMARK    1  A    between atoms: C_5  and  C_2 
ROOT
ATOM      1  C   UNL d   1      -0.016   0.691   0.033  0.00  0.00     0.103 A 
ATOM      2  C   UNL d   1      -2.438   0.745   0.044  0.00  0.00     0.012 A 
ATOM      3  C   UNL d   1      -1.209   1.414   0.081  0.00  0.00     0.054 A 
ATOM      4  C   UNL d   1      -0.032  -0.704  -0.023  0.00  0.00     0.102 A 
ATOM      5  O   UNL d   1       1.139   1.431   0.054  0.00  0.00    -0.346 OA
ATOM      6  O   UNL d   1       1.106  -1.468  -0.047  0.00  0.00    -0.346 OA
ATOM      7  C   UNL d   1      -2.444  -0.659  -0.033  0.00  0.00     0.018 A 
ATOM      8  C   UNL d   1      -1.247  -1.380  -0.068  0.00  0.00     0.040 A 
ATOM      9  C   UNL d   1       2.268   0.647  -0.347  0.00  0.00     0.202 C 
ATOM     10  C   UNL d   1       2.256  -0.707   0.343  0.00  0.00     0.202 C 
ENDROOT
BRANCH   2  11
ATOM     11  C   UNL d   1      -3.756   1.452   0.077  0.00  0.00     0.155 C 
ATOM     12  O   UNL d   1      -4.792   0.787   0.044  0.00  0.00    -0.293 OA
ATOM     13  C   UNL d   1      -3.837   2.957   0.148  0.00  0.00     0.096 C 
ENDBRANCH   2  11
TORSDOF 1
