REMARK  4 active torsions:
REMARK  status: ('A' for Active; 'I' for Inactive)
REMARK    1  A    between atoms: C_6  and  N_1 
REMARK    2  A    between atoms: S_10  and  C_2 
REMARK    3  A    between atoms: C_15  and  S_10 
REMARK    4  A    between atoms: C_12  and  C_15 
ROOT
ATOM      1  N   UNL d   1       1.013  -0.656  -0.096  0.00  0.00    -0.241 N 
ATOM      2  C   UNL d   1       0.962   0.694   0.099  0.00  0.00     0.170 A 
ATOM      3  C   UNL d   1      -0.306  -1.043  -0.251  0.00  0.00     0.347 A 
ATOM      4  N   UNL d   1      -0.241   1.200   0.088  0.00  0.00    -0.275 N 
ATOM      5  HN  UNL d   1      -0.512   2.175   0.214  1.00  0.00     0.189 HD
ATOM      6  N   UNL d   1      -1.052   0.127  -0.132  0.00  0.00    -0.249 N 
ATOM      7  O   UNL d   1      -0.783  -2.154  -0.404  0.00  0.00    -0.245 OA
ATOM      8  H   UNL d   1      -2.062   0.181  -0.131  0.00  0.00     0.192 HD
ENDROOT
BRANCH   1   9
ATOM      9  C   UNL d   1       2.063  -1.584   0.018  0.00  0.00     0.049 A 
ATOM     10  C   UNL d   1       2.926  -1.581   1.122  0.00  0.00     0.069 A 
ATOM     11  C   UNL d   1       3.856  -2.614   1.284  0.00  0.00     0.104 A 
ATOM     12  O   UNL d   1       4.618  -2.583   2.425  0.00  0.00    -0.346 OA
ATOM     13  C   UNL d   1       3.947  -3.639   0.336  0.00  0.00     0.102 A 
ATOM     14  C   UNL d   1       5.718  -3.498   2.349  0.00  0.00     0.202 C 
ATOM     15  C   UNL d   1       5.274  -4.843   1.798  0.00  0.00     0.202 C 
ATOM     16  O   UNL d   1       4.805  -4.702   0.453  0.00  0.00    -0.346 OA
ATOM     17  C   UNL d   1       3.131  -3.620  -0.788  0.00  0.00     0.042 A 
ATOM     18  C   UNL d   1       2.175  -2.612  -0.931  0.00  0.00     0.033 A 
ENDBRANCH   1   9
BRANCH   2  19
ATOM     19  S   UNL d   1       2.391   1.677   0.217  0.00  0.00    -0.087 SA
BRANCH  19  20
ATOM     20  C   UNL d   1       1.632   3.331   0.155  0.00  0.00     0.122 C 
BRANCH  20  21
ATOM     21  C   UNL d   1       2.631   4.467   0.225  0.00  0.00    -0.027 A 
ATOM     22  C   UNL d   1       3.154   4.945   1.438  0.00  0.00     0.041 A 
ATOM     23 CL   UNL d   1       2.741   4.228   2.956  0.00  0.00    -0.084 Cl
ATOM     24  C   UNL d   1       4.018   6.047   1.461  0.00  0.00     0.024 A 
ATOM     25  C   UNL d   1       4.378   6.686   0.276  0.00  0.00     0.002 A 
ATOM     26  C   UNL d   1       3.884   6.217  -0.937  0.00  0.00     0.001 A 
ATOM     27  C   UNL d   1       3.022   5.116  -0.965  0.00  0.00     0.009 A 
ENDBRANCH  20  21
ENDBRANCH  19  20
ENDBRANCH   2  19
TORSDOF 4
