REMARK  9 active torsions:
REMARK  status: ('A' for Active; 'I' for Inactive)
REMARK    1  A    between atoms: O_2  and  S_1 
REMARK    2  A    between atoms: C_7  and  S_1 
REMARK    3  A    between atoms: C_4  and  O_2 
REMARK    4  A    between atoms: C_3  and  N_16 
REMARK    5  A    between atoms: N_6  and  C_3 
REMARK    6  A    between atoms: C_5  and  N_6 
REMARK    7  A    between atoms: O_28  and  C_8 
REMARK    8  A    between atoms: N_16  and  N_12 
REMARK    9  A    between atoms: C_23  and  C_24 
ROOT
ATOM      1  C   UNL d   1       0.735  -2.433   0.468  0.00  0.00     0.123 A 
ATOM      2  C   UNL d   1       2.032  -2.825   0.113  0.00  0.00     0.103 A 
ATOM      3  C   UNL d   1       2.290  -4.128  -0.318  0.00  0.00     0.052 A 
ATOM      4  C   UNL d   1      -0.277  -3.397   0.518  0.00  0.00     0.042 A 
ATOM      5  C   UNL d   1       1.266  -5.075  -0.290  0.00  0.00    -0.017 A 
ATOM      6  C   UNL d   1      -0.010  -4.724   0.155  0.00  0.00     0.016 A 
ENDROOT
BRANCH   5   7
ATOM      7  C   UNL d   1       1.542  -6.464  -0.701  0.00  0.00     0.118 C 
ATOM      8  N   UNL d   1       2.341  -6.707  -1.690  0.00  0.00    -0.309 N 
ATOM      9  HN  UNL d   1       2.736  -5.959  -2.261  1.00  0.00     0.186 HD
BRANCH   8  10
ATOM     10  N   UNL d   1       2.625  -8.019  -1.923  0.00  0.00    -0.276 N 
ATOM     11  H   UNL d   1       2.668  -8.658  -1.137  0.00  0.00     0.189 HD
BRANCH  10  12
ATOM     12  C   UNL d   1       3.031  -8.443  -3.162  0.00  0.00     0.191 C 
ATOM     13  S   UNL d   1       2.448  -7.839  -4.612  0.00  0.00    -0.039 SA
BRANCH  12  14
ATOM     14  N   UNL d   1       3.916  -9.484  -3.218  0.00  0.00    -0.331 N 
ATOM     15  H   UNL d   1       3.954  -9.924  -4.136  0.00  0.00     0.168 HD
BRANCH  14  16
ATOM     16  C   UNL d   1       5.033  -9.781  -2.394  0.00  0.00     0.057 A 
ATOM     17  C   UNL d   1       5.415  -8.994  -1.302  0.00  0.00     0.055 A 
ATOM     18  C   UNL d   1       6.579  -9.295  -0.588  0.00  0.00     0.036 A 
ATOM     19 CL   UNL d   1       7.034  -8.312   0.751  0.00  0.00    -0.084 Cl
ATOM     20  C   UNL d   1       7.388 -10.368  -0.956  0.00  0.00     0.026 A 
ATOM     21  C   UNL d   1       7.030 -11.153  -2.050  0.00  0.00     0.028 A 
ATOM     22  C   UNL d   1       5.862 -10.862  -2.762  0.00  0.00     0.060 A 
ATOM     23 CL   UNL d   1       5.484 -11.854  -4.130  0.00  0.00    -0.082 Cl
ENDBRANCH  14  16
ENDBRANCH  12  14
ENDBRANCH  10  12
ENDBRANCH   8  10
ENDBRANCH   5   7
BRANCH   2  24
ATOM     24  O   UNL d   1       3.092  -1.955   0.134  0.00  0.00    -0.353 OA
ATOM     25  C   UNL d   1       3.436  -1.609   1.479  0.00  0.00     0.210 C 
ENDBRANCH   2  24
BRANCH   1  26
ATOM     26  O   UNL d   1       0.543  -1.101   0.757  0.00  0.00    -0.226 OA
BRANCH  26  27
ATOM     27  S   UNL d   1      -0.898  -0.380   0.522  0.00  0.00     0.303 S 
ATOM     28  O   UNL d   1      -1.696  -0.598   1.716  0.00  0.00    -0.193 OA
ATOM     29  O   UNL d   1      -1.411  -0.728  -0.791  0.00  0.00    -0.193 OA
BRANCH  27  30
ATOM     30  C   UNL d   1      -0.545   1.364   0.456  0.00  0.00     0.086 A 
ATOM     31  C   UNL d   1       0.705   1.827   0.045  0.00  0.00     0.026 A 
ATOM     32  C   UNL d   1       0.932   3.207  -0.022  0.00  0.00     0.008 A 
ATOM     33  C   UNL d   1      -0.082   4.117   0.315  0.00  0.00    -0.062 A 
ATOM     34  C   UNL d   1      -1.325   3.634   0.740  0.00  0.00     0.008 A 
ATOM     35  C   UNL d   1       0.171   5.595   0.220  0.00  0.00     0.048 C 
ATOM     36  C   UNL d   1      -1.559   2.260   0.814  0.00  0.00     0.026 A 
ENDBRANCH  27  30
ENDBRANCH  26  27
ENDBRANCH   1  26
TORSDOF 9
