REMARK  6 active torsions:
REMARK  status: ('A' for Active; 'I' for Inactive)
REMARK       I    between atoms: C_2  and  N_9 
REMARK    1  A    between atoms: C_16  and  C_2 
REMARK    2  A    between atoms: C_6  and  C_7 
REMARK    3  A    between atoms: N_9  and  C_19 
REMARK    4  A    between atoms: S_11  and  C_16 
REMARK    5  A    between atoms: C_17  and  S_11 
REMARK    6  A    between atoms: C_19  and  C_18 
ROOT
ATOM      1  C   UNL d   1       6.000  -1.135   0.109  0.00  0.00     0.227 C 
ATOM      2  N   UNL d   1       6.201  -2.201   0.955  0.00  0.00    -0.356 N 
ATOM      3  O   UNL d   1       4.935  -0.932  -0.466  0.00  0.00    -0.273 OA
ATOM      4  H   UNL d   1       7.124  -2.318   1.355  0.00  0.00     0.162 HD
ENDROOT
BRANCH   1   5
ATOM      5  C   UNL d   1       7.168  -0.157  -0.010  0.00  0.00     0.182 C 
BRANCH   5   6
ATOM      6  S   UNL d   1       8.759  -1.052   0.035  0.00  0.00    -0.121 SA
BRANCH   6   7
ATOM      7  C   UNL d   1       9.993   0.227  -0.073  0.00  0.00     0.001 A 
ATOM      8  C   UNL d   1       9.761   1.592  -0.239  0.00  0.00     0.019 A 
ATOM      9  C   UNL d   1      10.835   2.498  -0.295  0.00  0.00     0.009 A 
ATOM     10  C   UNL d   1      12.171   2.071  -0.187  0.00  0.00    -0.051 A 
ATOM     11  C   UNL d   1      12.384   0.692  -0.042  0.00  0.00     0.009 A 
ATOM     12  C   UNL d   1      11.317  -0.208   0.015  0.00  0.00     0.019 A 
BRANCH  10  13
ATOM     13  C   UNL d   1      13.335   3.078  -0.225  0.00  0.00    -0.024 C 
ATOM     14  C   UNL d   1      14.717   2.405  -0.045  0.00  0.00     0.019 C 
ATOM     15  C   UNL d   1      13.348   3.823  -1.576  0.00  0.00     0.019 C 
ATOM     16  C   UNL d   1      13.190   4.118   0.907  0.00  0.00     0.019 C 
ENDBRANCH  10  13
ENDBRANCH   6   7
ENDBRANCH   5   6
ENDBRANCH   1   5
BRANCH   2  17
ATOM     17  C   UNL d   1       5.243  -3.268   1.110  0.00  0.00     0.161 C 
BRANCH  17  18
ATOM     18  C   UNL d   1       4.407  -3.089   2.349  0.00  0.00    -0.038 A 
ATOM     19  C   UNL d   1       4.833  -3.624   3.574  0.00  0.00     0.048 A 
ATOM     20  C   UNL d   1       4.028  -3.441   4.677  0.00  0.00     0.105 A 
ATOM     21  C   UNL d   1       2.839  -2.755   4.602  0.00  0.00     0.105 A 
ATOM     22  O   UNL d   1       4.288  -3.896   5.931  0.00  0.00    -0.323 OA
ATOM     23  O   UNL d   1       2.200  -2.695   5.801  0.00  0.00    -0.323 OA
ATOM     24  C   UNL d   1       2.391  -2.206   3.421  0.00  0.00     0.040 A 
ATOM     25  C   UNL d   1       3.147  -3.379   6.647  0.00  0.00     0.352 A 
ATOM     26  C   UNL d   1       3.190  -2.370   2.286  0.00  0.00     0.012 A 
ENDBRANCH  17  18
ENDBRANCH   2  17
TORSDOF 6
