REMARK  4 active torsions:
REMARK  status: ('A' for Active; 'I' for Inactive)
REMARK    1  A    between atoms: C_4  and  C_1 
REMARK    2  A    between atoms: C_5  and  N_3 
REMARK    3  A    between atoms: C_6  and  C_5 
REMARK    4  A    between atoms: C_11  and  C_6 
ROOT
ATOM      1  C   UNL d   1      -0.995   0.224   1.205  0.00  0.00     0.115 C 
ATOM      2  C   UNL d   1       0.281   0.966   1.040  0.00  0.00     0.263 C 
ATOM      3  N   UNL d   1       1.059   0.624  -0.073  0.00  0.00    -0.317 N 
ATOM      4  C   UNL d   1      -1.387  -0.628   0.235  0.00  0.00     0.023 C 
ATOM      5  C   UNL d   1       0.598  -0.230  -1.058  0.00  0.00     0.095 C 
ATOM      6  O   UNL d   1       0.636   1.811   1.854  0.00  0.00    -0.267 OA
ATOM      7  C   UNL d   1      -0.591  -0.835  -0.944  0.00  0.00     0.018 C 
ENDROOT
BRANCH   3   8
ATOM      8  C   UNL d   1       2.368   1.264  -0.224  0.00  0.00     0.215 C 
BRANCH   8   9
ATOM      9  C   UNL d   1       3.516   0.285  -0.453  0.00  0.00     0.177 C 
ATOM     10  O   UNL d   1       3.763  -0.203  -1.555  0.00  0.00    -0.291 OA
BRANCH   9  11
ATOM     11  C   UNL d   1       4.357  -0.104   0.706  0.00  0.00     0.011 A 
ATOM     12  C   UNL d   1       3.791  -0.397   1.950  0.00  0.00     0.017 A 
ATOM     13  C   UNL d   1       4.615  -0.767   3.018  0.00  0.00     0.025 A 
ATOM     14  C   UNL d   1       5.997  -0.836   2.839  0.00  0.00     0.034 A 
ATOM     15  C   UNL d   1       6.564  -0.558   1.596  0.00  0.00     0.025 A 
ATOM     16 CL   UNL d   1       7.007  -1.268   4.162  0.00  0.00    -0.084 Cl
ATOM     17  C   UNL d   1       5.742  -0.202   0.523  0.00  0.00     0.017 A 
ENDBRANCH   9  11
ENDBRANCH   8   9
ENDBRANCH   3   8
BRANCH   1  18
ATOM     18  C   UNL d   1      -1.760   0.410   2.463  0.00  0.00     0.422 C 
ATOM     19  F   UNL d   1      -1.221   1.244   3.384  0.00  0.00    -0.166 F 
ATOM     20  F   UNL d   1      -3.016   0.871   2.213  0.00  0.00    -0.166 F 
ATOM     21  F   UNL d   1      -1.926  -0.786   3.097  0.00  0.00    -0.166 F 
ENDBRANCH   1  18
TORSDOF 4
