REMARK  4 active torsions:
REMARK  status: ('A' for Active; 'I' for Inactive)
REMARK    1  A    between atoms: C_6  and  C_1 
REMARK    2  A    between atoms: C_2  and  C_9 
REMARK    3  A    between atoms: N_3  and  C_4 
REMARK    4  A    between atoms: N_21  and  C_5 
ROOT
ATOM      1  C   UNL d   1      -0.079   2.931   3.081  0.00  0.00     0.051 A 
ATOM      2  C   UNL d   1       0.084   1.536   3.329  0.00  0.00     0.033 A 
ATOM      3  C   UNL d   1       0.549   1.109   0.969  0.00  0.00     0.049 A 
ATOM      4  C   UNL d   1       0.466   0.671   2.293  0.00  0.00     0.041 A 
ATOM      5  C   UNL d   1       0.003   3.344   1.739  0.00  0.00     0.032 A 
ATOM      6  C   UNL d   1       0.292   2.455   0.697  0.00  0.00     0.018 A 
ENDROOT
BRANCH   1   7
ATOM      7  N   UNL d   1      -0.333   3.853   4.096  0.00  0.00    -0.379 N 
ATOM      8  C   UNL d   1      -1.247   4.973   3.891  0.00  0.00     0.123 C 
ATOM      9  C   UNL d   1      -0.484   6.284   4.028  0.00  0.00     0.033 C 
ATOM     10  C   UNL d   1       0.229   6.390   5.383  0.00  0.00     0.096 C 
ATOM     11  C   UNL d   1       1.153   5.176   5.569  0.00  0.00     0.033 C 
ATOM     12  C   UNL d   1       0.445   3.833   5.340  0.00  0.00     0.123 C 
BRANCH  10  13
ATOM     13  C   UNL d   1      -0.736   6.568   6.554  0.00  0.00     0.391 C 
ATOM     14  F   UNL d   1      -1.950   7.000   6.148  0.00  0.00    -0.171 F 
ATOM     15  F   UNL d   1      -0.929   5.437   7.263  0.00  0.00    -0.171 F 
ATOM     16  F   UNL d   1      -0.254   7.496   7.415  0.00  0.00    -0.171 F 
ENDBRANCH  10  13
ENDBRANCH   1   7
BRANCH   2  17
ATOM     17  N   UNL d   1       0.011   1.009   4.638  0.00  0.00    -0.301 NA
ATOM     18  H   UNL d   1      -0.202   0.016   4.661  0.00  0.00     0.124 HD
ATOM     19  H   UNL d   1      -0.659   1.554   5.184  0.00  0.00     0.124 HD
ENDBRANCH   2  17
BRANCH   3  20
ATOM     20  C   UNL d   1       0.900   0.162  -0.150  0.00  0.00     0.417 C 
ATOM     21  F   UNL d   1       1.205  -1.099   0.273  0.00  0.00    -0.166 F 
ATOM     22  F   UNL d   1       1.973   0.577  -0.878  0.00  0.00    -0.166 F 
ATOM     23  F   UNL d   1      -0.120   0.014  -1.043  0.00  0.00    -0.166 F 
ENDBRANCH   3  20
TORSDOF 4
