REMARK  1 active torsions:
REMARK  status: ('A' for Active; 'I' for Inactive)
REMARK    1  A    between atoms: N_4  and  C_1 
REMARK       I    between atoms: C_7  and  N_4 
ROOT
ATOM      1  C   UNL d   1       0.792   1.139  -0.038  0.00  0.00     0.151 A 
ATOM      2  N   UNL d   1      -0.518   1.195   0.046  0.00  0.00    -0.340 N 
ATOM      3  HN  UNL d   1      -1.064   2.053   0.121  1.00  0.00     0.167 HD
ATOM      4  S   UNL d   1       1.468  -0.422  -0.082  0.00  0.00    -0.064 SA
ATOM      5  C   UNL d   1      -1.047  -0.087   0.016  0.00  0.00     0.014 A 
ATOM      6  C   UNL d   1      -0.105  -1.096  -0.035  0.00  0.00     0.077 A 
ATOM      7  C   UNL d   1      -2.521  -0.262   0.033  0.00  0.00     0.068 C 
ENDROOT
BRANCH   1   8
ATOM      8  N   UNL d   1       1.546   2.284  -0.052  0.00  0.00    -0.307 N 
ATOM      9  C   UNL d   1       2.892   2.380  -0.307  0.00  0.00     0.219 C 
ATOM     10  O   UNL d   1       3.663   1.472  -0.599  0.00  0.00    -0.274 OA
ATOM     11  C   UNL d   1       3.403   3.798  -0.226  0.00  0.00     0.117 C 
ATOM     12  H   UNL d   1       0.987   3.119   0.050  0.00  0.00     0.171 HD
ENDBRANCH   1   8
TORSDOF 1
