REMARK  4 active torsions:
REMARK  status: ('A' for Active; 'I' for Inactive)
REMARK    1  A    between atoms: N_3  and  C_1 
REMARK    2  A    between atoms: S_8  and  C_4 
REMARK    3  A    between atoms: C_5  and  S_8 
REMARK    4  A    between atoms: C_17  and  C_12 
ROOT
ATOM      1  C   UNL d   1       1.564  -3.623  -0.111  0.00  0.00     0.151 A 
ATOM      2  N   UNL d   1       1.934  -4.426  -1.127  0.00  0.00    -0.336 N 
ATOM      3  HN  UNL d   1       1.331  -4.567  -1.938  1.00  0.00     0.168 HD
ATOM      4  C   UNL d   1       3.136  -5.037  -1.032  0.00  0.00     0.047 A 
ATOM      5  N   UNL d   1       2.287  -3.413   1.002  0.00  0.00    -0.346 N 
ATOM      6  HN  UNL d   1       1.951  -2.818   1.759  1.00  0.00     0.167 HD
ATOM      7  C   UNL d   1       3.951  -4.859   0.072  0.00  0.00     0.047 A 
ATOM      8  C   UNL d   1       3.477  -4.030   1.060  0.00  0.00     0.092 A 
ENDROOT
BRANCH   1   9
ATOM      9  S   UNL d   1      -0.089  -2.992  -0.126  0.00  0.00    -0.029 SA
BRANCH   9  10
ATOM     10  C   UNL d   1       0.153  -1.503  -1.007  0.00  0.00     0.121 A 
ATOM     11  S   UNL d   1      -1.182  -0.452  -1.310  0.00  0.00    -0.039 SA
ATOM     12  C   UNL d   1      -0.141   0.600  -2.139  0.00  0.00     0.161 A 
ATOM     13  C   UNL d   1       1.145   0.117  -2.140  0.00  0.00     0.133 A 
ATOM     14  N   UNL d   1       1.311  -1.093  -1.484  0.00  0.00    -0.352 N 
ATOM     15  HN  UNL d   1       2.196  -1.591  -1.386  1.00  0.00     0.166 HD
BRANCH  12  16
ATOM     16  N   UNL d   1      -0.612   1.812  -2.733  0.00  0.00    -0.107 N 
ATOM     17  O   UNL d   1       0.236   2.497  -3.322  0.00  0.00    -0.531 OA
ATOM     18  O   UNL d   1      -1.811   2.092  -2.621  0.00  0.00    -0.531 OA
ENDBRANCH  12  16
ENDBRANCH   9  10
ENDBRANCH   1   9
BRANCH   4  19
ATOM     19  C   UNL d   1       3.526  -5.880  -2.176  0.00  0.00     0.006 A 
ATOM     20  C   UNL d   1       3.094  -5.592  -3.472  0.00  0.00     0.101 A 
ATOM     21  N   UNL d   1       3.456  -6.277  -4.588  0.00  0.00    -0.374 N 
ATOM     22  C   UNL d   1       4.286  -7.324  -4.414  0.00  0.00     0.087 A 
ATOM     23  HN  UNL d   1       3.116  -6.012  -5.513  1.00  0.00     0.164 HD
ATOM     24  C   UNL d   1       4.756  -7.726  -3.178  0.00  0.00     0.018 A 
ATOM     25  C   UNL d   1       4.366  -6.999  -2.052  0.00  0.00     0.016 A 
ENDBRANCH   4  19
TORSDOF 4
