REMARK  3 active torsions:
REMARK  status: ('A' for Active; 'I' for Inactive)
REMARK    1  A    between atoms: C_2  and  N_1 
REMARK    2  A    between atoms: S_5  and  C_3 
REMARK    3  A    between atoms: C_13  and  S_5 
ROOT
ATOM      1  C   UNL d   1       0.244  -1.006  -0.799  0.00  0.00     0.121 A 
ATOM      2  C   UNL d   1      -0.811  -0.326  -1.421  0.00  0.00     0.034 A 
ATOM      3  N   UNL d   1       0.388  -5.502  -2.632  0.00  0.00    -0.191 NA
ATOM      4  C   UNL d   1       0.129  -4.404  -2.370  0.00  0.00     0.099 C 
ATOM      5  C   UNL d   1       0.580  -2.338  -1.116  0.00  0.00     0.060 A 
ATOM      6  C   UNL d   1      -1.584  -1.077  -2.328  0.00  0.00     0.023 A 
ATOM      7  C   UNL d   1      -0.190  -3.043  -2.041  0.00  0.00     0.047 A 
ATOM      8  C   UNL d   1      -1.286  -2.414  -2.632  0.00  0.00     0.024 A 
ENDROOT
BRANCH   1   9
ATOM      9  N   UNL d   1       1.008  -0.405   0.269  0.00  0.00    -0.114 N 
ATOM     10  O   UNL d   1       0.407  -0.139   1.316  0.00  0.00    -0.532 OA
ATOM     11  O   UNL d   1       2.219  -0.245   0.067  0.00  0.00    -0.532 OA
ENDBRANCH   1   9
BRANCH   2  12
ATOM     12  S   UNL d   1      -1.387   1.358  -1.204  0.00  0.00    -0.123 SA
BRANCH  12  13
ATOM     13  C   UNL d   1       0.108   2.410  -0.956  0.00  0.00     0.044 C 
ATOM     14  C   UNL d   1       1.109   2.311  -2.103  0.00  0.00     0.021 C 
ATOM     15  C   UNL d   1      -0.372   3.858  -0.817  0.00  0.00     0.021 C 
ENDBRANCH  12  13
ENDBRANCH   2  12
TORSDOF 3
