REMARK  3 active torsions:
REMARK  status: ('A' for Active; 'I' for Inactive)
REMARK    1  A    between atoms: C_6  and  C_1 
REMARK    2  A    between atoms: C_5  and  C_2 
REMARK       I    between atoms: N_9  and  C_5 
REMARK    3  A    between atoms: N_13  and  N_9 
ROOT
ATOM      1  C   UNL d   1      -1.429  -0.582   0.196  0.00  0.00     0.086 A 
ATOM      2  C   UNL d   1      -0.125  -1.190   0.212  0.00  0.00     0.094 A 
ATOM      3  N   UNL d   1      -1.307   0.738  -0.038  0.00  0.00    -0.259 N 
ATOM      4  HN  UNL d   1      -2.070   1.404  -0.160  1.00  0.00     0.195 HD
ATOM      5  O   UNL d   1       0.029   1.020  -0.080  0.00  0.00    -0.241 OA
ATOM      6  C   UNL d   1       0.744  -0.121   0.064  0.00  0.00     0.090 A 
ATOM      7  C   UNL d   1       2.208   0.071   0.046  0.00  0.00     0.080 C 
ENDROOT
BRANCH   1   8
ATOM      8  C   UNL d   1      -2.784  -1.148   0.307  0.00  0.00     0.037 A 
ATOM      9  C   UNL d   1      -3.755  -0.535   1.139  0.00  0.00     0.048 A 
ATOM     10 CL   UNL d   1      -3.392   0.761   2.236  0.00  0.00    -0.083 Cl
ATOM     11  C   UNL d   1      -5.094  -0.956   1.131  0.00  0.00     0.025 A 
ATOM     12  C   UNL d   1      -5.491  -2.026   0.341  0.00  0.00     0.003 A 
ATOM     13  C   UNL d   1      -4.548  -2.672  -0.451  0.00  0.00     0.025 A 
ATOM     14  C   UNL d   1      -3.216  -2.225  -0.492  0.00  0.00     0.048 A 
ATOM     15 CL   UNL d   1      -2.209  -3.012  -1.663  0.00  0.00    -0.083 Cl
ENDBRANCH   1   8
BRANCH   2  16
ATOM     16  C   UNL d   1       0.245  -2.586   0.371  0.00  0.00     0.271 C 
ATOM     17  N   UNL d   1       1.307  -2.966  -0.458  0.00  0.00    -0.286 N 
ATOM     18  H   UNL d   1       1.609  -2.320  -1.179  0.00  0.00     0.184 HD
ATOM     19  O   UNL d   1      -0.359  -3.329   1.131  0.00  0.00    -0.266 OA
BRANCH  17  20
ATOM     20  N   UNL d   1       1.842  -4.270  -0.549  0.00  0.00    -0.237 NA
ATOM     21  C   UNL d   1       2.308  -4.807   0.726  0.00  0.00     0.135 C 
ATOM     22  C   UNL d   1       0.945  -5.194  -1.239  0.00  0.00     0.135 C 
ENDBRANCH  17  20
ENDBRANCH   2  16
TORSDOF 3
