REMARK  4 active torsions:
REMARK  status: ('A' for Active; 'I' for Inactive)
REMARK    1  A    between atoms: C_4  and  N_8 
REMARK       I    between atoms: C_7  and  N_8 
REMARK    2  A    between atoms: C_13  and  C_7 
REMARK    3  A    between atoms: S_11  and  C_13 
REMARK    4  A    between atoms: C_15  and  S_11 
ROOT
ATOM      1  C   UNL d   1       1.607  -0.795   5.796  0.00  0.00     0.227 C 
ATOM      2  N   UNL d   1       1.510  -0.504   4.454  0.00  0.00    -0.356 N 
ATOM      3  O   UNL d   1       0.616  -1.060   6.475  0.00  0.00    -0.273 OA
ATOM      4  H   UNL d   1       2.352  -0.445   3.896  0.00  0.00     0.162 HD
ENDROOT
BRANCH   2   5
ATOM      5  C   UNL d   1       0.319  -0.887   3.672  0.00  0.00     0.088 C 
ATOM      6  C   UNL d   1       0.180   0.012   2.400  0.00  0.00     0.061 C 
ATOM      7  C   UNL d   1       0.613  -0.662   1.018  0.00  0.00     0.225 C 
ATOM      8  N   UNL d   1       1.840  -1.160   1.688  0.00  0.00     0.093 N 
ATOM      9  C   UNL d   1       0.539  -1.936   0.092  0.00  0.00     0.038 C 
ATOM     10  C   UNL d   1       1.537  -2.516   2.154  0.00  0.00     0.225 C 
ATOM     11  C   UNL d   1       3.088  -0.959   0.976  0.00  0.00     0.310 C 
ATOM     12  C   UNL d   1       0.454  -2.366   3.257  0.00  0.00     0.061 C 
ATOM     13  C   UNL d   1       0.967  -3.154   0.905  0.00  0.00     0.038 C 
ENDBRANCH   2   5
BRANCH   1  14
ATOM     14  C   UNL d   1       3.030  -0.729   6.360  0.00  0.00     0.182 C 
BRANCH  14  15
ATOM     15  S   UNL d   1       3.213  -1.958   7.704  0.00  0.00    -0.121 SA
BRANCH  15  16
ATOM     16  C   UNL d   1       4.829  -1.662   8.403  0.00  0.00     0.001 A 
ATOM     17  C   UNL d   1       5.629  -0.542   8.164  0.00  0.00     0.018 A 
ATOM     18  C   UNL d   1       6.865  -0.403   8.804  0.00  0.00     0.001 A 
ATOM     19  C   UNL d   1       7.316  -1.379   9.694  0.00  0.00     0.000 A 
ATOM     20  C   UNL d   1       6.529  -2.498   9.943  0.00  0.00     0.001 A 
ATOM     21  C   UNL d   1       5.295  -2.634   9.302  0.00  0.00     0.018 A 
ENDBRANCH  15  16
ENDBRANCH  14  15
ENDBRANCH   1  14
TORSDOF 4
