REMARK  5 active torsions:
REMARK  status: ('A' for Active; 'I' for Inactive)
REMARK    1  A    between atoms: C_7  and  C_1 
REMARK    2  A    between atoms: C_8  and  C_2 
REMARK    3  A    between atoms: C_9  and  C_6 
REMARK    4  A    between atoms: N_10  and  C_11 
REMARK    5  A    between atoms: C_12  and  N_10 
ROOT
ATOM      1  C   UNL d   1      -0.188   0.810   0.111  0.00  0.00    -0.003 A 
ATOM      2  C   UNL d   1       0.536  -0.288   0.448  0.00  0.00    -0.003 A 
ATOM      3  C   UNL d   1      -1.621   0.441  -0.026  0.00  0.00    -0.013 A 
ATOM      4  C   UNL d   1      -0.398  -1.429   0.500  0.00  0.00    -0.013 A 
ATOM      5  C   UNL d   1      -1.701  -1.024   0.187  0.00  0.00    -0.014 A 
ATOM      6  C   UNL d   1      -2.600   1.344  -0.234  0.00  0.00     0.014 C 
ATOM      7  C   UNL d   1      -0.098  -2.756   0.790  0.00  0.00     0.013 A 
ATOM      8  C   UNL d   1      -2.711  -1.976   0.112  0.00  0.00     0.013 A 
ATOM      9  C   UNL d   1      -1.123  -3.699   0.757  0.00  0.00     0.001 A 
ATOM     10  C   UNL d   1      -2.421  -3.311   0.416  0.00  0.00     0.001 A 
ENDROOT
BRANCH   1  11
ATOM     11  C   UNL d   1       0.392   2.152  -0.041  0.00  0.00    -0.024 A 
ATOM     12  C   UNL d   1       0.896   2.570  -1.278  0.00  0.00     0.012 A 
ATOM     13  C   UNL d   1       1.428   3.853  -1.427  0.00  0.00     0.001 A 
ATOM     14  C   UNL d   1       1.459   4.726  -0.339  0.00  0.00     0.000 A 
ATOM     15  C   UNL d   1       0.960   4.317   0.897  0.00  0.00     0.001 A 
ATOM     16  C   UNL d   1       0.428   3.034   1.047  0.00  0.00     0.012 A 
ENDBRANCH   1  11
BRANCH   6  17
ATOM     17  C   UNL d   1      -4.022   1.082  -0.249  0.00  0.00     0.018 C 
ATOM     18  C   UNL d   1      -5.006   1.964  -0.482  0.00  0.00     0.090 C 
BRANCH  18  19
ATOM     19  N   UNL d   1      -6.382   1.720  -0.492  0.00  0.00    -0.361 N 
ATOM     20  C   UNL d   1      -6.959   0.375  -0.345  0.00  0.00     0.155 C 
BRANCH  19  21
ATOM     21  C   UNL d   1      -7.356   2.744  -0.667  0.00  0.00     0.033 A 
ATOM     22  C   UNL d   1      -7.118   3.847  -1.504  0.00  0.00     0.029 A 
ATOM     23  C   UNL d   1      -8.077   4.854  -1.674  0.00  0.00     0.002 A 
ATOM     24  C   UNL d   1      -9.297   4.781  -1.009  0.00  0.00     0.000 A 
ATOM     25  C   UNL d   1      -9.561   3.702  -0.175  0.00  0.00     0.002 A 
ATOM     26  C   UNL d   1      -8.600   2.699  -0.008  0.00  0.00     0.029 A 
ENDBRANCH  19  21
ENDBRANCH  18  19
ENDBRANCH   6  17
BRANCH   2  27
ATOM     27  C   UNL d   1       1.974  -0.333   0.729  0.00  0.00    -0.024 A 
ATOM     28  C   UNL d   1       2.431  -0.152   2.041  0.00  0.00     0.012 A 
ATOM     29  C   UNL d   1       3.789  -0.271   2.336  0.00  0.00     0.001 A 
ATOM     30  C   UNL d   1       4.698  -0.570   1.321  0.00  0.00     0.000 A 
ATOM     31  C   UNL d   1       4.250  -0.745   0.012  0.00  0.00     0.001 A 
ATOM     32  C   UNL d   1       2.891  -0.627  -0.285  0.00  0.00     0.012 A 
ENDBRANCH   2  27
TORSDOF 5
