REMARK  4 active torsions:
REMARK  status: ('A' for Active; 'I' for Inactive)
REMARK    1  A    between atoms: C_2  and  N_1 
REMARK    2  A    between atoms: N_7  and  N_3 
REMARK    3  A    between atoms: C_14  and  N_7 
REMARK    4  A    between atoms: C_10  and  C_11 
ROOT
ATOM      1  N   UNL d   1      -1.610   5.452  -2.537  0.00  0.00    -0.311 N 
ATOM      2  HN  UNL d   1      -0.808   5.178  -3.105  1.00  0.00     0.186 HD
ATOM      3  C   UNL d   1      -1.987   4.757  -1.514  0.00  0.00     0.118 C 
ENDROOT
BRANCH   1   4
ATOM      4  N   UNL d   1      -2.332   6.564  -2.816  0.00  0.00    -0.301 N 
ATOM      5  H   UNL d   1      -2.887   7.027  -2.102  0.00  0.00     0.187 HD
BRANCH   4   6
ATOM      6  C   UNL d   1      -1.863   7.398  -3.854  0.00  0.00     0.048 A 
ATOM      7  C   UNL d   1      -0.865   6.972  -4.745  0.00  0.00     0.031 A 
ATOM      8  C   UNL d   1      -0.455   7.769  -5.814  0.00  0.00     0.002 A 
ATOM      9  C   UNL d   1      -1.049   9.012  -6.018  0.00  0.00     0.000 A 
ATOM     10  C   UNL d   1      -2.052   9.448  -5.154  0.00  0.00     0.002 A 
ATOM     11  C   UNL d   1      -2.462   8.643  -4.085  0.00  0.00     0.031 A 
ENDBRANCH   4   6
ENDBRANCH   1   4
BRANCH   3  12
ATOM     12  C   UNL d   1      -1.275   3.508  -1.164  0.00  0.00    -0.019 A 
ATOM     13  C   UNL d   1      -0.173   3.088  -1.924  0.00  0.00     0.015 A 
ATOM     14  C   UNL d   1       0.479   1.893  -1.615  0.00  0.00     0.037 A 
ATOM     15  C   UNL d   1       0.022   1.119  -0.541  0.00  0.00     0.102 A 
ATOM     16  C   UNL d   1      -1.075   1.540   0.227  0.00  0.00     0.037 A 
ATOM     17  C   UNL d   1      -1.724   2.741  -0.088  0.00  0.00     0.015 A 
BRANCH  15  18
ATOM     18  N   UNL d   1       0.696  -0.147  -0.221  0.00  0.00    -0.116 N 
ATOM     19  O   UNL d   1       0.258  -0.801   0.736  0.00  0.00    -0.532 OA
ATOM     20  O   UNL d   1       1.656  -0.486  -0.925  0.00  0.00    -0.532 OA
ENDBRANCH  15  18
ENDBRANCH   3  12
TORSDOF 4
