REMARK  9 active torsions:
REMARK  status: ('A' for Active; 'I' for Inactive)
REMARK    1  A    between atoms: N_9  and  S_1 
REMARK    2  A    between atoms: C_13  and  S_1 
REMARK    3  A    between atoms: C_10  and  C_2 
REMARK    4  A    between atoms: C_4  and  C_16 
REMARK    5  A    between atoms: C_11  and  C_5 
REMARK    6  A    between atoms: C_6  and  N_9 
REMARK    7  A    between atoms: C_12  and  C_7 
REMARK    8  A    between atoms: O_29  and  C_11 
REMARK    9  A    between atoms: O_30  and  C_12 
ROOT
ATOM      1  C   UNL d   1       0.315   1.571   0.053  0.00  0.00     0.074 A 
ATOM      2  C   UNL d   1      -0.553   4.241   0.238  0.00  0.00    -0.025 A 
ATOM      3  C   UNL d   1      -0.999   1.849   0.431  0.00  0.00     0.025 A 
ATOM      4  C   UNL d   1       1.217   2.607  -0.160  0.00  0.00     0.025 A 
ATOM      5  C   UNL d   1       0.783   3.924  -0.036  0.00  0.00     0.014 A 
ATOM      6  C   UNL d   1      -1.433   3.180   0.508  0.00  0.00     0.014 A 
ENDROOT
BRANCH   1   7
ATOM      7  S   UNL d   1       0.868  -0.099  -0.137  0.00  0.00     0.245 S 
ATOM      8  O   UNL d   1       2.316  -0.112  -0.000  0.00  0.00    -0.206 OA
ATOM      9  O   UNL d   1       0.016  -0.952   0.668  0.00  0.00    -0.206 OA
BRANCH   7  10
ATOM     10  N   UNL d   1       0.550  -0.340  -1.804  0.00  0.00    -0.180 NA
ATOM     11  H   UNL d   1       1.360   0.040  -2.296  0.00  0.00     0.146 HD
BRANCH  10  12
ATOM     12  C   UNL d   1       0.224  -1.657  -2.197  0.00  0.00     0.046 A 
ATOM     13  C   UNL d   1      -1.121  -2.164  -2.247  0.00  0.00     0.068 A 
ATOM     14  C   UNL d   1      -1.121  -3.507  -2.591  0.00  0.00     0.069 A 
ATOM     15  S   UNL d   1       0.438  -4.101  -2.960  0.00  0.00    -0.111 SA
ATOM     16  C   UNL d   1       1.147  -2.583  -2.633  0.00  0.00     0.075 A 
BRANCH  13  17
ATOM     17  C   UNL d   1      -2.332  -1.381  -2.000  0.00  0.00     0.295 C 
ATOM     18  O   UNL d   1      -2.322  -0.186  -1.735  0.00  0.00    -0.259 OA
BRANCH  17  19
ATOM     19  O   UNL d   1      -3.478  -2.110  -2.145  0.00  0.00    -0.322 OA
ATOM     20  C   UNL d   1      -4.673  -1.350  -1.960  0.00  0.00     0.213 C 
ENDBRANCH  17  19
ENDBRANCH  13  17
ENDBRANCH  10  12
ENDBRANCH   7  10
ENDBRANCH   1   7
BRANCH   2  21
ATOM     21  C   UNL d   1      -1.022   5.636   0.270  0.00  0.00    -0.002 A 
ATOM     22  C   UNL d   1      -0.552   6.650  -0.566  0.00  0.00     0.100 A 
ATOM     23  S   UNL d   1      -1.355   8.143  -0.249  0.00  0.00    -0.079 SA
ATOM     24  C   UNL d   1      -2.343   7.470   0.966  0.00  0.00     0.081 A 
ATOM     25  C   UNL d   1      -2.068   6.131   1.133  0.00  0.00     0.038 A 
BRANCH  22  26
ATOM     26  C   UNL d   1       0.474   6.644  -1.668  0.00  0.00     0.424 C 
ATOM     27  F   UNL d   1       0.579   7.830  -2.325  0.00  0.00    -0.166 F 
ATOM     28  F   UNL d   1       1.730   6.386  -1.212  0.00  0.00    -0.166 F 
ATOM     29  F   UNL d   1       0.198   5.708  -2.613  0.00  0.00    -0.166 F 
ENDBRANCH  22  26
BRANCH  24  30
ATOM     30  C   UNL d   1      -3.308   8.315   1.645  0.00  0.00     0.299 C 
ATOM     31  O   UNL d   1      -3.496   9.502   1.451  0.00  0.00    -0.259 OA
BRANCH  30  32
ATOM     32  O   UNL d   1      -3.995   7.575   2.563  0.00  0.00    -0.322 OA
ATOM     33  C   UNL d   1      -4.968   8.312   3.305  0.00  0.00     0.213 C 
ENDBRANCH  30  32
ENDBRANCH  24  30
ENDBRANCH   2  21
TORSDOF 9
