REMARK  4 active torsions:
REMARK  status: ('A' for Active; 'I' for Inactive)
REMARK    1  A    between atoms: S_2  and  N_1 
REMARK    2  A    between atoms: C_16  and  S_2 
REMARK    3  A    between atoms: C_9  and  C_5 
REMARK    4  A    between atoms: C_8  and  C_9 
ROOT
ATOM      1  N   UNL d   1      -0.217  -0.902   0.057  0.00  0.00    -0.181 N 
ATOM      2  N   UNL d   1       1.102  -0.599  -0.008  0.00  0.00    -0.288 N 
ATOM      3  HN  UNL d   1       1.879  -1.241  -0.164  1.00  0.00     0.188 HD
ATOM      4  C   UNL d   1      -0.130   1.327   0.224  0.00  0.00    -0.005 C 
ATOM      5  C   UNL d   1      -1.010   0.244   0.088  0.00  0.00     0.051 C 
ATOM      6  C   UNL d   1       1.164   0.718   0.175  0.00  0.00     0.032 C 
ATOM      7  C   UNL d   1      -2.497   0.214   0.059  0.00  0.00     0.072 C 
ATOM      8  C   UNL d   1       2.520   1.312   0.292  0.00  0.00     0.070 C 
ENDROOT
BRANCH   4   9
ATOM      9  C   UNL d   1      -0.474   2.796   0.434  0.00  0.00     0.082 C 
BRANCH   9  10
ATOM     10  C   UNL d   1       0.110   3.704  -0.625  0.00  0.00    -0.036 C 
ATOM     11  C   UNL d   1      -0.606   4.359  -1.704  0.00  0.00    -0.010 C 
ATOM     12  C   UNL d   1       0.282   4.805  -2.690  0.00  0.00     0.015 C 
ATOM     13  C   UNL d   1      -1.989   4.588  -1.924  0.00  0.00     0.037 C 
ATOM     14  C   UNL d   1      -0.158   5.302  -3.931  0.00  0.00     0.021 C 
ATOM     15  S   UNL d   1       1.910   4.706  -2.159  0.00  0.00    -0.101 SA
ATOM     16  C   UNL d   1      -1.522   5.518  -4.116  0.00  0.00     0.025 C 
ATOM     17  C   UNL d   1      -2.417   5.213  -3.101  0.00  0.00     0.035 C 
ATOM     18 CL   UNL d   1      -4.077   5.635  -3.286  0.00  0.00    -0.084 Cl
ATOM     19  C   UNL d   1       1.428   4.123  -0.636  0.00  0.00     0.058 C 
ENDBRANCH   9  10
ENDBRANCH   4   9
BRANCH   1  20
ATOM     20  S   UNL d   1      -0.783  -2.549  -0.029  0.00  0.00     0.282 S 
ATOM     21  O   UNL d   1       0.269  -3.377   0.532  0.00  0.00    -0.198 OA
ATOM     22  O   UNL d   1      -2.127  -2.551   0.531  0.00  0.00    -0.198 OA
BRANCH  20  23
ATOM     23  C   UNL d   1      -0.879  -2.903  -1.762  0.00  0.00     0.081 A 
ATOM     24  C   UNL d   1       0.247  -2.730  -2.572  0.00  0.00     0.025 A 
ATOM     25  C   UNL d   1       0.175  -3.062  -3.926  0.00  0.00     0.002 A 
ATOM     26  C   UNL d   1      -1.010  -3.571  -4.460  0.00  0.00     0.000 A 
ATOM     27  C   UNL d   1      -2.128  -3.754  -3.644  0.00  0.00     0.002 A 
ATOM     28  C   UNL d   1      -2.065  -3.423  -2.291  0.00  0.00     0.025 A 
ENDBRANCH  20  23
ENDBRANCH   1  20
TORSDOF 4
