REMARK  5 active torsions:
REMARK  status: ('A' for Active; 'I' for Inactive)
REMARK    1  A    between atoms: C_2  and  S_1 
REMARK    2  A    between atoms: O_5  and  S_1 
REMARK    3  A    between atoms: C_13  and  C_4 
REMARK    4  A    between atoms: C_6  and  O_5 
REMARK    5  A    between atoms: N_8  and  C_10 
ROOT
ATOM      1  S   UNL d   1      -0.971  -0.658   0.232  0.00  0.00     0.309 S 
ATOM      2  O   UNL d   1      -1.052   0.243  -0.900  0.00  0.00    -0.192 OA
ATOM      3  O   UNL d   1      -2.062  -1.532   0.623  0.00  0.00    -0.192 OA
ENDROOT
BRANCH   1   4
ATOM      4  C   UNL d   1      -0.722   0.362   1.673  0.00  0.00     0.128 A 
ATOM      5  S   UNL d   1      -1.620   1.817   1.709  0.00  0.00    -0.074 SA
ATOM      6  C   UNL d   1      -0.993   2.276   3.240  0.00  0.00     0.033 A 
ATOM      7  C   UNL d   1      -0.172   1.281   3.742  0.00  0.00     0.023 A 
ATOM      8  C   UNL d   1       0.000   0.190   2.837  0.00  0.00     0.035 A 
BRANCH   6   9
ATOM      9  C   UNL d   1      -1.359   3.560   3.859  0.00  0.00     0.049 A 
ATOM     10  N   UNL d   1      -1.320   3.561   5.215  0.00  0.00    -0.365 N 
ATOM     11  C   UNL d   1      -1.606   4.724   5.843  0.00  0.00     0.088 A 
ATOM     12  HN  UNL d   1      -1.084   2.719   5.740  1.00  0.00     0.165 HD
ATOM     13  C   UNL d   1      -1.911   5.904   5.185  0.00  0.00     0.017 A 
ATOM     14  C   UNL d   1      -1.938   5.890   3.797  0.00  0.00     0.004 A 
ATOM     15  C   UNL d   1      -1.663   4.703   3.122  0.00  0.00     0.031 A 
ENDBRANCH   6   9
ENDBRANCH   1   4
BRANCH   1  16
ATOM     16  O   UNL d   1       0.431  -1.488   0.179  0.00  0.00    -0.226 OA
BRANCH  16  17
ATOM     17  C   UNL d   1       0.694  -2.366  -0.856  0.00  0.00     0.116 A 
ATOM     18  C   UNL d   1       2.019  -2.477  -1.344  0.00  0.00     0.065 A 
ATOM     19  C   UNL d   1       2.222  -3.387  -2.406  0.00  0.00     0.032 A 
ATOM     20  C   UNL d   1       1.189  -4.143  -2.965  0.00  0.00     0.002 A 
ATOM     21  C   UNL d   1      -0.093  -4.028  -2.459  0.00  0.00     0.003 A 
ATOM     22  C   UNL d   1      -0.337  -3.155  -1.403  0.00  0.00     0.040 A 
BRANCH  18  23
ATOM     23  N   UNL d   1       3.118  -1.787  -0.844  0.00  0.00    -0.379 N 
ATOM     24  C   UNL d   1       3.244  -1.385   0.555  0.00  0.00     0.123 C 
ATOM     25  C   UNL d   1       4.640  -1.752   1.070  0.00  0.00     0.020 C 
ATOM     26  C   UNL d   1       5.754  -1.241   0.159  0.00  0.00     0.003 C 
ATOM     27  C   UNL d   1       5.517  -1.674  -1.285  0.00  0.00     0.020 C 
ATOM     28  C   UNL d   1       4.131  -1.237  -1.754  0.00  0.00     0.123 C 
ENDBRANCH  18  23
ENDBRANCH  16  17
ENDBRANCH   1  16
TORSDOF 5
