REMARK  10 active torsions:
REMARK  status: ('A' for Active; 'I' for Inactive)
REMARK    1  A    between atoms: C_12  and  S_1 
REMARK    2  A    between atoms: N_18  and  S_1 
REMARK    3  A    between atoms: S_2  and  C_13 
REMARK    4  A    between atoms: N_19  and  S_2 
REMARK    5  A    between atoms: N_9  and  C_5 
REMARK    6  A    between atoms: N_10  and  C_6 
REMARK    7  A    between atoms: C_29  and  N_18 
REMARK    8  A    between atoms: C_30  and  N_19 
REMARK    9  A    between atoms: C_31  and  C_29 
REMARK   10  A    between atoms: C_32  and  C_30 
ROOT
ATOM      1  C   UNL d   1      -0.202   2.462  -3.832  0.00  0.00     0.025 A 
ATOM      2  C   UNL d   1      -0.402   2.885  -5.220  0.00  0.00     0.025 A 
ATOM      3  C   UNL d   1      -0.004   3.095  -2.608  0.00  0.00     0.116 C 
ATOM      4  C   UNL d   1      -0.252   4.071  -5.931  0.00  0.00     0.116 A 
ATOM      5  C   UNL d   1      -0.680   1.738  -6.003  0.00  0.00     0.030 A 
ATOM      6  C   UNL d   1      -0.238   1.055  -3.794  0.00  0.00     0.030 A 
ATOM      7  C   UNL d   1      -0.599   0.558  -5.129  0.00  0.00     0.194 A 
ATOM      8  C   UNL d   1       0.356   0.961  -1.506  0.00  0.00     0.082 C 
ATOM      9  C   UNL d   1      -0.761   2.950  -8.036  0.00  0.00     0.077 A 
ATOM     10  C   UNL d   1      -0.420   4.110  -7.327  0.00  0.00     0.061 A 
ATOM     11  C   UNL d   1       0.320   2.362  -1.451  0.00  0.00     0.062 C 
ATOM     12  C   UNL d   1       0.025   0.284  -2.677  0.00  0.00     0.041 C 
ATOM     13  C   UNL d   1      -0.874   1.729  -7.377  0.00  0.00     0.041 A 
ATOM     14  O   UNL d   1      -0.784  -0.601  -5.443  0.00  0.00    -0.287 OA
ENDROOT
BRANCH   8  15
ATOM     15  S   UNL d   1       0.834   0.040  -0.067  0.00  0.00     0.259 S 
ATOM     16  O   UNL d   1       0.981   0.984   1.016  0.00  0.00    -0.201 OA
ATOM     17  O   UNL d   1       1.893  -0.856  -0.466  0.00  0.00    -0.201 OA
BRANCH  15  18
ATOM     18  N   UNL d   1      -0.558  -0.826   0.258  0.00  0.00    -0.311 N 
ATOM     19  H   UNL d   1      -0.946  -0.624   1.180  0.00  0.00     0.172 HD
BRANCH  18  20
ATOM     20  C   UNL d   1      -0.598  -2.221  -0.176  0.00  0.00     0.170 C 
BRANCH  20  21
ATOM     21  C   UNL d   1      -1.875  -2.883   0.265  0.00  0.00    -0.040 A 
ATOM     22  C   UNL d   1      -3.037  -2.745  -0.507  0.00  0.00     0.009 A 
ATOM     23  C   UNL d   1      -4.218  -3.377  -0.124  0.00  0.00     0.001 A 
ATOM     24  C   UNL d   1      -4.251  -4.143   1.040  0.00  0.00     0.000 A 
ATOM     25  C   UNL d   1      -3.110  -4.261   1.832  0.00  0.00     0.001 A 
ATOM     26  C   UNL d   1      -1.927  -3.626   1.453  0.00  0.00     0.009 A 
ENDBRANCH  20  21
ENDBRANCH  18  20
ENDBRANCH  15  18
ENDBRANCH   8  15
BRANCH   3  27
ATOM     27  N   UNL d   1      -0.350   4.483  -2.406  0.00  0.00    -0.115 N 
ATOM     28  O   UNL d   1      -1.522   4.790  -2.662  0.00  0.00    -0.532 OA
ATOM     29  O   UNL d   1       0.525   5.234  -1.968  0.00  0.00    -0.532 OA
ENDBRANCH   3  27
BRANCH   4  30
ATOM     30  N   UNL d   1       0.265   5.282  -5.334  0.00  0.00    -0.115 N 
ATOM     31  O   UNL d   1       1.392   5.209  -4.846  0.00  0.00    -0.532 OA
ATOM     32  O   UNL d   1      -0.443   6.293  -5.428  0.00  0.00    -0.532 OA
ENDBRANCH   4  30
BRANCH   9  33
ATOM     33  S   UNL d   1      -0.929   3.027  -9.805  0.00  0.00     0.241 S 
ATOM     34  O   UNL d   1       0.277   3.642 -10.310  0.00  0.00    -0.206 OA
ATOM     35  O   UNL d   1      -1.384   1.726 -10.237  0.00  0.00    -0.206 OA
BRANCH  33  36
ATOM     36  N   UNL d   1      -2.227   4.088 -10.001  0.00  0.00    -0.211 NA
ATOM     37  H   UNL d   1      -2.981   3.924  -9.335  0.00  0.00     0.140 HD
BRANCH  36  38
ATOM     38  C   UNL d   1      -1.883   5.510 -10.169  0.00  0.00     0.143 C 
BRANCH  38  39
ATOM     39  C   UNL d   1      -3.080   6.415 -10.312  0.00  0.00    -0.044 A 
ATOM     40  C   UNL d   1      -3.016   7.723  -9.801  0.00  0.00     0.008 A 
ATOM     41  C   UNL d   1      -4.066   8.617 -10.003  0.00  0.00     0.001 A 
ATOM     42  C   UNL d   1      -5.191   8.215 -10.719  0.00  0.00     0.000 A 
ATOM     43  C   UNL d   1      -5.269   6.919 -11.227  0.00  0.00     0.001 A 
ATOM     44  C   UNL d   1      -4.217   6.024 -11.030  0.00  0.00     0.008 A 
ENDBRANCH  38  39
ENDBRANCH  36  38
ENDBRANCH  33  36
ENDBRANCH   9  33
TORSDOF 10
