REMARK  2 active torsions:
REMARK  status: ('A' for Active; 'I' for Inactive)
REMARK    1  A    between atoms: C_9  and  N_1 
REMARK    2  A    between atoms: C_8  and  C_12 
ROOT
ATOM      1  N   UNL d   1      -0.654   1.143   0.088  0.00  0.00    -0.204 N 
ATOM      2  N   UNL d   1       0.548   1.166  -0.610  0.00  0.00    -0.275 N 
ATOM      3  HN  UNL d   1       0.817   1.978  -1.166  1.00  0.00     0.188 HD
ATOM      4  C   UNL d   1      -1.097   0.030   0.827  0.00  0.00     0.348 A 
ATOM      5  N   UNL d   1      -0.235  -1.034   0.877  0.00  0.00    -0.271 N 
ATOM      6  C   UNL d   1       1.318   0.124  -0.535  0.00  0.00     0.197 A 
ATOM      7  C   UNL d   1       0.964  -1.100   0.234  0.00  0.00     0.288 A 
ATOM      8  C   UNL d   1       2.559   0.279  -1.249  0.00  0.00     0.125 C 
ATOM      9  N   UNL d   1       3.564   0.412  -1.817  0.00  0.00    -0.190 NA
ATOM     10  O   UNL d   1      -2.176  -0.089   1.403  0.00  0.00    -0.245 OA
ATOM     11  O   UNL d   1       1.705  -2.067   0.259  0.00  0.00    -0.265 OA
ATOM     12  H   UNL d   1      -0.547  -1.842   1.395  0.00  0.00     0.174 HD
ENDROOT
BRANCH   1  13
ATOM     13  C   UNL d   1      -1.371   2.388   0.034  0.00  0.00     0.062 A 
ATOM     14  C   UNL d   1      -2.305   2.750   1.016  0.00  0.00     0.048 A 
ATOM     15  C   UNL d   1      -2.963   3.995   0.991  0.00  0.00     0.050 A 
ATOM     16  C   UNL d   1      -2.700   4.882  -0.059  0.00  0.00     0.016 A 
ATOM     17  C   UNL d   1      -1.782   4.540  -1.049  0.00  0.00     0.003 A 
ATOM     18  C   UNL d   1      -1.115   3.313  -0.994  0.00  0.00     0.032 A 
BRANCH  15  19
ATOM     19  C   UNL d   1      -3.912   4.390   2.096  0.00  0.00     0.417 C 
ATOM     20  F   UNL d   1      -4.066   3.434   3.055  0.00  0.00    -0.166 F 
ATOM     21  F   UNL d   1      -3.498   5.508   2.755  0.00  0.00    -0.166 F 
ATOM     22  F   UNL d   1      -5.163   4.667   1.639  0.00  0.00    -0.166 F 
ENDBRANCH  15  19
ENDBRANCH   1  13
TORSDOF 2
