REMARK  3 active torsions:
REMARK  status: ('A' for Active; 'I' for Inactive)
REMARK    1  A    between atoms: N_7  and  C_1 
REMARK    2  A    between atoms: C_5  and  C_2 
REMARK       I    between atoms: C_9  and  N_8 
REMARK    3  A    between atoms: C_17  and  C_9 
ROOT
ATOM      1  C   UNL d   1      -1.210  -1.394  -0.371  0.00  0.00     0.045 A 
ATOM      2  C   UNL d   1      -1.393   0.785   0.666  0.00  0.00     0.119 A 
ATOM      3  N   UNL d   1      -1.163   1.415  -0.513  0.00  0.00    -0.352 N 
ATOM      4  HN  UNL d   1      -1.137   2.434  -0.561  1.00  0.00     0.166 HD
ATOM      5  C   UNL d   1      -1.463  -0.601   0.755  0.00  0.00     0.064 A 
ATOM      6  C   UNL d   1      -0.986  -0.738  -1.609  0.00  0.00     0.017 A 
ATOM      7  C   UNL d   1      -0.971   0.676  -1.615  0.00  0.00     0.045 A 
ATOM      8  C   UNL d   1      -0.713  -1.416  -2.817  0.00  0.00     0.016 A 
ATOM      9  C   UNL d   1      -0.688   1.343  -2.797  0.00  0.00     0.030 A 
ATOM     10  C   UNL d   1      -0.447  -0.722  -4.002  0.00  0.00     0.001 A 
ATOM     11  C   UNL d   1      -0.428   0.661  -3.988  0.00  0.00     0.002 A 
ENDROOT
BRANCH   1  12
ATOM     12  N   UNL d   1      -1.000  -2.776  -0.243  0.00  0.00    -0.377 N 
ATOM     13  C   UNL d   1      -0.330  -3.195   1.002  0.00  0.00     0.143 C 
ATOM     14  C   UNL d   1       0.303  -4.566   0.785  0.00  0.00     0.145 C 
ATOM     15  N   UNL d   1      -0.721  -5.555   0.430  0.00  0.00    -0.349 N 
ATOM     16  C   UNL d   1      -1.565  -5.159  -0.719  0.00  0.00     0.145 C 
ATOM     17  C   UNL d   1      -0.670  -6.892   0.814  0.00  0.00     0.224 C 
ATOM     18  C   UNL d   1      -2.097  -3.697  -0.630  0.00  0.00     0.143 C 
ATOM     19  O   UNL d   1      -1.387  -7.740   0.282  0.00  0.00    -0.273 OA
BRANCH  17  20
ATOM     20  C   UNL d   1       0.289  -7.261   1.964  0.00  0.00     0.078 C 
ATOM     21  C   UNL d   1       0.593  -8.764   2.048  0.00  0.00     0.014 C 
ATOM     22  C   UNL d   1      -0.504  -9.591   2.710  0.00  0.00     0.001 C 
ATOM     23  C   UNL d   1      -0.925  -9.014   4.055  0.00  0.00     0.000 C 
ATOM     24  C   UNL d   1      -1.317  -7.548   3.937  0.00  0.00     0.001 C 
ATOM     25  C   UNL d   1      -0.203  -6.711   3.313  0.00  0.00     0.014 C 
ENDBRANCH  17  20
ENDBRANCH   1  12
BRANCH   2  26
ATOM     26  C   UNL d   1      -1.484   1.593   1.952  0.00  0.00     0.432 C 
ATOM     27  F   UNL d   1      -1.256   2.928   1.804  0.00  0.00    -0.165 F 
ATOM     28  F   UNL d   1      -2.701   1.483   2.558  0.00  0.00    -0.165 F 
ATOM     29  F   UNL d   1      -0.579   1.169   2.887  0.00  0.00    -0.165 F 
ENDBRANCH   2  26
TORSDOF 3
