REMARK  4 active torsions:
REMARK  status: ('A' for Active; 'I' for Inactive)
REMARK       I    between atoms: N_10  and  C_1 
REMARK       I    between atoms: N_11  and  C_1 
REMARK    1  A    between atoms: C_2  and  C_3 
REMARK    2  A    between atoms: N_4  and  N_11 
REMARK    3  A    between atoms: C_6  and  C_9 
REMARK    4  A    between atoms: C_19  and  N_10 
ROOT
ATOM      1  N   UNL d   1       0.938  -2.329  -0.062  0.00  0.00    -0.304 N 
ATOM      2  HN  UNL d   1       0.422  -3.076  -0.527  1.00  0.00     0.186 HD
ATOM      3  C   UNL d   1       2.141  -2.524   0.377  0.00  0.00     0.138 C 
ENDROOT
BRANCH   1   4
ATOM      4  N   UNL d   1       0.372  -1.076   0.118  0.00  0.00    -0.247 N 
ATOM      5  C   UNL d   1       1.118   0.111  -0.101  0.00  0.00     0.341 C 
ATOM      6  N   UNL d   1       0.428   1.264   0.255  0.00  0.00    -0.307 N 
ATOM      7  O   UNL d   1       2.278   0.117  -0.514  0.00  0.00    -0.245 OA
ATOM      8  H   UNL d   1      -0.202   1.138   1.034  0.00  0.00     0.170 HD
ATOM      9  C   UNL d   1      -1.084  -1.077   0.049  0.00  0.00     0.183 C 
BRANCH   6  10
ATOM     10  C   UNL d   1       0.952   2.561   0.083  0.00  0.00     0.036 A 
ATOM     11  C   UNL d   1       1.663   2.929  -1.064  0.00  0.00     0.031 A 
ATOM     12  C   UNL d   1       2.168   4.227  -1.194  0.00  0.00     0.026 A 
ATOM     13  C   UNL d   1       1.979   5.148  -0.166  0.00  0.00     0.034 A 
ATOM     14  C   UNL d   1       1.268   4.791   0.978  0.00  0.00     0.026 A 
ATOM     15 CL   UNL d   1       2.624   6.737  -0.309  0.00  0.00    -0.084 Cl
ATOM     16  C   UNL d   1       0.733   3.505   1.091  0.00  0.00     0.031 A 
ENDBRANCH   6  10
ENDBRANCH   1   4
BRANCH   3  17
ATOM     17  C   UNL d   1       2.850  -3.815   0.235  0.00  0.00     0.071 A 
ATOM     18  N   UNL d   1       3.784  -4.008   1.211  0.00  0.00    -0.363 N 
ATOM     19  C   UNL d   1       4.444  -5.189   1.221  0.00  0.00     0.104 A 
ATOM     20  HN  UNL d   1       3.977  -3.289   1.908  1.00  0.00     0.165 HD
ATOM     21  C   UNL d   1       4.231  -6.201   0.298  0.00  0.00     0.065 A 
ATOM     22  C   UNL d   1       3.282  -5.971  -0.706  0.00  0.00     0.043 A 
ATOM     23  C   UNL d   1       2.574  -4.764  -0.748  0.00  0.00     0.062 A 
ATOM     24 CL   UNL d   1       1.461  -4.552  -2.046  0.00  0.00    -0.082 Cl
BRANCH  21  25
ATOM     25  C   UNL d   1       5.006  -7.479   0.402  0.00  0.00     0.418 C 
ATOM     26  F   UNL d   1       4.695  -8.381  -0.569  0.00  0.00    -0.166 F 
ATOM     27  F   UNL d   1       6.349  -7.281   0.314  0.00  0.00    -0.166 F 
ATOM     28  F   UNL d   1       4.797  -8.116   1.585  0.00  0.00    -0.166 F 
ENDBRANCH  21  25
ENDBRANCH   3  17
TORSDOF 4
