REMARK  4 active torsions:
REMARK  status: ('A' for Active; 'I' for Inactive)
REMARK    1  A    between atoms: C_6  and  C_1 
REMARK    2  A    between atoms: C_10  and  C_3 
REMARK    3  A    between atoms: C_12  and  C_5 
REMARK    4  A    between atoms: C_9  and  C_6 
ROOT
ATOM      1  C   UNL d   1      -0.887   1.404   0.150  0.00  0.00     0.040 A 
ATOM      2  C   UNL d   1       0.050   0.344   0.247  0.00  0.00     0.032 A 
ATOM      3  C   UNL d   1      -2.252   1.120  -0.068  0.00  0.00    -0.010 A 
ATOM      4  C   UNL d   1      -0.335  -1.014   0.086  0.00  0.00    -0.032 A 
ATOM      5  C   UNL d   1      -1.698  -1.318  -0.124  0.00  0.00    -0.018 A 
ATOM      6  C   UNL d   1      -2.609  -0.240  -0.218  0.00  0.00     0.026 A 
ATOM      7  C   UNL d   1       1.476   0.607   0.586  0.00  0.00     0.161 C 
ATOM      8  O   UNL d   1       1.812   1.518   1.329  0.00  0.00    -0.292 OA
ATOM      9  C   UNL d   1       0.711  -2.120   0.110  0.00  0.00     0.041 C 
ATOM     10  C   UNL d   1       2.475  -0.358   0.014  0.00  0.00     0.084 C 
ATOM     11  C   UNL d   1       2.109  -1.713   0.572  0.00  0.00     0.012 C 
ENDROOT
BRANCH   1  12
ATOM     12  C   UNL d   1      -0.433   2.817   0.289  0.00  0.00     0.194 C 
ATOM     13  O   UNL d   1      -0.937   3.523   1.160  0.00  0.00    -0.287 OA
BRANCH  12  14
ATOM     14  C   UNL d   1       0.628   3.372  -0.608  0.00  0.00     0.015 A 
ATOM     15  C   UNL d   1       1.362   4.473  -0.155  0.00  0.00     0.016 A 
ATOM     16  C   UNL d   1       2.458   4.939  -0.885  0.00  0.00     0.007 A 
ATOM     17  C   UNL d   1       2.835   4.311  -2.078  0.00  0.00    -0.062 A 
ATOM     18  C   UNL d   1       2.059   3.251  -2.563  0.00  0.00     0.007 A 
ATOM     19  C   UNL d   1       4.053   4.783  -2.817  0.00  0.00     0.048 C 
ATOM     20  C   UNL d   1       0.956   2.787  -1.839  0.00  0.00     0.016 A 
ENDBRANCH  12  14
ENDBRANCH   1  12
BRANCH   3  21
ATOM     21  C   UNL d   1      -3.345   2.128  -0.121  0.00  0.00    -0.025 A 
ATOM     22  C   UNL d   1      -3.282   3.278  -0.922  0.00  0.00     0.012 A 
ATOM     23  C   UNL d   1      -4.331   4.208  -0.945  0.00  0.00     0.001 A 
ATOM     24  C   UNL d   1      -5.481   3.990  -0.191  0.00  0.00     0.000 A 
ATOM     25  C   UNL d   1      -5.579   2.850   0.596  0.00  0.00     0.001 A 
ATOM     26  C   UNL d   1      -4.520   1.937   0.636  0.00  0.00     0.012 A 
ENDBRANCH   3  21
BRANCH   5  27
ATOM     27  C   UNL d   1      -2.250  -2.697  -0.162  0.00  0.00    -0.025 A 
ATOM     28  C   UNL d   1      -1.768  -3.689  -1.029  0.00  0.00     0.012 A 
ATOM     29  C   UNL d   1      -2.278  -4.993  -0.995  0.00  0.00     0.001 A 
ATOM     30  C   UNL d   1      -3.313  -5.320  -0.124  0.00  0.00     0.000 A 
ATOM     31  C   UNL d   1      -3.838  -4.345   0.716  0.00  0.00     0.001 A 
ATOM     32  C   UNL d   1      -3.305  -3.053   0.703  0.00  0.00     0.012 A 
ENDBRANCH   5  27
TORSDOF 4
