REMARK  5 active torsions:
REMARK  status: ('A' for Active; 'I' for Inactive)
REMARK    1  A    between atoms: C_4  and  C_1 
REMARK    2  A    between atoms: S_3  and  C_2 
REMARK    3  A    between atoms: C_5  and  S_3 
REMARK       I    between atoms: N_8  and  C_4 
REMARK    4  A    between atoms: C_10  and  C_6 
REMARK    5  A    between atoms: O_12  and  C_10 
ROOT
ATOM      1  C   UNL d   1       1.352  -0.275  -0.383  0.00  0.00     0.049 A 
ATOM      2  C   UNL d   1       0.592  -1.447  -0.211  0.00  0.00     0.021 A 
ATOM      3  C   UNL d   1       0.706   0.979  -0.417  0.00  0.00     0.018 A 
ATOM      4  C   UNL d   1      -0.802  -1.313  -0.053  0.00  0.00     0.020 A 
ATOM      5  C   UNL d   1      -0.675   1.084  -0.265  0.00  0.00     0.001 A 
ATOM      6  C   UNL d   1      -1.431  -0.066  -0.088  0.00  0.00     0.001 A 
ENDROOT
BRANCH   2   7
ATOM      7  S   UNL d   1       1.244  -3.104  -0.014  0.00  0.00    -0.089 SA
BRANCH   7   8
ATOM      8  C   UNL d   1       1.476  -3.696  -1.694  0.00  0.00     0.014 A 
ATOM      9  C   UNL d   1       0.514  -4.455  -2.396  0.00  0.00    -0.018 A 
ATOM     10  C   UNL d   1       0.887  -5.054  -3.619  0.00  0.00     0.011 A 
ATOM     11  C   UNL d   1       2.164  -4.893  -4.151  0.00  0.00     0.001 A 
ATOM     12  C   UNL d   1       3.097  -4.123  -3.470  0.00  0.00     0.001 A 
ATOM     13  C   UNL d   1       2.757  -3.534  -2.251  0.00  0.00     0.019 A 
BRANCH   9  14
ATOM     14  C   UNL d   1      -0.867  -4.737  -1.860  0.00  0.00     0.204 C 
BRANCH  14  15
ATOM     15  O   UNL d   1      -1.809  -4.836  -2.926  0.00  0.00    -0.396 OA
ATOM     16  H   UNL d   1      -2.667  -4.546  -2.577  0.00  0.00     0.209 HD
ENDBRANCH  14  15
ENDBRANCH   9  14
ENDBRANCH   7   8
ENDBRANCH   2   7
BRANCH   1  17
ATOM     17  C   UNL d   1       2.832  -0.210  -0.501  0.00  0.00     0.252 C 
ATOM     18  O   UNL d   1       3.341   0.597  -1.276  0.00  0.00    -0.268 OA
ATOM     19  N   UNL d   1       3.568  -1.012   0.340  0.00  0.00    -0.361 N 
ATOM     20  C   UNL d   1       5.007  -0.973   0.370  0.00  0.00     0.149 C 
ATOM     21  H   UNL d   1       3.085  -1.694   0.914  0.00  0.00     0.162 HD
ENDBRANCH   1  17
TORSDOF 5
