REMARK  3 active torsions:
REMARK  status: ('A' for Active; 'I' for Inactive)
REMARK       I    between atoms: C_3  and  N_1 
REMARK    1  A    between atoms: C_5  and  C_2 
REMARK    2  A    between atoms: C_17  and  C_3 
REMARK    3  A    between atoms: N_4  and  C_9 
ROOT
ATOM      1  N   UNL d   1       0.870  -0.725   0.024  0.00  0.00    -0.219 N 
ATOM      2  C   UNL d   1      -0.474  -1.121   0.114  0.00  0.00     0.073 A 
ATOM      3  C   UNL d   1       2.070  -1.485   0.012  0.00  0.00     0.277 C 
ATOM      4  N   UNL d   1       0.991   0.634  -0.065  0.00  0.00    -0.302 N 
ATOM      5  HN  UNL d   1       1.851   1.175  -0.153  1.00  0.00     0.186 HD
ATOM      6  C   UNL d   1      -1.189   0.069   0.055  0.00  0.00     0.051 A 
ATOM      7  C   UNL d   1      -0.250   1.097  -0.014  0.00  0.00     0.110 A 
ATOM      8  O   UNL d   1       2.064  -2.591   0.546  0.00  0.00    -0.265 OA
ENDROOT
BRANCH   2   9
ATOM      9  C   UNL d   1      -1.010  -2.503   0.108  0.00  0.00     0.015 A 
ATOM     10  C   UNL d   1      -2.183  -2.876   0.808  0.00  0.00     0.049 A 
ATOM     11  C   UNL d   1      -2.736  -4.159   0.677  0.00  0.00     0.060 A 
ATOM     12 CL   UNL d   1      -3.024  -1.812   1.889  0.00  0.00    -0.083 Cl
ATOM     13  C   UNL d   1      -2.102  -5.108  -0.126  0.00  0.00     0.104 A 
ATOM     14  C   UNL d   1      -0.925  -4.784  -0.800  0.00  0.00     0.037 A 
ATOM     15  C   UNL d   1      -0.407  -3.487  -0.700  0.00  0.00     0.018 A 
BRANCH  13  16
ATOM     16  N   UNL d   1      -2.688  -6.445  -0.278  0.00  0.00    -0.116 N 
ATOM     17  O   UNL d   1      -3.782  -6.657   0.262  0.00  0.00    -0.532 OA
ATOM     18  O   UNL d   1      -2.060  -7.276  -0.948  0.00  0.00    -0.532 OA
ENDBRANCH  13  16
ENDBRANCH   2   9
BRANCH   3  19
ATOM     19  C   UNL d   1       3.318  -1.007  -0.656  0.00  0.00     0.034 A 
ATOM     20  C   UNL d   1       4.565  -1.433  -0.182  0.00  0.00     0.017 A 
ATOM     21  C   UNL d   1       5.735  -1.004  -0.815  0.00  0.00     0.001 A 
ATOM     22  C   UNL d   1       5.665  -0.164  -1.931  0.00  0.00     0.000 A 
ATOM     23  C   UNL d   1       4.427   0.233  -2.426  0.00  0.00     0.001 A 
ATOM     24  C   UNL d   1       3.257  -0.194  -1.798  0.00  0.00     0.017 A 
ENDBRANCH   3  19
TORSDOF 3
