REMARK  9 active torsions:
REMARK  status: ('A' for Active; 'I' for Inactive)
REMARK    1  A    between atoms: C_3  and  C_1 
REMARK    2  A    between atoms: C_2  and  N_4 
REMARK    3  A    between atoms: N_6  and  C_2 
REMARK    4  A    between atoms: N_4  and  C_10 
REMARK       I    between atoms: C_5  and  N_8 
REMARK    5  A    between atoms: C_15  and  C_5 
REMARK    6  A    between atoms: N_8  and  N_6 
REMARK    7  A    between atoms: C_18  and  C_15 
REMARK    8  A    between atoms: O_23  and  C_16 
REMARK    9  A    between atoms: C_17  and  C_18 
ROOT
ATOM      1  N   UNL d   1       0.374  -3.288   2.287  0.00  0.00    -0.274 N 
ATOM      2  H   UNL d   1       0.260  -4.290   2.182  0.00  0.00     0.189 HD
ENDROOT
BRANCH   1   3
ATOM      3  C   UNL d   1      -0.269  -2.727   3.361  0.00  0.00     0.191 C 
ATOM      4  S   UNL d   1      -0.900  -1.178   3.390  0.00  0.00    -0.039 SA
BRANCH   3   5
ATOM      5  N   UNL d   1      -0.413  -3.499   4.486  0.00  0.00    -0.332 N 
ATOM      6  H   UNL d   1      -1.044  -3.076   5.161  0.00  0.00     0.168 HD
BRANCH   5   7
ATOM      7  C   UNL d   1       0.181  -4.718   4.888  0.00  0.00     0.035 A 
ATOM      8  C   UNL d   1       1.229  -5.342   4.211  0.00  0.00     0.045 A 
ATOM      9  C   UNL d   1       1.685  -6.618   4.582  0.00  0.00     0.050 A 
ATOM     10  C   UNL d   1       1.176  -7.211   5.742  0.00  0.00     0.016 A 
ATOM     11  C   UNL d   1       0.201  -6.553   6.489  0.00  0.00     0.003 A 
ATOM     12  C   UNL d   1      -0.307  -5.323   6.050  0.00  0.00     0.029 A 
BRANCH   9  13
ATOM     13  C   UNL d   1       2.672  -7.351   3.707  0.00  0.00     0.417 C 
ATOM     14  F   UNL d   1       2.967  -6.681   2.555  0.00  0.00    -0.166 F 
ATOM     15  F   UNL d   1       2.200  -8.565   3.307  0.00  0.00    -0.166 F 
ATOM     16  F   UNL d   1       3.861  -7.588   4.320  0.00  0.00    -0.166 F 
ENDBRANCH   9  13
ENDBRANCH   5   7
ENDBRANCH   3   5
ENDBRANCH   1   3
BRANCH   1  17
ATOM     17  N   UNL d   1       0.681  -2.560   1.126  0.00  0.00    -0.268 N 
ATOM     18  C   UNL d   1       0.571  -3.074  -0.153  0.00  0.00     0.236 C 
ATOM     19  O   UNL d   1       0.964  -2.444  -1.128  0.00  0.00    -0.272 OA
ATOM     20  H   UNL d   1       1.101  -1.642   1.243  0.00  0.00     0.190 HD
BRANCH  18  21
ATOM     21  C   UNL d   1      -0.050  -4.451  -0.242  0.00  0.00     0.109 C 
BRANCH  21  22
ATOM     22  C   UNL d   1      -0.270  -4.959  -1.661  0.00  0.00     0.048 C 
BRANCH  22  23
ATOM     23  C   UNL d   1      -0.970  -6.298  -1.572  0.00  0.00    -0.058 A 
ATOM     24  C   UNL d   1      -2.370  -6.359  -1.535  0.00  0.00     0.010 A 
ATOM     25  C   UNL d   1      -3.016  -7.574  -1.307  0.00  0.00     0.037 A 
ATOM     26  C   UNL d   1      -2.266  -8.728  -1.118  0.00  0.00     0.065 A 
ATOM     27  C   UNL d   1      -0.876  -8.691  -1.163  0.00  0.00     0.037 A 
ATOM     28  C   UNL d   1      -0.229  -7.475  -1.390  0.00  0.00     0.010 A 
BRANCH  26  29
ATOM     29  O   UNL d   1      -2.938  -9.890  -0.876  0.00  0.00    -0.361 OA
ATOM     30  H   UNL d   1      -2.291 -10.609  -0.792  0.00  0.00     0.217 HD
ENDBRANCH  26  29
ENDBRANCH  22  23
ENDBRANCH  21  22
ENDBRANCH  18  21
ENDBRANCH   1  17
TORSDOF 9
