REMARK  4 active torsions:
REMARK  status: ('A' for Active; 'I' for Inactive)
REMARK    1  A    between atoms: C_2  and  S_1 
REMARK    2  A    between atoms: O_9  and  S_1 
REMARK    3  A    between atoms: C_3  and  C_10 
REMARK    4  A    between atoms: C_10  and  O_9 
ROOT
ATOM      1  O   UNL d   1       0.355   1.469  -0.341  0.00  0.00    -0.267 OA
ENDROOT
BRANCH   1   2
ATOM      2  S   UNL d   1       0.886   0.016   0.160  0.00  0.00     0.300 S 
ATOM      3  O   UNL d   1       2.011  -0.334  -0.681  0.00  0.00    -0.193 OA
ATOM      4  O   UNL d   1       0.989   0.076   1.603  0.00  0.00    -0.193 OA
BRANCH   2   5
ATOM      5  C   UNL d   1      -0.420  -1.119  -0.226  0.00  0.00     0.108 A 
ATOM      6  C   UNL d   1      -0.286  -2.472   0.101  0.00  0.00     0.059 A 
ATOM      7  C   UNL d   1      -1.322  -3.363  -0.205  0.00  0.00     0.049 A 
ATOM      8 CL   UNL d   1       1.108  -3.136   0.873  0.00  0.00    -0.083 Cl
ATOM      9  C   UNL d   1      -2.477  -2.900  -0.832  0.00  0.00     0.035 A 
ATOM     10  C   UNL d   1      -2.611  -1.553  -1.161  0.00  0.00     0.025 A 
ATOM     11 CL   UNL d   1      -3.746  -4.001  -1.202  0.00  0.00    -0.084 Cl
ATOM     12  C   UNL d   1      -1.582  -0.656  -0.859  0.00  0.00     0.029 A 
ENDBRANCH   2   5
ENDBRANCH   1   2
BRANCH   1  13
ATOM     13  C   UNL d   1       1.242   2.557  -0.134  0.00  0.00     0.237 C 
BRANCH  13  14
ATOM     14  C   UNL d   1       0.600   3.761  -0.755  0.00  0.00     0.015 A 
ATOM     15  S   UNL d   1       0.288   5.131   0.217  0.00  0.00    -0.091 SA
ATOM     16  C   UNL d   1      -0.450   5.991  -1.071  0.00  0.00     0.016 A 
ATOM     17  C   UNL d   1      -1.015   7.281  -1.014  0.00  0.00     0.019 A 
ATOM     18  C   UNL d   1      -0.444   5.243  -2.249  0.00  0.00    -0.012 A 
ATOM     19  C   UNL d   1      -1.614   7.811  -2.159  0.00  0.00     0.001 A 
ATOM     20  C   UNL d   1      -1.643   7.082  -3.337  0.00  0.00     0.001 A 
ATOM     21  C   UNL d   1      -1.056   5.814  -3.396  0.00  0.00     0.013 A 
ATOM     22  C   UNL d   1       0.220   3.966  -2.074  0.00  0.00    -0.035 A 
ATOM     23  C   UNL d   1       0.431   2.994  -3.193  0.00  0.00     0.050 C 
ENDBRANCH  13  14
ENDBRANCH   1  13
TORSDOF 4
