REMARK  4 active torsions:
REMARK  status: ('A' for Active; 'I' for Inactive)
REMARK    1  A    between atoms: C_5  and  C_1 
REMARK       I    between atoms: C_2  and  N_6 
REMARK    2  A    between atoms: O_7  and  C_2 
REMARK    3  A    between atoms: N_3  and  O_7 
REMARK    4  A    between atoms: N_6  and  C_15 
ROOT
ATOM      1  C   UNL d   1       0.865  -0.146   1.762  0.00  0.00     0.048 A 
ATOM      2  C   UNL d   1       0.518   0.142   3.089  0.00  0.00     0.018 A 
ATOM      3  C   UNL d   1       0.840  -1.483   1.340  0.00  0.00     0.018 A 
ATOM      4  C   UNL d   1       0.162  -2.222   3.552  0.00  0.00     0.036 A 
ATOM      5  C   UNL d   1       0.497  -2.511   2.229  0.00  0.00     0.030 A 
ATOM      6  C   UNL d   1       0.160  -0.886   3.970  0.00  0.00     0.030 A 
ENDROOT
BRANCH   4   7
ATOM      7  N   UNL d   1      -0.186  -3.197   4.503  0.00  0.00    -0.301 N 
ATOM      8  C   UNL d   1      -0.003  -4.558   4.424  0.00  0.00     0.387 C 
ATOM      9  O   UNL d   1       0.516  -5.188   3.513  0.00  0.00    -0.236 OA
ATOM     10  H   UNL d   1      -0.483  -2.886   5.417  0.00  0.00     0.171 HD
BRANCH   8  11
ATOM     11  O   UNL d   1      -0.498  -5.146   5.567  0.00  0.00    -0.181 OA
BRANCH  11  12
ATOM     12  N   UNL d   1       0.500  -5.943   6.160  0.00  0.00    -0.265 N 
ATOM     13  C   UNL d   1       0.044  -7.073   6.611  0.00  0.00     0.003 C 
ATOM     14  C   UNL d   1      -1.354  -7.605   6.414  0.00  0.00     0.065 C 
ATOM     15  C   UNL d   1       1.013  -7.965   7.350  0.00  0.00     0.065 C 
ATOM     16  HN  UNL d   1       1.479  -5.663   6.228  1.00  0.00     0.194 HD
ENDBRANCH  11  12
ENDBRANCH   8  11
ENDBRANCH   4   7
BRANCH   1  17
ATOM     17  C   UNL d   1       1.262   0.950   0.801  0.00  0.00     0.417 C 
ATOM     18  F   UNL d   1       1.262   2.191   1.364  0.00  0.00    -0.166 F 
ATOM     19  F   UNL d   1       0.429   1.030  -0.273  0.00  0.00    -0.166 F 
ATOM     20  F   UNL d   1       2.513   0.772   0.293  0.00  0.00    -0.166 F 
ENDBRANCH   1  17
TORSDOF 4
