REMARK  5 active torsions:
REMARK  status: ('A' for Active; 'I' for Inactive)
REMARK    1  A    between atoms: C_4  and  N_9 
REMARK    2  A    between atoms: C_8  and  C_22 
REMARK       I    between atoms: C_11  and  N_9 
REMARK    3  A    between atoms: C_23  and  C_11 
REMARK    4  A    between atoms: S_17  and  C_23 
REMARK    5  A    between atoms: C_22  and  S_17 
ROOT
ATOM      1  N   UNL d   1      -2.600  -0.075  -2.844  0.00  0.00    -0.356 N 
ATOM      2  C   UNL d   1      -3.398  -0.581  -3.844  0.00  0.00     0.227 C 
ATOM      3  O   UNL d   1      -3.187  -0.395  -5.044  0.00  0.00    -0.273 OA
ATOM      4  H   UNL d   1      -2.943  -0.228  -1.898  0.00  0.00     0.162 HD
ENDROOT
BRANCH   2   5
ATOM      5  C   UNL d   1      -4.617  -1.366  -3.357  0.00  0.00     0.176 C 
BRANCH   5   6
ATOM      6  S   UNL d   1      -4.306  -2.090  -1.708  0.00  0.00    -0.155 SA
BRANCH   6   7
ATOM      7  C   UNL d   1      -5.903  -2.900  -1.391  0.00  0.00     0.114 C 
BRANCH   7   8
ATOM      8  C   UNL d   1      -5.830  -3.561  -0.034  0.00  0.00    -0.027 A 
ATOM      9  C   UNL d   1      -6.162  -2.892   1.158  0.00  0.00     0.042 A 
ATOM     10  C   UNL d   1      -5.939  -3.489   2.399  0.00  0.00     0.048 A 
ATOM     11 CL   UNL d   1      -6.818  -1.292   1.153  0.00  0.00    -0.084 Cl
ATOM     12  C   UNL d   1      -5.375  -4.765   2.462  0.00  0.00     0.035 A 
ATOM     13  C   UNL d   1      -5.051  -5.449   1.297  0.00  0.00     0.024 A 
ATOM     14 CL   UNL d   1      -5.051  -5.478   3.992  0.00  0.00    -0.084 Cl
ATOM     15  C   UNL d   1      -5.278  -4.855   0.057  0.00  0.00     0.011 A 
ENDBRANCH   7   8
ENDBRANCH   6   7
ENDBRANCH   5   6
ENDBRANCH   2   5
BRANCH   1  16
ATOM     16  C   UNL d   1      -1.342   0.645  -3.022  0.00  0.00     0.088 C 
ATOM     17  C   UNL d   1      -0.789   1.111  -1.657  0.00  0.00     0.061 C 
ATOM     18  C   UNL d   1       0.158   0.091  -0.991  0.00  0.00     0.225 C 
ATOM     19  N   UNL d   1       1.248  -0.155  -1.955  0.00  0.00     0.093 N 
ATOM     20  C   UNL d   1      -0.495  -1.281  -0.789  0.00  0.00     0.038 C 
ATOM     21  C   UNL d   1       0.609  -1.060  -2.925  0.00  0.00     0.225 C 
ATOM     22  C   UNL d   1       2.439  -0.729  -1.330  0.00  0.00     0.310 C 
ATOM     23  C   UNL d   1      -0.290  -0.171  -3.804  0.00  0.00     0.061 C 
ATOM     24  C   UNL d   1      -0.154  -2.062  -2.058  0.00  0.00     0.038 C 
ENDBRANCH   1  16
TORSDOF 5
