REMARK  4 active torsions:
REMARK  status: ('A' for Active; 'I' for Inactive)
REMARK    1  A    between atoms: N_2  and  S_1 
REMARK    2  A    between atoms: C_8  and  S_1 
REMARK       I    between atoms: C_4  and  N_2 
REMARK    3  A    between atoms: C_3  and  C_13 
REMARK       I    between atoms: N_12  and  C_4 
REMARK    4  A    between atoms: C_13  and  N_12 
ROOT
ATOM      1  N   UNL d   1       0.378  -0.398   1.454  0.00  0.00    -0.232 N 
ATOM      2  C   UNL d   1       0.774  -1.542   2.132  0.00  0.00     0.330 C 
ATOM      3  N   UNL d   1       1.511  -2.459   1.451  0.00  0.00    -0.338 N 
ATOM      4  O   UNL d   1       0.434  -1.677   3.298  0.00  0.00    -0.246 OA
ATOM      5  H   UNL d   1      -0.263   0.205   1.961  0.00  0.00     0.183 HD
ATOM      6  H   UNL d   1       1.558  -2.353   0.443  0.00  0.00     0.164 HD
ENDROOT
BRANCH   1   7
ATOM      7  S   UNL d   1       0.820   0.180  -0.026  0.00  0.00     0.266 S 
ATOM      8  O   UNL d   1      -0.080   1.256  -0.360  0.00  0.00    -0.200 OA
ATOM      9  O   UNL d   1       1.021  -0.965  -0.897  0.00  0.00    -0.200 OA
BRANCH   7  10
ATOM     10  C   UNL d   1       2.412   0.901   0.294  0.00  0.00     0.080 A 
ATOM     11  C   UNL d   1       3.513   0.517  -0.473  0.00  0.00     0.026 A 
ATOM     12  C   UNL d   1       4.786   0.962  -0.114  0.00  0.00     0.008 A 
ATOM     13  C   UNL d   1       4.960   1.788   1.005  0.00  0.00    -0.062 A 
ATOM     14  C   UNL d   1       3.836   2.230   1.716  0.00  0.00     0.008 A 
ATOM     15  C   UNL d   1       6.347   2.129   1.467  0.00  0.00     0.048 C 
ATOM     16  C   UNL d   1       2.560   1.793   1.360  0.00  0.00     0.026 A 
ENDBRANCH   7  10
ENDBRANCH   1   7
BRANCH   3  17
ATOM     17  C   UNL d   1       1.920  -3.712   2.040  0.00  0.00     0.164 C 
BRANCH  17  18
ATOM     18  C   UNL d   1       0.928  -4.792   1.714  0.00  0.00    -0.022 A 
ATOM     19  C   UNL d   1       0.678  -5.328   0.389  0.00  0.00    -0.009 A 
ATOM     20  C   UNL d   1      -0.289  -6.339   0.411  0.00  0.00     0.015 A 
ATOM     21  C   UNL d   1       1.244  -4.989  -0.868  0.00  0.00     0.037 A 
ATOM     22  C   UNL d   1      -0.708  -6.996  -0.765  0.00  0.00     0.021 A 
ATOM     23  S   UNL d   1      -0.850  -6.638   2.009  0.00  0.00    -0.101 SA
ATOM     24  C   UNL d   1      -0.145  -6.623  -1.987  0.00  0.00     0.025 A 
ATOM     25  C   UNL d   1       0.822  -5.631  -2.033  0.00  0.00     0.035 A 
ATOM     26 CL   UNL d   1       1.514  -5.181  -3.544  0.00  0.00    -0.084 Cl
ATOM     27  C   UNL d   1       0.155  -5.431   2.664  0.00  0.00     0.060 A 
ENDBRANCH  17  18
ENDBRANCH   3  17
TORSDOF 4
