REMARK  5 active torsions:
REMARK  status: ('A' for Active; 'I' for Inactive)
REMARK    1  A    between atoms: N_6  and  C_2 
REMARK    2  A    between atoms: C_8  and  C_3 
REMARK    3  A    between atoms: C_12  and  C_15 
REMARK    4  A    between atoms: O_23  and  C_14 
REMARK    5  A    between atoms: O_24  and  C_16 
ROOT
ATOM      1  C   UNL d   1      -0.305  -1.117   0.057  0.00  0.00     0.085 A 
ATOM      2  C   UNL d   1       1.038  -0.820   0.192  0.00  0.00     0.096 A 
ATOM      3  C   UNL d   1      -0.411   1.223   0.115  0.00  0.00     0.025 A 
ATOM      4  S   UNL d   1       1.246   0.868   0.392  0.00  0.00    -0.070 SA
ATOM      5  C   UNL d   1      -1.162   0.054   0.026  0.00  0.00    -0.020 A 
ATOM      6  C   UNL d   1      -0.782  -2.463  -0.088  0.00  0.00     0.103 C 
ATOM      7  N   UNL d   1      -1.173  -3.554  -0.174  0.00  0.00    -0.191 NA
ATOM      8  C   UNL d   1      -2.650  -0.036  -0.150  0.00  0.00     0.051 C 
ENDROOT
BRANCH   2   9
ATOM      9  N   UNL d   1       2.182  -1.550   0.126  0.00  0.00    -0.358 N 
ATOM     10  C   UNL d   1       2.310  -2.595   0.876  0.00  0.00     0.107 C 
ATOM     11  HN  UNL d   1       2.932  -1.276  -0.509  1.00  0.00     0.166 HD
BRANCH  10  12
ATOM     12  C   UNL d   1       3.555  -3.323   0.842  0.00  0.00     0.020 A 
ATOM     13  S   UNL d   1       3.700  -4.808   1.672  0.00  0.00    -0.101 SA
ATOM     14  C   UNL d   1       5.333  -4.989   1.191  0.00  0.00     0.050 A 
ATOM     15  C   UNL d   1       5.765  -3.933   0.419  0.00  0.00     0.008 A 
ATOM     16  C   UNL d   1       4.734  -2.975   0.210  0.00  0.00     0.021 A 
ENDBRANCH  10  12
ENDBRANCH   2   9
BRANCH   3  17
ATOM     17  C   UNL d   1      -0.793   2.649   0.024  0.00  0.00    -0.016 A 
ATOM     18  C   UNL d   1      -0.010   3.547  -0.730  0.00  0.00     0.052 A 
ATOM     19  C   UNL d   1      -0.300   4.920  -0.810  0.00  0.00     0.102 A 
ATOM     20  C   UNL d   1      -1.445   5.402  -0.160  0.00  0.00     0.101 A 
ATOM     21  C   UNL d   1      -2.245   4.508   0.569  0.00  0.00     0.040 A 
ATOM     22  C   UNL d   1      -1.917   3.153   0.677  0.00  0.00     0.016 A 
BRANCH  19  23
ATOM     23  O   UNL d   1       0.476   5.796  -1.522  0.00  0.00    -0.353 OA
ATOM     24  C   UNL d   1       1.767   5.363  -1.936  0.00  0.00     0.210 C 
ENDBRANCH  19  23
BRANCH  20  25
ATOM     25  O   UNL d   1      -1.935   6.682  -0.124  0.00  0.00    -0.353 OA
ATOM     26  C   UNL d   1      -1.147   7.733  -0.663  0.00  0.00     0.210 C 
ENDBRANCH  20  25
ENDBRANCH   3  17
TORSDOF 5
