REMARK  3 active torsions:
REMARK  status: ('A' for Active; 'I' for Inactive)
REMARK    1  A    between atoms: N_2  and  C_1 
REMARK       I    between atoms: C_4  and  N_2 
REMARK    2  A    between atoms: C_7  and  C_3 
REMARK    3  A    between atoms: C_11  and  C_4 
ROOT
ATOM      1  C   UNL d   1       1.050  -0.956   0.122  0.00  0.00     0.121 A 
ATOM      2  C   UNL d   1      -0.233  -1.499   0.247  0.00  0.00     0.034 A 
ATOM      3  N   UNL d   1       1.296   0.369   0.026  0.00  0.00    -0.338 N 
ATOM      4  HN  UNL d   1       2.247   0.729  -0.054  1.00  0.00     0.168 HD
ATOM      5  N   UNL d   1      -1.035   0.804   0.117  0.00  0.00    -0.361 N 
ATOM      6  HN  UNL d   1      -1.807   1.470   0.089  1.00  0.00     0.166 HD
ATOM      7  C   UNL d   1       0.241   1.186   0.041  0.00  0.00     0.181 A 
ATOM      8  C   UNL d   1      -1.230  -0.526   0.234  0.00  0.00     0.104 A 
ENDROOT
BRANCH   1   9
ATOM      9  N   UNL d   1       2.170  -1.796  -0.012  0.00  0.00    -0.308 N 
ATOM     10  C   UNL d   1       3.328  -1.580   0.710  0.00  0.00     0.257 C 
ATOM     11  O   UNL d   1       3.466  -0.793   1.639  0.00  0.00    -0.267 OA
ATOM     12  H   UNL d   1       2.015  -2.726  -0.378  0.00  0.00     0.170 HD
BRANCH  10  13
ATOM     13  C   UNL d   1       4.439  -2.511   0.389  0.00  0.00     0.032 A 
ATOM     14  C   UNL d   1       4.732  -2.839  -0.938  0.00  0.00     0.017 A 
ATOM     15  C   UNL d   1       5.798  -3.701  -1.218  0.00  0.00     0.001 A 
ATOM     16  C   UNL d   1       6.557  -4.233  -0.178  0.00  0.00     0.000 A 
ATOM     17  C   UNL d   1       6.271  -3.901   1.145  0.00  0.00     0.001 A 
ATOM     18  C   UNL d   1       5.214  -3.033   1.431  0.00  0.00     0.017 A 
ENDBRANCH  10  13
ENDBRANCH   1   9
BRANCH   2  19
ATOM     19  C   UNL d   1      -0.574  -2.915   0.549  0.00  0.00    -0.021 A 
ATOM     20  C   UNL d   1       0.244  -3.714   1.369  0.00  0.00     0.013 A 
ATOM     21  C   UNL d   1      -0.164  -4.977   1.814  0.00  0.00     0.007 A 
ATOM     22  C   UNL d   1      -1.425  -5.470   1.483  0.00  0.00    -0.062 A 
ATOM     23  C   UNL d   1      -2.238  -4.717   0.635  0.00  0.00     0.007 A 
ATOM     24  C   UNL d   1      -1.929  -6.728   2.126  0.00  0.00     0.048 C 
ATOM     25  C   UNL d   1      -1.806  -3.472   0.156  0.00  0.00     0.013 A 
ENDBRANCH   2  19
TORSDOF 3
