REMARK  7 active torsions:
REMARK  status: ('A' for Active; 'I' for Inactive)
REMARK    1  A    between atoms: N_2  and  S_1 
REMARK    2  A    between atoms: C_6  and  S_1 
REMARK    3  A    between atoms: N_3  and  N_2 
REMARK    4  A    between atoms: C_4  and  N_3 
REMARK    5  A    between atoms: N_5  and  C_4 
REMARK    6  A    between atoms: C_9  and  N_5 
REMARK    7  A    between atoms: C_18  and  C_11 
ROOT
ATOM      1  N   UNL d   1       1.179   2.414   0.293  0.00  0.00    -0.284 N 
ATOM      2  H   UNL d   1       1.400   1.990  -0.605  0.00  0.00     0.184 HD
ENDROOT
BRANCH   1   3
ATOM      3  N   UNL d   1       1.892   1.881   1.452  0.00  0.00    -0.123 NA
ATOM      4  H   UNL d   1       2.686   1.258   1.285  0.00  0.00     0.166 HD
BRANCH   3   5
ATOM      5  S   UNL d   1       0.942   1.222   2.727  0.00  0.00     0.258 S 
ATOM      6  O   UNL d   1      -0.008   2.214   3.177  0.00  0.00    -0.204 OA
ATOM      7  O   UNL d   1       1.859   0.558   3.629  0.00  0.00    -0.204 OA
BRANCH   5   8
ATOM      8  C   UNL d   1       0.033  -0.069   1.893  0.00  0.00     0.076 A 
ATOM      9  C   UNL d   1       0.732  -1.121   1.293  0.00  0.00     0.025 A 
ATOM     10  C   UNL d   1       0.027  -2.144   0.656  0.00  0.00     0.008 A 
ATOM     11  C   UNL d   1      -1.375  -2.133   0.626  0.00  0.00    -0.062 A 
ATOM     12  C   UNL d   1      -2.064  -1.075   1.236  0.00  0.00     0.008 A 
ATOM     13  C   UNL d   1      -2.118  -3.252  -0.044  0.00  0.00     0.048 C 
ATOM     14  C   UNL d   1      -1.364  -0.046   1.874  0.00  0.00     0.025 A 
ENDBRANCH   5   8
ENDBRANCH   3   5
ENDBRANCH   1   3
BRANCH   1  15
ATOM     15  C   UNL d   1       0.901   3.765   0.192  0.00  0.00     0.187 C 
ATOM     16  S   UNL d   1       1.521   4.971   1.173  0.00  0.00    -0.040 SA
BRANCH  15  17
ATOM     17  N   UNL d   1       0.139   4.142  -0.888  0.00  0.00    -0.332 N 
ATOM     18  H   UNL d   1       0.170   5.139  -1.070  0.00  0.00     0.168 HD
BRANCH  17  19
ATOM     19  C   UNL d   1      -0.812   3.400  -1.629  0.00  0.00     0.040 A 
ATOM     20  C   UNL d   1      -1.291   3.902  -2.857  0.00  0.00    -0.032 A 
ATOM     21  C   UNL d   1      -2.294   3.187  -3.542  0.00  0.00     0.009 A 
ATOM     22  C   UNL d   1      -2.805   1.993  -3.036  0.00  0.00     0.001 A 
ATOM     23  C   UNL d   1      -2.333   1.503  -1.827  0.00  0.00     0.002 A 
ATOM     24  C   UNL d   1      -1.357   2.212  -1.128  0.00  0.00     0.030 A 
BRANCH  20  25
ATOM     25  C   UNL d   1      -0.775   5.173  -3.495  0.00  0.00     0.036 C 
ATOM     26  C   UNL d   1      -1.642   6.377  -3.165  0.00  0.00     0.010 C 
ENDBRANCH  20  25
ENDBRANCH  17  19
ENDBRANCH  15  17
ENDBRANCH   1  15
TORSDOF 7
