REMARK  4 active torsions:
REMARK  status: ('A' for Active; 'I' for Inactive)
REMARK    1  A    between atoms: C_6  and  C_1 
REMARK    2  A    between atoms: C_3  and  C_2 
REMARK    3  A    between atoms: O_7  and  C_3 
REMARK    4  A    between atoms: C_8  and  O_7 
ROOT
ATOM      1  C   UNL d   1      -1.444  -0.427   0.154  0.00  0.00     0.087 A 
ATOM      2  C   UNL d   1      -0.106  -0.922   0.235  0.00  0.00     0.100 A 
ATOM      3  N   UNL d   1      -1.445   0.821  -0.349  0.00  0.00    -0.259 N 
ATOM      4  HN  UNL d   1      -2.265   1.385  -0.570  1.00  0.00     0.195 HD
ATOM      5  O   UNL d   1      -0.136   1.188  -0.507  0.00  0.00    -0.241 OA
ATOM      6  C   UNL d   1       0.670   0.160  -0.153  0.00  0.00     0.091 A 
ATOM      7  C   UNL d   1       2.118   0.451  -0.215  0.00  0.00     0.080 C 
ENDROOT
BRANCH   2   8
ATOM      8  C   UNL d   1       0.417  -2.208   0.640  0.00  0.00     0.303 C 
ATOM      9  O   UNL d   1      -0.116  -2.968   1.441  0.00  0.00    -0.259 OA
BRANCH   8  10
ATOM     10  O   UNL d   1       1.616  -2.465  -0.026  0.00  0.00    -0.271 OA
BRANCH  10  11
ATOM     11  C   UNL d   1       2.618  -3.369   0.401  0.00  0.00     0.125 A 
ATOM     12  C   UNL d   1       3.132  -4.250  -0.552  0.00  0.00     0.085 A 
ATOM     13 CL   UNL d   1       2.425  -4.431  -2.110  0.00  0.00    -0.080 Cl
ATOM     14  C   UNL d   1       4.286  -4.949  -0.233  0.00  0.00     0.114 A 
ATOM     15  N   UNL d   1       4.939  -4.826   0.948  0.00  0.00    -0.372 N 
ATOM     16  C   UNL d   1       4.412  -3.957   1.847  0.00  0.00     0.114 A 
ATOM     17  HN  UNL d   1       5.785  -5.359   1.150  1.00  0.00     0.164 HD
ATOM     18  C   UNL d   1       3.268  -3.204   1.624  0.00  0.00     0.085 A 
ATOM     19 CL   UNL d   1       2.797  -2.034   2.793  0.00  0.00    -0.080 Cl
ENDBRANCH  10  11
ENDBRANCH   8  10
ENDBRANCH   2   8
BRANCH   1  20
ATOM     20  C   UNL d   1      -2.733  -1.047   0.463  0.00  0.00     0.037 A 
ATOM     21  C   UNL d   1      -3.626  -0.421   1.362  0.00  0.00     0.048 A 
ATOM     22 CL   UNL d   1      -3.187   0.964   2.312  0.00  0.00    -0.083 Cl
ATOM     23  C   UNL d   1      -4.928  -0.903   1.542  0.00  0.00     0.025 A 
ATOM     24  C   UNL d   1      -5.358  -2.033   0.854  0.00  0.00     0.003 A 
ATOM     25  C   UNL d   1      -4.480  -2.686  -0.008  0.00  0.00     0.025 A 
ATOM     26  C   UNL d   1      -3.183  -2.195  -0.213  0.00  0.00     0.048 A 
ATOM     27 CL   UNL d   1      -2.213  -3.037  -1.376  0.00  0.00    -0.083 Cl
ENDBRANCH   1  20
TORSDOF 4
