REMARK  3 active torsions:
REMARK  status: ('A' for Active; 'I' for Inactive)
REMARK    1  A    between atoms: C_2  and  C_1 
REMARK    2  A    between atoms: C_3  and  C_1 
REMARK    3  A    between atoms: C_7  and  C_3 
ROOT
ATOM      1  C   UNL d   1       0.962  -0.178   0.177  0.00  0.00     0.165 C 
ATOM      2  O   UNL d   1       1.323  -0.628   1.264  0.00  0.00    -0.292 OA
ENDROOT
BRANCH   1   3
ATOM      3  C   UNL d   1       1.119  -1.020  -1.035  0.00  0.00     0.025 A 
ATOM      4  C   UNL d   1       1.266  -0.489  -2.308  0.00  0.00     0.102 A 
ATOM      5  N   UNL d   1       1.388  -1.239  -3.431  0.00  0.00    -0.374 N 
ATOM      6  C   UNL d   1       1.381  -2.582  -3.272  0.00  0.00     0.087 A 
ATOM      7  HN  UNL d   1       1.480  -0.811  -4.352  1.00  0.00     0.164 HD
ATOM      8  C   UNL d   1       1.255  -3.208  -2.043  0.00  0.00     0.018 A 
ATOM      9  C   UNL d   1       1.125  -2.412  -0.907  0.00  0.00     0.018 A 
ENDBRANCH   1   3
BRANCH   1  10
ATOM     10  C   UNL d   1       0.304   1.184   0.056  0.00  0.00     0.122 C 
BRANCH  10  11
ATOM     11  C   UNL d   1       1.268   2.322  -0.166  0.00  0.00    -0.051 A 
ATOM     12  C   UNL d   1       1.131   3.160  -1.280  0.00  0.00     0.008 A 
ATOM     13  C   UNL d   1       2.011   4.226  -1.482  0.00  0.00     0.007 A 
ATOM     14  C   UNL d   1       3.034   4.486  -0.564  0.00  0.00    -0.062 A 
ATOM     15  C   UNL d   1       3.163   3.661   0.558  0.00  0.00     0.007 A 
ATOM     16  C   UNL d   1       3.972   5.633  -0.796  0.00  0.00     0.048 C 
ATOM     17  C   UNL d   1       2.287   2.590   0.757  0.00  0.00     0.008 A 
ENDBRANCH  10  11
ENDBRANCH   1  10
TORSDOF 3
