REMARK  5 active torsions:
REMARK  status: ('A' for Active; 'I' for Inactive)
REMARK    1  A    between atoms: O_7  and  C_1 
REMARK    2  A    between atoms: C_11  and  C_2 
REMARK    3  A    between atoms: S_3  and  O_7 
REMARK    4  A    between atoms: C_13  and  S_3 
REMARK    5  A    between atoms: C_14  and  C_13 
ROOT
ATOM      1  C   UNL d   1      -2.361  -0.199   0.001  0.00  0.00     0.174 A 
ATOM      2  C   UNL d   1      -1.908  -1.471  -0.011  0.00  0.00     0.125 A 
ATOM      3  C   UNL d   1      -1.328   0.874   0.123  0.00  0.00     0.222 A 
ATOM      4  O   UNL d   1      -0.578  -1.854   0.059  0.00  0.00    -0.306 OA
ATOM      5  C   UNL d   1       0.080   0.468   0.058  0.00  0.00     0.051 A 
ATOM      6  C   UNL d   1       0.386  -0.883   0.040  0.00  0.00     0.090 A 
ATOM      7  O   UNL d   1      -1.596   2.054   0.298  0.00  0.00    -0.284 OA
ATOM      8  C   UNL d   1       1.097   1.429   0.035  0.00  0.00     0.018 A 
ATOM      9  C   UNL d   1       1.720  -1.291   0.010  0.00  0.00     0.038 A 
ATOM     10  C   UNL d   1       2.430   1.024  -0.002  0.00  0.00     0.001 A 
ATOM     11  C   UNL d   1       2.741  -0.337  -0.011  0.00  0.00     0.003 A 
ENDROOT
BRANCH   1  12
ATOM     12  O   UNL d   1      -3.723   0.103  -0.076  0.00  0.00    -0.226 OA
BRANCH  12  13
ATOM     13  S   UNL d   1      -4.265   1.562  -0.593  0.00  0.00     0.274 S 
ATOM     14  O   UNL d   1      -4.287   2.487   0.523  0.00  0.00    -0.198 OA
ATOM     15  O   UNL d   1      -3.632   1.850  -1.869  0.00  0.00    -0.198 OA
BRANCH  13  16
ATOM     16  C   UNL d   1      -5.965   1.090  -0.905  0.00  0.00     0.209 C 
BRANCH  16  17
ATOM     17  C   UNL d   1      -6.690   2.263  -1.526  0.00  0.00    -0.042 A 
ATOM     18  C   UNL d   1      -6.697   2.433  -2.920  0.00  0.00     0.008 A 
ATOM     19  C   UNL d   1      -7.332   3.533  -3.500  0.00  0.00     0.001 A 
ATOM     20  C   UNL d   1      -7.968   4.476  -2.697  0.00  0.00     0.000 A 
ATOM     21  C   UNL d   1      -7.962   4.326  -1.313  0.00  0.00     0.001 A 
ATOM     22  C   UNL d   1      -7.325   3.228  -0.729  0.00  0.00     0.008 A 
ENDBRANCH  16  17
ENDBRANCH  13  16
ENDBRANCH  12  13
ENDBRANCH   1  12
BRANCH   2  23
ATOM     23  C   UNL d   1      -2.797  -2.636  -0.138  0.00  0.00     0.001 A 
ATOM     24  C   UNL d   1      -3.148  -3.111  -1.408  0.00  0.00     0.014 A 
ATOM     25  C   UNL d   1      -3.917  -4.269  -1.541  0.00  0.00     0.001 A 
ATOM     26  C   UNL d   1      -4.339  -4.961  -0.406  0.00  0.00     0.000 A 
ATOM     27  C   UNL d   1      -3.991  -4.496   0.862  0.00  0.00     0.001 A 
ATOM     28  C   UNL d   1      -3.221  -3.339   0.998  0.00  0.00     0.014 A 
ENDBRANCH   2  23
TORSDOF 5
