REMARK  6 active torsions:
REMARK  status: ('A' for Active; 'I' for Inactive)
REMARK    1  A    between atoms: N_2  and  C_1 
REMARK    2  A    between atoms: N_4  and  C_1 
REMARK    3  A    between atoms: C_3  and  N_2 
REMARK    4  A    between atoms: C_10  and  N_4 
REMARK    5  A    between atoms: C_12  and  N_4 
REMARK    6  A    between atoms: C_11  and  C_12 
ROOT
ATOM      1  N   UNL d   1      -3.361  -1.389  -0.446  0.00  0.00    -0.197 NA
ATOM      2  C   UNL d   1      -2.365  -1.984  -0.434  0.00  0.00     0.060 C 
ATOM      3  C   UNL d   1      -1.100  -2.733  -0.411  0.00  0.00     0.143 C 
ENDROOT
BRANCH   3   4
ATOM      4  C   UNL d   1      -0.054  -2.086  -1.327  0.00  0.00     0.139 C 
BRANCH   4   5
ATOM      5  N   UNL d   1       0.287  -0.703  -0.927  0.00  0.00    -0.353 N 
BRANCH   5   6
ATOM      6  C   UNL d   1       0.957  -0.455   0.304  0.00  0.00     0.174 C 
ATOM      7  S   UNL d   1       2.000  -1.541   1.051  0.00  0.00    -0.041 SA
BRANCH   6   8
ATOM      8  N   UNL d   1       0.537   0.762   0.841  0.00  0.00    -0.332 N 
ATOM      9  H   UNL d   1      -0.466   0.868   0.747  0.00  0.00     0.168 HD
BRANCH   8  10
ATOM     10  C   UNL d   1       1.132   1.472   1.913  0.00  0.00     0.046 A 
ATOM     11  C   UNL d   1       2.458   1.952   1.816  0.00  0.00    -0.035 A 
ATOM     12  C   UNL d   1       2.978   2.749   2.851  0.00  0.00     0.009 A 
ATOM     13  C   UNL d   1       3.363   1.715   0.639  0.00  0.00     0.050 C 
ATOM     14  C   UNL d   1       2.195   3.108   3.942  0.00  0.00     0.001 A 
ATOM     15  C   UNL d   1       0.889   2.653   4.029  0.00  0.00     0.009 A 
ATOM     16  C   UNL d   1       0.340   1.825   3.029  0.00  0.00    -0.035 A 
ATOM     17  C   UNL d   1      -1.071   1.348   3.250  0.00  0.00     0.050 C 
ENDBRANCH   8  10
ENDBRANCH   6   8
ENDBRANCH   5   6
BRANCH   5  18
ATOM     18  C   UNL d   1       0.480   0.303  -2.008  0.00  0.00     0.078 C 
ATOM     19  C   UNL d   1       1.752   0.017  -2.817  0.00  0.00     0.032 C 
ATOM     20  C   UNL d   1      -0.726   0.447  -2.938  0.00  0.00     0.032 C 
ENDBRANCH   5  18
ENDBRANCH   4   5
ENDBRANCH   3   4
TORSDOF 6
