REMARK  5 active torsions:
REMARK  status: ('A' for Active; 'I' for Inactive)
REMARK    1  A    between atoms: C_8  and  C_1 
REMARK    2  A    between atoms: S_10  and  C_2 
REMARK    3  A    between atoms: O_13  and  C_3 
REMARK    4  A    between atoms: O_15  and  C_8 
REMARK    5  A    between atoms: C_19  and  O_15 
ROOT
ATOM      1  C   UNL d   1       2.439  -0.732  -0.006  0.00  0.00     0.106 A 
ATOM      2  C   UNL d   1       2.335   0.657   0.048  0.00  0.00     0.089 A 
ATOM      3  C   UNL d   1       1.230  -1.459  -0.001  0.00  0.00     0.097 A 
ATOM      4  C   UNL d   1      -0.022  -0.816   0.030  0.00  0.00     0.026 A 
ATOM      5  N   UNL d   1       1.127   1.289   0.068  0.00  0.00    -0.349 N 
ATOM      6  HN  UNL d   1       1.090   2.308   0.099  1.00  0.00     0.166 HD
ATOM      7  C   UNL d   1      -0.009   0.585   0.047  0.00  0.00     0.046 A 
ATOM      8  C   UNL d   1      -1.258  -1.502   0.022  0.00  0.00     0.040 A 
ATOM      9  C   UNL d   1      -1.221   1.267   0.027  0.00  0.00     0.032 A 
ATOM     10  C   UNL d   1      -2.457  -0.797   0.007  0.00  0.00     0.035 A 
ATOM     11  C   UNL d   1      -2.444   0.591   0.002  0.00  0.00     0.026 A 
ATOM     12 CL   UNL d   1      -3.954  -1.641  -0.018  0.00  0.00    -0.084 Cl
ENDROOT
BRANCH   1  13
ATOM     13  C   UNL d   1       3.695  -1.512  -0.121  0.00  0.00     0.298 C 
ATOM     14  O   UNL d   1       3.667  -2.655  -0.569  0.00  0.00    -0.259 OA
BRANCH  13  15
ATOM     15  O   UNL d   1       4.795  -0.910   0.377  0.00  0.00    -0.318 OA
BRANCH  15  16
ATOM     16  C   UNL d   1       6.003  -1.689   0.326  0.00  0.00     0.174 C 
ATOM     17  C   UNL d   1       6.647  -1.613  -1.048  0.00  0.00     0.034 C 
ENDBRANCH  15  16
ENDBRANCH  13  15
ENDBRANCH   1  13
BRANCH   2  18
ATOM     18  S   UNL d   1       3.708   1.806   0.012  0.00  0.00    -0.116 SA
ATOM     19  C   UNL d   1       2.931   3.272   0.758  0.00  0.00     0.097 C 
ENDBRANCH   2  18
BRANCH   3  20
ATOM     20  O   UNL d   1       1.200  -2.840  -0.036  0.00  0.00    -0.359 OA
ATOM     21  H   UNL d   1       2.092  -3.182  -0.273  0.00  0.00     0.217 HD
ENDBRANCH   3  20
TORSDOF 5
