REMARK  5 active torsions:
REMARK  status: ('A' for Active; 'I' for Inactive)
REMARK    1  A    between atoms: S_2  and  N_1 
REMARK    2  A    between atoms: S_3  and  N_1 
REMARK    3  A    between atoms: N_4  and  N_1 
REMARK       I    between atoms: C_9  and  N_4 
REMARK    4  A    between atoms: C_5  and  C_9 
REMARK    5  A    between atoms: C_6  and  C_10 
ROOT
ATOM      1  C   UNL d   1       2.669   2.325   1.157  0.00  0.00     0.109 A 
ATOM      2  N   UNL d   1       1.288   2.545   1.224  0.00  0.00    -0.344 N 
ATOM      3  HN  UNL d   1       0.573   1.905   0.877  1.00  0.00     0.167 HD
ATOM      4  C   UNL d   1       1.050   3.711   1.804  0.00  0.00     0.102 A 
ATOM      5  S   UNL d   1       2.443   4.551   2.370  0.00  0.00    -0.080 SA
ATOM      6  C   UNL d   1       3.437   3.308   1.753  0.00  0.00     0.087 A 
ENDROOT
BRANCH   1   7
ATOM      7  C   UNL d   1       3.249   1.147   0.502  0.00  0.00     0.284 C 
ATOM      8  N   UNL d   1       2.321   0.175   0.198  0.00  0.00    -0.256 N 
ATOM      9  H   UNL d   1       1.359   0.510   0.100  0.00  0.00     0.186 HD
ATOM     10  O   UNL d   1       4.445   1.069   0.250  0.00  0.00    -0.265 OA
BRANCH   8  11
ATOM     11  N   UNL d   1       2.677  -1.014  -0.683  0.00  0.00    -0.003 NA
BRANCH  11  12
ATOM     12  S   UNL d   1       3.638  -2.262  -0.050  0.00  0.00     0.238 S 
ATOM     13  O   UNL d   1       2.894  -2.942   0.991  0.00  0.00    -0.209 OA
ATOM     14  O   UNL d   1       4.174  -3.020  -1.168  0.00  0.00    -0.209 OA
ATOM     15  C   UNL d   1       5.051  -1.531   0.736  0.00  0.00     0.182 C 
ENDBRANCH  11  12
BRANCH  11  16
ATOM     16  S   UNL d   1       1.276  -1.542  -1.518  0.00  0.00     0.238 S 
ATOM     17  O   UNL d   1       0.353  -2.110  -0.559  0.00  0.00    -0.209 OA
ATOM     18  O   UNL d   1       0.837  -0.402  -2.306  0.00  0.00    -0.209 OA
ATOM     19  C   UNL d   1       1.782  -2.817  -2.663  0.00  0.00     0.182 C 
ENDBRANCH  11  16
ENDBRANCH   8  11
ENDBRANCH   1   7
BRANCH   4  20
ATOM     20  C   UNL d   1      -0.331   4.299   1.949  0.00  0.00     0.073 A 
ATOM     21  N   UNL d   1      -0.537   5.573   2.464  0.00  0.00    -0.352 N 
ATOM     22  C   UNL d   1      -1.817   5.874   2.425  0.00  0.00     0.047 A 
ATOM     23  HN  UNL d   1       0.196   6.185   2.821  1.00  0.00     0.166 HD
ATOM     24  C   UNL d   1      -2.386   7.187   2.838  0.00  0.00     0.076 C 
ATOM     25  S   UNL d   1      -2.847   4.633   1.829  0.00  0.00    -0.087 SA
ATOM     26  C   UNL d   1      -1.477   3.636   1.560  0.00  0.00     0.083 A 
ENDBRANCH   4  20
TORSDOF 5
