REMARK  1 active torsions:
REMARK  status: ('A' for Active; 'I' for Inactive)
REMARK    1  A    between atoms: C_5  and  C_1 
ROOT
ATOM      1  C   UNL d   1       1.713   1.265  -0.029  0.00  0.00     0.185 A 
ATOM      2  N   UNL d   1       0.479   1.706  -0.006  0.00  0.00    -0.346 N 
ATOM      3  HN  UNL d   1       0.284   2.707   0.000  1.00  0.00     0.166 HD
ATOM      4  C   UNL d   1       2.047  -0.216  -0.012  0.00  0.00     0.277 A 
ATOM      5  N   UNL d   1       0.975  -1.075  -0.020  0.00  0.00    -0.320 N 
ATOM      6  C   UNL d   1      -0.570   0.771   0.011  0.00  0.00     0.059 A 
ATOM      7  C   UNL d   1      -0.341  -0.611  -0.010  0.00  0.00     0.061 A 
ATOM      8  O   UNL d   1       3.196  -0.627   0.008  0.00  0.00    -0.266 OA
ATOM      9  C   UNL d   1      -1.886   1.233   0.033  0.00  0.00     0.032 A 
ATOM     10  C   UNL d   1      -1.399  -1.520  -0.018  0.00  0.00     0.032 A 
ATOM     11  C   UNL d   1      -2.710  -1.042  -0.003  0.00  0.00     0.002 A 
ATOM     12  C   UNL d   1      -2.954   0.331   0.025  0.00  0.00     0.002 A 
ATOM     13  H   UNL d   1       1.178  -2.066  -0.017  0.00  0.00     0.169 HD
ENDROOT
BRANCH   1  14
ATOM     14  C   UNL d   1       2.881   2.216  -0.091  0.00  0.00     0.438 C 
ATOM     15  F   UNL d   1       4.119   1.656  -0.097  0.00  0.00    -0.164 F 
ATOM     16  F   UNL d   1       2.828   2.995  -1.213  0.00  0.00    -0.164 F 
ATOM     17  F   UNL d   1       2.877   3.087   0.960  0.00  0.00    -0.164 F 
ENDBRANCH   1  14
TORSDOF 1
