REMARK  5 active torsions:
REMARK  status: ('A' for Active; 'I' for Inactive)
REMARK    1  A    between atoms: C_5  and  C_1 
REMARK    2  A    between atoms: C_2  and  S_3 
REMARK    3  A    between atoms: C_6  and  C_2 
REMARK    4  A    between atoms: S_3  and  C_4 
REMARK    5  A    between atoms: O_15  and  C_5 
ROOT
ATOM      1  S   UNL d   1       1.659  -2.578  -1.261  0.00  0.00    -0.046 SA
ENDROOT
BRANCH   1   2
ATOM      2  C   UNL d   1       1.848  -2.033  -2.923  0.00  0.00     0.224 C 
ATOM      3  O   UNL d   1       0.898  -2.044  -3.700  0.00  0.00    -0.279 OA
BRANCH   2   4
ATOM      4  C   UNL d   1       3.199  -1.601  -3.387  0.00  0.00     0.023 A 
ATOM      5  C   UNL d   1       3.443  -1.595  -4.770  0.00  0.00     0.041 A 
ATOM      6  C   UNL d   1       4.681  -1.179  -5.274  0.00  0.00     0.056 A 
ATOM      7 CL   UNL d   1       4.908  -1.226  -6.987  0.00  0.00    -0.083 Cl
ATOM      8  C   UNL d   1       5.683  -0.746  -4.400  0.00  0.00     0.055 A 
ATOM      9  C   UNL d   1       5.444  -0.741  -3.025  0.00  0.00     0.026 A 
ATOM     10 CL   UNL d   1       7.226  -0.200  -4.949  0.00  0.00    -0.083 Cl
ATOM     11  C   UNL d   1       4.212  -1.172  -2.520  0.00  0.00     0.018 A 
ENDBRANCH   2   4
ENDBRANCH   1   2
BRANCH   1  12
ATOM     12  C   UNL d   1       0.654  -1.247  -0.599  0.00  0.00     0.025 A 
ATOM     13  C   UNL d   1       1.123  -0.237   0.268  0.00  0.00     0.056 A 
ATOM     14  C   UNL d   1       0.243   0.795   0.655  0.00  0.00     0.019 A 
ATOM     15  C   UNL d   1      -1.085   0.810   0.228  0.00  0.00     0.001 A 
ATOM     16  C   UNL d   1      -1.560  -0.213  -0.581  0.00  0.00     0.001 A 
ATOM     17  C   UNL d   1      -0.698  -1.230  -0.993  0.00  0.00     0.020 A 
BRANCH  13  18
ATOM     18  C   UNL d   1       2.508  -0.251   0.838  0.00  0.00     0.294 C 
ATOM     19  O   UNL d   1       3.245  -1.221   0.880  0.00  0.00    -0.259 OA
BRANCH  18  20
ATOM     20  O   UNL d   1       2.836   0.982   1.308  0.00  0.00    -0.322 OA
ATOM     21  C   UNL d   1       4.101   1.058   1.971  0.00  0.00     0.213 C 
ENDBRANCH  18  20
ENDBRANCH  13  18
ENDBRANCH   1  12
TORSDOF 5
