REMARK  4 active torsions:
REMARK  status: ('A' for Active; 'I' for Inactive)
REMARK    1  A    between atoms: C_2  and  C_1 
REMARK    2  A    between atoms: O_5  and  C_1 
REMARK    3  A    between atoms: C_14  and  O_5 
REMARK    4  A    between atoms: C_6  and  C_7 
ROOT
ATOM      1  O   UNL d   1       0.295  -0.663  -1.280  0.00  0.00    -0.275 OA
ENDROOT
BRANCH   1   2
ATOM      2  C   UNL d   1       1.169   0.414  -1.308  0.00  0.00     0.298 C 
ATOM      3  O   UNL d   1       0.892   1.599  -1.265  0.00  0.00    -0.259 OA
BRANCH   2   4
ATOM      4  C   UNL d   1       2.574  -0.052  -1.467  0.00  0.00     0.041 A 
ATOM      5  C   UNL d   1       3.563   0.928  -1.630  0.00  0.00     0.043 A 
ATOM      6  C   UNL d   1       4.905   0.569  -1.787  0.00  0.00     0.056 A 
ATOM      7 CL   UNL d   1       6.057   1.839  -1.997  0.00  0.00    -0.083 Cl
ATOM      8  C   UNL d   1       5.270  -0.781  -1.774  0.00  0.00     0.055 A 
ATOM      9  C   UNL d   1       4.286  -1.764  -1.619  0.00  0.00     0.026 A 
ATOM     10 CL   UNL d   1       6.908  -1.299  -1.940  0.00  0.00    -0.083 Cl
ATOM     11  C   UNL d   1       2.941  -1.405  -1.466  0.00  0.00     0.019 A 
ENDBRANCH   2   4
ENDBRANCH   1   2
BRANCH   1  12
ATOM     12  C   UNL d   1      -1.117  -0.543  -1.275  0.00  0.00     0.079 A 
ATOM     13  C   UNL d   1      -1.820  -1.716  -1.541  0.00  0.00     0.038 A 
ATOM     14  C   UNL d   1      -3.221  -1.700  -1.588  0.00  0.00     0.011 A 
ATOM     15  C   UNL d   1      -3.951  -0.518  -1.359  0.00  0.00    -0.050 A 
ATOM     16  C   UNL d   1      -3.210   0.646  -1.090  0.00  0.00     0.011 A 
ATOM     17  C   UNL d   1      -1.810   0.636  -1.038  0.00  0.00     0.038 A 
BRANCH  15  18
ATOM     18  C   UNL d   1      -5.491  -0.522  -1.389  0.00  0.00    -0.024 C 
ATOM     19  C   UNL d   1      -6.112   0.862  -1.087  0.00  0.00     0.019 C 
ATOM     20  C   UNL d   1      -6.000  -0.963  -2.778  0.00  0.00     0.019 C 
ATOM     21  C   UNL d   1      -6.039  -1.503  -0.330  0.00  0.00     0.019 C 
ENDBRANCH  15  18
ENDBRANCH   1  12
TORSDOF 4
