REMARK  3 active torsions:
REMARK  status: ('A' for Active; 'I' for Inactive)
REMARK    1  A    between atoms: C_12  and  C_1 
REMARK    2  A    between atoms: N_3  and  C_8 
REMARK    3  A    between atoms: C_10  and  C_6 
ROOT
ATOM      1  C   UNL d   1      -1.125  -1.170  -0.012  0.00  0.00     0.088 C 
ATOM      2  C   UNL d   1       0.199  -1.243   0.167  0.00  0.00     0.120 C 
ATOM      3  O   UNL d   1      -1.788   0.034  -0.129  0.00  0.00    -0.315 OA
ATOM      4  O   UNL d   1       0.342   1.138  -0.001  0.00  0.00    -0.281 OA
ATOM      5  C   UNL d   1      -1.020   1.105   0.414  0.00  0.00     0.311 C 
ATOM      6  C   UNL d   1       1.009  -0.026   0.103  0.00  0.00     0.288 C 
ATOM      7  O   UNL d   1       2.231  -0.091   0.098  0.00  0.00    -0.260 OA
ENDROOT
BRANCH   5   8
ATOM      8  C   UNL d   1      -1.662   2.417   0.002  0.00  0.00    -0.003 A 
ATOM      9  C   UNL d   1      -1.742   2.785  -1.354  0.00  0.00     0.014 A 
ATOM     10  C   UNL d   1      -2.304   4.009  -1.732  0.00  0.00     0.037 A 
ATOM     11  C   UNL d   1      -2.796   4.875  -0.747  0.00  0.00     0.102 A 
ATOM     12  C   UNL d   1      -2.735   4.520   0.606  0.00  0.00     0.037 A 
ATOM     13  C   UNL d   1      -2.171   3.296   0.975  0.00  0.00     0.014 A 
BRANCH  11  14
ATOM     14  N   UNL d   1      -3.370   6.168  -1.134  0.00  0.00    -0.116 N 
ATOM     15  O   UNL d   1      -3.400   6.451  -2.340  0.00  0.00    -0.532 OA
ATOM     16  O   UNL d   1      -3.795   6.905  -0.231  0.00  0.00    -0.532 OA
ENDBRANCH  11  14
ENDBRANCH   5   8
BRANCH   1  17
ATOM     17  C   UNL d   1      -1.987  -2.367  -0.107  0.00  0.00    -0.003 A 
ATOM     18  C   UNL d   1      -3.317  -2.321   0.340  0.00  0.00     0.014 A 
ATOM     19  C   UNL d   1      -4.157  -3.432   0.218  0.00  0.00     0.001 A 
ATOM     20  C   UNL d   1      -3.680  -4.608  -0.356  0.00  0.00     0.000 A 
ATOM     21  C   UNL d   1      -2.365  -4.674  -0.805  0.00  0.00     0.001 A 
ATOM     22  C   UNL d   1      -1.526  -3.562  -0.684  0.00  0.00     0.014 A 
ENDBRANCH   1  17
TORSDOF 3
