REMARK  6 active torsions:
REMARK  status: ('A' for Active; 'I' for Inactive)
REMARK    1  A    between atoms: C_2  and  S_1 
REMARK    2  A    between atoms: C_5  and  S_1 
REMARK    3  A    between atoms: N_7  and  C_3 
REMARK    4  A    between atoms: S_15  and  C_3 
REMARK    5  A    between atoms: C_18  and  N_7 
REMARK    6  A    between atoms: C_10  and  C_18 
ROOT
ATOM      1  C   UNL d   1       0.538   1.712   0.314  0.00  0.00     0.171 C 
ATOM      2  C   UNL d   1      -0.497   2.373  -0.272  0.00  0.00     0.078 C 
ATOM      3  C   UNL d   1       1.291   2.359   1.319  0.00  0.00     0.114 C 
ATOM      4  N   UNL d   1       1.853   2.857   2.210  0.00  0.00    -0.191 NA
ENDROOT
BRANCH   1   5
ATOM      5  S   UNL d   1       0.903   0.041   0.007  0.00  0.00     0.219 S 
ATOM      6  O   UNL d   1       0.795  -0.248  -1.411  0.00  0.00    -0.216 OA
ATOM      7  O   UNL d   1       0.203  -0.791   0.972  0.00  0.00    -0.216 OA
BRANCH   5   8
ATOM      8  C   UNL d   1       2.658  -0.220   0.366  0.00  0.00     0.065 A 
ATOM      9  C   UNL d   1       3.132  -0.140   1.681  0.00  0.00     0.025 A 
ATOM     10  C   UNL d   1       4.460  -0.471   1.966  0.00  0.00     0.025 A 
ATOM     11  C   UNL d   1       5.295  -0.945   0.955  0.00  0.00     0.034 A 
ATOM     12  C   UNL d   1       4.825  -1.049  -0.353  0.00  0.00     0.025 A 
ATOM     13 CL   UNL d   1       6.894  -1.452   1.335  0.00  0.00    -0.084 Cl
ATOM     14  C   UNL d   1       3.510  -0.677  -0.654  0.00  0.00     0.025 A 
ENDBRANCH   5   8
ENDBRANCH   1   5
BRANCH   2  15
ATOM     15  N   UNL d   1      -0.641   3.761  -0.127  0.00  0.00    -0.280 NA
ATOM     16  H   UNL d   1      -1.027   4.131  -1.000  0.00  0.00     0.128 HD
BRANCH  15  17
ATOM     17  C   UNL d   1      -1.466   4.374   0.930  0.00  0.00     0.158 C 
BRANCH  17  18
ATOM     18  C   UNL d   1      -1.444   5.866   0.858  0.00  0.00     0.065 A 
ATOM     19  O   UNL d   1      -1.904   6.420  -0.304  0.00  0.00    -0.326 OA
ATOM     20  C   UNL d   1      -1.756   7.766  -0.189  0.00  0.00     0.142 A 
ATOM     21  C   UNL d   1      -1.215   8.088   1.032  0.00  0.00     0.027 A 
ATOM     22  C   UNL d   1      -1.016   6.861   1.713  0.00  0.00     0.036 A 
ENDBRANCH  17  18
ENDBRANCH  15  17
ENDBRANCH   2  15
BRANCH   2  23
ATOM     23  S   UNL d   1      -1.729   1.548  -1.222  0.00  0.00    -0.120 SA
ATOM     24  C   UNL d   1      -1.073   1.704  -2.897  0.00  0.00     0.097 C 
ENDBRANCH   2  23
TORSDOF 6
