REMARK  5 active torsions:
REMARK  status: ('A' for Active; 'I' for Inactive)
REMARK    1  A    between atoms: C_6  and  S_1 
REMARK    2  A    between atoms: N_9  and  S_1 
REMARK    3  A    between atoms: C_2  and  C_11 
REMARK    4  A    between atoms: C_16  and  C_5 
REMARK    5  A    between atoms: C_11  and  N_9 
ROOT
ATOM      1  C   UNL d   1       1.127  -0.790  -2.636  0.00  0.00     0.176 C 
ENDROOT
BRANCH   1   2
ATOM      2  C   UNL d   1       0.513  -1.890  -3.426  0.00  0.00     0.021 A 
ATOM      3  C   UNL d   1       0.638  -3.303  -3.186  0.00  0.00     0.075 A 
ATOM      4  N   UNL d   1       0.005  -3.998  -4.144  0.00  0.00    -0.260 N 
ATOM      5  O   UNL d   1      -0.564  -3.076  -4.987  0.00  0.00    -0.242 OA
ATOM      6  HN  UNL d   1      -0.044  -5.013  -4.230  1.00  0.00     0.195 HD
ATOM      7  C   UNL d   1      -0.284  -1.823  -4.556  0.00  0.00     0.083 A 
ATOM      8  C   UNL d   1      -0.857  -0.733  -5.372  0.00  0.00     0.079 C 
BRANCH   3   9
ATOM      9  C   UNL d   1       1.316  -4.014  -2.097  0.00  0.00    -0.007 A 
ATOM     10  C   UNL d   1       1.967  -5.232  -2.351  0.00  0.00     0.014 A 
ATOM     11  C   UNL d   1       2.581  -5.944  -1.317  0.00  0.00     0.001 A 
ATOM     12  C   UNL d   1       2.555  -5.446  -0.017  0.00  0.00     0.000 A 
ATOM     13  C   UNL d   1       1.910  -4.241   0.252  0.00  0.00     0.001 A 
ATOM     14  C   UNL d   1       1.286  -3.533  -0.780  0.00  0.00     0.014 A 
ENDBRANCH   3   9
ENDBRANCH   1   2
BRANCH   1  15
ATOM     15  N   UNL d   1       1.351   0.411  -3.422  0.00  0.00    -0.311 N 
ATOM     16  H   UNL d   1       0.594   1.078  -3.553  0.00  0.00     0.172 HD
BRANCH  15  17
ATOM     17  S   UNL d   1       2.562   0.491  -4.572  0.00  0.00     0.262 S 
ATOM     18  O   UNL d   1       2.751  -0.823  -5.138  0.00  0.00    -0.200 OA
ATOM     19  O   UNL d   1       2.256   1.628  -5.410  0.00  0.00    -0.200 OA
BRANCH  17  20
ATOM     20  C   UNL d   1       3.998   0.881  -3.636  0.00  0.00     0.118 A 
ATOM     21  C   UNL d   1       4.079   2.119  -3.013  0.00  0.00     0.142 A 
ATOM     22  C   UNL d   1       5.238   2.485  -2.336  0.00  0.00     0.086 A 
ATOM     23  F   UNL d   1       3.054   2.979  -3.034  0.00  0.00    -0.204 F 
ATOM     24  C   UNL d   1       6.305   1.596  -2.294  0.00  0.00     0.119 A 
ATOM     25  C   UNL d   1       6.233   0.348  -2.911  0.00  0.00     0.044 A 
ATOM     26  F   UNL d   1       7.427   1.945  -1.651  0.00  0.00    -0.206 F 
ATOM     27  C   UNL d   1       5.071  -0.015  -3.592  0.00  0.00     0.031 A 
ENDBRANCH  17  20
ENDBRANCH  15  17
ENDBRANCH   1  15
TORSDOF 5
