REMARK  2 active torsions:
REMARK  status: ('A' for Active; 'I' for Inactive)
REMARK    1  A    between atoms: C_11  and  C_1 
REMARK    2  A    between atoms: O_15  and  C_11 
ROOT
ATOM      1  C   UNL d   1       0.522   0.496  -1.385  0.00  0.00    -0.017 C 
ATOM      2  C   UNL d   1       0.740   0.761   1.140  0.00  0.00    -0.042 C 
ATOM      3  C   UNL d   1      -1.532   0.275   0.110  0.00  0.00    -0.042 C 
ATOM      4  C   UNL d   1       0.260  -1.528   0.142  0.00  0.00    -0.042 C 
ATOM      5  C   UNL d   1      -0.778   1.025   1.230  0.00  0.00     0.018 C 
ATOM      6  C   UNL d   1       0.993  -0.758   1.263  0.00  0.00     0.018 C 
ATOM      7  C   UNL d   1      -1.254  -1.238   0.247  0.00  0.00     0.018 C 
ATOM      8  C   UNL d   1       1.247   1.238  -0.237  0.00  0.00     0.021 C 
ATOM      9  C   UNL d   1      -0.998   0.759  -1.258  0.00  0.00     0.021 C 
ATOM     10  C   UNL d   1       0.773  -1.023  -1.224  0.00  0.00     0.021 C 
ATOM     11  C   UNL d   1       1.476   1.512   2.255  0.00  0.00     0.015 C 
ATOM     12  C   UNL d   1      -3.036   0.547   0.213  0.00  0.00     0.015 C 
ATOM     13  C   UNL d   1       0.515  -3.032   0.280  0.00  0.00     0.015 C 
ENDROOT
BRANCH   1  14
ATOM     14  C   UNL d   1       1.034   0.976  -2.757  0.00  0.00     0.173 C 
BRANCH  14  15
ATOM     15  O   UNL d   1       2.430   0.741  -2.918  0.00  0.00    -0.400 OA
ATOM     16  H   UNL d   1       2.905   1.276  -2.264  0.00  0.00     0.209 HD
ENDBRANCH  14  15
ENDBRANCH   1  14
TORSDOF 2
