REMARK  4 active torsions:
REMARK  status: ('A' for Active; 'I' for Inactive)
REMARK       I    between atoms: N_2  and  C_1 
REMARK    1  A    between atoms: C_3  and  C_1 
REMARK    2  A    between atoms: C_4  and  N_2 
REMARK       I    between atoms: N_6  and  C_3 
REMARK    3  A    between atoms: C_15  and  N_6 
REMARK    4  A    between atoms: C_18  and  C_15 
ROOT
ATOM      1  C   UNL d   1       1.161   0.066   0.073  0.00  0.00     0.314 C 
ATOM      2  N   UNL d   1       0.492   0.790   1.036  0.00  0.00    -0.317 N 
ATOM      3  O   UNL d   1       2.338   0.162  -0.255  0.00  0.00    -0.262 OA
ATOM      4  H   UNL d   1      -0.361   0.364   1.392  0.00  0.00     0.169 HD
ENDROOT
BRANCH   1   5
ATOM      5  C   UNL d   1       0.290  -1.034  -0.565  0.00  0.00     0.309 C 
ATOM      6  N   UNL d   1       1.005  -1.941  -1.309  0.00  0.00    -0.349 N 
ATOM      7  H   UNL d   1       2.015  -1.805  -1.352  0.00  0.00     0.163 HD
ATOM      8  O   UNL d   1      -0.915  -1.046  -0.378  0.00  0.00    -0.262 OA
BRANCH   6   9
ATOM      9  C   UNL d   1       0.393  -2.998  -2.066  0.00  0.00     0.161 C 
BRANCH   9  10
ATOM     10  C   UNL d   1       0.796  -2.915  -3.515  0.00  0.00    -0.038 A 
ATOM     11  C   UNL d   1       1.921  -3.598  -3.989  0.00  0.00     0.025 A 
ATOM     12  C   UNL d   1       2.254  -3.479  -5.328  0.00  0.00     0.088 A 
ATOM     13  N   UNL d   1       1.559  -2.732  -6.213  0.00  0.00    -0.375 N 
ATOM     14  C   UNL d   1       0.484  -2.069  -5.733  0.00  0.00     0.088 A 
ATOM     15  HN  UNL d   1       1.832  -2.671  -7.194  1.00  0.00     0.164 HD
ATOM     16  C   UNL d   1       0.073  -2.123  -4.412  0.00  0.00     0.025 A 
ENDBRANCH   9  10
ENDBRANCH   6   9
ENDBRANCH   1   5
BRANCH   2  17
ATOM     17  C   UNL d   1       1.068   1.841   1.776  0.00  0.00     0.057 A 
ATOM     18  C   UNL d   1       0.761   1.990   3.138  0.00  0.00     0.062 A 
ATOM     19  C   UNL d   1       1.335   3.019   3.886  0.00  0.00     0.050 A 
ATOM     20 CL   UNL d   1      -0.261   0.855   3.949  0.00  0.00    -0.082 Cl
ATOM     21  C   UNL d   1       2.177   3.935   3.260  0.00  0.00     0.035 A 
ATOM     22  C   UNL d   1       2.462   3.821   1.900  0.00  0.00     0.026 A 
ATOM     23 CL   UNL d   1       2.873   5.216   4.171  0.00  0.00    -0.084 Cl
ATOM     24  C   UNL d   1       1.921   2.766   1.162  0.00  0.00     0.033 A 
ENDBRANCH   2  17
TORSDOF 4
