REMARK  9 active torsions:
REMARK  status: ('A' for Active; 'I' for Inactive)
REMARK    1  A    between atoms: C_23  and  N_1 
REMARK    2  A    between atoms: S_11  and  C_2 
REMARK    3  A    between atoms: O_22  and  C_3 
REMARK    4  A    between atoms: C_8  and  C_12 
REMARK       I    between atoms: N_9  and  C_10 
REMARK    5  A    between atoms: C_10  and  C_13 
REMARK    6  A    between atoms: C_13  and  S_11 
REMARK    7  A    between atoms: C_24  and  C_23 
REMARK    8  A    between atoms: C_26  and  C_24 
REMARK    9  A    between atoms: C_25  and  C_26 
ROOT
ATOM      1  N   UNL d   1       0.255   0.350  -0.129  0.00  0.00    -0.291 N 
ATOM      2  C   UNL d   1       0.954  -0.800   0.125  0.00  0.00     0.165 A 
ATOM      3  C   UNL d   1      -0.999   0.116   0.379  0.00  0.00     0.240 A 
ATOM      4  N   UNL d   1       0.170  -1.673   0.718  0.00  0.00    -0.277 N 
ATOM      5  HN  UNL d   1       0.433  -2.614   1.010  1.00  0.00     0.189 HD
ATOM      6  N   UNL d   1      -1.064  -1.096   0.876  0.00  0.00    -0.263 N 
ATOM      7  HN  UNL d   1      -1.883  -1.531   1.302  1.00  0.00     0.190 HD
ENDROOT
BRANCH   2   8
ATOM      8  S   UNL d   1       2.618  -1.073  -0.265  0.00  0.00    -0.083 SA
BRANCH   8   9
ATOM      9  C   UNL d   1       2.707  -2.853   0.081  0.00  0.00     0.185 C 
BRANCH   9  10
ATOM     10  C   UNL d   1       4.121  -3.417   0.119  0.00  0.00     0.229 C 
ATOM     11  N   UNL d   1       4.213  -4.797   0.352  0.00  0.00    -0.351 N 
ATOM     12  C   UNL d   1       5.520  -5.416   0.552  0.00  0.00     0.126 C 
ATOM     13  C   UNL d   1       3.094  -5.736   0.274  0.00  0.00     0.126 C 
ATOM     14  C   UNL d   1       5.813  -6.421  -0.563  0.00  0.00     0.033 C 
ATOM     15  C   UNL d   1       4.670  -7.439  -0.755  0.00  0.00     0.096 C 
ATOM     16  C   UNL d   1       3.327  -6.698  -0.892  0.00  0.00     0.033 C 
ATOM     17  O   UNL d   1       5.127  -2.717  -0.003  0.00  0.00    -0.273 OA
BRANCH  15  18
ATOM     18  C   UNL d   1       4.631  -8.507   0.341  0.00  0.00     0.391 C 
ATOM     19  F   UNL d   1       5.608  -8.346   1.257  0.00  0.00    -0.171 F 
ATOM     20  F   UNL d   1       3.454  -8.525   1.004  0.00  0.00    -0.171 F 
ATOM     21  F   UNL d   1       4.793  -9.736  -0.203  0.00  0.00    -0.171 F 
ENDBRANCH  15  18
ENDBRANCH   9  10
ENDBRANCH   8   9
ENDBRANCH   2   8
BRANCH   1  22
ATOM     22  C   UNL d   1       0.656   1.509  -0.898  0.00  0.00     0.135 C 
BRANCH  22  23
ATOM     23  C   UNL d   1       1.053   2.723  -0.052  0.00  0.00     0.020 C 
BRANCH  23  24
ATOM     24  C   UNL d   1       2.432   2.636   0.608  0.00  0.00     0.001 C 
BRANCH  24  25
ATOM     25  C   UNL d   1       3.580   2.591  -0.403  0.00  0.00    -0.004 C 
ATOM     26  C   UNL d   1       4.933   2.539   0.287  0.00  0.00     0.005 C 
ENDBRANCH  24  25
ENDBRANCH  23  24
ENDBRANCH  22  23
ENDBRANCH   1  22
BRANCH   3  27
ATOM     27  O   UNL d   1      -2.028   0.947   0.370  0.00  0.00    -0.331 OA
ATOM     28  H   UNL d   1      -1.736   1.828   0.094  0.00  0.00     0.221 HD
ENDBRANCH   3  27
TORSDOF 9
