REMARK  6 active torsions:
REMARK  status: ('A' for Active; 'I' for Inactive)
REMARK    1  A    between atoms: N_5  and  C_1 
REMARK    2  A    between atoms: N_6  and  C_1 
REMARK       I    between atoms: C_2  and  N_7 
REMARK    3  A    between atoms: O_15  and  C_2 
REMARK    4  A    between atoms: C_10  and  N_5 
REMARK    5  A    between atoms: N_7  and  N_6 
REMARK    6  A    between atoms: C_19  and  O_15 
ROOT
ATOM      1  N   UNL d   1       0.449  -1.061  -0.441  0.00  0.00    -0.332 N 
ATOM      2  H   UNL d   1      -0.546  -0.939  -0.592  0.00  0.00     0.168 HD
ENDROOT
BRANCH   1   3
ATOM      3  C   UNL d   1       1.025   0.045   0.154  0.00  0.00     0.191 C 
ATOM      4  S   UNL d   1       2.513   0.736  -0.162  0.00  0.00    -0.039 SA
BRANCH   3   5
ATOM      5  N   UNL d   1       0.218   0.664   1.075  0.00  0.00    -0.272 N 
ATOM      6  H   UNL d   1       0.570   1.503   1.540  0.00  0.00     0.189 HD
BRANCH   5   7
ATOM      7  N   UNL d   1      -0.840  -0.007   1.713  0.00  0.00    -0.243 N 
ATOM      8  C   UNL d   1      -1.627   0.754   2.545  0.00  0.00     0.379 C 
ATOM      9  O   UNL d   1      -1.662   1.979   2.530  0.00  0.00    -0.237 OA
ATOM     10  H   UNL d   1      -0.656  -0.955   2.028  0.00  0.00     0.192 HD
BRANCH   8  11
ATOM     11  O   UNL d   1      -2.276  -0.040   3.431  0.00  0.00    -0.303 OA
BRANCH  11  12
ATOM     12  C   UNL d   1      -2.976   0.663   4.470  0.00  0.00     0.176 C 
ATOM     13  C   UNL d   1      -2.045   0.870   5.652  0.00  0.00     0.034 C 
ENDBRANCH  11  12
ENDBRANCH   8  11
ENDBRANCH   5   7
ENDBRANCH   3   5
ENDBRANCH   1   3
BRANCH   1  14
ATOM     14  C   UNL d   1       1.095  -2.056  -1.199  0.00  0.00     0.037 A 
ATOM     15  C   UNL d   1       2.343  -2.562  -0.832  0.00  0.00     0.069 A 
ATOM     16  C   UNL d   1       2.953  -3.551  -1.599  0.00  0.00     0.104 A 
ATOM     17  O   UNL d   1       4.182  -3.984  -1.173  0.00  0.00    -0.346 OA
ATOM     18  C   UNL d   1       2.309  -4.061  -2.728  0.00  0.00     0.102 A 
ATOM     19  C   UNL d   1       4.875  -4.670  -2.218  0.00  0.00     0.202 C 
ATOM     20  C   UNL d   1       3.962  -5.680  -2.894  0.00  0.00     0.202 C 
ATOM     21  O   UNL d   1       2.852  -5.033  -3.528  0.00  0.00    -0.346 OA
ATOM     22  C   UNL d   1       1.054  -3.575  -3.089  0.00  0.00     0.042 A 
ATOM     23  C   UNL d   1       0.435  -2.590  -2.311  0.00  0.00     0.032 A 
ENDBRANCH   1  14
TORSDOF 6
