REMARK  0 active torsions:
REMARK  status: ('A' for Active; 'I' for Inactive)
ROOT
ATOM      1  S   UNL d   1       2.019   0.849  -0.978  0.00  0.00     0.011 SA
ATOM      2  N   UNL d   1       1.798   0.063  -2.438  0.00  0.00    -0.281 N 
ATOM      3  O   UNL d   1       2.764  -0.156   0.028  0.00  0.00    -0.234 OA
ATOM      4  C   UNL d   1       2.393   0.756  -3.475  0.00  0.00     0.265 A 
ATOM      5  C   UNL d   1       3.015   2.100  -1.571  0.00  0.00     0.045 A 
ATOM      6  C   UNL d   1       3.107   1.952  -2.957  0.00  0.00     0.052 A 
ATOM      7  C   UNL d   1       0.499   1.192  -0.251  0.00  0.00     0.042 C 
ATOM      8  C   UNL d   1       2.130  -1.094   0.781  0.00  0.00     0.306 C 
ATOM      9  C   UNL d   1      -0.095   0.088   0.376  0.00  0.00     0.010 C 
ATOM     10  C   UNL d   1       0.630  -1.068   0.754  0.00  0.00     0.052 C 
ATOM     11  O   UNL d   1       2.367   0.466  -4.663  0.00  0.00    -0.267 OA
ATOM     12  O   UNL d   1       2.740  -1.925   1.443  0.00  0.00    -0.258 OA
ATOM     13  C   UNL d   1       1.065  -1.163  -2.592  0.00  0.00     0.169 C 
ATOM     14  C   UNL d   1      -1.491   0.130   0.565  0.00  0.00    -0.024 C 
ATOM     15  C   UNL d   1       3.814   2.862  -3.724  0.00  0.00     0.018 A 
ATOM     16  C   UNL d   1      -0.165   2.387  -0.487  0.00  0.00     0.022 C 
ATOM     17  C   UNL d   1       3.630   3.126  -0.892  0.00  0.00     0.022 A 
ATOM     18  C   UNL d   1      -0.055  -2.217   1.165  0.00  0.00     0.018 C 
ATOM     19  C   UNL d   1      -1.514   2.463  -0.163  0.00  0.00     0.002 C 
ATOM     20  C   UNL d   1      -1.446  -2.214   1.228  0.00  0.00     0.002 C 
ATOM     21  C   UNL d   1      -2.156  -1.041   0.964  0.00  0.00     0.012 C 
ATOM     22  C   UNL d   1      -2.183   1.330   0.314  0.00  0.00     0.012 C 
ATOM     23  C   UNL d   1       4.440   3.919  -3.063  0.00  0.00     0.001 A 
ATOM     24  C   UNL d   1       4.354   4.046  -1.661  0.00  0.00     0.002 A 
ENDROOT
TORSDOF 0
