REMARK  4 active torsions:
REMARK  status: ('A' for Active; 'I' for Inactive)
REMARK    1  A    between atoms: C_3  and  C_1 
REMARK    2  A    between atoms: C_7  and  CA_2 
REMARK       I    between atoms: N_5  and  C_3 
REMARK    3  A    between atoms: C_4  and  N_6 
REMARK    4  A    between atoms: OXT_23  and  C_7 
ROOT
ATOM      1  C   UNL d   1      -1.574  -2.476  -0.087  0.00  0.00     0.273 C 
ATOM      2  N   UNL d   1      -0.886  -3.666   0.219  0.00  0.00    -0.345 N 
ATOM      3  N   UNL d   1       0.017  -6.521   0.718  0.00  0.00    -0.376 N 
ATOM      4  O   UNL d   1      -2.308  -2.378  -1.072  0.00  0.00    -0.266 OA
ATOM      5  C   UNL d   1      -0.768  -4.673  -0.843  0.00  0.00     0.146 C 
ATOM      6  C   UNL d   1      -0.823  -6.167  -0.450  0.00  0.00     0.143 C 
ATOM      7  C   UNL d   1      -0.603  -4.790   2.406  0.00  0.00     0.040 C 
ATOM      8  C   UNL d   1       0.002  -3.845   1.368  0.00  0.00     0.128 C 
ATOM      9  C   UNL d   1      -0.616  -6.274   2.020  0.00  0.00     0.125 C 
ENDROOT
BRANCH   1  10
ATOM     10  C   UNL d   1      -1.480  -1.282   0.802  0.00  0.00     0.134 A 
ATOM     11  CA  UNL d   1      -1.435   0.016   0.305  0.00  0.00     0.139 A 
ATOM     12  N   UNL d   1      -1.494   1.127   1.123  0.00  0.00    -0.357 N 
ATOM     13  C   UNL d   1      -1.532   0.871   2.449  0.00  0.00     0.105 A 
ATOM     14  HN  UNL d   1      -1.507   2.077   0.752  1.00  0.00     0.165 HD
ATOM     15  C   UNL d   1      -1.563  -0.419   2.950  0.00  0.00     0.105 A 
ATOM     16  N   UNL d   1      -1.571  -1.511   2.151  0.00  0.00    -0.358 N 
ATOM     17  HN  UNL d   1      -1.641  -2.454   2.533  1.00  0.00     0.165 HD
BRANCH  11  18
ATOM     18  C   UNL d   1      -1.238   0.357  -1.126  0.00  0.00     0.196 C 
ATOM     19  O   UNL d   1      -0.672  -0.322  -1.960  0.00  0.00    -0.645 OA
BRANCH  18  20
ATOM     20  OXT UNL d   1      -1.684   1.627  -1.363  0.00  0.00    -0.772 OA
ATOM     21  HXT UNL d   1      -1.965   2.045  -0.515  0.00  0.00     0.167 HD
ENDBRANCH  18  20
ENDBRANCH  11  18
ENDBRANCH   1  10
BRANCH   3  22
ATOM     22  C   UNL d   1       1.085  -7.429   0.644  0.00  0.00     0.077 A 
ATOM     23  C   UNL d   1       2.280  -7.235   1.394  0.00  0.00     0.077 A 
ATOM     24 CL   UNL d   1       2.538  -5.943   2.520  0.00  0.00    -0.080 Cl
ATOM     25  C   UNL d   1       3.369  -8.095   1.230  0.00  0.00     0.113 A 
ATOM     26  N   UNL d   1       3.394  -9.143   0.388  0.00  0.00    -0.372 N 
ATOM     27  C   UNL d   1       2.249  -9.364  -0.288  0.00  0.00     0.113 A 
ATOM     28  HN  UNL d   1       4.220  -9.729   0.269  1.00  0.00     0.164 HD
ATOM     29  C   UNL d   1       1.092  -8.583  -0.179  0.00  0.00     0.077 A 
ATOM     30 CL   UNL d   1      -0.309  -9.220  -0.979  0.00  0.00    -0.080 Cl
ENDBRANCH   3  22
TORSDOF 4
