REMARK  6 active torsions:
REMARK  status: ('A' for Active; 'I' for Inactive)
REMARK    1  A    between atoms: C_4  and  C_1 
REMARK       I    between atoms: N_7  and  C_1 
REMARK       I    between atoms: C_3  and  N_2 
REMARK    2  A    between atoms: O_16  and  C_3 
REMARK    3  A    between atoms: C_6  and  C_5 
REMARK    4  A    between atoms: O_17  and  C_6 
REMARK    5  A    between atoms: C_13  and  N_7 
REMARK    6  A    between atoms: C_20  and  O_16 
ROOT
ATOM      1  C   UNL d   1       1.034   1.166  -0.960  0.00  0.00     0.253 C 
ATOM      2  N   UNL d   1       0.205   0.823   0.087  0.00  0.00    -0.352 N 
ATOM      3  O   UNL d   1       0.687   1.787  -1.946  0.00  0.00    -0.268 OA
ATOM      4  H   UNL d   1       0.561   0.229   0.830  0.00  0.00     0.163 HD
ENDROOT
BRANCH   2   5
ATOM      5  C   UNL d   1      -1.200   1.226   0.181  0.00  0.00     0.087 C 
ATOM      6  C   UNL d   1      -1.603   1.490   1.637  0.00  0.00     0.045 C 
ATOM      7  C   UNL d   1      -1.736   0.211   2.461  0.00  0.00     0.130 C 
ATOM      8  N   UNL d   1      -2.550  -0.801   1.795  0.00  0.00    -0.328 N 
ATOM      9  C   UNL d   1      -2.244  -1.074   0.396  0.00  0.00     0.130 C 
ATOM     10  C   UNL d   1      -3.198  -1.801   2.518  0.00  0.00     0.362 C 
ATOM     11  C   UNL d   1      -2.147   0.197  -0.440  0.00  0.00     0.045 C 
ATOM     12  O   UNL d   1      -3.734  -2.776   2.004  0.00  0.00    -0.238 OA
BRANCH  10  13
ATOM     13  O   UNL d   1      -3.153  -1.587   3.861  0.00  0.00    -0.304 OA
BRANCH  13  14
ATOM     14  C   UNL d   1      -3.742  -2.602   4.689  0.00  0.00     0.176 C 
ATOM     15  C   UNL d   1      -5.229  -2.351   4.855  0.00  0.00     0.034 C 
ENDBRANCH  13  14
ENDBRANCH  10  13
ENDBRANCH   2   5
BRANCH   1  16
ATOM     16  C   UNL d   1       2.451   0.748  -0.803  0.00  0.00     0.048 A 
ATOM     17  C   UNL d   1       3.153   0.875   0.406  0.00  0.00     0.053 A 
ATOM     18  C   UNL d   1       4.414   0.271   0.542  0.00  0.00     0.019 A 
ATOM     19  C   UNL d   1       5.003  -0.388  -0.537  0.00  0.00     0.001 A 
ATOM     20  C   UNL d   1       4.354  -0.416  -1.769  0.00  0.00     0.001 A 
ATOM     21  C   UNL d   1       3.083   0.153  -1.906  0.00  0.00     0.018 A 
BRANCH  17  22
ATOM     22  C   UNL d   1       2.639   1.596   1.594  0.00  0.00     0.177 C 
ATOM     23  O   UNL d   1       2.817   1.173   2.724  0.00  0.00    -0.646 OA
BRANCH  22  24
ATOM     24  O   UNL d   1       2.012   2.761   1.341  0.00  0.00    -0.773 OA
ATOM     25  H   UNL d   1       1.926   3.034   0.407  0.00  0.00     0.167 HD
ENDBRANCH  22  24
ENDBRANCH  17  22
ENDBRANCH   1  16
TORSDOF 6
