REMARK  7 active torsions:
REMARK  status: ('A' for Active; 'I' for Inactive)
REMARK    1  A    between atoms: N_2  and  S_1 
REMARK    2  A    between atoms: C_5  and  S_1 
REMARK       I    between atoms: C_3  and  N_2 
REMARK       I    between atoms: N_12  and  C_3 
REMARK       I    between atoms: C_4  and  N_13 
REMARK    3  A    between atoms: O_8  and  C_4 
REMARK    4  A    between atoms: C_11  and  O_8 
REMARK    5  A    between atoms: C_20  and  N_12 
REMARK    6  A    between atoms: N_13  and  C_19 
REMARK    7  A    between atoms: C_19  and  C_20 
ROOT
ATOM      1  N   UNL d   1       0.850  -0.513  -2.788  0.00  0.00    -0.232 N 
ATOM      2  C   UNL d   1       1.283   0.646  -3.409  0.00  0.00     0.329 C 
ATOM      3  O   UNL d   1       2.312   0.709  -4.065  0.00  0.00    -0.246 OA
ATOM      4  N   UNL d   1       0.464   1.718  -3.222  0.00  0.00    -0.341 N 
ATOM      5  H   UNL d   1       0.024  -0.540  -2.206  0.00  0.00     0.183 HD
ATOM      6  H   UNL d   1      -0.447   1.615  -2.792  0.00  0.00     0.164 HD
ENDROOT
BRANCH   1   7
ATOM      7  S   UNL d   1       1.743  -1.921  -2.804  0.00  0.00     0.266 S 
ATOM      8  O   UNL d   1       2.090  -2.255  -4.164  0.00  0.00    -0.200 OA
ATOM      9  O   UNL d   1       1.022  -2.865  -1.967  0.00  0.00    -0.200 OA
BRANCH   7  10
ATOM     10  C   UNL d   1       3.204  -1.443  -1.913  0.00  0.00     0.080 A 
ATOM     11  C   UNL d   1       3.111  -1.171  -0.544  0.00  0.00     0.026 A 
ATOM     12  C   UNL d   1       4.234  -0.704   0.141  0.00  0.00     0.008 A 
ATOM     13  C   UNL d   1       5.451  -0.519  -0.531  0.00  0.00    -0.062 A 
ATOM     14  C   UNL d   1       5.537  -0.832  -1.894  0.00  0.00     0.008 A 
ATOM     15  C   UNL d   1       6.638   0.027   0.207  0.00  0.00     0.048 C 
ATOM     16  C   UNL d   1       4.418  -1.297  -2.587  0.00  0.00     0.026 A 
ENDBRANCH   7  10
ENDBRANCH   1   7
BRANCH   4  17
ATOM     17  C   UNL d   1       0.690   2.949  -3.956  0.00  0.00     0.144 C 
BRANCH  17  18
ATOM     18  C   UNL d   1       0.089   2.914  -5.373  0.00  0.00     0.144 C 
BRANCH  18  19
ATOM     19  N   UNL d   1      -1.366   2.804  -5.515  0.00  0.00    -0.335 N 
ATOM     20  C   UNL d   1      -2.296   2.716  -4.533  0.00  0.00     0.361 C 
ATOM     21  O   UNL d   1      -2.054   2.768  -3.329  0.00  0.00    -0.238 OA
ATOM     22  H   UNL d   1      -1.738   2.774  -6.456  0.00  0.00     0.164 HD
BRANCH  20  23
ATOM     23  O   UNL d   1      -3.536   2.555  -5.059  0.00  0.00    -0.294 OA
BRANCH  23  24
ATOM     24  C   UNL d   1      -4.717   2.564  -4.198  0.00  0.00     0.061 C 
ATOM     25  C   UNL d   1      -4.845   3.920  -3.481  0.00  0.00     0.046 C 
ATOM     26  C   UNL d   1      -5.920   2.301  -5.130  0.00  0.00     0.046 C 
ATOM     27  C   UNL d   1      -4.705   1.433  -3.159  0.00  0.00     0.046 C 
ENDBRANCH  23  24
ENDBRANCH  20  23
ENDBRANCH  18  19
ENDBRANCH  17  18
ENDBRANCH   4  17
TORSDOF 7
