REMARK  10 active torsions:
REMARK  status: ('A' for Active; 'I' for Inactive)
REMARK    1  A    between atoms: C_6  and  C_1 
REMARK    2  A    between atoms: C_11  and  C_2 
REMARK    3  A    between atoms: S_13  and  C_5 
REMARK    4  A    between atoms: O_21  and  C_6 
REMARK    5  A    between atoms: C_10  and  C_19 
REMARK       I    between atoms: N_12  and  C_10 
REMARK    6  A    between atoms: O_25  and  C_11 
REMARK    7  A    between atoms: O_26  and  C_11 
REMARK    8  A    between atoms: C_20  and  N_12 
REMARK    9  A    between atoms: C_19  and  S_13 
REMARK   10  A    between atoms: C_22  and  C_15 
ROOT
ATOM      1  C   UNL d   1      -1.282   5.181   4.609  0.00  0.00     0.080 A 
ATOM      2  C   UNL d   1      -0.005   5.227   4.069  0.00  0.00     0.085 A 
ATOM      3  N   UNL d   1       0.340   4.400   3.040  0.00  0.00    -0.335 N 
ATOM      4  HN  UNL d   1       1.269   4.455   2.624  1.00  0.00     0.168 HD
ATOM      5  C   UNL d   1      -0.552   3.519   2.585  0.00  0.00     0.144 A 
ATOM      6  N   UNL d   1      -1.768   3.343   3.096  0.00  0.00    -0.346 N 
ATOM      7  HN  UNL d   1      -2.401   2.618   2.758  1.00  0.00     0.167 HD
ATOM      8  C   UNL d   1      -2.107   4.189   4.095  0.00  0.00     0.110 A 
ENDROOT
BRANCH   5   9
ATOM      9  S   UNL d   1      -0.142   2.768   1.040  0.00  0.00    -0.085 SA
BRANCH   9  10
ATOM     10  C   UNL d   1      -1.405   3.600   0.045  0.00  0.00     0.185 C 
BRANCH  10  11
ATOM     11  C   UNL d   1      -1.423   5.122   0.166  0.00  0.00     0.231 C 
ATOM     12  N   UNL d   1      -0.191   5.754   0.172  0.00  0.00    -0.327 N 
ATOM     13  H   UNL d   1       0.632   5.167   0.092  0.00  0.00     0.169 HD
ATOM     14  O   UNL d   1      -2.513   5.696   0.170  0.00  0.00    -0.272 OA
BRANCH  12  15
ATOM     15  C   UNL d   1       0.045   7.141   0.365  0.00  0.00     0.034 A 
ATOM     16  C   UNL d   1      -0.960   8.048   0.704  0.00  0.00     0.030 A 
ATOM     17  C   UNL d   1      -0.666   9.394   0.939  0.00  0.00     0.010 A 
ATOM     18  C   UNL d   1       0.641   9.882   0.837  0.00  0.00    -0.055 A 
ATOM     19  C   UNL d   1       1.649   8.981   0.469  0.00  0.00     0.010 A 
ATOM     20  C   UNL d   1       1.355   7.623   0.245  0.00  0.00     0.030 A 
BRANCH  18  21
ATOM     21  C   UNL d   1       0.960  11.332   1.164  0.00  0.00     0.010 C 
ATOM     22  C   UNL d   1       0.189  12.318   0.281  0.00  0.00     0.015 C 
ATOM     23  C   UNL d   1       0.695  11.616   2.648  0.00  0.00     0.015 C 
ENDBRANCH  18  21
ENDBRANCH  12  15
ENDBRANCH  10  11
ENDBRANCH   9  10
ENDBRANCH   5   9
BRANCH   2  24
ATOM     24  C   UNL d   1       1.095   6.203   4.494  0.00  0.00     0.310 C 
BRANCH  24  25
ATOM     25  O   UNL d   1       1.274   6.173   5.921  0.00  0.00    -0.360 OA
ATOM     26  C   UNL d   1       2.175   7.198   6.355  0.00  0.00     0.205 C 
ENDBRANCH  24  25
BRANCH  24  27
ATOM     27  O   UNL d   1       2.340   5.971   3.810  0.00  0.00    -0.360 OA
ATOM     28  C   UNL d   1       3.025   4.784   4.201  0.00  0.00     0.205 C 
ENDBRANCH  24  27
ENDBRANCH   2  24
BRANCH   1  29
ATOM     29  C   UNL d   1      -1.921   6.117   5.560  0.00  0.00     0.179 C 
ATOM     30  O   UNL d   1      -3.116   6.345   5.513  0.00  0.00    -0.646 OA
BRANCH  29  31
ATOM     31  O   UNL d   1      -1.130   6.671   6.497  0.00  0.00    -0.773 OA
ATOM     32  H   UNL d   1      -0.212   6.330   6.553  0.00  0.00     0.167 HD
ENDBRANCH  29  31
ENDBRANCH   1  29
TORSDOF 10
