REMARK  3 active torsions:
REMARK  status: ('A' for Active; 'I' for Inactive)
REMARK    1  A    between atoms: N_2  and  S_1 
REMARK    2  A    between atoms: C_6  and  S_1 
REMARK    3  A    between atoms: S_10  and  C_3 
ROOT
ATOM      1  S   UNL d   1       0.578   0.062  -0.040  0.00  0.00     0.266 S 
ATOM      2  O   UNL d   1      -0.577   0.111  -0.908  0.00  0.00    -0.200 OA
ATOM      3  O   UNL d   1       1.910   0.260  -0.581  0.00  0.00    -0.200 OA
ENDROOT
BRANCH   1   4
ATOM      4  N   UNL d   1       0.601  -1.353   0.845  0.00  0.00    -0.250 N 
ATOM      5  C   UNL d   1      -0.449  -2.052   1.448  0.00  0.00     0.151 C 
ATOM      6  N   UNL d   1      -0.110  -2.776   2.466  0.00  0.00    -0.368 N 
ATOM      7  C   UNL d   1       1.340  -2.531   2.683  0.00  0.00     0.143 C 
ATOM      8  HN  UNL d   1      -0.715  -3.392   3.010  1.00  0.00     0.161 HD
ATOM      9  C   UNL d   1       1.860  -1.741   1.483  0.00  0.00     0.163 C 
BRANCH   5  10
ATOM     10  S   UNL d   1      -2.059  -2.006   0.836  0.00  0.00    -0.098 SA
ATOM     11  C   UNL d   1      -2.962  -2.744   2.212  0.00  0.00     0.099 C 
ENDBRANCH   5  10
ENDBRANCH   1   4
BRANCH   1  12
ATOM     12  C   UNL d   1       0.328   1.307   1.219  0.00  0.00     0.080 A 
ATOM     13  C   UNL d   1       1.352   2.196   1.550  0.00  0.00     0.026 A 
ATOM     14  C   UNL d   1       1.119   3.188   2.507  0.00  0.00     0.008 A 
ATOM     15  C   UNL d   1      -0.131   3.295   3.138  0.00  0.00    -0.062 A 
ATOM     16  C   UNL d   1      -1.151   2.405   2.784  0.00  0.00     0.008 A 
ATOM     17  C   UNL d   1      -0.375   4.368   4.158  0.00  0.00     0.048 C 
ATOM     18  C   UNL d   1      -0.929   1.426   1.816  0.00  0.00     0.026 A 
ENDBRANCH   1  12
TORSDOF 3
