REMARK  4 active torsions:
REMARK  status: ('A' for Active; 'I' for Inactive)
REMARK       I    between atoms: N_8  and  C_1 
REMARK       I    between atoms: N_9  and  C_1 
REMARK    1  A    between atoms: N_2  and  N_8 
REMARK    2  A    between atoms: N_4  and  N_9 
REMARK    3  A    between atoms: C_19  and  C_17 
REMARK    4  A    between atoms: C_20  and  C_18 
ROOT
ATOM      1  C   UNL d   1       0.935   0.143   0.018  0.00  0.00     0.353 C 
ATOM      2  N   UNL d   1       0.270  -0.227   1.190  0.00  0.00    -0.251 N 
ATOM      3  N   UNL d   1       0.031   0.457  -0.998  0.00  0.00    -0.251 N 
ATOM      4  O   UNL d   1       2.157   0.189  -0.102  0.00  0.00    -0.244 OA
ATOM      5  H   UNL d   1      -0.738  -0.265   1.219  0.00  0.00     0.191 HD
ATOM      6  H   UNL d   1      -0.961   0.377  -0.835  0.00  0.00     0.191 HD
ENDROOT
BRANCH   2   7
ATOM      7  N   UNL d   1       0.987  -0.569   2.298  0.00  0.00    -0.307 N 
ATOM      8  C   UNL d   1       0.310  -0.909   3.345  0.00  0.00     0.118 C 
ATOM      9  HN  UNL d   1       2.006  -0.557   2.300  1.00  0.00     0.186 HD
BRANCH   8  10
ATOM     10  C   UNL d   1       0.998  -1.299   4.595  0.00  0.00    -0.018 A 
ATOM     11  C   UNL d   1       0.241  -1.664   5.710  0.00  0.00     0.038 A 
ATOM     12  C   UNL d   1       0.888  -2.034   6.896  0.00  0.00     0.056 A 
ATOM     13 CL   UNL d   1      -0.104  -2.479   8.241  0.00  0.00    -0.083 Cl
ATOM     14  C   UNL d   1       2.287  -2.035   6.965  0.00  0.00     0.055 A 
ATOM     15  C   UNL d   1       3.038  -1.669   5.845  0.00  0.00     0.026 A 
ATOM     16 CL   UNL d   1       3.144  -2.476   8.398  0.00  0.00    -0.083 Cl
ATOM     17  C   UNL d   1       2.395  -1.302   4.661  0.00  0.00     0.014 A 
ENDBRANCH   8  10
ENDBRANCH   2   7
BRANCH   3  18
ATOM     18  N   UNL d   1       0.479   0.815  -2.238  0.00  0.00    -0.307 N 
ATOM     19  C   UNL d   1      -0.439   1.084  -3.107  0.00  0.00     0.118 C 
ATOM     20  HN  UNL d   1       1.473   0.866  -2.463  1.00  0.00     0.186 HD
BRANCH  19  21
ATOM     21  C   UNL d   1      -0.112   1.456  -4.499  0.00  0.00    -0.018 A 
ATOM     22  C   UNL d   1      -1.160   1.717  -5.386  0.00  0.00     0.038 A 
ATOM     23  C   UNL d   1      -0.880   2.035  -6.719  0.00  0.00     0.056 A 
ATOM     24 CL   UNL d   1      -2.223   2.337  -7.765  0.00  0.00    -0.083 Cl
ATOM     25  C   UNL d   1       0.446   2.093  -7.165  0.00  0.00     0.055 A 
ATOM     26  C   UNL d   1       1.491   1.844  -6.269  0.00  0.00     0.026 A 
ATOM     27 CL   UNL d   1       0.857   2.456  -8.803  0.00  0.00    -0.083 Cl
ATOM     28  C   UNL d   1       1.214   1.526  -4.936  0.00  0.00     0.014 A 
ENDBRANCH  19  21
ENDBRANCH   3  18
TORSDOF 4
