REMARK  6 active torsions:
REMARK  status: ('A' for Active; 'I' for Inactive)
REMARK       I    between atoms: N_7  and  C_1 
REMARK       I    between atoms: N_8  and  C_1 
REMARK    1  A    between atoms: C_2  and  N_6 
REMARK    2  A    between atoms: N_6  and  N_7 
REMARK    3  A    between atoms: C_12  and  N_8 
REMARK    4  A    between atoms: O_13  and  C_14 
REMARK    5  A    between atoms: C_15  and  O_13 
REMARK    6  A    between atoms: C_20  and  C_15 
ROOT
ATOM      1  C   UNL d   1      -1.971   2.358   1.806  0.00  0.00     0.119 A 
ATOM      2  C   UNL d   1      -1.587   3.693   1.719  0.00  0.00     0.084 A 
ATOM      3  C   UNL d   1      -0.358   4.091   1.127  0.00  0.00     0.103 C 
ATOM      4  N   UNL d   1       0.674   4.388   0.679  0.00  0.00    -0.191 NA
ATOM      5  N   UNL d   1      -3.174   2.010   2.336  0.00  0.00    -0.354 N 
ATOM      6  HN  UNL d   1      -3.445   1.029   2.405  1.00  0.00     0.166 HD
ATOM      7  C   UNL d   1      -2.448   4.681   2.214  0.00  0.00     0.027 A 
ATOM      8  C   UNL d   1      -4.004   2.983   2.770  0.00  0.00     0.089 A 
ATOM      9  C   UNL d   1      -3.682   4.323   2.739  0.00  0.00     0.019 A 
ENDROOT
BRANCH   1  10
ATOM     10  N   UNL d   1      -1.293   1.262   1.256  0.00  0.00    -0.185 NA
ATOM     11  H   UNL d   1      -1.790   0.468   1.664  0.00  0.00     0.154 HD
BRANCH  10  12
ATOM     12  N   UNL d   1       0.099   1.136   1.336  0.00  0.00    -0.267 N 
ATOM     13  C   UNL d   1       0.789   0.045   0.871  0.00  0.00     0.335 C 
ATOM     14  N   UNL d   1       0.174  -1.118   0.513  0.00  0.00    -0.308 N 
ATOM     15  O   UNL d   1       2.020   0.101   0.805  0.00  0.00    -0.246 OA
ATOM     16  H   UNL d   1       0.818  -1.835   0.206  0.00  0.00     0.170 HD
ATOM     17  H   UNL d   1       0.671   1.975   1.346  0.00  0.00     0.186 HD
BRANCH  14  18
ATOM     18  C   UNL d   1      -1.186  -1.395   0.397  0.00  0.00     0.036 A 
ATOM     19  C   UNL d   1      -1.897  -1.008  -0.740  0.00  0.00     0.032 A 
ATOM     20  C   UNL d   1      -3.293  -1.076  -0.730  0.00  0.00     0.039 A 
ATOM     21  C   UNL d   1      -3.967  -1.510   0.415  0.00  0.00     0.069 A 
ATOM     22  C   UNL d   1      -3.238  -1.976   1.514  0.00  0.00     0.039 A 
ATOM     23  C   UNL d   1      -1.845  -1.927   1.504  0.00  0.00     0.032 A 
BRANCH  21  24
ATOM     24  O   UNL d   1      -5.334  -1.417   0.373  0.00  0.00    -0.347 OA
BRANCH  24  25
ATOM     25  C   UNL d   1      -5.959  -1.310   1.656  0.00  0.00     0.214 C 
BRANCH  25  26
ATOM     26  C   UNL d   1      -7.350  -0.746   1.516  0.00  0.00    -0.034 A 
ATOM     27  C   UNL d   1      -8.457  -1.440   2.026  0.00  0.00     0.009 A 
ATOM     28  C   UNL d   1      -9.734  -0.883   1.951  0.00  0.00     0.001 A 
ATOM     29  C   UNL d   1      -9.916   0.371   1.371  0.00  0.00     0.000 A 
ATOM     30  C   UNL d   1      -8.823   1.069   0.861  0.00  0.00     0.001 A 
ATOM     31  C   UNL d   1      -7.545   0.514   0.934  0.00  0.00     0.009 A 
ENDBRANCH  25  26
ENDBRANCH  24  25
ENDBRANCH  21  24
ENDBRANCH  14  18
ENDBRANCH  10  12
ENDBRANCH   1  10
TORSDOF 6
