REMARK  6 active torsions:
REMARK  status: ('A' for Active; 'I' for Inactive)
REMARK    1  A    between atoms: C_2  and  C_1 
REMARK       I    between atoms: N_3  and  C_1 
REMARK    2  A    between atoms: C_4  and  N_3 
REMARK    3  A    between atoms: C_8  and  C_4 
REMARK    4  A    between atoms: O_11  and  C_6 
REMARK    5  A    between atoms: O_10  and  C_7 
REMARK    6  A    between atoms: C_9  and  C_8 
ROOT
ATOM      1  C   UNL d   1       1.228   0.710   1.531  0.00  0.00     0.257 C 
ATOM      2  N   UNL d   1       0.224  -0.146   1.126  0.00  0.00    -0.348 N 
ATOM      3  O   UNL d   1       0.967   1.694   2.224  0.00  0.00    -0.267 OA
ATOM      4  H   UNL d   1       0.513  -0.928   0.550  0.00  0.00     0.163 HD
ENDROOT
BRANCH   1   5
ATOM      5  C   UNL d   1       2.650   0.436   1.032  0.00  0.00     0.098 A 
ATOM      6  C   UNL d   1       2.951  -0.587   0.094  0.00  0.00     0.086 A 
ATOM      7  C   UNL d   1       4.255  -0.703  -0.423  0.00  0.00     0.038 A 
ATOM      8  C   UNL d   1       5.255   0.187  -0.056  0.00  0.00     0.005 A 
ATOM      9  C   UNL d   1       4.984   1.173   0.882  0.00  0.00     0.038 A 
ATOM     10  C   UNL d   1       3.706   1.292   1.453  0.00  0.00     0.086 A 
BRANCH   6  11
ATOM     11  O   UNL d   1       1.958  -1.468  -0.269  0.00  0.00    -0.355 OA
ATOM     12  C   UNL d   1       2.196  -2.286  -1.415  0.00  0.00     0.210 C 
ENDBRANCH   6  11
BRANCH  10  13
ATOM     13  O   UNL d   1       3.461   2.183   2.469  0.00  0.00    -0.355 OA
ATOM     14  C   UNL d   1       4.386   3.237   2.688  0.00  0.00     0.210 C 
ENDBRANCH  10  13
ENDBRANCH   1   5
BRANCH   2  15
ATOM     15  C   UNL d   1      -1.222  -0.005   1.404  0.00  0.00     0.026 C 
ATOM     16  C   UNL d   1      -1.935  -1.244   0.830  0.00  0.00     0.038 C 
ATOM     17  C   UNL d   1      -1.470  -0.050   2.934  0.00  0.00     0.038 C 
BRANCH  15  18
ATOM     18  C   UNL d   1      -1.856   1.330   0.867  0.00  0.00     0.038 C 
BRANCH  18  19
ATOM     19  C   UNL d   1      -1.848   1.738  -0.643  0.00  0.00    -0.049 C 
ATOM     20  C   UNL d   1      -2.712   0.828  -1.531  0.00  0.00     0.014 C 
ATOM     21  C   UNL d   1      -2.466   3.157  -0.751  0.00  0.00     0.014 C 
ATOM     22  C   UNL d   1      -0.425   1.807  -1.211  0.00  0.00     0.014 C 
ENDBRANCH  18  19
ENDBRANCH  15  18
ENDBRANCH   2  15
TORSDOF 6
