REMARK  5 active torsions:
REMARK  status: ('A' for Active; 'I' for Inactive)
REMARK    1  A    between atoms: C_14  and  N_1 
REMARK    2  A    between atoms: C_18  and  N_5 
REMARK    3  A    between atoms: C_12  and  C_7 
REMARK       I    between atoms: N_19  and  C_12 
REMARK    4  A    between atoms: C_21  and  C_14 
REMARK    5  A    between atoms: N_20  and  N_19 
ROOT
ATOM      1  N   UNL d   1      -0.683   1.162  -0.062  0.00  0.00    -0.261 N 
ATOM      2  C   UNL d   1      -1.360  -0.044  -0.212  0.00  0.00     0.332 C 
ATOM      3  C   UNL d   1       1.480   0.019   0.002  0.00  0.00     0.082 C 
ATOM      4  C   UNL d   1       0.698   1.288  -0.005  0.00  0.00     0.266 C 
ATOM      5  N   UNL d   1      -0.583  -1.195  -0.063  0.00  0.00    -0.304 N 
ATOM      6  C   UNL d   1       2.910  -0.020  -0.039  0.00  0.00     0.091 A 
ATOM      7  C   UNL d   1       5.002  -0.657  -0.580  0.00  0.00     0.109 A 
ATOM      8  N   UNL d   1       3.632  -0.925  -0.690  0.00  0.00    -0.345 N 
ATOM      9  HN  UNL d   1       3.240  -1.714  -1.204  1.00  0.00     0.167 HD
ATOM     10  C   UNL d   1       0.796  -1.133  -0.018  0.00  0.00     0.116 C 
ATOM     11  S   UNL d   1       3.879   1.107   0.860  0.00  0.00    -0.081 SA
ATOM     12  C   UNL d   1       5.306   0.428   0.216  0.00  0.00     0.087 A 
ATOM     13  O   UNL d   1      -2.562  -0.101  -0.474  0.00  0.00    -0.246 OA
ATOM     14  O   UNL d   1       1.264   2.380   0.000  0.00  0.00    -0.267 OA
ENDROOT
BRANCH   1  15
ATOM     15  C   UNL d   1      -1.486   2.381  -0.045  0.00  0.00     0.175 C 
BRANCH  15  16
ATOM     16  C   UNL d   1      -2.123   2.612   1.311  0.00  0.00    -0.040 A 
ATOM     17  C   UNL d   1      -1.435   3.297   2.322  0.00  0.00     0.009 A 
ATOM     18  C   UNL d   1      -2.015   3.463   3.583  0.00  0.00     0.001 A 
ATOM     19  C   UNL d   1      -3.279   2.938   3.849  0.00  0.00     0.000 A 
ATOM     20  C   UNL d   1      -3.971   2.254   2.853  0.00  0.00     0.001 A 
ATOM     21  C   UNL d   1      -3.399   2.097   1.591  0.00  0.00     0.009 A 
ENDBRANCH  15  16
ENDBRANCH   1  15
BRANCH   5  22
ATOM     22  C   UNL d   1      -1.276  -2.502  -0.093  0.00  0.00     0.086 C 
ATOM     23  C   UNL d   1      -1.178  -3.154  -1.472  0.00  0.00     0.032 C 
ATOM     24  C   UNL d   1      -0.827  -3.455   1.018  0.00  0.00     0.032 C 
ENDBRANCH   5  22
BRANCH   7  25
ATOM     25  C   UNL d   1       6.012  -1.466  -1.269  0.00  0.00     0.282 C 
ATOM     26  O   UNL d   1       7.216  -1.223  -1.236  0.00  0.00    -0.265 OA
ATOM     27  N   UNL d   1       5.470  -2.544  -1.963  0.00  0.00    -0.288 N 
ATOM     28  H   UNL d   1       4.471  -2.721  -1.863  0.00  0.00     0.183 HD
BRANCH  27  29
ATOM     29  N   UNL d   1       6.310  -3.479  -2.610  0.00  0.00    -0.247 NA
ATOM     30  H   UNL d   1       7.273  -3.286  -2.301  0.00  0.00     0.143 HD
ATOM     31  H   UNL d   1       6.321  -3.252  -3.608  0.00  0.00     0.143 HD
ENDBRANCH  27  29
ENDBRANCH   7  25
TORSDOF 5
